MODEL 1
REMARK VINA RESULT:    -3.520      0.000      0.000
REMARK INTER + INTRA:          -4.744
REMARK INTER:                  -4.549
REMARK INTRA:                  -0.195
REMARK UNBOUND:                -0.195
REMARK SMILES CCCCCCC(=O)[O-]
REMARK SMILES IDX 5 1 6 2 7 3 8 4 9 5 4 6 3 7 2 8 1 9
REMARK H PARENT
REMARK Flexibility Score: inf
ROOT
ATOM      1  C   UNL     1      -4.467   2.701  -0.691  1.00  0.00     0.006 C 
ENDROOT
BRANCH   1   2
ATOM      2  C   UNL     1      -3.256   2.700   0.250  1.00  0.00     0.053 C 
BRANCH   2   3
ATOM      3  C   UNL     1      -3.331   3.856   1.197  1.00  0.00     0.041 C 
ATOM      4  O   UNL     1      -3.729   4.981   0.794  1.00  0.00    -0.550 OA
ATOM      5  O   UNL     1      -3.007   3.679   2.536  1.00  0.00    -0.550 OA
ENDBRANCH   2   3
ENDBRANCH   1   2
BRANCH   1   6
ATOM      6  C   UNL     1      -5.591   1.758  -0.223  1.00  0.00     0.000 C 
BRANCH   6   7
ATOM      7  C   UNL     1      -5.146   0.643   0.738  1.00  0.00    -0.000 C 
BRANCH   7   8
ATOM      8  C   UNL     1      -5.967  -0.646   0.582  1.00  0.00    -0.003 C 
ATOM      9  C   UNL     1      -5.059  -1.859   0.404  1.00  0.00     0.004 C 
ENDBRANCH   7   8
ENDBRANCH   6   7
ENDBRANCH   1   6
TORSDOF 5
ENDMDL
MODEL 2
REMARK VINA RESULT:    -3.466      0.328      1.127
REMARK INTER + INTRA:          -4.673
REMARK INTER:                  -4.449
REMARK INTRA:                  -0.225
REMARK UNBOUND:                -0.195
REMARK SMILES CCCCCCC(=O)[O-]
REMARK SMILES IDX 5 1 6 2 7 3 8 4 9 5 4 6 3 7 2 8 1 9
REMARK H PARENT
REMARK Flexibility Score: inf
ROOT
ATOM      1  C   UNL     1      -4.692   2.616  -0.624  1.00  0.00     0.006 C 
ENDROOT
BRANCH   1   2
ATOM      2  C   UNL     1      -3.556   2.425   0.389  1.00  0.00     0.053 C 
BRANCH   2   3
ATOM      3  C   UNL     1      -3.381   3.659   1.216  1.00  0.00     0.041 C 
ATOM      4  O   UNL     1      -2.864   3.586   2.362  1.00  0.00    -0.550 OA
ATOM      5  O   UNL     1      -3.743   4.898   0.702  1.00  0.00    -0.550 OA
ENDBRANCH   2   3
ENDBRANCH   1   2
BRANCH   1   6
ATOM      6  C   UNL     1      -5.884   1.675  -0.374  1.00  0.00     0.000 C 
BRANCH   6   7
ATOM      7  C   UNL     1      -5.726   0.732   0.832  1.00  0.00    -0.000 C 
BRANCH   7   8
ATOM      8  C   UNL     1      -6.261  -0.681   0.561  1.00  0.00    -0.003 C 
ATOM      9  C   UNL     1      -5.130  -1.705   0.547  1.00  0.00     0.004 C 
ENDBRANCH   7   8
ENDBRANCH   6   7
ENDBRANCH   1   6
TORSDOF 5
ENDMDL
MODEL 3
REMARK VINA RESULT:    -3.433      1.584      2.443
REMARK INTER + INTRA:          -4.631
REMARK INTER:                  -4.296
REMARK INTRA:                  -0.335
REMARK UNBOUND:                -0.195
REMARK SMILES CCCCCCC(=O)[O-]
REMARK SMILES IDX 5 1 6 2 7 3 8 4 9 5 4 6 3 7 2 8 1 9
REMARK H PARENT
REMARK Flexibility Score: inf
ROOT
ATOM      1  C   UNL     1      -2.975   3.041   1.229  1.00  0.00     0.006 C 
ENDROOT
BRANCH   1   2
ATOM      2  C   UNL     1      -3.925   4.169   1.649  1.00  0.00     0.053 C 
BRANCH   2   3
ATOM      3  C   UNL     1      -4.501   3.891   3.002  1.00  0.00     0.041 C 
ATOM      4  O   UNL     1      -4.063   4.499   4.014  1.00  0.00    -0.550 OA
ATOM      5  O   UNL     1      -5.555   2.997   3.139  1.00  0.00    -0.550 OA
ENDBRANCH   2   3
ENDBRANCH   1   2
BRANCH   1   6
ATOM      6  C   UNL     1      -3.433   2.315  -0.049  1.00  0.00     0.000 C 
BRANCH   6   7
ATOM      7  C   UNL     1      -4.875   2.623  -0.490  1.00  0.00    -0.000 C 
BRANCH   7   8
ATOM      8  C   UNL     1      -5.848   1.470  -0.203  1.00  0.00    -0.003 C 
ATOM      9  C   UNL     1      -5.152   0.336   0.543  1.00  0.00     0.004 C 
ENDBRANCH   7   8
ENDBRANCH   6   7
ENDBRANCH   1   6
TORSDOF 5
ENDMDL
MODEL 4
REMARK VINA RESULT:    -3.385      1.860      2.598
REMARK INTER + INTRA:          -4.569
REMARK INTER:                  -4.223
REMARK INTRA:                  -0.346
REMARK UNBOUND:                -0.195
REMARK SMILES CCCCCCC(=O)[O-]
REMARK SMILES IDX 5 1 6 2 7 3 8 4 9 5 4 6 3 7 2 8 1 9
REMARK H PARENT
REMARK Flexibility Score: inf
ROOT
ATOM      1  C   UNL     1      -3.067   2.938   1.208  1.00  0.00     0.006 C 
ENDROOT
BRANCH   1   2
ATOM      2  C   UNL     1      -3.830   4.222   1.554  1.00  0.00     0.053 C 
BRANCH   2   3
ATOM      3  C   UNL     1      -4.480   4.097   2.896  1.00  0.00     0.041 C 
ATOM      4  O   UNL     1      -5.369   3.227   3.091  1.00  0.00    -0.550 OA
ATOM      5  O   UNL     1      -4.069   4.908   3.946  1.00  0.00    -0.550 OA
ENDBRANCH   2   3
ENDBRANCH   1   2
BRANCH   1   6
ATOM      6  C   UNL     1      -3.701   2.160   0.040  1.00  0.00     0.000 C 
BRANCH   6   7
ATOM      7  C   UNL     1      -4.716   1.080   0.454  1.00  0.00    -0.000 C 
BRANCH   7   8
ATOM      8  C   UNL     1      -6.095   1.275  -0.194  1.00  0.00    -0.003 C 
ATOM      9  C   UNL     1      -6.098   2.483  -1.126  1.00  0.00     0.004 C 
ENDBRANCH   7   8
ENDBRANCH   6   7
ENDBRANCH   1   6
TORSDOF 5
ENDMDL
MODEL 5
REMARK VINA RESULT:    -3.294      1.373      1.606
REMARK INTER + INTRA:          -4.451
REMARK INTER:                  -4.228
REMARK INTRA:                  -0.223
REMARK UNBOUND:                -0.195
REMARK SMILES CCCCCCC(=O)[O-]
REMARK SMILES IDX 5 1 6 2 7 3 8 4 9 5 4 6 3 7 2 8 1 9
REMARK H PARENT
REMARK Flexibility Score: inf
ROOT
ATOM      1  C   UNL     1      -5.577   3.339   0.773  1.00  0.00     0.006 C 
ENDROOT
BRANCH   1   2
ATOM      2  C   UNL     1      -5.264   2.996   2.234  1.00  0.00     0.053 C 
BRANCH   2   3
ATOM      3  C   UNL     1      -4.060   3.753   2.702  1.00  0.00     0.041 C 
ATOM      4  O   UNL     1      -2.991   3.714   2.039  1.00  0.00    -0.550 OA
ATOM      5  O   UNL     1      -4.135   4.541   3.843  1.00  0.00    -0.550 OA
ENDBRANCH   2   3
ENDBRANCH   1   2
BRANCH   1   6
ATOM      6  C   UNL     1      -5.286   2.177  -0.193  1.00  0.00     0.000 C 
BRANCH   6   7
ATOM      7  C   UNL     1      -4.805   0.879   0.480  1.00  0.00    -0.000 C 
BRANCH   7   8
ATOM      8  C   UNL     1      -5.887  -0.211   0.520  1.00  0.00    -0.003 C 
ATOM      9  C   UNL     1      -5.298  -1.555   0.937  1.00  0.00     0.004 C 
ENDBRANCH   7   8
ENDBRANCH   6   7
ENDBRANCH   1   6
TORSDOF 5
ENDMDL
MODEL 6
REMARK VINA RESULT:    -3.209      1.388      2.006
REMARK INTER + INTRA:          -4.341
REMARK INTER:                  -4.127
REMARK INTRA:                  -0.214
REMARK UNBOUND:                -0.195
REMARK SMILES CCCCCCC(=O)[O-]
REMARK SMILES IDX 5 1 6 2 7 3 8 4 9 5 4 6 3 7 2 8 1 9
REMARK H PARENT
REMARK Flexibility Score: inf
ROOT
ATOM      1  C   UNL     1      -3.540   2.203   0.412  1.00  0.00     0.006 C 
ENDROOT
BRANCH   1   2
ATOM      2  C   UNL     1      -3.717   3.716   0.231  1.00  0.00     0.053 C 
BRANCH   2   3
ATOM      3  C   UNL     1      -3.405   4.434   1.506  1.00  0.00     0.041 C 
ATOM      4  O   UNL     1      -3.435   3.818   2.604  1.00  0.00    -0.550 OA
ATOM      5  O   UNL     1      -3.034   5.772   1.478  1.00  0.00    -0.550 OA
ENDBRANCH   2   3
ENDBRANCH   1   2
BRANCH   1   6
ATOM      6  C   UNL     1      -4.834   1.412   0.147  1.00  0.00     0.000 C 
BRANCH   6   7
ATOM      7  C   UNL     1      -5.881   2.146  -0.708  1.00  0.00    -0.000 C 
BRANCH   7   8
ATOM      8  C   UNL     1      -7.250   1.448  -0.709  1.00  0.00    -0.003 C 
ATOM      9  C   UNL     1      -7.188   0.118   0.036  1.00  0.00     0.004 C 
ENDBRANCH   7   8
ENDBRANCH   6   7
ENDBRANCH   1   6
TORSDOF 5
ENDMDL
MODEL 7
REMARK VINA RESULT:    -3.204      1.952      3.040
REMARK INTER + INTRA:          -4.335
REMARK INTER:                  -4.023
REMARK INTRA:                  -0.312
REMARK UNBOUND:                -0.195
REMARK SMILES CCCCCCC(=O)[O-]
REMARK SMILES IDX 5 1 6 2 7 3 8 4 9 5 4 6 3 7 2 8 1 9
REMARK H PARENT
REMARK Flexibility Score: inf
ROOT
ATOM      1  C   UNL     1      -5.972   3.145   1.836  1.00  0.00     0.006 C 
ENDROOT
BRANCH   1   2
ATOM      2  C   UNL     1      -5.724   3.453   3.317  1.00  0.00     0.053 C 
BRANCH   2   3
ATOM      3  C   UNL     1      -4.400   4.127   3.496  1.00  0.00     0.041 C 
ATOM      4  O   UNL     1      -3.452   3.881   2.706  1.00  0.00    -0.550 OA
ATOM      5  O   UNL     1      -4.229   5.064   4.507  1.00  0.00    -0.550 OA
ENDBRANCH   2   3
ENDBRANCH   1   2
BRANCH   1   6
ATOM      6  C   UNL     1      -5.979   1.636   1.529  1.00  0.00     0.000 C 
BRANCH   6   7
ATOM      7  C   UNL     1      -5.124   1.214   0.321  1.00  0.00    -0.000 C 
BRANCH   7   8
ATOM      8  C   UNL     1      -4.602   2.410  -0.490  1.00  0.00    -0.003 C 
ATOM      9  C   UNL     1      -3.078   2.476  -0.453  1.00  0.00     0.004 C 
ENDBRANCH   7   8
ENDBRANCH   6   7
ENDBRANCH   1   6
TORSDOF 5
ENDMDL
MODEL 8
REMARK VINA RESULT:    -3.145      1.539      2.231
REMARK INTER + INTRA:          -4.259
REMARK INTER:                  -3.954
REMARK INTRA:                  -0.306
REMARK UNBOUND:                -0.195
REMARK SMILES CCCCCCC(=O)[O-]
REMARK SMILES IDX 5 1 6 2 7 3 8 4 9 5 4 6 3 7 2 8 1 9
REMARK H PARENT
REMARK Flexibility Score: inf
ROOT
ATOM      1  C   UNL     1      -3.317   2.457  -0.056  1.00  0.00     0.006 C 
ENDROOT
BRANCH   1   2
ATOM      2  C   UNL     1      -3.859   3.881   0.118  1.00  0.00     0.053 C 
BRANCH   2   3
ATOM      3  C   UNL     1      -3.378   4.469   1.407  1.00  0.00     0.041 C 
ATOM      4  O   UNL     1      -3.248   3.741   2.426  1.00  0.00    -0.550 OA
ATOM      5  O   UNL     1      -3.025   5.811   1.470  1.00  0.00    -0.550 OA
ENDBRANCH   2   3
ENDBRANCH   1   2
BRANCH   1   6
ATOM      6  C   UNL     1      -4.346   1.374   0.316  1.00  0.00     0.000 C 
BRANCH   6   7
ATOM      7  C   UNL     1      -5.771   1.623  -0.210  1.00  0.00    -0.000 C 
BRANCH   7   8
ATOM      8  C   UNL     1      -6.854   1.357   0.847  1.00  0.00    -0.003 C 
ATOM      9  C   UNL     1      -6.605   2.180   2.108  1.00  0.00     0.004 C 
ENDBRANCH   7   8
ENDBRANCH   6   7
ENDBRANCH   1   6
TORSDOF 5
ENDMDL
MODEL 9
REMARK VINA RESULT:    -3.119      8.267      9.383
REMARK INTER + INTRA:          -4.225
REMARK INTER:                  -4.071
REMARK INTRA:                  -0.154
REMARK UNBOUND:                -0.195
REMARK SMILES CCCCCCC(=O)[O-]
REMARK SMILES IDX 5 1 6 2 7 3 8 4 9 5 4 6 3 7 2 8 1 9
REMARK H PARENT
REMARK Flexibility Score: inf
ROOT
ATOM      1  C   UNL     1      -1.331  -5.158   5.091  1.00  0.00     0.006 C 
ENDROOT
BRANCH   1   2
ATOM      2  C   UNL     1      -0.649  -6.319   4.356  1.00  0.00     0.053 C 
BRANCH   2   3
ATOM      3  C   UNL     1       0.565  -5.834   3.627  1.00  0.00     0.041 C 
ATOM      4  O   UNL     1       1.533  -5.344   4.265  1.00  0.00    -0.550 OA
ATOM      5  O   UNL     1       0.647  -5.970   2.247  1.00  0.00    -0.550 OA
ENDBRANCH   2   3
ENDBRANCH   1   2
BRANCH   1   6
ATOM      6  C   UNL     1      -2.727  -4.832   4.532  1.00  0.00     0.000 C 
BRANCH   6   7
ATOM      7  C   UNL     1      -3.359  -3.538   5.076  1.00  0.00    -0.000 C 
BRANCH   7   8
ATOM      8  C   UNL     1      -2.668  -3.024   6.348  1.00  0.00    -0.003 C 
ATOM      9  C   UNL     1      -3.691  -2.561   7.381  1.00  0.00     0.004 C 
ENDBRANCH   7   8
ENDBRANCH   6   7
ENDBRANCH   1   6
TORSDOF 5
ENDMDL
