MODEL 1
REMARK VINA RESULT:    -3.368      0.000      0.000
REMARK INTER + INTRA:          -3.769
REMARK INTER:                  -3.762
REMARK INTRA:                  -0.007
REMARK UNBOUND:                -0.007
REMARK SMILES CCCC(=O)[O-]
REMARK SMILES IDX 3 1 4 2 5 3 6 4 2 5 1 6
REMARK H PARENT
REMARK Flexibility Score: inf
ROOT
ATOM      1  C   UNL     1      -3.552   2.735   2.834  1.00  0.00     0.052 C 
ENDROOT
BRANCH   1   2
ATOM      2  C   UNL     1      -3.319   2.082   4.163  1.00  0.00     0.041 C 
ATOM      3  O   UNL     1      -3.971   2.455   5.174  1.00  0.00    -0.550 OA
ATOM      4  O   UNL     1      -2.407   1.041   4.277  1.00  0.00    -0.550 OA
ENDBRANCH   1   2
BRANCH   1   5
ATOM      5  C   UNL     1      -3.498   4.265   2.935  1.00  0.00     0.003 C 
ATOM      6  C   UNL     1      -3.704   4.945   1.582  1.00  0.00     0.004 C 
ENDBRANCH   1   5
TORSDOF 2
ENDMDL
MODEL 2
REMARK VINA RESULT:    -3.350      1.043      1.262
REMARK INTER + INTRA:          -3.748
REMARK INTER:                  -3.739
REMARK INTRA:                  -0.010
REMARK UNBOUND:                -0.007
REMARK SMILES CCCC(=O)[O-]
REMARK SMILES IDX 3 1 4 2 5 3 6 4 2 5 1 6
REMARK H PARENT
REMARK Flexibility Score: inf
ROOT
ATOM      1  C   UNL     1      -3.421   3.410   3.824  1.00  0.00     0.052 C 
ENDROOT
BRANCH   1   2
ATOM      2  C   UNL     1      -3.248   1.926   3.935  1.00  0.00     0.041 C 
ATOM      3  O   UNL     1      -3.713   1.166   3.045  1.00  0.00    -0.550 OA
ATOM      4  O   UNL     1      -2.543   1.385   5.003  1.00  0.00    -0.550 OA
ENDBRANCH   1   2
BRANCH   1   5
ATOM      5  C   UNL     1      -3.656   3.849   2.373  1.00  0.00     0.003 C 
ATOM      6  C   UNL     1      -3.471   5.353   2.181  1.00  0.00     0.004 C 
ENDBRANCH   1   5
TORSDOF 2
ENDMDL
MODEL 3
REMARK VINA RESULT:    -2.916      2.641      3.634
REMARK INTER + INTRA:          -3.264
REMARK INTER:                  -3.259
REMARK INTRA:                  -0.005
REMARK UNBOUND:                -0.007
REMARK SMILES CCCC(=O)[O-]
REMARK SMILES IDX 3 1 4 2 5 3 6 4 2 5 1 6
REMARK H PARENT
REMARK Flexibility Score: inf
ROOT
ATOM      1  C   UNL     1      -3.346   3.064   2.587  1.00  0.00     0.052 C 
ENDROOT
BRANCH   1   2
ATOM      2  C   UNL     1      -3.868   4.436   2.284  1.00  0.00     0.041 C 
ATOM      3  O   UNL     1      -3.074   5.409   2.192  1.00  0.00    -0.550 OA
ATOM      4  O   UNL     1      -5.226   4.633   2.071  1.00  0.00    -0.550 OA
ENDBRANCH   1   2
BRANCH   1   5
ATOM      5  C   UNL     1      -3.612   2.663   4.043  1.00  0.00     0.003 C 
ATOM      6  C   UNL     1      -3.219   1.214   4.329  1.00  0.00     0.004 C 
ENDBRANCH   1   5
TORSDOF 2
ENDMDL
MODEL 4
REMARK VINA RESULT:    -2.283      4.184      4.949
REMARK INTER + INTRA:          -2.557
REMARK INTER:                  -2.551
REMARK INTRA:                  -0.006
REMARK UNBOUND:                -0.007
REMARK SMILES CCCC(=O)[O-]
REMARK SMILES IDX 3 1 4 2 5 3 6 4 2 5 1 6
REMARK H PARENT
REMARK Flexibility Score: inf
ROOT
ATOM      1  C   UNL     1      -4.518   5.390   1.370  1.00  0.00     0.052 C 
ENDROOT
BRANCH   1   2
ATOM      2  C   UNL     1      -3.995   6.263   0.270  1.00  0.00     0.041 C 
ATOM      3  O   UNL     1      -3.612   7.436   0.521  1.00  0.00    -0.550 OA
ATOM      4  O   UNL     1      -3.900   5.769  -1.025  1.00  0.00    -0.550 OA
ENDBRANCH   1   2
BRANCH   1   5
ATOM      5  C   UNL     1      -3.389   4.879   2.275  1.00  0.00     0.003 C 
ATOM      6  C   UNL     1      -3.638   3.453   2.767  1.00  0.00     0.004 C 
ENDBRANCH   1   5
TORSDOF 2
ENDMDL
MODEL 5
REMARK VINA RESULT:    -2.109      3.681      4.517
REMARK INTER + INTRA:          -2.363
REMARK INTER:                  -2.311
REMARK INTRA:                  -0.052
REMARK UNBOUND:                -0.007
REMARK SMILES CCCC(=O)[O-]
REMARK SMILES IDX 3 1 4 2 5 3 6 4 2 5 1 6
REMARK H PARENT
REMARK Flexibility Score: inf
ROOT
ATOM      1  C   UNL     1      -4.021   5.388   1.097  1.00  0.00     0.052 C 
ENDROOT
BRANCH   1   2
ATOM      2  C   UNL     1      -5.452   5.773   1.322  1.00  0.00     0.041 C 
ATOM      3  O   UNL     1      -6.380   5.076   0.834  1.00  0.00    -0.550 OA
ATOM      4  O   UNL     1      -5.760   6.883   2.099  1.00  0.00    -0.550 OA
ENDBRANCH   1   2
BRANCH   1   5
ATOM      5  C   UNL     1      -3.346   4.926   2.394  1.00  0.00     0.003 C 
ATOM      6  C   UNL     1      -3.672   3.472   2.735  1.00  0.00     0.004 C 
ENDBRANCH   1   5
TORSDOF 2
ENDMDL
MODEL 6
REMARK VINA RESULT:    -2.042      4.500      5.443
REMARK INTER + INTRA:          -2.288
REMARK INTER:                  -2.282
REMARK INTRA:                  -0.006
REMARK UNBOUND:                -0.007
REMARK SMILES CCCC(=O)[O-]
REMARK SMILES IDX 3 1 4 2 5 3 6 4 2 5 1 6
REMARK H PARENT
REMARK Flexibility Score: inf
ROOT
ATOM      1  C   UNL     1      -3.456   6.688   2.273  1.00  0.00     0.052 C 
ENDROOT
BRANCH   1   2
ATOM      2  C   UNL     1      -2.891   7.679   1.301  1.00  0.00     0.041 C 
ATOM      3  O   UNL     1      -1.825   8.294   1.572  1.00  0.00    -0.550 OA
ATOM      4  O   UNL     1      -3.522   7.898   0.083  1.00  0.00    -0.550 OA
ENDBRANCH   1   2
BRANCH   1   5
ATOM      5  C   UNL     1      -3.784   5.351   1.596  1.00  0.00     0.003 C 
ATOM      6  C   UNL     1      -3.533   4.156   2.515  1.00  0.00     0.004 C 
ENDBRANCH   1   5
TORSDOF 2
ENDMDL
MODEL 7
REMARK VINA RESULT:    -2.018      6.254      6.624
REMARK INTER + INTRA:          -2.261
REMARK INTER:                  -2.227
REMARK INTRA:                  -0.034
REMARK UNBOUND:                -0.007
REMARK SMILES CCCC(=O)[O-]
REMARK SMILES IDX 3 1 4 2 5 3 6 4 2 5 1 6
REMARK H PARENT
REMARK Flexibility Score: inf
ROOT
ATOM      1  C   UNL     1      -2.234   4.574   8.761  1.00  0.00     0.052 C 
ENDROOT
BRANCH   1   2
ATOM      2  C   UNL     1      -3.321   4.613   9.791  1.00  0.00     0.041 C 
ATOM      3  O   UNL     1      -4.394   5.231   9.557  1.00  0.00    -0.550 OA
ATOM      4  O   UNL     1      -3.164   3.939  10.995  1.00  0.00    -0.550 OA
ENDBRANCH   1   2
BRANCH   1   5
ATOM      5  C   UNL     1      -1.046   5.462   9.153  1.00  0.00     0.003 C 
ATOM      6  C   UNL     1      -1.078   6.820   8.453  1.00  0.00     0.004 C 
ENDBRANCH   1   5
TORSDOF 2
ENDMDL
MODEL 8
REMARK VINA RESULT:    -1.989      6.136      6.839
REMARK INTER + INTRA:          -2.229
REMARK INTER:                  -2.220
REMARK INTRA:                  -0.009
REMARK UNBOUND:                -0.007
REMARK SMILES CCCC(=O)[O-]
REMARK SMILES IDX 3 1 4 2 5 3 6 4 2 5 1 6
REMARK H PARENT
REMARK Flexibility Score: inf
ROOT
ATOM      1  C   UNL     1      -1.242   6.556   8.577  1.00  0.00     0.052 C 
ENDROOT
BRANCH   1   2
ATOM      2  C   UNL     1      -2.573   6.014   8.154  1.00  0.00     0.041 C 
ATOM      3  O   UNL     1      -3.419   6.769   7.606  1.00  0.00    -0.550 OA
ATOM      4  O   UNL     1      -2.867   4.668   8.335  1.00  0.00    -0.550 OA
ENDBRANCH   1   2
BRANCH   1   5
ATOM      5  C   UNL     1      -0.446   5.533   9.399  1.00  0.00     0.003 C 
ATOM      6  C   UNL     1       0.989   5.986   9.661  1.00  0.00     0.004 C 
ENDBRANCH   1   5
TORSDOF 2
ENDMDL
MODEL 9
REMARK VINA RESULT:    -1.976      5.985      6.851
REMARK INTER + INTRA:          -2.214
REMARK INTER:                  -2.209
REMARK INTRA:                  -0.005
REMARK UNBOUND:                -0.007
REMARK SMILES CCCC(=O)[O-]
REMARK SMILES IDX 3 1 4 2 5 3 6 4 2 5 1 6
REMARK H PARENT
REMARK Flexibility Score: inf
ROOT
ATOM      1  C   UNL     1      -2.160   7.737   7.622  1.00  0.00     0.052 C 
ENDROOT
BRANCH   1   2
ATOM      2  C   UNL     1      -3.567   7.434   7.205  1.00  0.00     0.041 C 
ATOM      3  O   UNL     1      -3.824   7.143   6.007  1.00  0.00    -0.550 OA
ATOM      4  O   UNL     1      -4.588   7.440   8.147  1.00  0.00    -0.550 OA
ENDBRANCH   1   2
BRANCH   1   5
ATOM      5  C   UNL     1      -1.552   6.595   8.446  1.00  0.00     0.003 C 
ATOM      6  C   UNL     1      -0.146   6.923   8.947  1.00  0.00     0.004 C 
ENDBRANCH   1   5
TORSDOF 2
ENDMDL
