MODEL 1
REMARK VINA RESULT:    55.954      0.000      0.000
REMARK INTER + INTRA:          83.888
REMARK INTER:                  82.122
REMARK INTRA:                   1.766
REMARK UNBOUND:                 1.766
REMARK SMILES Cc1cc2c(C(C)C)c(O)c(O)c(C=O)c2c(O)c1-c1c(C)cc2c(C(C)C)c(O)c(O)c(C=O)c2c1O
REMARK SMILES IDX 1 1 2 2 3 3 4 4 16 5 13 6 11 7 9 8 5 9 17 10 19 11 20 12
REMARK SMILES IDX 37 13 21 14 36 15 23 16 22 17 24 18 33 19 25 20 31 21 29 22
REMARK SMILES IDX 38 23 34 25 35 26 26 27 27 28 28 29 32 30 30 32 18 34 6 36
REMARK SMILES IDX 7 37 8 38 14 39 15 40 10 41 12 43
REMARK H PARENT 38 24 32 31 30 33 18 35 10 42 12 44
REMARK Flexibility Score: inf
ROOT
ATOM      1  C   UNL     1      58.676   8.878  52.691  1.00  0.00     0.045 C 
ATOM      2  C   UNL     1      58.691  10.336  53.084  1.00  0.00    -0.039 A 
ATOM      3  C   UNL     1      59.767  10.836  53.819  1.00  0.00     0.013 A 
ATOM      4  C   UNL     1      59.819  12.182  54.246  1.00  0.00    -0.006 A 
ATOM      5  C   UNL     1      58.769  13.067  53.856  1.00  0.00     0.039 A 
ATOM      6  C   UNL     1      58.833  14.433  54.262  1.00  0.00     0.072 A 
ATOM      7  C   UNL     1      59.998  14.928  54.875  1.00  0.00     0.169 A 
ATOM      8  C   UNL     1      61.067  14.066  55.171  1.00  0.00     0.162 A 
ATOM      9  C   UNL     1      60.921  12.670  55.016  1.00  0.00     0.008 A 
ATOM     10  C   UNL     1      57.712  12.569  53.034  1.00  0.00     0.132 A 
ATOM     11  C   UNL     1      57.664  11.203  52.681  1.00  0.00     0.031 A 
ENDROOT
BRANCH  11  12
ATOM     12  C   UNL     1      56.549  10.684  51.845  1.00  0.00     0.031 A 
ATOM     13  C   UNL     1      56.564  10.873  50.446  1.00  0.00     0.132 A 
ATOM     14  C   UNL     1      55.489   9.991  52.451  1.00  0.00    -0.039 A 
ATOM     15  C   UNL     1      55.507  10.357  49.636  1.00  0.00     0.039 A 
ATOM     16  C   UNL     1      54.420   9.551  51.669  1.00  0.00     0.013 A 
ATOM     17  C   UNL     1      55.494   9.698  53.932  1.00  0.00     0.045 C 
ATOM     18  C   UNL     1      54.368   9.785  50.279  1.00  0.00    -0.006 A 
ATOM     19  C   UNL     1      55.544  10.401  48.210  1.00  0.00     0.072 A 
ATOM     20  C   UNL     1      53.213   9.436  49.514  1.00  0.00     0.008 A 
ATOM     21  C   UNL     1      54.468   9.874  47.464  1.00  0.00     0.169 A 
ATOM     22  C   UNL     1      53.319   9.405  48.108  1.00  0.00     0.162 A 
BRANCH  13  23
ATOM     23  O   UNL     1      57.614  11.594  49.867  1.00  0.00    -0.507 OA
ATOM     24  H   UNL     1      57.488  12.320  49.174  1.00  0.00     0.293 HD
ENDBRANCH  13  23
BRANCH  19  25
ATOM     25  C   UNL     1      56.722  10.903  47.472  1.00  0.00     0.264 C 
ATOM     26  O   UNL     1      57.839  10.332  47.585  1.00  0.00    -0.298 OA
ENDBRANCH  19  25
BRANCH  20  27
ATOM     27  C   UNL     1      51.874   9.086  50.188  1.00  0.00     0.017 C 
ATOM     28  C   UNL     1      50.760   8.934  49.149  1.00  0.00     0.012 C 
ATOM     29  C   UNL     1      51.470  10.066  51.305  1.00  0.00     0.012 C 
ENDBRANCH  20  27
BRANCH  21  30
ATOM     30  O   UNL     1      54.519   9.787  46.067  1.00  0.00    -0.504 OA
ATOM     31  H   UNL     1      53.757   9.452  45.491  1.00  0.00     0.293 HD
ENDBRANCH  21  30
BRANCH  22  32
ATOM     32  O   UNL     1      52.276   8.876  47.343  1.00  0.00    -0.504 OA
ATOM     33  H   UNL     1      51.722   9.432  46.702  1.00  0.00     0.293 HD
ENDBRANCH  22  32
ENDBRANCH  11  12
BRANCH  10  34
ATOM     34  O   UNL     1      56.737  13.438  52.532  1.00  0.00    -0.507 OA
ATOM     35  H   UNL     1      56.943  14.305  52.054  1.00  0.00     0.293 HD
ENDBRANCH  10  34
BRANCH   9  36
ATOM     36  C   UNL     1      61.970  11.722  55.624  1.00  0.00     0.017 C 
ATOM     37  C   UNL     1      63.338  11.923  54.966  1.00  0.00     0.012 C 
ATOM     38  C   UNL     1      62.070  11.807  57.159  1.00  0.00     0.012 C 
ENDBRANCH   9  36
BRANCH   6  39
ATOM     39  C   UNL     1      57.674  15.350  54.135  1.00  0.00     0.264 C 
ATOM     40  O   UNL     1      56.493  14.928  54.252  1.00  0.00    -0.298 OA
ENDBRANCH   6  39
BRANCH   8  41
ATOM     41  O   UNL     1      62.291  14.578  55.610  1.00  0.00    -0.504 OA
ATOM     42  H   UNL     1      62.467  15.558  55.783  1.00  0.00     0.293 HD
ENDBRANCH   8  41
BRANCH   7  43
ATOM     43  O   UNL     1      60.048  16.282  55.231  1.00  0.00    -0.504 OA
ATOM     44  H   UNL     1      60.743  16.931  54.891  1.00  0.00     0.293 HD
ENDBRANCH   7  43
TORSDOF 11
ENDMDL
MODEL 2
REMARK VINA RESULT:    56.467      0.825      9.176
REMARK INTER + INTRA:          84.642
REMARK INTER:                  83.736
REMARK INTRA:                   0.906
REMARK UNBOUND:                 1.766
REMARK SMILES Cc1cc2c(C(C)C)c(O)c(O)c(C=O)c2c(O)c1-c1c(C)cc2c(C(C)C)c(O)c(O)c(C=O)c2c1O
REMARK SMILES IDX 1 1 2 2 3 3 4 4 16 5 13 6 11 7 9 8 5 9 17 10 19 11 20 12
REMARK SMILES IDX 37 13 21 14 36 15 23 16 22 17 24 18 33 19 25 20 31 21 29 22
REMARK SMILES IDX 38 23 34 25 35 26 26 27 27 28 28 29 32 30 30 32 18 34 6 36
REMARK SMILES IDX 7 37 8 38 14 39 15 40 10 41 12 43
REMARK H PARENT 38 24 32 31 30 33 18 35 10 42 12 44
REMARK Flexibility Score: inf
ROOT
ATOM      1  C   UNL     1      55.301  11.311  53.814  1.00  0.00     0.045 C 
ATOM      2  C   UNL     1      55.521  11.007  52.351  1.00  0.00    -0.039 A 
ATOM      3  C   UNL     1      54.432  10.656  51.553  1.00  0.00     0.013 A 
ATOM      4  C   UNL     1      54.581  10.326  50.187  1.00  0.00    -0.006 A 
ATOM      5  C   UNL     1      55.877  10.421  49.596  1.00  0.00     0.039 A 
ATOM      6  C   UNL     1      56.027  10.116  48.211  1.00  0.00     0.072 A 
ATOM      7  C   UNL     1      54.887   9.907  47.412  1.00  0.00     0.169 A 
ATOM      8  C   UNL     1      53.606   9.908  47.988  1.00  0.00     0.162 A 
ATOM      9  C   UNL     1      53.455   9.949  49.391  1.00  0.00     0.008 A 
ATOM     10  C   UNL     1      56.974  10.861  50.398  1.00  0.00     0.132 A 
ATOM     11  C   UNL     1      56.795  11.121  51.774  1.00  0.00     0.031 A 
ENDROOT
BRANCH  11  12
ATOM     12  C   UNL     1      57.945  11.555  52.610  1.00  0.00     0.031 A 
ATOM     13  C   UNL     1      58.020  12.885  53.076  1.00  0.00     0.132 A 
ATOM     14  C   UNL     1      58.949  10.634  52.948  1.00  0.00    -0.039 A 
ATOM     15  C   UNL     1      59.110  13.303  53.899  1.00  0.00     0.039 A 
ATOM     16  C   UNL     1      60.052  11.059  53.689  1.00  0.00     0.013 A 
ATOM     17  C   UNL     1      58.848   9.184  52.537  1.00  0.00     0.045 C 
ATOM     18  C   UNL     1      60.194  12.398  54.111  1.00  0.00    -0.006 A 
ATOM     19  C   UNL     1      59.161  14.593  54.508  1.00  0.00     0.072 A 
ATOM     20  C   UNL     1      61.384  12.844  54.763  1.00  0.00     0.008 A 
ATOM     21  C   UNL     1      60.266  14.948  55.310  1.00  0.00     0.169 A 
ATOM     22  C   UNL     1      61.362  14.087  55.431  1.00  0.00     0.162 A 
BRANCH  13  23
ATOM     23  O   UNL     1      57.025  13.796  52.703  1.00  0.00    -0.507 OA
ATOM     24  H   UNL     1      56.709  13.930  51.751  1.00  0.00     0.293 HD
ENDBRANCH  13  23
BRANCH  19  25
ATOM     25  C   UNL     1      58.042  15.554  54.400  1.00  0.00     0.264 C 
ATOM     26  O   UNL     1      57.967  16.342  53.421  1.00  0.00    -0.298 OA
ENDBRANCH  19  25
BRANCH  20  27
ATOM     27  C   UNL     1      62.670  11.999  54.763  1.00  0.00     0.017 C 
ATOM     28  C   UNL     1      62.911  11.367  56.137  1.00  0.00     0.012 C 
ATOM     29  C   UNL     1      63.912  12.765  54.271  1.00  0.00     0.012 C 
ENDBRANCH  20  27
BRANCH  21  30
ATOM     30  O   UNL     1      60.298  16.153  56.022  1.00  0.00    -0.504 OA
ATOM     31  H   UNL     1      60.830  16.297  56.870  1.00  0.00     0.293 HD
ENDBRANCH  21  30
BRANCH  22  32
ATOM     32  O   UNL     1      62.436  14.459  56.244  1.00  0.00    -0.504 OA
ATOM     33  H   UNL     1      62.914  13.811  56.859  1.00  0.00     0.293 HD
ENDBRANCH  22  32
ENDBRANCH  11  12
BRANCH  10  34
ATOM     34  O   UNL     1      58.229  11.084  49.820  1.00  0.00    -0.507 OA
ATOM     35  H   UNL     1      58.423  10.982  48.832  1.00  0.00     0.293 HD
ENDBRANCH  10  34
BRANCH   9  36
ATOM     36  C   UNL     1      52.083   9.643  50.019  1.00  0.00     0.017 C 
ATOM     37  C   UNL     1      51.182   8.897  49.030  1.00  0.00     0.012 C 
ATOM     38  C   UNL     1      52.166   8.903  51.368  1.00  0.00     0.012 C 
ENDBRANCH   9  36
BRANCH   6  39
ATOM     39  C   UNL     1      57.356   9.928  47.581  1.00  0.00     0.264 C 
ATOM     40  O   UNL     1      57.588  10.339  46.413  1.00  0.00    -0.298 OA
ENDBRANCH   6  39
BRANCH   8  41
ATOM     41  O   UNL     1      52.465   9.884  47.181  1.00  0.00    -0.504 OA
ATOM     42  H   UNL     1      51.532  10.082  47.513  1.00  0.00     0.293 HD
ENDBRANCH   8  41
BRANCH   7  43
ATOM     43  O   UNL     1      55.060   9.645  46.047  1.00  0.00    -0.504 OA
ATOM     44  H   UNL     1      54.346   9.255  45.450  1.00  0.00     0.293 HD
ENDBRANCH   7  43
TORSDOF 11
ENDMDL
