MODEL 1
REMARK VINA RESULT:    -5.747      0.000      0.000
REMARK INTER + INTRA:          -6.083
REMARK INTER:                  -6.083
REMARK INTRA:                   0.000
REMARK UNBOUND:                 0.000
REMARK SMILES O=c1ccc2cc(O)c(O)cc2o1
REMARK SMILES IDX 4 1 3 2 2 3 1 4 13 5 12 6 11 7 9 8 7 9 6 10 5 11 8 12 10 14
REMARK H PARENT 8 13 10 15
REMARK Flexibility Score: inf
ROOT
ATOM      1  C   UNL     1      30.794  22.749  48.625  1.00  0.00     0.019 A 
ATOM      2  C   UNL     1      31.186  23.587  47.581  1.00  0.00     0.094 A 
ATOM      3  C   UNL     1      30.270  24.522  47.083  1.00  0.00     0.336 A 
ATOM      4  O   UNL     1      30.604  25.287  46.142  1.00  0.00    -0.246 OA
ATOM      5  O   UNL     1      29.046  24.606  47.599  1.00  0.00    -0.423 OA
ATOM      6  C   UNL     1      28.633  23.825  48.595  1.00  0.00     0.142 A 
ATOM      7  C   UNL     1      27.336  23.960  49.096  1.00  0.00     0.098 A 
ATOM      8  C   UNL     1      26.893  23.142  50.143  1.00  0.00     0.161 A 
ATOM      9  C   UNL     1      27.758  22.179  50.695  1.00  0.00     0.158 A 
ATOM     10  C   UNL     1      29.061  22.040  50.195  1.00  0.00     0.062 A 
ATOM     11  C   UNL     1      29.502  22.859  49.147  1.00  0.00     0.022 A 
ENDROOT
BRANCH   9  12
ATOM     12  O   UNL     1      27.319  21.364  51.738  1.00  0.00    -0.504 OA
ATOM     13  H   UNL     1      27.651  21.491  52.687  1.00  0.00     0.293 HD
ENDBRANCH   9  12
BRANCH   8  14
ATOM     14  O   UNL     1      25.593  23.301  50.621  1.00  0.00    -0.504 OA
ATOM     15  H   UNL     1      25.315  24.106  51.170  1.00  0.00     0.293 HD
ENDBRANCH   8  14
TORSDOF 2
ENDMDL
MODEL 2
REMARK VINA RESULT:    -5.571      2.123      2.445
REMARK INTER + INTRA:          -5.896
REMARK INTER:                  -5.896
REMARK INTRA:                   0.000
REMARK UNBOUND:                 0.000
REMARK SMILES O=c1ccc2cc(O)c(O)cc2o1
REMARK SMILES IDX 4 1 3 2 2 3 1 4 13 5 12 6 11 7 9 8 7 9 6 10 5 11 8 12 10 14
REMARK H PARENT 8 13 10 15
REMARK Flexibility Score: inf
ROOT
ATOM      1  C   UNL     1      29.543  23.737  48.863  1.00  0.00     0.019 A 
ATOM      2  C   UNL     1      29.027  23.808  47.569  1.00  0.00     0.094 A 
ATOM      3  C   UNL     1      27.654  24.024  47.398  1.00  0.00     0.336 A 
ATOM      4  O   UNL     1      27.169  24.091  46.239  1.00  0.00    -0.246 OA
ATOM      5  O   UNL     1      26.856  24.158  48.455  1.00  0.00    -0.423 OA
ATOM      6  C   UNL     1      27.309  24.097  49.705  1.00  0.00     0.142 A 
ATOM      7  C   UNL     1      26.423  24.246  50.776  1.00  0.00     0.098 A 
ATOM      8  C   UNL     1      26.890  24.182  52.095  1.00  0.00     0.161 A 
ATOM      9  C   UNL     1      28.258  23.968  52.345  1.00  0.00     0.158 A 
ATOM     10  C   UNL     1      29.151  23.818  51.274  1.00  0.00     0.062 A 
ATOM     11  C   UNL     1      28.681  23.882  49.954  1.00  0.00     0.022 A 
ENDROOT
BRANCH   9  12
ATOM     12  O   UNL     1      28.725  23.905  53.658  1.00  0.00    -0.504 OA
ATOM     13  H   UNL     1      29.119  23.053  54.041  1.00  0.00     0.293 HD
ENDBRANCH   9  12
BRANCH   8  14
ATOM     14  O   UNL     1      25.982  24.334  53.141  1.00  0.00    -0.504 OA
ATOM     15  H   UNL     1      25.627  23.544  53.667  1.00  0.00     0.293 HD
ENDBRANCH   8  14
TORSDOF 2
ENDMDL
MODEL 3
REMARK VINA RESULT:    -5.557      2.179      2.606
REMARK INTER + INTRA:          -5.881
REMARK INTER:                  -5.881
REMARK INTRA:                   0.000
REMARK UNBOUND:                 0.000
REMARK SMILES O=c1ccc2cc(O)c(O)cc2o1
REMARK SMILES IDX 4 1 3 2 2 3 1 4 13 5 12 6 11 7 9 8 7 9 6 10 5 11 8 12 10 14
REMARK H PARENT 8 13 10 15
REMARK Flexibility Score: inf
ROOT
ATOM      1  C   UNL     1      30.970  22.738  51.248  1.00  0.00     0.019 A 
ATOM      2  C   UNL     1      31.677  22.120  50.215  1.00  0.00     0.094 A 
ATOM      3  C   UNL     1      31.070  21.994  48.960  1.00  0.00     0.336 A 
ATOM      4  O   UNL     1      31.691  21.441  48.016  1.00  0.00    -0.246 OA
ATOM      5  O   UNL     1      29.838  22.455  48.758  1.00  0.00    -0.423 OA
ATOM      6  C   UNL     1      29.130  23.049  49.716  1.00  0.00     0.142 A 
ATOM      7  C   UNL     1      27.840  23.514  49.444  1.00  0.00     0.098 A 
ATOM      8  C   UNL     1      27.088  24.140  50.446  1.00  0.00     0.161 A 
ATOM      9  C   UNL     1      27.632  24.303  51.733  1.00  0.00     0.158 A 
ATOM     10  C   UNL     1      28.926  23.839  52.010  1.00  0.00     0.062 A 
ATOM     11  C   UNL     1      29.677  23.212  51.006  1.00  0.00     0.022 A 
ENDROOT
BRANCH   9  12
ATOM     12  O   UNL     1      26.885  24.927  52.732  1.00  0.00    -0.504 OA
ATOM     13  H   UNL     1      25.915  24.684  52.899  1.00  0.00     0.293 HD
ENDBRANCH   9  12
BRANCH   8  14
ATOM     14  O   UNL     1      25.805  24.593  50.144  1.00  0.00    -0.504 OA
ATOM     15  H   UNL     1      25.442  25.467  50.506  1.00  0.00     0.293 HD
ENDBRANCH   8  14
TORSDOF 2
ENDMDL
MODEL 4
REMARK VINA RESULT:    -5.502      2.229      3.074
REMARK INTER + INTRA:          -5.824
REMARK INTER:                  -5.824
REMARK INTRA:                   0.000
REMARK UNBOUND:                 0.000
REMARK SMILES O=c1ccc2cc(O)c(O)cc2o1
REMARK SMILES IDX 4 1 3 2 2 3 1 4 13 5 12 6 11 7 9 8 7 9 6 10 5 11 8 12 10 14
REMARK H PARENT 8 13 10 15
REMARK Flexibility Score: inf
ROOT
ATOM      1  C   UNL     1      26.663  22.359  49.244  1.00  0.00     0.019 A 
ATOM      2  C   UNL     1      27.267  22.758  48.051  1.00  0.00     0.094 A 
ATOM      3  C   UNL     1      28.162  23.833  48.072  1.00  0.00     0.336 A 
ATOM      4  O   UNL     1      28.718  24.208  47.007  1.00  0.00    -0.246 OA
ATOM      5  O   UNL     1      28.431  24.464  49.212  1.00  0.00    -0.423 OA
ATOM      6  C   UNL     1      27.876  24.115  50.371  1.00  0.00     0.142 A 
ATOM      7  C   UNL     1      28.197  24.815  51.538  1.00  0.00     0.098 A 
ATOM      8  C   UNL     1      27.618  24.456  52.761  1.00  0.00     0.161 A 
ATOM      9  C   UNL     1      26.708  23.384  52.818  1.00  0.00     0.158 A 
ATOM     10  C   UNL     1      26.383  22.678  51.650  1.00  0.00     0.062 A 
ATOM     11  C   UNL     1      26.964  23.040  50.427  1.00  0.00     0.022 A 
ENDROOT
BRANCH   9  12
ATOM     12  O   UNL     1      26.131  23.024  54.036  1.00  0.00    -0.504 OA
ATOM     13  H   UNL     1      25.416  22.308  54.093  1.00  0.00     0.293 HD
ENDBRANCH   9  12
BRANCH   8  14
ATOM     14  O   UNL     1      27.959  25.173  53.907  1.00  0.00    -0.504 OA
ATOM     15  H   UNL     1      27.605  24.925  54.823  1.00  0.00     0.293 HD
ENDBRANCH   8  14
TORSDOF 2
ENDMDL
MODEL 5
REMARK VINA RESULT:    -5.456      2.057      2.909
REMARK INTER + INTRA:          -5.775
REMARK INTER:                  -5.775
REMARK INTRA:                   0.000
REMARK UNBOUND:                 0.000
REMARK SMILES O=c1ccc2cc(O)c(O)cc2o1
REMARK SMILES IDX 4 1 3 2 2 3 1 4 13 5 12 6 11 7 9 8 7 9 6 10 5 11 8 12 10 14
REMARK H PARENT 8 13 10 15
REMARK Flexibility Score: inf
ROOT
ATOM      1  C   UNL     1      28.543  24.331  48.637  1.00  0.00     0.019 A 
ATOM      2  C   UNL     1      29.628  23.842  47.910  1.00  0.00     0.094 A 
ATOM      3  C   UNL     1      30.532  22.979  48.540  1.00  0.00     0.336 A 
ATOM      4  O   UNL     1      31.517  22.527  47.901  1.00  0.00    -0.246 OA
ATOM      5  O   UNL     1      30.358  22.634  49.814  1.00  0.00    -0.423 OA
ATOM      6  C   UNL     1      29.337  23.079  50.542  1.00  0.00     0.142 A 
ATOM      7  C   UNL     1      29.205  22.681  51.876  1.00  0.00     0.098 A 
ATOM      8  C   UNL     1      28.134  23.144  52.650  1.00  0.00     0.161 A 
ATOM      9  C   UNL     1      27.184  24.015  52.084  1.00  0.00     0.158 A 
ATOM     10  C   UNL     1      27.312  24.416  50.746  1.00  0.00     0.062 A 
ATOM     11  C   UNL     1      28.385  23.952  49.973  1.00  0.00     0.022 A 
ENDROOT
BRANCH   9  12
ATOM     12  O   UNL     1      26.116  24.476  52.854  1.00  0.00    -0.504 OA
ATOM     13  H   UNL     1      25.399  25.074  52.461  1.00  0.00     0.293 HD
ENDBRANCH   9  12
BRANCH   8  14
ATOM     14  O   UNL     1      28.031  22.730  53.977  1.00  0.00    -0.504 OA
ATOM     15  H   UNL     1      28.407  23.275  54.743  1.00  0.00     0.293 HD
ENDBRANCH   8  14
TORSDOF 2
ENDMDL
MODEL 6
REMARK VINA RESULT:    -5.449      2.419      3.550
REMARK INTER + INTRA:          -5.768
REMARK INTER:                  -5.768
REMARK INTRA:                   0.000
REMARK UNBOUND:                 0.000
REMARK SMILES O=c1ccc2cc(O)c(O)cc2o1
REMARK SMILES IDX 4 1 3 2 2 3 1 4 13 5 12 6 11 7 9 8 7 9 6 10 5 11 8 12 10 14
REMARK H PARENT 8 13 10 15
REMARK Flexibility Score: inf
ROOT
ATOM      1  C   UNL     1      28.054  24.624  50.597  1.00  0.00     0.019 A 
ATOM      2  C   UNL     1      28.149  24.407  49.223  1.00  0.00     0.094 A 
ATOM      3  C   UNL     1      27.521  23.285  48.669  1.00  0.00     0.336 A 
ATOM      4  O   UNL     1      27.595  23.072  47.431  1.00  0.00    -0.246 OA
ATOM      5  O   UNL     1      26.845  22.440  49.443  1.00  0.00    -0.423 OA
ATOM      6  C   UNL     1      26.730  22.611  50.759  1.00  0.00     0.142 A 
ATOM      7  C   UNL     1      26.006  21.691  51.522  1.00  0.00     0.098 A 
ATOM      8  C   UNL     1      25.881  21.862  52.906  1.00  0.00     0.161 A 
ATOM      9  C   UNL     1      26.485  22.966  53.534  1.00  0.00     0.158 A 
ATOM     10  C   UNL     1      27.213  23.893  52.772  1.00  0.00     0.062 A 
ATOM     11  C   UNL     1      27.337  23.719  51.387  1.00  0.00     0.022 A 
ENDROOT
BRANCH   9  12
ATOM     12  O   UNL     1      26.361  23.139  54.912  1.00  0.00    -0.504 OA
ATOM     13  H   UNL     1      25.824  23.904  55.305  1.00  0.00     0.293 HD
ENDBRANCH   9  12
BRANCH   8  14
ATOM     14  O   UNL     1      25.152  20.926  53.639  1.00  0.00    -0.504 OA
ATOM     15  H   UNL     1      25.560  20.054  53.956  1.00  0.00     0.293 HD
ENDBRANCH   8  14
TORSDOF 2
ENDMDL
MODEL 7
REMARK VINA RESULT:    -5.360      1.353      2.375
REMARK INTER + INTRA:          -5.673
REMARK INTER:                  -5.673
REMARK INTRA:                   0.000
REMARK UNBOUND:                 0.000
REMARK SMILES O=c1ccc2cc(O)c(O)cc2o1
REMARK SMILES IDX 4 1 3 2 2 3 1 4 13 5 12 6 11 7 9 8 7 9 6 10 5 11 8 12 10 14
REMARK H PARENT 8 13 10 15
REMARK Flexibility Score: inf
ROOT
ATOM      1  C   UNL     1      27.246  23.642  47.501  1.00  0.00     0.019 A 
ATOM      2  C   UNL     1      28.300  24.290  46.855  1.00  0.00     0.094 A 
ATOM      3  C   UNL     1      29.578  24.235  47.423  1.00  0.00     0.336 A 
ATOM      4  O   UNL     1      30.542  24.812  46.856  1.00  0.00    -0.246 OA
ATOM      5  O   UNL     1      29.782  23.577  48.561  1.00  0.00    -0.423 OA
ATOM      6  C   UNL     1      28.804  22.947  49.209  1.00  0.00     0.142 A 
ATOM      7  C   UNL     1      29.078  22.271  50.401  1.00  0.00     0.098 A 
ATOM      8  C   UNL     1      28.056  21.607  51.090  1.00  0.00     0.161 A 
ATOM      9  C   UNL     1      26.744  21.617  50.579  1.00  0.00     0.158 A 
ATOM     10  C   UNL     1      26.464  22.294  49.383  1.00  0.00     0.062 A 
ATOM     11  C   UNL     1      27.489  22.959  48.696  1.00  0.00     0.022 A 
ENDROOT
BRANCH   9  12
ATOM     12  O   UNL     1      25.725  20.955  51.262  1.00  0.00    -0.504 OA
ATOM     13  H   UNL     1      25.827  20.682  52.233  1.00  0.00     0.293 HD
ENDBRANCH   9  12
BRANCH   8  14
ATOM     14  O   UNL     1      28.361  20.942  52.276  1.00  0.00    -0.504 OA
ATOM     15  H   UNL     1      28.385  21.418  53.170  1.00  0.00     0.293 HD
ENDBRANCH   8  14
TORSDOF 2
ENDMDL
MODEL 8
REMARK VINA RESULT:    -5.329     11.387     12.822
REMARK INTER + INTRA:          -5.640
REMARK INTER:                  -5.640
REMARK INTRA:                   0.000
REMARK UNBOUND:                 0.000
REMARK SMILES O=c1ccc2cc(O)c(O)cc2o1
REMARK SMILES IDX 4 1 3 2 2 3 1 4 13 5 12 6 11 7 9 8 7 9 6 10 5 11 8 12 10 14
REMARK H PARENT 8 13 10 15
REMARK Flexibility Score: inf
ROOT
ATOM      1  C   UNL     1      15.974  25.384  44.944  1.00  0.00     0.019 A 
ATOM      2  C   UNL     1      16.030  24.241  44.146  1.00  0.00     0.094 A 
ATOM      3  C   UNL     1      17.176  24.007  43.378  1.00  0.00     0.336 A 
ATOM      4  O   UNL     1      17.247  22.982  42.652  1.00  0.00    -0.246 OA
ATOM      5  O   UNL     1      18.195  24.863  43.409  1.00  0.00    -0.423 OA
ATOM      6  C   UNL     1      18.181  25.965  44.156  1.00  0.00     0.142 A 
ATOM      7  C   UNL     1      19.281  26.828  44.148  1.00  0.00     0.098 A 
ATOM      8  C   UNL     1      19.275  27.989  44.930  1.00  0.00     0.161 A 
ATOM      9  C   UNL     1      18.157  28.291  45.729  1.00  0.00     0.158 A 
ATOM     10  C   UNL     1      17.051  27.429  45.740  1.00  0.00     0.062 A 
ATOM     11  C   UNL     1      17.058  26.266  44.956  1.00  0.00     0.022 A 
ENDROOT
BRANCH   9  12
ATOM     12  O   UNL     1      18.149  29.447  46.509  1.00  0.00    -0.504 OA
ATOM     13  H   UNL     1      18.990  29.994  46.657  1.00  0.00     0.293 HD
ENDBRANCH   9  12
BRANCH   8  14
ATOM     14  O   UNL     1      20.387  28.829  44.901  1.00  0.00    -0.504 OA
ATOM     15  H   UNL     1      20.315  29.810  44.656  1.00  0.00     0.293 HD
ENDBRANCH   8  14
TORSDOF 2
ENDMDL
MODEL 9
REMARK VINA RESULT:    -5.094      2.024      3.543
REMARK INTER + INTRA:          -5.392
REMARK INTER:                  -5.392
REMARK INTRA:                   0.000
REMARK UNBOUND:                 0.000
REMARK SMILES O=c1ccc2cc(O)c(O)cc2o1
REMARK SMILES IDX 4 1 3 2 2 3 1 4 13 5 12 6 11 7 9 8 7 9 6 10 5 11 8 12 10 14
REMARK H PARENT 8 13 10 15
REMARK Flexibility Score: inf
ROOT
ATOM      1  C   UNL     1      31.020  22.394  49.032  1.00  0.00     0.019 A 
ATOM      2  C   UNL     1      31.809  21.942  50.090  1.00  0.00     0.094 A 
ATOM      3  C   UNL     1      31.306  22.025  51.394  1.00  0.00     0.336 A 
ATOM      4  O   UNL     1      32.001  21.623  52.362  1.00  0.00    -0.246 OA
ATOM      5  O   UNL     1      30.095  22.530  51.618  1.00  0.00    -0.423 OA
ATOM      6  C   UNL     1      29.312  22.972  50.637  1.00  0.00     0.142 A 
ATOM      7  C   UNL     1      28.048  23.492  50.932  1.00  0.00     0.098 A 
ATOM      8  C   UNL     1      27.217  23.960  49.907  1.00  0.00     0.161 A 
ATOM      9  C   UNL     1      27.655  23.908  48.571  1.00  0.00     0.158 A 
ATOM     10  C   UNL     1      28.922  23.387  48.269  1.00  0.00     0.062 A 
ATOM     11  C   UNL     1      29.752  22.920  49.297  1.00  0.00     0.022 A 
ENDROOT
BRANCH   9  12
ATOM     12  O   UNL     1      26.829  24.373  47.548  1.00  0.00    -0.504 OA
ATOM     13  H   UNL     1      27.195  24.923  46.779  1.00  0.00     0.293 HD
ENDBRANCH   9  12
BRANCH   8  14
ATOM     14  O   UNL     1      25.963  24.472  50.234  1.00  0.00    -0.504 OA
ATOM     15  H   UNL     1      25.477  25.131  49.636  1.00  0.00     0.293 HD
ENDBRANCH   8  14
TORSDOF 2
ENDMDL
