MODEL 1
REMARK VINA RESULT:    -5.488      0.000      0.000
REMARK INTER + INTRA:         -11.046
REMARK INTER:                  -9.980
REMARK INTRA:                  -1.066
REMARK UNBOUND:                -1.066
REMARK SMILES CCCCCCCCCCCCCC[C@H](C)C(=O)[O-]
REMARK SMILES IDX 9 1 10 2 11 3 12 4 13 5 14 6 15 7 16 8 17 9 18 10 19 11 8 12
REMARK SMILES IDX 7 13 6 14 5 15 4 16 3 17 2 18 1 19
REMARK H PARENT
REMARK Flexibility Score: inf
ROOT
ATOM      1  C   UNL     1       6.010  41.863  44.650  1.00  0.00     0.000 C 
ENDROOT
BRANCH   1   2
ATOM      2  C   UNL     1       5.589  42.646  45.908  1.00  0.00     0.000 C 
BRANCH   2   3
ATOM      3  C   UNL     1       4.930  41.798  47.010  1.00  0.00     0.000 C 
BRANCH   3   4
ATOM      4  C   UNL     1       5.330  42.239  48.426  1.00  0.00     0.000 C 
BRANCH   4   5
ATOM      5  C   UNL     1       6.442  41.339  48.987  1.00  0.00     0.001 C 
BRANCH   5   6
ATOM      6  C   UNL     1       6.666  40.069  48.144  1.00  0.00     0.009 C 
BRANCH   6   7
ATOM      7  C   UNL     1       8.152  39.741  47.878  1.00  0.00     0.032 C 
ATOM      8  C   UNL     1       8.475  39.895  46.388  1.00  0.00     0.014 C 
BRANCH   7   9
ATOM      9  C   UNL     1       8.498  38.348  48.329  1.00  0.00     0.044 C 
ATOM     10  O   UNL     1       7.584  37.535  48.625  1.00  0.00    -0.550 OA
ATOM     11  O   UNL     1       9.826  37.947  48.419  1.00  0.00    -0.550 OA
ENDBRANCH   7   9
ENDBRANCH   6   7
ENDBRANCH   5   6
ENDBRANCH   4   5
ENDBRANCH   3   4
ENDBRANCH   2   3
ENDBRANCH   1   2
BRANCH   1  12
ATOM     12  C   UNL     1       6.058  42.740  43.390  1.00  0.00     0.000 C 
BRANCH  12  13
ATOM     13  C   UNL     1       6.761  44.074  43.673  1.00  0.00    -0.000 C 
BRANCH  13  14
ATOM     14  C   UNL     1       7.941  44.344  42.722  1.00  0.00    -0.000 C 
BRANCH  14  15
ATOM     15  C   UNL     1       7.546  45.127  41.453  1.00  0.00    -0.000 C 
BRANCH  15  16
ATOM     16  C   UNL     1       7.214  46.597  41.756  1.00  0.00    -0.000 C 
BRANCH  16  17
ATOM     17  C   UNL     1       7.792  47.526  40.679  1.00  0.00    -0.000 C 
BRANCH  17  18
ATOM     18  C   UNL     1       8.503  46.757  39.556  1.00  0.00    -0.003 C 
ATOM     19  C   UNL     1       9.975  47.144  39.414  1.00  0.00     0.004 C 
ENDBRANCH  17  18
ENDBRANCH  16  17
ENDBRANCH  15  16
ENDBRANCH  14  15
ENDBRANCH  13  14
ENDBRANCH  12  13
ENDBRANCH   1  12
TORSDOF 14
ENDMDL
MODEL 2
REMARK VINA RESULT:    -5.377      2.137      2.933
REMARK INTER + INTRA:         -10.844
REMARK INTER:                 -10.136
REMARK INTRA:                  -0.708
REMARK UNBOUND:                -1.066
REMARK SMILES CCCCCCCCCCCCCC[C@H](C)C(=O)[O-]
REMARK SMILES IDX 9 1 10 2 11 3 12 4 13 5 14 6 15 7 16 8 17 9 18 10 19 11 8 12
REMARK SMILES IDX 7 13 6 14 5 15 4 16 3 17 2 18 1 19
REMARK H PARENT
REMARK Flexibility Score: inf
ROOT
ATOM      1  C   UNL     1       6.001  41.878  46.135  1.00  0.00     0.000 C 
ENDROOT
BRANCH   1   2
ATOM      2  C   UNL     1       5.495  41.946  47.589  1.00  0.00     0.000 C 
BRANCH   2   3
ATOM      3  C   UNL     1       6.371  41.210  48.617  1.00  0.00     0.000 C 
BRANCH   3   4
ATOM      4  C   UNL     1       7.436  40.315  47.966  1.00  0.00     0.000 C 
BRANCH   4   5
ATOM      5  C   UNL     1       8.760  40.385  48.742  1.00  0.00     0.001 C 
BRANCH   5   6
ATOM      6  C   UNL     1       9.936  39.750  47.977  1.00  0.00     0.009 C 
BRANCH   6   7
ATOM      7  C   UNL     1      11.247  39.660  48.791  1.00  0.00     0.032 C 
ATOM      8  C   UNL     1      11.185  40.588  50.009  1.00  0.00     0.014 C 
BRANCH   7   9
ATOM      9  C   UNL     1      12.444  40.008  47.949  1.00  0.00     0.044 C 
ATOM     10  O   UNL     1      12.406  41.003  47.180  1.00  0.00    -0.550 OA
ATOM     11  O   UNL     1      13.598  39.236  48.015  1.00  0.00    -0.550 OA
ENDBRANCH   7   9
ENDBRANCH   6   7
ENDBRANCH   5   6
ENDBRANCH   4   5
ENDBRANCH   3   4
ENDBRANCH   2   3
ENDBRANCH   1   2
BRANCH   1  12
ATOM     12  C   UNL     1       5.072  42.597  45.145  1.00  0.00     0.000 C 
BRANCH  12  13
ATOM     13  C   UNL     1       5.813  42.942  43.846  1.00  0.00    -0.000 C 
BRANCH  13  14
ATOM     14  C   UNL     1       6.782  44.127  44.004  1.00  0.00    -0.000 C 
BRANCH  14  15
ATOM     15  C   UNL     1       7.930  44.129  42.973  1.00  0.00    -0.000 C 
BRANCH  15  16
ATOM     16  C   UNL     1       7.502  44.741  41.629  1.00  0.00    -0.000 C 
BRANCH  16  17
ATOM     17  C   UNL     1       7.220  46.244  41.773  1.00  0.00    -0.000 C 
BRANCH  17  18
ATOM     18  C   UNL     1       7.798  47.066  40.611  1.00  0.00    -0.003 C 
ATOM     19  C   UNL     1       9.211  47.576  40.893  1.00  0.00     0.004 C 
ENDBRANCH  17  18
ENDBRANCH  16  17
ENDBRANCH  15  16
ENDBRANCH  14  15
ENDBRANCH  13  14
ENDBRANCH  12  13
ENDBRANCH   1  12
TORSDOF 14
ENDMDL
MODEL 3
REMARK VINA RESULT:    -5.287      4.866      8.192
REMARK INTER + INTRA:         -10.680
REMARK INTER:                  -9.732
REMARK INTRA:                  -0.948
REMARK UNBOUND:                -1.066
REMARK SMILES CCCCCCCCCCCCCC[C@H](C)C(=O)[O-]
REMARK SMILES IDX 9 1 10 2 11 3 12 4 13 5 14 6 15 7 16 8 17 9 18 10 19 11 8 12
REMARK SMILES IDX 7 13 6 14 5 15 4 16 3 17 2 18 1 19
REMARK H PARENT
REMARK Flexibility Score: inf
ROOT
ATOM      1  C   UNL     1      10.019  39.515  44.857  1.00  0.00     0.000 C 
ENDROOT
BRANCH   1   2
ATOM      2  C   UNL     1       8.998  39.531  46.010  1.00  0.00     0.000 C 
BRANCH   2   3
ATOM      3  C   UNL     1       9.576  39.909  47.385  1.00  0.00     0.000 C 
BRANCH   3   4
ATOM      4  C   UNL     1       8.491  40.222  48.426  1.00  0.00     0.000 C 
BRANCH   4   5
ATOM      5  C   UNL     1       7.331  39.220  48.328  1.00  0.00     0.001 C 
BRANCH   5   6
ATOM      6  C   UNL     1       6.001  39.883  47.922  1.00  0.00     0.009 C 
BRANCH   6   7
ATOM      7  C   UNL     1       6.098  41.407  47.685  1.00  0.00     0.032 C 
ATOM      8  C   UNL     1       5.394  42.169  48.812  1.00  0.00     0.014 C 
BRANCH   7   9
ATOM      9  C   UNL     1       5.502  41.797  46.360  1.00  0.00     0.044 C 
ATOM     10  O   UNL     1       4.485  42.537  46.318  1.00  0.00    -0.550 OA
ATOM     11  O   UNL     1       6.070  41.346  45.173  1.00  0.00    -0.550 OA
ENDBRANCH   7   9
ENDBRANCH   6   7
ENDBRANCH   5   6
ENDBRANCH   4   5
ENDBRANCH   3   4
ENDBRANCH   2   3
ENDBRANCH   1   2
BRANCH   1  12
ATOM     12  C   UNL     1      11.237  38.627  45.150  1.00  0.00     0.000 C 
BRANCH  12  13
ATOM     13  C   UNL     1      11.229  37.372  44.268  1.00  0.00    -0.000 C 
BRANCH  13  14
ATOM     14  C   UNL     1      10.310  36.262  44.810  1.00  0.00    -0.000 C 
BRANCH  14  15
ATOM     15  C   UNL     1      10.660  34.856  44.281  1.00  0.00    -0.000 C 
BRANCH  15  16
ATOM     16  C   UNL     1       9.808  34.464  43.064  1.00  0.00    -0.000 C 
BRANCH  16  17
ATOM     17  C   UNL     1      10.609  33.588  42.089  1.00  0.00    -0.000 C 
BRANCH  17  18
ATOM     18  C   UNL     1       9.809  33.227  40.828  1.00  0.00    -0.003 C 
ATOM     19  C   UNL     1       8.304  33.161  41.080  1.00  0.00     0.004 C 
ENDBRANCH  17  18
ENDBRANCH  16  17
ENDBRANCH  15  16
ENDBRANCH  14  15
ENDBRANCH  13  14
ENDBRANCH  12  13
ENDBRANCH   1  12
TORSDOF 14
ENDMDL
MODEL 4
REMARK VINA RESULT:    -5.271      2.584      4.399
REMARK INTER + INTRA:         -10.650
REMARK INTER:                  -9.401
REMARK INTRA:                  -1.249
REMARK UNBOUND:                -1.066
REMARK SMILES CCCCCCCCCCCCCC[C@H](C)C(=O)[O-]
REMARK SMILES IDX 9 1 10 2 11 3 12 4 13 5 14 6 15 7 16 8 17 9 18 10 19 11 8 12
REMARK SMILES IDX 7 13 6 14 5 15 4 16 3 17 2 18 1 19
REMARK H PARENT
REMARK Flexibility Score: inf
ROOT
ATOM      1  C   UNL     1       6.063  41.406  49.021  1.00  0.00     0.000 C 
ENDROOT
BRANCH   1   2
ATOM      2  C   UNL     1       6.283  40.071  48.286  1.00  0.00     0.000 C 
BRANCH   2   3
ATOM      3  C   UNL     1       7.755  39.648  48.134  1.00  0.00     0.000 C 
BRANCH   3   4
ATOM      4  C   UNL     1       8.733  40.635  48.788  1.00  0.00     0.000 C 
BRANCH   4   5
ATOM      5  C   UNL     1      10.076  39.954  49.096  1.00  0.00     0.001 C 
BRANCH   5   6
ATOM      6  C   UNL     1      10.730  39.330  47.849  1.00  0.00     0.009 C 
BRANCH   6   7
ATOM      7  C   UNL     1      11.142  40.357  46.769  1.00  0.00     0.032 C 
ATOM      8  C   UNL     1      10.800  39.828  45.372  1.00  0.00     0.014 C 
BRANCH   7   9
ATOM      9  C   UNL     1      12.610  40.676  46.844  1.00  0.00     0.044 C 
ATOM     10  O   UNL     1      13.403  40.209  45.985  1.00  0.00    -0.550 OA
ATOM     11  O   UNL     1      13.102  41.488  47.860  1.00  0.00    -0.550 OA
ENDBRANCH   7   9
ENDBRANCH   6   7
ENDBRANCH   5   6
ENDBRANCH   4   5
ENDBRANCH   3   4
ENDBRANCH   2   3
ENDBRANCH   1   2
BRANCH   1  12
ATOM     12  C   UNL     1       5.059  42.322  48.306  1.00  0.00     0.000 C 
BRANCH  12  13
ATOM     13  C   UNL     1       4.829  41.865  46.859  1.00  0.00    -0.000 C 
BRANCH  13  14
ATOM     14  C   UNL     1       5.753  42.574  45.852  1.00  0.00    -0.000 C 
BRANCH  14  15
ATOM     15  C   UNL     1       6.087  41.720  44.611  1.00  0.00    -0.000 C 
BRANCH  15  16
ATOM     16  C   UNL     1       6.322  42.580  43.359  1.00  0.00    -0.000 C 
BRANCH  16  17
ATOM     17  C   UNL     1       6.699  44.018  43.742  1.00  0.00    -0.000 C 
BRANCH  17  18
ATOM     18  C   UNL     1       7.411  44.764  42.602  1.00  0.00    -0.003 C 
ATOM     19  C   UNL     1       7.800  43.844  41.446  1.00  0.00     0.004 C 
ENDBRANCH  17  18
ENDBRANCH  16  17
ENDBRANCH  15  16
ENDBRANCH  14  15
ENDBRANCH  13  14
ENDBRANCH  12  13
ENDBRANCH   1  12
TORSDOF 14
ENDMDL
MODEL 5
REMARK VINA RESULT:    -5.254      2.759      7.454
REMARK INTER + INTRA:         -10.620
REMARK INTER:                  -9.315
REMARK INTRA:                  -1.304
REMARK UNBOUND:                -1.066
REMARK SMILES CCCCCCCCCCCCCC[C@H](C)C(=O)[O-]
REMARK SMILES IDX 9 1 10 2 11 3 12 4 13 5 14 6 15 7 16 8 17 9 18 10 19 11 8 12
REMARK SMILES IDX 7 13 6 14 5 15 4 16 3 17 2 18 1 19
REMARK H PARENT
REMARK Flexibility Score: inf
ROOT
ATOM      1  C   UNL     1       5.997  42.087  44.873  1.00  0.00     0.000 C 
ENDROOT
BRANCH   1   2
ATOM      2  C   UNL     1       5.966  43.106  43.719  1.00  0.00     0.000 C 
BRANCH   2   3
ATOM      3  C   UNL     1       7.032  44.213  43.800  1.00  0.00     0.000 C 
BRANCH   3   4
ATOM      4  C   UNL     1       7.330  44.860  42.439  1.00  0.00     0.000 C 
BRANCH   4   5
ATOM      5  C   UNL     1       7.843  43.815  41.436  1.00  0.00     0.001 C 
BRANCH   5   6
ATOM      6  C   UNL     1       9.164  43.159  41.878  1.00  0.00     0.009 C 
BRANCH   6   7
ATOM      7  C   UNL     1       9.331  41.695  41.412  1.00  0.00     0.032 C 
ATOM      8  C   UNL     1       7.976  40.979  41.401  1.00  0.00     0.014 C 
BRANCH   7   9
ATOM      9  C   UNL     1      10.294  40.944  42.290  1.00  0.00     0.044 C 
ATOM     10  O   UNL     1       9.888  40.396  43.348  1.00  0.00    -0.550 OA
ATOM     11  O   UNL     1      11.636  40.847  41.940  1.00  0.00    -0.550 OA
ENDBRANCH   7   9
ENDBRANCH   6   7
ENDBRANCH   5   6
ENDBRANCH   4   5
ENDBRANCH   3   4
ENDBRANCH   2   3
ENDBRANCH   1   2
BRANCH   1  12
ATOM     12  C   UNL     1       5.028  42.443  46.010  1.00  0.00     0.000 C 
BRANCH  12  13
ATOM     13  C   UNL     1       5.510  41.864  47.347  1.00  0.00    -0.000 C 
BRANCH  13  14
ATOM     14  C   UNL     1       5.564  40.326  47.351  1.00  0.00    -0.000 C 
BRANCH  14  15
ATOM     15  C   UNL     1       6.852  39.754  47.977  1.00  0.00    -0.000 C 
BRANCH  15  16
ATOM     16  C   UNL     1       7.691  40.837  48.672  1.00  0.00    -0.000 C 
BRANCH  16  17
ATOM     17  C   UNL     1       9.084  40.304  49.041  1.00  0.00    -0.000 C 
BRANCH  17  18
ATOM     18  C   UNL     1       9.355  38.909  48.457  1.00  0.00    -0.003 C 
ATOM     19  C   UNL     1      10.828  38.511  48.536  1.00  0.00     0.004 C 
ENDBRANCH  17  18
ENDBRANCH  16  17
ENDBRANCH  15  16
ENDBRANCH  14  15
ENDBRANCH  13  14
ENDBRANCH  12  13
ENDBRANCH   1  12
TORSDOF 14
ENDMDL
MODEL 6
REMARK VINA RESULT:    -5.202      2.681      4.136
REMARK INTER + INTRA:         -10.525
REMARK INTER:                  -8.817
REMARK INTRA:                  -1.707
REMARK UNBOUND:                -1.066
REMARK SMILES CCCCCCCCCCCCCC[C@H](C)C(=O)[O-]
REMARK SMILES IDX 9 1 10 2 11 3 12 4 13 5 14 6 15 7 16 8 17 9 18 10 19 11 8 12
REMARK SMILES IDX 7 13 6 14 5 15 4 16 3 17 2 18 1 19
REMARK H PARENT
REMARK Flexibility Score: inf
ROOT
ATOM      1  C   UNL     1       5.381  41.719  46.178  1.00  0.00     0.000 C 
ENDROOT
BRANCH   1   2
ATOM      2  C   UNL     1       5.438  42.097  47.670  1.00  0.00     0.000 C 
BRANCH   2   3
ATOM      3  C   UNL     1       6.091  41.043  48.582  1.00  0.00     0.000 C 
BRANCH   3   4
ATOM      4  C   UNL     1       6.311  39.695  47.879  1.00  0.00     0.000 C 
BRANCH   4   5
ATOM      5  C   UNL     1       7.695  39.120  48.218  1.00  0.00     0.001 C 
BRANCH   5   6
ATOM      6  C   UNL     1       8.721  40.208  48.588  1.00  0.00     0.009 C 
BRANCH   6   7
ATOM      7  C   UNL     1      10.162  39.682  48.777  1.00  0.00     0.032 C 
ATOM      8  C   UNL     1      10.943  40.593  49.730  1.00  0.00     0.014 C 
BRANCH   7   9
ATOM      9  C   UNL     1      10.888  39.582  47.464  1.00  0.00     0.044 C 
ATOM     10  O   UNL     1      11.378  40.612  46.932  1.00  0.00    -0.550 OA
ATOM     11  O   UNL     1      11.026  38.352  46.829  1.00  0.00    -0.550 OA
ENDBRANCH   7   9
ENDBRANCH   6   7
ENDBRANCH   5   6
ENDBRANCH   4   5
ENDBRANCH   3   4
ENDBRANCH   2   3
ENDBRANCH   1   2
BRANCH   1  12
ATOM     12  C   UNL     1       5.421  42.943  45.250  1.00  0.00     0.000 C 
BRANCH  12  13
ATOM     13  C   UNL     1       5.748  42.531  43.808  1.00  0.00    -0.000 C 
BRANCH  13  14
ATOM     14  C   UNL     1       7.110  43.060  43.327  1.00  0.00    -0.000 C 
BRANCH  14  15
ATOM     15  C   UNL     1       7.478  42.613  41.897  1.00  0.00    -0.000 C 
BRANCH  15  16
ATOM     16  C   UNL     1       8.897  42.028  41.817  1.00  0.00    -0.000 C 
BRANCH  16  17
ATOM     17  C   UNL     1       8.928  40.583  42.335  1.00  0.00    -0.000 C 
BRANCH  17  18
ATOM     18  C   UNL     1       9.441  40.484  43.780  1.00  0.00    -0.003 C 
ATOM     19  C   UNL     1       8.400  39.912  44.740  1.00  0.00     0.004 C 
ENDBRANCH  17  18
ENDBRANCH  16  17
ENDBRANCH  15  16
ENDBRANCH  14  15
ENDBRANCH  13  14
ENDBRANCH  12  13
ENDBRANCH   1  12
TORSDOF 14
ENDMDL
MODEL 7
REMARK VINA RESULT:    -5.200      3.576      6.617
REMARK INTER + INTRA:         -10.522
REMARK INTER:                  -8.907
REMARK INTRA:                  -1.614
REMARK UNBOUND:                -1.066
REMARK SMILES CCCCCCCCCCCCCC[C@H](C)C(=O)[O-]
REMARK SMILES IDX 9 1 10 2 11 3 12 4 13 5 14 6 15 7 16 8 17 9 18 10 19 11 8 12
REMARK SMILES IDX 7 13 6 14 5 15 4 16 3 17 2 18 1 19
REMARK H PARENT
REMARK Flexibility Score: inf
ROOT
ATOM      1  C   UNL     1       7.533  40.907  48.783  1.00  0.00     0.000 C 
ENDROOT
BRANCH   1   2
ATOM      2  C   UNL     1       6.510  40.753  47.642  1.00  0.00     0.000 C 
BRANCH   2   3
ATOM      3  C   UNL     1       5.354  41.769  47.663  1.00  0.00     0.000 C 
BRANCH   3   4
ATOM      4  C   UNL     1       5.146  42.469  46.312  1.00  0.00     0.000 C 
BRANCH   4   5
ATOM      5  C   UNL     1       5.924  41.753  45.198  1.00  0.00     0.001 C 
BRANCH   5   6
ATOM      6  C   UNL     1       5.818  42.470  43.839  1.00  0.00     0.009 C 
BRANCH   6   7
ATOM      7  C   UNL     1       7.131  43.141  43.373  1.00  0.00     0.032 C 
ATOM      8  C   UNL     1       7.029  44.664  43.506  1.00  0.00     0.014 C 
BRANCH   7   9
ATOM      9  C   UNL     1       7.460  42.777  41.951  1.00  0.00     0.044 C 
ATOM     10  O   UNL     1       7.392  41.579  41.573  1.00  0.00    -0.550 OA
ATOM     11  O   UNL     1       7.840  43.761  41.044  1.00  0.00    -0.550 OA
ENDBRANCH   7   9
ENDBRANCH   6   7
ENDBRANCH   5   6
ENDBRANCH   4   5
ENDBRANCH   3   4
ENDBRANCH   2   3
ENDBRANCH   1   2
BRANCH   1  12
ATOM     12  C   UNL     1       8.898  40.287  48.449  1.00  0.00     0.000 C 
BRANCH  12  13
ATOM     13  C   UNL     1       8.738  39.047  47.560  1.00  0.00    -0.000 C 
BRANCH  13  14
ATOM     14  C   UNL     1       9.572  39.121  46.269  1.00  0.00    -0.000 C 
BRANCH  14  15
ATOM     15  C   UNL     1       8.763  39.573  45.035  1.00  0.00    -0.000 C 
BRANCH  15  16
ATOM     16  C   UNL     1       9.628  40.339  44.022  1.00  0.00    -0.000 C 
BRANCH  16  17
ATOM     17  C   UNL     1      11.122  40.163  44.328  1.00  0.00    -0.000 C 
BRANCH  17  18
ATOM     18  C   UNL     1      11.926  39.710  43.099  1.00  0.00    -0.003 C 
ATOM     19  C   UNL     1      12.651  38.384  43.322  1.00  0.00     0.004 C 
ENDBRANCH  17  18
ENDBRANCH  16  17
ENDBRANCH  15  16
ENDBRANCH  14  15
ENDBRANCH  13  14
ENDBRANCH  12  13
ENDBRANCH   1  12
TORSDOF 14
ENDMDL
MODEL 8
REMARK VINA RESULT:    -5.140      3.791      7.651
REMARK INTER + INTRA:         -10.413
REMARK INTER:                  -9.104
REMARK INTRA:                  -1.309
REMARK UNBOUND:                -1.066
REMARK SMILES CCCCCCCCCCCCCC[C@H](C)C(=O)[O-]
REMARK SMILES IDX 9 1 10 2 11 3 12 4 13 5 14 6 15 7 16 8 17 9 18 10 19 11 8 12
REMARK SMILES IDX 7 13 6 14 5 15 4 16 3 17 2 18 1 19
REMARK H PARENT
REMARK Flexibility Score: inf
ROOT
ATOM      1  C   UNL     1       7.776  39.952  47.945  1.00  0.00     0.000 C 
ENDROOT
BRANCH   1   2
ATOM      2  C   UNL     1       6.278  40.166  48.233  1.00  0.00     0.000 C 
BRANCH   2   3
ATOM      3  C   UNL     1       5.941  41.462  48.992  1.00  0.00     0.000 C 
BRANCH   3   4
ATOM      4  C   UNL     1       5.132  42.458  48.148  1.00  0.00     0.000 C 
BRANCH   4   5
ATOM      5  C   UNL     1       4.918  41.923  46.724  1.00  0.00     0.001 C 
BRANCH   5   6
ATOM      6  C   UNL     1       5.462  42.873  45.640  1.00  0.00     0.009 C 
BRANCH   6   7
ATOM      7  C   UNL     1       5.889  42.166  44.334  1.00  0.00     0.032 C 
ATOM      8  C   UNL     1       6.775  40.955  44.647  1.00  0.00     0.014 C 
BRANCH   7   9
ATOM      9  C   UNL     1       6.621  43.104  43.414  1.00  0.00     0.044 C 
ATOM     10  O   UNL     1       7.122  42.674  42.342  1.00  0.00    -0.550 OA
ATOM     11  O   UNL     1       6.748  44.450  43.737  1.00  0.00    -0.550 OA
ENDBRANCH   7   9
ENDBRANCH   6   7
ENDBRANCH   5   6
ENDBRANCH   4   5
ENDBRANCH   3   4
ENDBRANCH   2   3
ENDBRANCH   1   2
BRANCH   1  12
ATOM     12  C   UNL     1       8.685  40.597  49.001  1.00  0.00     0.000 C 
BRANCH  12  13
ATOM     13  C   UNL     1      10.135  40.117  48.849  1.00  0.00    -0.000 C 
BRANCH  13  14
ATOM     14  C   UNL     1      10.237  38.663  48.355  1.00  0.00    -0.000 C 
BRANCH  14  15
ATOM     15  C   UNL     1      11.612  38.015  48.618  1.00  0.00    -0.000 C 
BRANCH  15  16
ATOM     16  C   UNL     1      12.703  39.061  48.898  1.00  0.00    -0.000 C 
BRANCH  16  17
ATOM     17  C   UNL     1      13.507  39.373  47.628  1.00  0.00    -0.000 C 
BRANCH  17  18
ATOM     18  C   UNL     1      13.497  38.211  46.623  1.00  0.00    -0.003 C 
ATOM     19  C   UNL     1      13.091  38.649  45.216  1.00  0.00     0.004 C 
ENDBRANCH  17  18
ENDBRANCH  16  17
ENDBRANCH  15  16
ENDBRANCH  14  15
ENDBRANCH  13  14
ENDBRANCH  12  13
ENDBRANCH   1  12
TORSDOF 14
ENDMDL
MODEL 9
REMARK VINA RESULT:    -5.103      2.762      4.926
REMARK INTER + INTRA:         -10.345
REMARK INTER:                  -8.554
REMARK INTRA:                  -1.791
REMARK UNBOUND:                -1.066
REMARK SMILES CCCCCCCCCCCCCC[C@H](C)C(=O)[O-]
REMARK SMILES IDX 9 1 10 2 11 3 12 4 13 5 14 6 15 7 16 8 17 9 18 10 19 11 8 12
REMARK SMILES IDX 7 13 6 14 5 15 4 16 3 17 2 18 1 19
REMARK H PARENT
REMARK Flexibility Score: inf
ROOT
ATOM      1  C   UNL     1       8.840  44.713  42.245  1.00  0.00     0.000 C 
ENDROOT
BRANCH   1   2
ATOM      2  C   UNL     1       7.380  44.793  42.731  1.00  0.00     0.000 C 
BRANCH   2   3
ATOM      3  C   UNL     1       7.082  44.015  44.026  1.00  0.00     0.000 C 
BRANCH   3   4
ATOM      4  C   UNL     1       6.014  42.928  43.839  1.00  0.00     0.000 C 
BRANCH   4   5
ATOM      5  C   UNL     1       5.419  42.506  45.192  1.00  0.00     0.001 C 
BRANCH   5   6
ATOM      6  C   UNL     1       6.219  41.379  45.872  1.00  0.00     0.009 C 
BRANCH   6   7
ATOM      7  C   UNL     1       5.701  40.993  47.276  1.00  0.00     0.032 C 
ATOM      8  C   UNL     1       5.021  42.193  47.943  1.00  0.00     0.014 C 
BRANCH   7   9
ATOM      9  C   UNL     1       6.813  40.488  48.154  1.00  0.00     0.044 C 
ATOM     10  O   UNL     1       7.380  41.266  48.965  1.00  0.00    -0.550 OA
ATOM     11  O   UNL     1       7.223  39.162  48.077  1.00  0.00    -0.550 OA
ENDBRANCH   7   9
ENDBRANCH   6   7
ENDBRANCH   5   6
ENDBRANCH   4   5
ENDBRANCH   3   4
ENDBRANCH   2   3
ENDBRANCH   1   2
BRANCH   1  12
ATOM     12  C   UNL     1       8.983  43.970  40.908  1.00  0.00     0.000 C 
BRANCH  12  13
ATOM     13  C   UNL     1       9.561  42.564  41.119  1.00  0.00    -0.000 C 
BRANCH  13  14
ATOM     14  C   UNL     1       8.481  41.510  41.422  1.00  0.00    -0.000 C 
BRANCH  14  15
ATOM     15  C   UNL     1       8.807  40.624  42.642  1.00  0.00    -0.000 C 
BRANCH  15  16
ATOM     16  C   UNL     1      10.019  41.144  43.431  1.00  0.00    -0.000 C 
BRANCH  16  17
ATOM     17  C   UNL     1      11.050  40.028  43.655  1.00  0.00    -0.000 C 
BRANCH  17  18
ATOM     18  C   UNL     1      12.150  40.018  42.582  1.00  0.00    -0.003 C 
ATOM     19  C   UNL     1      12.758  41.399  42.344  1.00  0.00     0.004 C 
ENDBRANCH  17  18
ENDBRANCH  16  17
ENDBRANCH  15  16
ENDBRANCH  14  15
ENDBRANCH  13  14
ENDBRANCH  12  13
ENDBRANCH   1  12
TORSDOF 14
ENDMDL
