MODEL 1
REMARK VINA RESULT:    -5.429      0.000      0.000
REMARK INTER + INTRA:          -6.019
REMARK INTER:                  -5.905
REMARK INTRA:                  -0.114
REMARK UNBOUND:                -0.114
REMARK SMILES Cc1ccc(C(C)C)cc1O
REMARK SMILES IDX 1 1 2 2 10 3 9 4 5 5 4 6 3 7 11 8 6 10 7 11 8 12
REMARK H PARENT 11 9
REMARK Flexibility Score: inf
ROOT
ATOM      1  C   UNL     1      17.634  27.301 -14.827  1.00  0.00     0.048 C 
ATOM      2  C   UNL     1      18.443  27.576 -13.589  1.00  0.00    -0.009 A 
ATOM      3  C   UNL     1      18.181  26.897 -12.379  1.00  0.00     0.118 A 
ATOM      4  C   UNL     1      18.951  27.176 -11.243  1.00  0.00     0.050 A 
ATOM      5  C   UNL     1      19.986  28.124 -11.288  1.00  0.00    -0.042 A 
ATOM      6  C   UNL     1      20.241  28.795 -12.496  1.00  0.00     0.004 A 
ATOM      7  C   UNL     1      19.477  28.524 -13.633  1.00  0.00     0.007 A 
ENDROOT
BRANCH   3   8
ATOM      8  O   UNL     1      17.165  25.945 -12.271  1.00  0.00    -0.508 OA
ATOM      9  H   UNL     1      17.216  25.152 -11.644  1.00  0.00     0.293 HD
ENDBRANCH   3   8
BRANCH   5  10
ATOM     10  C   UNL     1      20.808  28.410 -10.044  1.00  0.00     0.013 C 
ATOM     11  C   UNL     1      22.264  27.969 -10.230  1.00  0.00     0.012 C 
ATOM     12  C   UNL     1      20.185  27.752  -8.807  1.00  0.00     0.012 C 
ENDBRANCH   5  10
TORSDOF 2
ENDMDL
MODEL 2
REMARK VINA RESULT:    -5.120     13.803     16.048
REMARK INTER + INTRA:          -5.683
REMARK INTER:                  -5.563
REMARK INTRA:                  -0.121
REMARK UNBOUND:                -0.114
REMARK SMILES Cc1ccc(C(C)C)cc1O
REMARK SMILES IDX 1 1 2 2 10 3 9 4 5 5 4 6 3 7 11 8 6 10 7 11 8 12
REMARK H PARENT 11 9
REMARK Flexibility Score: inf
ROOT
ATOM      1  C   UNL     1      36.402  32.036 -14.495  1.00  0.00     0.048 C 
ATOM      2  C   UNL     1      35.642  31.513 -13.308  1.00  0.00    -0.009 A 
ATOM      3  C   UNL     1      35.955  31.933 -11.996  1.00  0.00     0.118 A 
ATOM      4  C   UNL     1      35.229  31.428 -10.911  1.00  0.00     0.050 A 
ATOM      5  C   UNL     1      34.187  30.506 -11.106  1.00  0.00    -0.042 A 
ATOM      6  C   UNL     1      33.881  30.094 -12.414  1.00  0.00     0.004 A 
ATOM      7  C   UNL     1      34.601  30.592 -13.502  1.00  0.00     0.007 A 
ENDROOT
BRANCH   3   8
ATOM      8  O   UNL     1      36.980  32.847 -11.738  1.00  0.00    -0.508 OA
ATOM      9  H   UNL     1      37.892  32.790 -12.172  1.00  0.00     0.293 HD
ENDBRANCH   3   8
BRANCH   5  10
ATOM     10  C   UNL     1      33.413  29.972  -9.914  1.00  0.00     0.013 C 
ATOM     11  C   UNL     1      31.902  30.089 -10.139  1.00  0.00     0.012 C 
ATOM     12  C   UNL     1      33.836  30.677  -8.620  1.00  0.00     0.012 C 
ENDBRANCH   5  10
TORSDOF 2
ENDMDL
MODEL 3
REMARK VINA RESULT:    -5.035     13.158     15.107
REMARK INTER + INTRA:          -5.590
REMARK INTER:                  -5.490
REMARK INTRA:                  -0.100
REMARK UNBOUND:                -0.114
REMARK SMILES Cc1ccc(C(C)C)cc1O
REMARK SMILES IDX 1 1 2 2 10 3 9 4 5 5 4 6 3 7 11 8 6 10 7 11 8 12
REMARK H PARENT 11 9
REMARK Flexibility Score: inf
ROOT
ATOM      1  C   UNL     1      21.095  23.363 -22.885  1.00  0.00     0.048 C 
ATOM      2  C   UNL     1      22.287  23.148 -23.777  1.00  0.00    -0.009 A 
ATOM      3  C   UNL     1      22.134  22.934 -25.165  1.00  0.00     0.118 A 
ATOM      4  C   UNL     1      23.263  22.738 -25.968  1.00  0.00     0.050 A 
ATOM      5  C   UNL     1      24.554  22.751 -25.414  1.00  0.00    -0.042 A 
ATOM      6  C   UNL     1      24.698  22.965 -24.033  1.00  0.00     0.004 A 
ATOM      7  C   UNL     1      23.577  23.161 -23.224  1.00  0.00     0.007 A 
ENDROOT
BRANCH   3   8
ATOM      8  O   UNL     1      20.877  22.910 -25.773  1.00  0.00    -0.508 OA
ATOM      9  H   UNL     1      20.724  22.556 -26.709  1.00  0.00     0.293 HD
ENDBRANCH   3   8
BRANCH   5  10
ATOM     10  C   UNL     1      25.764  22.535 -26.305  1.00  0.00     0.013 C 
ATOM     11  C   UNL     1      26.045  23.772 -27.166  1.00  0.00     0.012 C 
ATOM     12  C   UNL     1      25.594  21.283 -27.175  1.00  0.00     0.012 C 
ENDBRANCH   5  10
TORSDOF 2
ENDMDL
MODEL 4
REMARK VINA RESULT:    -5.003     12.534     13.599
REMARK INTER + INTRA:          -5.555
REMARK INTER:                  -5.430
REMARK INTRA:                  -0.125
REMARK UNBOUND:                -0.114
REMARK SMILES Cc1ccc(C(C)C)cc1O
REMARK SMILES IDX 1 1 2 2 10 3 9 4 5 5 4 6 3 7 11 8 6 10 7 11 8 12
REMARK H PARENT 11 9
REMARK Flexibility Score: inf
ROOT
ATOM      1  C   UNL     1      28.516  31.501 -19.155  1.00  0.00     0.048 C 
ATOM      2  C   UNL     1      29.686  31.502 -18.211  1.00  0.00    -0.009 A 
ATOM      3  C   UNL     1      30.877  30.808 -18.521  1.00  0.00     0.118 A 
ATOM      4  C   UNL     1      31.949  30.828 -17.621  1.00  0.00     0.050 A 
ATOM      5  C   UNL     1      31.860  31.531 -16.408  1.00  0.00    -0.042 A 
ATOM      6  C   UNL     1      30.673  32.220 -16.107  1.00  0.00     0.004 A 
ATOM      7  C   UNL     1      29.598  32.205 -16.999  1.00  0.00     0.007 A 
ENDROOT
BRANCH   3   8
ATOM      8  O   UNL     1      31.025  30.090 -19.710  1.00  0.00    -0.508 OA
ATOM      9  H   UNL     1      31.579  30.421 -20.488  1.00  0.00     0.293 HD
ENDBRANCH   3   8
BRANCH   5  10
ATOM     10  C   UNL     1      33.035  31.538 -15.447  1.00  0.00     0.013 C 
ATOM     11  C   UNL     1      32.589  31.179 -14.025  1.00  0.00     0.012 C 
ATOM     12  C   UNL     1      33.762  32.889 -15.474  1.00  0.00     0.012 C 
ENDBRANCH   5  10
TORSDOF 2
ENDMDL
MODEL 5
REMARK VINA RESULT:    -4.968     15.840     17.109
REMARK INTER + INTRA:          -5.517
REMARK INTER:                  -5.416
REMARK INTRA:                  -0.101
REMARK UNBOUND:                -0.114
REMARK SMILES Cc1ccc(C(C)C)cc1O
REMARK SMILES IDX 1 1 2 2 10 3 9 4 5 5 4 6 3 7 11 8 6 10 7 11 8 12
REMARK H PARENT 11 9
REMARK Flexibility Score: inf
ROOT
ATOM      1  C   UNL     1      31.497  31.340 -18.765  1.00  0.00     0.048 C 
ATOM      2  C   UNL     1      31.904  32.558 -19.547  1.00  0.00    -0.009 A 
ATOM      3  C   UNL     1      30.949  33.337 -20.237  1.00  0.00     0.118 A 
ATOM      4  C   UNL     1      31.359  34.465 -20.957  1.00  0.00     0.050 A 
ATOM      5  C   UNL     1      32.713  34.837 -21.005  1.00  0.00    -0.042 A 
ATOM      6  C   UNL     1      33.657  34.058 -20.316  1.00  0.00     0.004 A 
ATOM      7  C   UNL     1      33.256  32.931 -19.596  1.00  0.00     0.007 A 
ENDROOT
BRANCH   3   8
ATOM      8  O   UNL     1      29.589  33.018 -20.228  1.00  0.00    -0.508 OA
ATOM      9  H   UNL     1      29.196  32.264 -20.776  1.00  0.00     0.293 HD
ENDBRANCH   3   8
BRANCH   5  10
ATOM     10  C   UNL     1      33.135  36.065 -21.793  1.00  0.00     0.013 C 
ATOM     11  C   UNL     1      32.214  37.254 -21.499  1.00  0.00     0.012 C 
ATOM     12  C   UNL     1      33.189  35.765 -23.296  1.00  0.00     0.012 C 
ENDBRANCH   5  10
TORSDOF 2
ENDMDL
MODEL 6
REMARK VINA RESULT:    -4.919     12.743     14.742
REMARK INTER + INTRA:          -5.465
REMARK INTER:                  -5.340
REMARK INTRA:                  -0.124
REMARK UNBOUND:                -0.114
REMARK SMILES Cc1ccc(C(C)C)cc1O
REMARK SMILES IDX 1 1 2 2 10 3 9 4 5 5 4 6 3 7 11 8 6 10 7 11 8 12
REMARK H PARENT 11 9
REMARK Flexibility Score: inf
ROOT
ATOM      1  C   UNL     1      20.522  24.545 -23.737  1.00  0.00     0.048 C 
ATOM      2  C   UNL     1      21.815  24.040 -24.316  1.00  0.00    -0.009 A 
ATOM      3  C   UNL     1      22.904  23.695 -23.485  1.00  0.00     0.118 A 
ATOM      4  C   UNL     1      24.094  23.228 -24.055  1.00  0.00     0.050 A 
ATOM      5  C   UNL     1      24.224  23.096 -25.447  1.00  0.00    -0.042 A 
ATOM      6  C   UNL     1      23.137  23.440 -26.267  1.00  0.00     0.004 A 
ATOM      7  C   UNL     1      21.946  23.907 -25.707  1.00  0.00     0.007 A 
ENDROOT
BRANCH   3   8
ATOM      8  O   UNL     1      22.836  23.806 -22.094  1.00  0.00    -0.508 OA
ATOM      9  H   UNL     1      22.211  23.248 -21.526  1.00  0.00     0.293 HD
ENDBRANCH   3   8
BRANCH   5  10
ATOM     10  C   UNL     1      25.525  22.588 -26.043  1.00  0.00     0.013 C 
ATOM     11  C   UNL     1      26.154  23.633 -26.971  1.00  0.00     0.012 C 
ATOM     12  C   UNL     1      25.315  21.255 -26.772  1.00  0.00     0.012 C 
ENDBRANCH   5  10
TORSDOF 2
ENDMDL
MODEL 7
REMARK VINA RESULT:    -4.909     12.204     14.181
REMARK INTER + INTRA:          -5.453
REMARK INTER:                  -5.333
REMARK INTRA:                  -0.120
REMARK UNBOUND:                -0.114
REMARK SMILES Cc1ccc(C(C)C)cc1O
REMARK SMILES IDX 1 1 2 2 10 3 9 4 5 5 4 6 3 7 11 8 6 10 7 11 8 12
REMARK H PARENT 11 9
REMARK Flexibility Score: inf
ROOT
ATOM      1  C   UNL     1      25.512  22.183 -26.407  1.00  0.00     0.048 C 
ATOM      2  C   UNL     1      24.408  22.660 -25.504  1.00  0.00    -0.009 A 
ATOM      3  C   UNL     1      23.110  22.909 -26.004  1.00  0.00     0.118 A 
ATOM      4  C   UNL     1      22.104  23.352 -25.138  1.00  0.00     0.050 A 
ATOM      5  C   UNL     1      22.364  23.555 -23.773  1.00  0.00    -0.042 A 
ATOM      6  C   UNL     1      23.657  23.305 -23.283  1.00  0.00     0.004 A 
ATOM      7  C   UNL     1      24.667  22.863 -24.140  1.00  0.00     0.007 A 
ENDROOT
BRANCH   3   8
ATOM      8  O   UNL     1      22.790  22.726 -27.351  1.00  0.00    -0.508 OA
ATOM      9  H   UNL     1      22.197  23.362 -27.869  1.00  0.00     0.293 HD
ENDBRANCH   3   8
BRANCH   5  10
ATOM     10  C   UNL     1      21.257  24.038 -22.853  1.00  0.00     0.013 C 
ATOM     11  C   UNL     1      19.976  24.338 -23.639  1.00  0.00     0.012 C 
ATOM     12  C   UNL     1      21.707  25.259 -22.040  1.00  0.00     0.012 C 
ENDBRANCH   5  10
TORSDOF 2
ENDMDL
MODEL 8
REMARK VINA RESULT:    -4.897     11.711     13.831
REMARK INTER + INTRA:          -5.440
REMARK INTER:                  -5.314
REMARK INTRA:                  -0.126
REMARK UNBOUND:                -0.114
REMARK SMILES Cc1ccc(C(C)C)cc1O
REMARK SMILES IDX 1 1 2 2 10 3 9 4 5 5 4 6 3 7 11 8 6 10 7 11 8 12
REMARK H PARENT 11 9
REMARK Flexibility Score: inf
ROOT
ATOM      1  C   UNL     1      25.361  22.390 -26.051  1.00  0.00     0.048 C 
ATOM      2  C   UNL     1      24.160  22.846 -25.269  1.00  0.00    -0.009 A 
ATOM      3  C   UNL     1      24.275  23.250 -23.920  1.00  0.00     0.118 A 
ATOM      4  C   UNL     1      23.138  23.669 -23.220  1.00  0.00     0.050 A 
ATOM      5  C   UNL     1      21.877  23.694 -23.839  1.00  0.00    -0.042 A 
ATOM      6  C   UNL     1      21.771  23.291 -25.181  1.00  0.00     0.004 A 
ATOM      7  C   UNL     1      22.900  22.872 -25.887  1.00  0.00     0.007 A 
ENDROOT
BRANCH   3   8
ATOM      8  O   UNL     1      25.500  23.246 -23.250  1.00  0.00    -0.508 OA
ATOM      9  H   UNL     1      25.672  22.697 -22.418  1.00  0.00     0.293 HD
ENDBRANCH   3   8
BRANCH   5  10
ATOM     10  C   UNL     1      20.658  24.152 -23.059  1.00  0.00     0.013 C 
ATOM     11  C   UNL     1      19.506  24.521 -24.001  1.00  0.00     0.012 C 
ATOM     12  C   UNL     1      21.005  25.318 -22.126  1.00  0.00     0.012 C 
ENDBRANCH   5  10
TORSDOF 2
ENDMDL
MODEL 9
REMARK VINA RESULT:    -4.876     17.631     18.718
REMARK INTER + INTRA:          -5.417
REMARK INTER:                  -5.292
REMARK INTRA:                  -0.126
REMARK UNBOUND:                -0.114
REMARK SMILES Cc1ccc(C(C)C)cc1O
REMARK SMILES IDX 1 1 2 2 10 3 9 4 5 5 4 6 3 7 11 8 6 10 7 11 8 12
REMARK H PARENT 11 9
REMARK Flexibility Score: inf
ROOT
ATOM      1  C   UNL     1      28.418  39.540 -24.159  1.00  0.00     0.048 C 
ATOM      2  C   UNL     1      29.549  38.735 -23.579  1.00  0.00    -0.009 A 
ATOM      3  C   UNL     1      29.450  38.154 -22.295  1.00  0.00     0.118 A 
ATOM      4  C   UNL     1      30.519  37.410 -21.784  1.00  0.00     0.050 A 
ATOM      5  C   UNL     1      31.695  37.230 -22.530  1.00  0.00    -0.042 A 
ATOM      6  C   UNL     1      31.786  37.810 -23.806  1.00  0.00     0.004 A 
ATOM      7  C   UNL     1      30.724  38.554 -24.324  1.00  0.00     0.007 A 
ENDROOT
BRANCH   3   8
ATOM      8  O   UNL     1      28.307  38.298 -21.506  1.00  0.00    -0.508 OA
ATOM      9  H   UNL     1      28.168  39.075 -20.873  1.00  0.00     0.293 HD
ENDBRANCH   3   8
BRANCH   5  10
ATOM     10  C   UNL     1      32.843  36.419 -21.954  1.00  0.00     0.013 C 
ATOM     11  C   UNL     1      33.659  35.750 -23.065  1.00  0.00     0.012 C 
ATOM     12  C   UNL     1      32.335  35.385 -20.941  1.00  0.00     0.012 C 
ENDBRANCH   5  10
TORSDOF 2
ENDMDL
