MODEL 1
REMARK VINA RESULT:    -5.310      0.000      0.000
REMARK INTER + INTRA:          -6.411
REMARK INTER:                  -6.241
REMARK INTRA:                  -0.170
REMARK UNBOUND:                -0.170
REMARK SMILES O=c1c(O)c(-c2ccc(O)c(O)c2)oc2cc(O)ccc12
REMARK SMILES IDX 5 1 3 2 2 3 1 4 21 5 15 6 14 7 16 8 17 9 19 10 20 11 6 12
REMARK SMILES IDX 7 13 8 14 9 15 13 16 11 17 10 18 12 20 4 22 18 24
REMARK H PARENT 10 19 12 21 4 23 18 25
REMARK Flexibility Score: inf
ROOT
ATOM      1  C   UNL     1       3.808  12.083  31.673  1.00  0.00     0.180 A 
ATOM      2  C   UNL     1       2.414  11.918  31.536  1.00  0.00     0.208 A 
ATOM      3  C   UNL     1       1.795  12.352  30.353  1.00  0.00     0.235 A 
ATOM      4  O   UNL     1       0.551  12.205  30.202  1.00  0.00    -0.285 OA
ATOM      5  C   UNL     1       2.570  12.953  29.349  1.00  0.00     0.069 A 
ATOM      6  C   UNL     1       3.956  13.103  29.573  1.00  0.00     0.142 A 
ATOM      7  O   UNL     1       4.504  12.671  30.703  1.00  0.00    -0.452 OA
ATOM      8  C   UNL     1       4.761  13.707  28.600  1.00  0.00     0.094 A 
ATOM      9  C   UNL     1       4.197  14.163  27.402  1.00  0.00     0.119 A 
ATOM     10  C   UNL     1       2.824  14.014  27.177  1.00  0.00     0.047 A 
ATOM     11  C   UNL     1       2.011  13.413  28.143  1.00  0.00     0.020 A 
ENDROOT
BRANCH   1  12
ATOM     12  C   UNL     1       4.537  11.635  32.882  1.00  0.00     0.025 A 
ATOM     13  C   UNL     1       4.592  10.277  33.243  1.00  0.00     0.016 A 
ATOM     14  C   UNL     1       5.306   9.876  34.374  1.00  0.00     0.051 A 
ATOM     15  C   UNL     1       5.986  10.822  35.154  1.00  0.00     0.157 A 
ATOM     16  C   UNL     1       5.237  12.576  33.655  1.00  0.00     0.062 A 
ATOM     17  C   UNL     1       5.953  12.178  34.789  1.00  0.00     0.158 A 
BRANCH  15  18
ATOM     18  O   UNL     1       6.697  10.418  36.284  1.00  0.00    -0.504 OA
ATOM     19  H   UNL     1       7.186   9.531  36.314  1.00  0.00     0.293 HD
ENDBRANCH  15  18
BRANCH  17  20
ATOM     20  O   UNL     1       6.625  13.143  35.539  1.00  0.00    -0.504 OA
ATOM     21  H   UNL     1       6.419  13.303  36.518  1.00  0.00     0.293 HD
ENDBRANCH  17  20
ENDBRANCH   1  12
BRANCH   2  22
ATOM     22  O   UNL     1       1.661  11.360  32.572  1.00  0.00    -0.502 OA
ATOM     23  H   UNL     1       1.694  11.719  33.518  1.00  0.00     0.293 HD
ENDBRANCH   2  22
BRANCH   9  24
ATOM     24  O   UNL     1       4.991  14.765  26.427  1.00  0.00    -0.508 OA
ATOM     25  H   UNL     1       4.625  15.490  25.822  1.00  0.00     0.293 HD
ENDBRANCH   9  24
TORSDOF 5
ENDMDL
MODEL 2
REMARK VINA RESULT:    -4.686      1.853      2.647
REMARK INTER + INTRA:          -5.678
REMARK INTER:                  -5.539
REMARK INTRA:                  -0.139
REMARK UNBOUND:                -0.170
REMARK SMILES O=c1c(O)c(-c2ccc(O)c(O)c2)oc2cc(O)ccc12
REMARK SMILES IDX 5 1 3 2 2 3 1 4 21 5 15 6 14 7 16 8 17 9 19 10 20 11 6 12
REMARK SMILES IDX 7 13 8 14 9 15 13 16 11 17 10 18 12 20 4 22 18 24
REMARK H PARENT 10 19 12 21 4 23 18 25
REMARK Flexibility Score: inf
ROOT
ATOM      1  C   UNL     1       4.223  11.528  32.172  1.00  0.00     0.180 A 
ATOM      2  C   UNL     1       4.615  10.834  31.009  1.00  0.00     0.208 A 
ATOM      3  C   UNL     1       3.947  11.103  29.804  1.00  0.00     0.235 A 
ATOM      4  O   UNL     1       4.287  10.504  28.746  1.00  0.00    -0.285 OA
ATOM      5  C   UNL     1       2.899  12.037  29.789  1.00  0.00     0.069 A 
ATOM      6  C   UNL     1       2.551  12.671  31.002  1.00  0.00     0.142 A 
ATOM      7  O   UNL     1       3.214  12.394  32.119  1.00  0.00    -0.452 OA
ATOM      8  C   UNL     1       1.504  13.600  31.030  1.00  0.00     0.094 A 
ATOM      9  C   UNL     1       0.799  13.905  29.859  1.00  0.00     0.119 A 
ATOM     10  C   UNL     1       1.143  13.279  28.656  1.00  0.00     0.047 A 
ATOM     11  C   UNL     1       2.186  12.348  28.617  1.00  0.00     0.020 A 
ENDROOT
BRANCH   1  12
ATOM     12  C   UNL     1       4.890  11.313  33.477  1.00  0.00     0.025 A 
ATOM     13  C   UNL     1       4.857  10.062  34.118  1.00  0.00     0.016 A 
ATOM     14  C   UNL     1       5.514   9.876  35.337  1.00  0.00     0.051 A 
ATOM     15  C   UNL     1       6.222  10.932  35.927  1.00  0.00     0.157 A 
ATOM     16  C   UNL     1       5.618  12.362  34.062  1.00  0.00     0.062 A 
ATOM     17  C   UNL     1       6.277  12.180  35.283  1.00  0.00     0.158 A 
BRANCH  15  18
ATOM     18  O   UNL     1       6.875  10.744  37.145  1.00  0.00    -0.504 OA
ATOM     19  H   UNL     1       7.596  11.381  37.465  1.00  0.00     0.293 HD
ENDBRANCH  15  18
BRANCH  17  20
ATOM     20  O   UNL     1       6.979  13.248  35.840  1.00  0.00    -0.504 OA
ATOM     21  H   UNL     1       7.671  13.769  35.315  1.00  0.00     0.293 HD
ENDBRANCH  17  20
ENDBRANCH   1  12
BRANCH   2  22
ATOM     22  O   UNL     1       5.629   9.875  31.063  1.00  0.00    -0.502 OA
ATOM     23  H   UNL     1       6.132   9.667  31.917  1.00  0.00     0.293 HD
ENDBRANCH   2  22
BRANCH   9  24
ATOM     24  O   UNL     1      -0.243  14.829  29.878  1.00  0.00    -0.508 OA
ATOM     25  H   UNL     1      -0.103  15.790  29.590  1.00  0.00     0.293 HD
ENDBRANCH   9  24
TORSDOF 5
ENDMDL
MODEL 3
REMARK VINA RESULT:    -4.433      2.536      3.979
REMARK INTER + INTRA:          -5.381
REMARK INTER:                  -5.875
REMARK INTRA:                   0.494
REMARK UNBOUND:                -0.170
REMARK SMILES O=c1c(O)c(-c2ccc(O)c(O)c2)oc2cc(O)ccc12
REMARK SMILES IDX 5 1 3 2 2 3 1 4 21 5 15 6 14 7 16 8 17 9 19 10 20 11 6 12
REMARK SMILES IDX 7 13 8 14 9 15 13 16 11 17 10 18 12 20 4 22 18 24
REMARK H PARENT 10 19 12 21 4 23 18 25
REMARK Flexibility Score: inf
ROOT
ATOM      1  C   UNL     1       5.575  12.230  34.075  1.00  0.00     0.180 A 
ATOM      2  C   UNL     1       5.485  13.584  33.689  1.00  0.00     0.208 A 
ATOM      3  C   UNL     1       4.572  13.941  32.685  1.00  0.00     0.235 A 
ATOM      4  O   UNL     1       4.465  15.148  32.330  1.00  0.00    -0.285 OA
ATOM      5  C   UNL     1       3.787  12.947  32.079  1.00  0.00     0.069 A 
ATOM      6  C   UNL     1       3.954  11.612  32.506  1.00  0.00     0.142 A 
ATOM      7  O   UNL     1       4.823  11.316  33.465  1.00  0.00    -0.452 OA
ATOM      8  C   UNL     1       3.197  10.591  31.919  1.00  0.00     0.094 A 
ATOM      9  C   UNL     1       2.273  10.888  30.909  1.00  0.00     0.119 A 
ATOM     10  C   UNL     1       2.105  12.211  30.486  1.00  0.00     0.047 A 
ATOM     11  C   UNL     1       2.857  13.238  31.065  1.00  0.00     0.020 A 
ENDROOT
BRANCH   1  12
ATOM     12  C   UNL     1       6.501  11.776  35.138  1.00  0.00     0.025 A 
ATOM     13  C   UNL     1       6.821  10.416  35.297  1.00  0.00     0.016 A 
ATOM     14  C   UNL     1       7.716  10.013  36.291  1.00  0.00     0.051 A 
ATOM     15  C   UNL     1       8.313  10.963  37.132  1.00  0.00     0.157 A 
ATOM     16  C   UNL     1       7.118  12.725  35.969  1.00  0.00     0.062 A 
ATOM     17  C   UNL     1       8.014  12.325  36.966  1.00  0.00     0.158 A 
BRANCH  15  18
ATOM     18  O   UNL     1       9.205  10.557  38.124  1.00  0.00    -0.504 OA
ATOM     19  H   UNL     1       9.242  11.020  39.025  1.00  0.00     0.293 HD
ENDBRANCH  15  18
BRANCH  17  20
ATOM     20  O   UNL     1       8.597  13.295  37.781  1.00  0.00    -0.504 OA
ATOM     21  H   UNL     1       9.445  13.118  38.306  1.00  0.00     0.293 HD
ENDBRANCH  17  20
ENDBRANCH   1  12
BRANCH   2  22
ATOM     22  O   UNL     1       6.313  14.544  34.275  1.00  0.00    -0.502 OA
ATOM     23  H   UNL     1       7.052  15.007  33.761  1.00  0.00     0.293 HD
ENDBRANCH   2  22
BRANCH   9  24
ATOM     24  O   UNL     1       1.515   9.878  30.320  1.00  0.00    -0.508 OA
ATOM     25  H   UNL     1       1.938   9.188  29.710  1.00  0.00     0.293 HD
ENDBRANCH   9  24
TORSDOF 5
ENDMDL
MODEL 4
REMARK VINA RESULT:    -3.474      3.450      5.215
REMARK INTER + INTRA:          -4.254
REMARK INTER:                  -4.104
REMARK INTRA:                  -0.150
REMARK UNBOUND:                -0.170
REMARK SMILES O=c1c(O)c(-c2ccc(O)c(O)c2)oc2cc(O)ccc12
REMARK SMILES IDX 5 1 3 2 2 3 1 4 21 5 15 6 14 7 16 8 17 9 19 10 20 11 6 12
REMARK SMILES IDX 7 13 8 14 9 15 13 16 11 17 10 18 12 20 4 22 18 24
REMARK H PARENT 10 19 12 21 4 23 18 25
REMARK Flexibility Score: inf
ROOT
ATOM      1  C   UNL     1       2.911  13.716  29.328  1.00  0.00     0.180 A 
ATOM      2  C   UNL     1       2.990  13.333  27.974  1.00  0.00     0.208 A 
ATOM      3  C   UNL     1       4.145  13.658  27.245  1.00  0.00     0.235 A 
ATOM      4  O   UNL     1       4.244  13.317  26.034  1.00  0.00    -0.285 OA
ATOM      5  C   UNL     1       5.180  14.369  27.873  1.00  0.00     0.069 A 
ATOM      6  C   UNL     1       5.013  14.737  29.226  1.00  0.00     0.142 A 
ATOM      7  O   UNL     1       3.908  14.402  29.882  1.00  0.00    -0.452 OA
ATOM      8  C   UNL     1       6.018  15.456  29.884  1.00  0.00     0.094 A 
ATOM      9  C   UNL     1       7.191  15.812  29.205  1.00  0.00     0.119 A 
ATOM     10  C   UNL     1       7.359  15.446  27.865  1.00  0.00     0.047 A 
ATOM     11  C   UNL     1       6.360  14.730  27.198  1.00  0.00     0.020 A 
ENDROOT
BRANCH   1  12
ATOM     12  C   UNL     1       1.735  13.395  30.169  1.00  0.00     0.025 A 
ATOM     13  C   UNL     1       0.464  13.922  29.880  1.00  0.00     0.016 A 
ATOM     14  C   UNL     1      -0.636  13.585  30.673  1.00  0.00     0.051 A 
ATOM     15  C   UNL     1      -0.486  12.709  31.757  1.00  0.00     0.157 A 
ATOM     16  C   UNL     1       1.876  12.502  31.243  1.00  0.00     0.062 A 
ATOM     17  C   UNL     1       0.777  12.162  32.040  1.00  0.00     0.158 A 
BRANCH  15  18
ATOM     18  O   UNL     1      -1.586  12.377  32.547  1.00  0.00    -0.504 OA
ATOM     19  H   UNL     1      -2.234  13.083  32.878  1.00  0.00     0.293 HD
ENDBRANCH  15  18
BRANCH  17  20
ATOM     20  O   UNL     1       0.958  11.282  33.106  1.00  0.00    -0.504 OA
ATOM     21  H   UNL     1       0.930  11.591  34.070  1.00  0.00     0.293 HD
ENDBRANCH  17  20
ENDBRANCH   1  12
BRANCH   2  22
ATOM     22  O   UNL     1       1.924  12.669  27.362  1.00  0.00    -0.502 OA
ATOM     23  H   UNL     1       1.045  12.503  27.837  1.00  0.00     0.293 HD
ENDBRANCH   2  22
BRANCH   9  24
ATOM     24  O   UNL     1       8.197  16.526  29.853  1.00  0.00    -0.508 OA
ATOM     25  H   UNL     1       8.068  17.494  30.121  1.00  0.00     0.293 HD
ENDBRANCH   9  24
TORSDOF 5
ENDMDL
MODEL 5
REMARK VINA RESULT:    -3.172      1.313      1.996
REMARK INTER + INTRA:          -3.899
REMARK INTER:                  -4.189
REMARK INTRA:                   0.290
REMARK UNBOUND:                -0.170
REMARK SMILES O=c1c(O)c(-c2ccc(O)c(O)c2)oc2cc(O)ccc12
REMARK SMILES IDX 5 1 3 2 2 3 1 4 21 5 15 6 14 7 16 8 17 9 19 10 20 11 6 12
REMARK SMILES IDX 7 13 8 14 9 15 13 16 11 17 10 18 12 20 4 22 18 24
REMARK H PARENT 10 19 12 21 4 23 18 25
REMARK Flexibility Score: inf
ROOT
ATOM      1  C   UNL     1       4.431  11.917  32.340  1.00  0.00     0.180 A 
ATOM      2  C   UNL     1       3.468  10.895  32.204  1.00  0.00     0.208 A 
ATOM      3  C   UNL     1       2.737  10.810  31.009  1.00  0.00     0.235 A 
ATOM      4  O   UNL     1       1.878   9.897  30.858  1.00  0.00    -0.285 OA
ATOM      5  C   UNL     1       2.967  11.748  29.990  1.00  0.00     0.069 A 
ATOM      6  C   UNL     1       3.932  12.754  30.214  1.00  0.00     0.142 A 
ATOM      7  O   UNL     1       4.607  12.796  31.357  1.00  0.00    -0.452 OA
ATOM      8  C   UNL     1       4.182  13.715  29.227  1.00  0.00     0.094 A 
ATOM      9  C   UNL     1       3.480  13.682  28.015  1.00  0.00     0.119 A 
ATOM     10  C   UNL     1       2.525  12.683  27.791  1.00  0.00     0.047 A 
ATOM     11  C   UNL     1       2.266  11.721  28.772  1.00  0.00     0.020 A 
ENDROOT
BRANCH   1  12
ATOM     12  C   UNL     1       5.254  12.063  33.563  1.00  0.00     0.025 A 
ATOM     13  C   UNL     1       5.654  13.328  34.028  1.00  0.00     0.016 A 
ATOM     14  C   UNL     1       6.410  13.443  35.198  1.00  0.00     0.051 A 
ATOM     15  C   UNL     1       6.766  12.299  35.925  1.00  0.00     0.157 A 
ATOM     16  C   UNL     1       5.596  10.922  34.306  1.00  0.00     0.062 A 
ATOM     17  C   UNL     1       6.354  11.032  35.478  1.00  0.00     0.158 A 
BRANCH  15  18
ATOM     18  O   UNL     1       7.523  12.417  37.091  1.00  0.00    -0.504 OA
ATOM     19  H   UNL     1       8.214  11.721  37.348  1.00  0.00     0.293 HD
ENDBRANCH  15  18
BRANCH  17  20
ATOM     20  O   UNL     1       6.685   9.876  36.182  1.00  0.00    -0.504 OA
ATOM     21  H   UNL     1       7.584   9.760  36.634  1.00  0.00     0.293 HD
ENDBRANCH  17  20
ENDBRANCH   1  12
BRANCH   2  22
ATOM     22  O   UNL     1       3.226  10.005  33.253  1.00  0.00    -0.502 OA
ATOM     23  H   UNL     1       3.278   9.001  33.134  1.00  0.00     0.293 HD
ENDBRANCH   2  22
BRANCH   9  24
ATOM     24  O   UNL     1       3.723  14.633  27.027  1.00  0.00    -0.508 OA
ATOM     25  H   UNL     1       4.113  15.541  27.252  1.00  0.00     0.293 HD
ENDBRANCH   9  24
TORSDOF 5
ENDMDL
