MODEL 1
REMARK VINA RESULT:    -2.903      0.000      0.000
REMARK INTER + INTRA:          -6.931
REMARK INTER:                  -5.110
REMARK INTRA:                  -1.820
REMARK UNBOUND:                -1.820
REMARK SMILES CCCCCCCCCCCCCCC(=O)[O-]
REMARK SMILES IDX 9 1 10 2 11 3 12 4 13 5 14 6 15 7 16 8 17 9 8 10 7 11 6 12
REMARK SMILES IDX 5 13 4 14 3 15 2 16 1 17
REMARK H PARENT
REMARK Flexibility Score: inf
ROOT
ATOM      1  C   UNL     1      23.089  27.644  47.121  1.00  0.00     0.000 C 
ENDROOT
BRANCH   1   2
ATOM      2  C   UNL     1      23.085  29.037  46.468  1.00  0.00     0.000 C 
BRANCH   2   3
ATOM      3  C   UNL     1      23.941  30.052  47.241  1.00  0.00     0.000 C 
BRANCH   3   4
ATOM      4  C   UNL     1      23.905  31.455  46.610  1.00  0.00     0.000 C 
BRANCH   4   5
ATOM      5  C   UNL     1      25.226  31.824  45.915  1.00  0.00     0.006 C 
BRANCH   5   6
ATOM      6  C   UNL     1      25.298  31.307  44.473  1.00  0.00     0.053 C 
BRANCH   6   7
ATOM      7  C   UNL     1      24.928  32.390  43.511  1.00  0.00     0.041 C 
ATOM      8  O   UNL     1      23.735  32.782  43.425  1.00  0.00    -0.550 OA
ATOM      9  O   UNL     1      25.893  32.935  42.671  1.00  0.00    -0.550 OA
ENDBRANCH   6   7
ENDBRANCH   5   6
ENDBRANCH   4   5
ENDBRANCH   3   4
ENDBRANCH   2   3
ENDBRANCH   1   2
BRANCH   1  10
ATOM     10  C   UNL     1      23.719  27.648  48.522  1.00  0.00     0.000 C 
BRANCH  10  11
ATOM     11  C   UNL     1      22.826  26.961  49.571  1.00  0.00    -0.000 C 
BRANCH  11  12
ATOM     12  C   UNL     1      21.966  27.959  50.365  1.00  0.00    -0.000 C 
BRANCH  12  13
ATOM     13  C   UNL     1      22.632  29.324  50.628  1.00  0.00    -0.000 C 
BRANCH  13  14
ATOM     14  C   UNL     1      21.674  30.526  50.472  1.00  0.00    -0.000 C 
BRANCH  14  15
ATOM     15  C   UNL     1      20.521  30.265  49.486  1.00  0.00    -0.000 C 
BRANCH  15  16
ATOM     16  C   UNL     1      20.547  31.231  48.292  1.00  0.00    -0.003 C 
ATOM     17  C   UNL     1      20.984  32.628  48.726  1.00  0.00     0.004 C 
ENDBRANCH  15  16
ENDBRANCH  14  15
ENDBRANCH  13  14
ENDBRANCH  12  13
ENDBRANCH  11  12
ENDBRANCH  10  11
ENDBRANCH   1  10
TORSDOF 13
ENDMDL
MODEL 2
REMARK VINA RESULT:    -2.857      3.447      6.356
REMARK INTER + INTRA:          -6.849
REMARK INTER:                  -4.976
REMARK INTRA:                  -1.874
REMARK UNBOUND:                -1.820
REMARK SMILES CCCCCCCCCCCCCCC(=O)[O-]
REMARK SMILES IDX 9 1 10 2 11 3 12 4 13 5 14 6 15 7 16 8 17 9 8 10 7 11 6 12
REMARK SMILES IDX 5 13 4 14 3 15 2 16 1 17
REMARK H PARENT
REMARK Flexibility Score: inf
ROOT
ATOM      1  C   UNL     1      20.188  32.323  49.830  1.00  0.00     0.000 C 
ENDROOT
BRANCH   1   2
ATOM      2  C   UNL     1      20.597  31.370  50.966  1.00  0.00     0.000 C 
BRANCH   2   3
ATOM      3  C   UNL     1      21.908  30.626  50.668  1.00  0.00     0.000 C 
BRANCH   3   4
ATOM      4  C   UNL     1      21.709  29.105  50.550  1.00  0.00     0.000 C 
BRANCH   4   5
ATOM      5  C   UNL     1      23.005  28.319  50.806  1.00  0.00     0.006 C 
BRANCH   5   6
ATOM      6  C   UNL     1      22.877  26.836  50.433  1.00  0.00     0.053 C 
BRANCH   6   7
ATOM      7  C   UNL     1      24.226  26.247  50.165  1.00  0.00     0.041 C 
ATOM      8  O   UNL     1      24.852  25.652  51.081  1.00  0.00    -0.550 OA
ATOM      9  O   UNL     1      24.815  26.399  48.916  1.00  0.00    -0.550 OA
ENDBRANCH   6   7
ENDBRANCH   5   6
ENDBRANCH   4   5
ENDBRANCH   3   4
ENDBRANCH   2   3
ENDBRANCH   1   2
BRANCH   1  10
ATOM     10  C   UNL     1      21.237  32.396  48.710  1.00  0.00     0.000 C 
BRANCH  10  11
ATOM     11  C   UNL     1      20.671  31.968  47.343  1.00  0.00    -0.000 C 
BRANCH  11  12
ATOM     12  C   UNL     1      21.772  31.655  46.315  1.00  0.00    -0.000 C 
BRANCH  12  13
ATOM     13  C   UNL     1      23.195  32.060  46.746  1.00  0.00    -0.000 C 
BRANCH  13  14
ATOM     14  C   UNL     1      24.211  30.897  46.710  1.00  0.00    -0.000 C 
BRANCH  14  15
ATOM     15  C   UNL     1      23.762  29.667  47.520  1.00  0.00    -0.000 C 
BRANCH  15  16
ATOM     16  C   UNL     1      23.382  28.484  46.617  1.00  0.00    -0.003 C 
ATOM     17  C   UNL     1      22.041  27.885  47.033  1.00  0.00     0.004 C 
ENDBRANCH  15  16
ENDBRANCH  14  15
ENDBRANCH  13  14
ENDBRANCH  12  13
ENDBRANCH  11  12
ENDBRANCH  10  11
ENDBRANCH   1  10
TORSDOF 13
ENDMDL
MODEL 3
REMARK VINA RESULT:    -2.834      1.082      2.046
REMARK INTER + INTRA:          -6.808
REMARK INTER:                  -4.712
REMARK INTRA:                  -2.096
REMARK UNBOUND:                -1.820
REMARK SMILES CCCCCCCCCCCCCCC(=O)[O-]
REMARK SMILES IDX 9 1 10 2 11 3 12 4 13 5 14 6 15 7 16 8 17 9 8 10 7 11 6 12
REMARK SMILES IDX 5 13 4 14 3 15 2 16 1 17
REMARK H PARENT
REMARK Flexibility Score: inf
ROOT
ATOM      1  C   UNL     1      23.477  26.759  49.178  1.00  0.00     0.000 C 
ENDROOT
BRANCH   1   2
ATOM      2  C   UNL     1      23.717  28.050  48.377  1.00  0.00     0.000 C 
BRANCH   2   3
ATOM      3  C   UNL     1      23.315  27.910  46.901  1.00  0.00     0.000 C 
BRANCH   3   4
ATOM      4  C   UNL     1      23.396  29.244  46.139  1.00  0.00     0.000 C 
BRANCH   4   5
ATOM      5  C   UNL     1      24.140  30.332  46.931  1.00  0.00     0.006 C 
BRANCH   5   6
ATOM      6  C   UNL     1      23.864  31.743  46.395  1.00  0.00     0.053 C 
BRANCH   6   7
ATOM      7  C   UNL     1      24.590  31.962  45.105  1.00  0.00     0.041 C 
ATOM      8  O   UNL     1      25.825  31.733  45.026  1.00  0.00    -0.550 OA
ATOM      9  O   UNL     1      23.912  32.467  44.002  1.00  0.00    -0.550 OA
ENDBRANCH   6   7
ENDBRANCH   5   6
ENDBRANCH   4   5
ENDBRANCH   3   4
ENDBRANCH   2   3
ENDBRANCH   1   2
BRANCH   1  10
ATOM     10  C   UNL     1      22.444  26.940  50.301  1.00  0.00     0.000 C 
BRANCH  10  11
ATOM     11  C   UNL     1      21.165  27.649  49.817  1.00  0.00    -0.000 C 
BRANCH  11  12
ATOM     12  C   UNL     1      20.677  28.730  50.796  1.00  0.00    -0.000 C 
BRANCH  12  13
ATOM     13  C   UNL     1      21.682  29.868  51.059  1.00  0.00    -0.000 C 
BRANCH  13  14
ATOM     14  C   UNL     1      21.894  30.804  49.848  1.00  0.00    -0.000 C 
BRANCH  14  15
ATOM     15  C   UNL     1      20.624  31.572  49.439  1.00  0.00    -0.000 C 
BRANCH  15  16
ATOM     16  C   UNL     1      20.429  31.603  47.916  1.00  0.00    -0.003 C 
ATOM     17  C   UNL     1      20.091  30.216  47.377  1.00  0.00     0.004 C 
ENDBRANCH  15  16
ENDBRANCH  14  15
ENDBRANCH  13  14
ENDBRANCH  12  13
ENDBRANCH  11  12
ENDBRANCH  10  11
ENDBRANCH   1  10
TORSDOF 13
ENDMDL
MODEL 4
REMARK VINA RESULT:    -2.819     15.358     17.582
REMARK INTER + INTRA:          -6.782
REMARK INTER:                  -4.824
REMARK INTRA:                  -1.958
REMARK UNBOUND:                -1.820
REMARK SMILES CCCCCCCCCCCCCCC(=O)[O-]
REMARK SMILES IDX 9 1 10 2 11 3 12 4 13 5 14 6 15 7 16 8 17 9 8 10 7 11 6 12
REMARK SMILES IDX 5 13 4 14 3 15 2 16 1 17
REMARK H PARENT
REMARK Flexibility Score: inf
ROOT
ATOM      1  C   UNL     1      18.464  28.161  31.645  1.00  0.00     0.000 C 
ENDROOT
BRANCH   1   2
ATOM      2  C   UNL     1      17.579  26.903  31.611  1.00  0.00     0.000 C 
BRANCH   2   3
ATOM      3  C   UNL     1      16.159  27.197  31.101  1.00  0.00     0.000 C 
BRANCH   3   4
ATOM      4  C   UNL     1      15.307  25.923  30.967  1.00  0.00     0.000 C 
BRANCH   4   5
ATOM      5  C   UNL     1      14.409  25.682  32.192  1.00  0.00     0.006 C 
BRANCH   5   6
ATOM      6  C   UNL     1      13.083  26.450  32.111  1.00  0.00     0.053 C 
BRANCH   6   7
ATOM      7  C   UNL     1      11.928  25.516  32.289  1.00  0.00     0.041 C 
ATOM      8  O   UNL     1      11.374  25.399  33.413  1.00  0.00    -0.550 OA
ATOM      9  O   UNL     1      11.494  24.735  31.224  1.00  0.00    -0.550 OA
ENDBRANCH   6   7
ENDBRANCH   5   6
ENDBRANCH   4   5
ENDBRANCH   3   4
ENDBRANCH   2   3
ENDBRANCH   1   2
BRANCH   1  10
ATOM     10  C   UNL     1      17.850  29.340  30.875  1.00  0.00     0.000 C 
BRANCH  10  11
ATOM     11  C   UNL     1      17.823  30.636  31.706  1.00  0.00    -0.000 C 
BRANCH  11  12
ATOM     12  C   UNL     1      17.747  30.372  33.219  1.00  0.00    -0.000 C 
BRANCH  12  13
ATOM     13  C   UNL     1      16.327  30.423  33.816  1.00  0.00    -0.000 C 
BRANCH  13  14
ATOM     14  C   UNL     1      15.716  29.031  34.090  1.00  0.00    -0.000 C 
BRANCH  14  15
ATOM     15  C   UNL     1      16.500  28.214  35.133  1.00  0.00    -0.000 C 
BRANCH  15  16
ATOM     16  C   UNL     1      16.223  26.707  35.018  1.00  0.00    -0.003 C 
ATOM     17  C   UNL     1      17.508  25.900  35.182  1.00  0.00     0.004 C 
ENDBRANCH  15  16
ENDBRANCH  14  15
ENDBRANCH  13  14
ENDBRANCH  12  13
ENDBRANCH  11  12
ENDBRANCH  10  11
ENDBRANCH   1  10
TORSDOF 13
ENDMDL
MODEL 5
REMARK VINA RESULT:    -2.812     12.997     15.483
REMARK INTER + INTRA:          -6.769
REMARK INTER:                  -4.667
REMARK INTRA:                  -2.102
REMARK UNBOUND:                -1.820
REMARK SMILES CCCCCCCCCCCCCCC(=O)[O-]
REMARK SMILES IDX 9 1 10 2 11 3 12 4 13 5 14 6 15 7 16 8 17 9 8 10 7 11 6 12
REMARK SMILES IDX 5 13 4 14 3 15 2 16 1 17
REMARK H PARENT
REMARK Flexibility Score: inf
ROOT
ATOM      1  C   UNL     1      18.613  27.908  31.571  1.00  0.00     0.000 C 
ENDROOT
BRANCH   1   2
ATOM      2  C   UNL     1      19.241  29.274  31.242  1.00  0.00     0.000 C 
BRANCH   2   3
ATOM      3  C   UNL     1      18.189  30.332  30.875  1.00  0.00     0.000 C 
BRANCH   3   4
ATOM      4  C   UNL     1      18.680  31.766  31.137  1.00  0.00     0.000 C 
BRANCH   4   5
ATOM      5  C   UNL     1      19.893  31.813  32.080  1.00  0.00     0.006 C 
BRANCH   5   6
ATOM      6  C   UNL     1      20.362  33.245  32.365  1.00  0.00     0.053 C 
BRANCH   6   7
ATOM      7  C   UNL     1      19.490  33.884  33.399  1.00  0.00     0.041 C 
ATOM      8  O   UNL     1      18.858  34.939  33.131  1.00  0.00    -0.550 OA
ATOM      9  O   UNL     1      19.412  33.341  34.676  1.00  0.00    -0.550 OA
ENDBRANCH   6   7
ENDBRANCH   5   6
ENDBRANCH   4   5
ENDBRANCH   3   4
ENDBRANCH   2   3
ENDBRANCH   1   2
BRANCH   1  10
ATOM     10  C   UNL     1      17.108  27.859  31.268  1.00  0.00     0.000 C 
BRANCH  10  11
ATOM     11  C   UNL     1      16.353  26.884  32.190  1.00  0.00    -0.000 C 
BRANCH  11  12
ATOM     12  C   UNL     1      15.364  27.598  33.128  1.00  0.00    -0.000 C 
BRANCH  12  13
ATOM     13  C   UNL     1      16.014  28.332  34.318  1.00  0.00    -0.000 C 
BRANCH  13  14
ATOM     14  C   UNL     1      15.867  29.868  34.257  1.00  0.00    -0.000 C 
BRANCH  14  15
ATOM     15  C   UNL     1      17.207  30.616  34.372  1.00  0.00    -0.000 C 
BRANCH  15  16
ATOM     16  C   UNL     1      18.351  29.694  34.819  1.00  0.00    -0.003 C 
ATOM     17  C   UNL     1      18.801  30.027  36.239  1.00  0.00     0.004 C 
ENDBRANCH  15  16
ENDBRANCH  14  15
ENDBRANCH  13  14
ENDBRANCH  12  13
ENDBRANCH  11  12
ENDBRANCH  10  11
ENDBRANCH   1  10
TORSDOF 13
ENDMDL
MODEL 6
REMARK VINA RESULT:    -2.794      3.849      6.379
REMARK INTER + INTRA:          -6.738
REMARK INTER:                  -5.546
REMARK INTRA:                  -1.193
REMARK UNBOUND:                -1.820
REMARK SMILES CCCCCCCCCCCCCCC(=O)[O-]
REMARK SMILES IDX 9 1 10 2 11 3 12 4 13 5 14 6 15 7 16 8 17 9 8 10 7 11 6 12
REMARK SMILES IDX 5 13 4 14 3 15 2 16 1 17
REMARK H PARENT
REMARK Flexibility Score: inf
ROOT
ATOM      1  C   UNL     1      21.091  29.853  50.738  1.00  0.00     0.000 C 
ENDROOT
BRANCH   1   2
ATOM      2  C   UNL     1      22.385  29.020  50.736  1.00  0.00     0.000 C 
BRANCH   2   3
ATOM      3  C   UNL     1      22.271  27.758  49.867  1.00  0.00     0.000 C 
BRANCH   3   4
ATOM      4  C   UNL     1      23.638  27.111  49.587  1.00  0.00     0.000 C 
BRANCH   4   5
ATOM      5  C   UNL     1      24.227  26.416  50.826  1.00  0.00     0.006 C 
BRANCH   5   6
ATOM      6  C   UNL     1      24.863  25.059  50.493  1.00  0.00     0.053 C 
BRANCH   6   7
ATOM      7  C   UNL     1      26.254  25.248  49.978  1.00  0.00     0.041 C 
ATOM      8  O   UNL     1      27.137  25.767  50.710  1.00  0.00    -0.550 OA
ATOM      9  O   UNL     1      26.566  24.896  48.670  1.00  0.00    -0.550 OA
ENDBRANCH   6   7
ENDBRANCH   5   6
ENDBRANCH   4   5
ENDBRANCH   3   4
ENDBRANCH   2   3
ENDBRANCH   1   2
BRANCH   1  10
ATOM     10  C   UNL     1      21.345  31.344  51.009  1.00  0.00     0.000 C 
BRANCH  10  11
ATOM     11  C   UNL     1      20.276  32.250  50.371  1.00  0.00    -0.000 C 
BRANCH  11  12
ATOM     12  C   UNL     1      20.822  33.074  49.192  1.00  0.00    -0.000 C 
BRANCH  12  13
ATOM     13  C   UNL     1      20.928  32.308  47.859  1.00  0.00    -0.000 C 
BRANCH  13  14
ATOM     14  C   UNL     1      22.380  32.101  47.374  1.00  0.00    -0.000 C 
BRANCH  14  15
ATOM     15  C   UNL     1      22.853  30.639  47.462  1.00  0.00    -0.000 C 
BRANCH  15  16
ATOM     16  C   UNL     1      24.126  30.388  46.641  1.00  0.00    -0.003 C 
ATOM     17  C   UNL     1      24.764  31.704  46.203  1.00  0.00     0.004 C 
ENDBRANCH  15  16
ENDBRANCH  14  15
ENDBRANCH  13  14
ENDBRANCH  12  13
ENDBRANCH  11  12
ENDBRANCH  10  11
ENDBRANCH   1  10
TORSDOF 13
ENDMDL
MODEL 7
REMARK VINA RESULT:    -2.781      1.489      3.103
REMARK INTER + INTRA:          -6.714
REMARK INTER:                  -4.674
REMARK INTRA:                  -2.041
REMARK UNBOUND:                -1.820
REMARK SMILES CCCCCCCCCCCCCCC(=O)[O-]
REMARK SMILES IDX 9 1 10 2 11 3 12 4 13 5 14 6 15 7 16 8 17 9 8 10 7 11 6 12
REMARK SMILES IDX 5 13 4 14 3 15 2 16 1 17
REMARK H PARENT
REMARK Flexibility Score: inf
ROOT
ATOM      1  C   UNL     1      21.793  30.605  45.842  1.00  0.00     0.000 C 
ENDROOT
BRANCH   1   2
ATOM      2  C   UNL     1      22.823  29.587  46.361  1.00  0.00     0.000 C 
BRANCH   2   3
ATOM      3  C   UNL     1      24.018  30.259  47.054  1.00  0.00     0.000 C 
BRANCH   3   4
ATOM      4  C   UNL     1      24.244  31.702  46.571  1.00  0.00     0.000 C 
BRANCH   4   5
ATOM      5  C   UNL     1      25.402  31.813  45.565  1.00  0.00     0.006 C 
BRANCH   5   6
ATOM      6  C   UNL     1      24.914  32.041  44.129  1.00  0.00     0.053 C 
BRANCH   6   7
ATOM      7  C   UNL     1      25.298  30.886  43.258  1.00  0.00     0.041 C 
ATOM      8  O   UNL     1      24.728  29.772  43.395  1.00  0.00    -0.550 OA
ATOM      9  O   UNL     1      26.320  31.026  42.327  1.00  0.00    -0.550 OA
ENDBRANCH   6   7
ENDBRANCH   5   6
ENDBRANCH   4   5
ENDBRANCH   3   4
ENDBRANCH   2   3
ENDBRANCH   1   2
BRANCH   1  10
ATOM     10  C   UNL     1      20.593  30.770  46.787  1.00  0.00     0.000 C 
BRANCH  10  11
ATOM     11  C   UNL     1      20.473  32.201  47.342  1.00  0.00    -0.000 C 
BRANCH  11  12
ATOM     12  C   UNL     1      21.241  32.394  48.661  1.00  0.00    -0.000 C 
BRANCH  12  13
ATOM     13  C   UNL     1      20.641  31.657  49.875  1.00  0.00    -0.000 C 
BRANCH  13  14
ATOM     14  C   UNL     1      21.702  31.079  50.838  1.00  0.00    -0.000 C 
BRANCH  14  15
ATOM     15  C   UNL     1      22.339  29.772  50.333  1.00  0.00    -0.000 C 
BRANCH  15  16
ATOM     16  C   UNL     1      21.411  28.563  50.518  1.00  0.00    -0.003 C 
ATOM     17  C   UNL     1      21.081  27.915  49.176  1.00  0.00     0.004 C 
ENDBRANCH  15  16
ENDBRANCH  14  15
ENDBRANCH  13  14
ENDBRANCH  12  13
ENDBRANCH  11  12
ENDBRANCH  10  11
ENDBRANCH   1  10
TORSDOF 13
ENDMDL
MODEL 8
REMARK VINA RESULT:    -2.757      1.665      2.314
REMARK INTER + INTRA:          -6.673
REMARK INTER:                  -5.330
REMARK INTRA:                  -1.343
REMARK UNBOUND:                -1.820
REMARK SMILES CCCCCCCCCCCCCCC(=O)[O-]
REMARK SMILES IDX 9 1 10 2 11 3 12 4 13 5 14 6 15 7 16 8 17 9 8 10 7 11 6 12
REMARK SMILES IDX 5 13 4 14 3 15 2 16 1 17
REMARK H PARENT
REMARK Flexibility Score: inf
ROOT
ATOM      1  C   UNL     1      22.751  30.352  47.166  1.00  0.00     0.000 C 
ENDROOT
BRANCH   1   2
ATOM      2  C   UNL     1      23.222  31.767  46.787  1.00  0.00     0.000 C 
BRANCH   2   3
ATOM      3  C   UNL     1      24.692  31.798  46.340  1.00  0.00     0.000 C 
BRANCH   3   4
ATOM      4  C   UNL     1      24.842  31.975  44.820  1.00  0.00     0.000 C 
BRANCH   4   5
ATOM      5  C   UNL     1      25.172  30.657  44.101  1.00  0.00     0.006 C 
BRANCH   5   6
ATOM      6  C   UNL     1      26.528  30.700  43.384  1.00  0.00     0.053 C 
BRANCH   6   7
ATOM      7  C   UNL     1      26.401  30.160  41.995  1.00  0.00     0.041 C 
ATOM      8  O   UNL     1      27.381  29.597  41.442  1.00  0.00    -0.550 OA
ATOM      9  O   UNL     1      25.214  30.322  41.291  1.00  0.00    -0.550 OA
ENDBRANCH   6   7
ENDBRANCH   5   6
ENDBRANCH   4   5
ENDBRANCH   3   4
ENDBRANCH   2   3
ENDBRANCH   1   2
BRANCH   1  10
ATOM     10  C   UNL     1      23.853  29.521  47.843  1.00  0.00     0.000 C 
BRANCH  10  11
ATOM     11  C   UNL     1      23.308  28.236  48.491  1.00  0.00    -0.000 C 
BRANCH  11  12
ATOM     12  C   UNL     1      22.078  28.492  49.378  1.00  0.00    -0.000 C 
BRANCH  12  13
ATOM     13  C   UNL     1      22.387  29.127  50.748  1.00  0.00    -0.000 C 
BRANCH  13  14
ATOM     14  C   UNL     1      21.894  30.585  50.884  1.00  0.00    -0.000 C 
BRANCH  14  15
ATOM     15  C   UNL     1      20.363  30.723  50.800  1.00  0.00    -0.000 C 
BRANCH  15  16
ATOM     16  C   UNL     1      19.921  31.573  49.600  1.00  0.00    -0.003 C 
ATOM     17  C   UNL     1      20.753  32.848  49.494  1.00  0.00     0.004 C 
ENDBRANCH  15  16
ENDBRANCH  14  15
ENDBRANCH  13  14
ENDBRANCH  12  13
ENDBRANCH  11  12
ENDBRANCH  10  11
ENDBRANCH   1  10
TORSDOF 13
ENDMDL
MODEL 9
REMARK VINA RESULT:    -2.702      3.919      5.689
REMARK INTER + INTRA:          -6.576
REMARK INTER:                  -4.241
REMARK INTRA:                  -2.335
REMARK UNBOUND:                -1.820
REMARK SMILES CCCCCCCCCCCCCCC(=O)[O-]
REMARK SMILES IDX 9 1 10 2 11 3 12 4 13 5 14 6 15 7 16 8 17 9 8 10 7 11 6 12
REMARK SMILES IDX 5 13 4 14 3 15 2 16 1 17
REMARK H PARENT
REMARK Flexibility Score: inf
ROOT
ATOM      1  C   UNL     1      21.258  30.791  47.271  1.00  0.00     0.000 C 
ENDROOT
BRANCH   1   2
ATOM      2  C   UNL     1      22.741  31.148  47.474  1.00  0.00     0.000 C 
BRANCH   2   3
ATOM      3  C   UNL     1      23.610  29.913  47.758  1.00  0.00     0.000 C 
BRANCH   3   4
ATOM      4  C   UNL     1      22.826  28.596  47.621  1.00  0.00     0.000 C 
BRANCH   4   5
ATOM      5  C   UNL     1      23.591  27.391  48.190  1.00  0.00     0.006 C 
BRANCH   5   6
ATOM      6  C   UNL     1      22.678  26.418  48.947  1.00  0.00     0.053 C 
BRANCH   6   7
ATOM      7  C   UNL     1      23.300  26.023  50.249  1.00  0.00     0.041 C 
ATOM      8  O   UNL     1      23.979  26.855  50.905  1.00  0.00    -0.550 OA
ATOM      9  O   UNL     1      23.172  24.720  50.715  1.00  0.00    -0.550 OA
ENDBRANCH   6   7
ENDBRANCH   5   6
ENDBRANCH   4   5
ENDBRANCH   3   4
ENDBRANCH   2   3
ENDBRANCH   1   2
BRANCH   1  10
ATOM     10  C   UNL     1      20.332  31.528  48.250  1.00  0.00     0.000 C 
BRANCH  10  11
ATOM     11  C   UNL     1      21.110  32.299  49.332  1.00  0.00    -0.000 C 
BRANCH  11  12
ATOM     12  C   UNL     1      20.954  31.681  50.732  1.00  0.00    -0.000 C 
BRANCH  12  13
ATOM     13  C   UNL     1      21.872  30.475  51.014  1.00  0.00    -0.000 C 
BRANCH  13  14
ATOM     14  C   UNL     1      21.149  29.112  50.942  1.00  0.00    -0.000 C 
BRANCH  14  15
ATOM     15  C   UNL     1      19.625  29.217  51.125  1.00  0.00    -0.000 C 
BRANCH  15  16
ATOM     16  C   UNL     1      18.870  28.120  50.359  1.00  0.00    -0.003 C 
ATOM     17  C   UNL     1      19.372  28.010  48.922  1.00  0.00     0.004 C 
ENDBRANCH  15  16
ENDBRANCH  14  15
ENDBRANCH  13  14
ENDBRANCH  12  13
ENDBRANCH  11  12
ENDBRANCH  10  11
ENDBRANCH   1  10
TORSDOF 13
ENDMDL
