MODEL 1
REMARK VINA RESULT:    -5.566      0.000      0.000
REMARK INTER + INTRA:          -6.874
REMARK INTER:                  -7.355
REMARK INTRA:                   0.481
REMARK UNBOUND:                 0.481
REMARK SMILES CC[C@@H](C=C[C@H](C)[C@H]1CC[C@H]2[C@H]3CC[C@H]4C[C@H](O)CC[C@@]4(C)[C@@H]3CC[C@]12C)C(C)C
REMARK SMILES IDX 6 1 7 2 5 3 4 4 3 5 2 6 1 7 28 8 29 9 30 10 8 11 9 12 26 13
REMARK SMILES IDX 10 14 11 15 25 16 27 17 12 18 24 19 23 20 13 21 21 22 14 23
REMARK SMILES IDX 15 24 20 25 22 26 16 27 19 28 17 29 18 30
REMARK H PARENT 18 31
REMARK Flexibility Score: inf
ROOT
ATOM      1  C   UNL     1      39.666   1.444  -8.812  1.00  0.00     0.012 C 
ATOM      2  C   UNL     1      39.084   0.030  -9.003  1.00  0.00     0.012 C 
ENDROOT
BRANCH   1   3
ATOM      3  C   UNL     1      41.003   1.349  -8.105  1.00  0.00    -0.028 C 
ATOM      4  C   UNL     1      41.498   2.350  -7.360  1.00  0.00    -0.027 C 
BRANCH   4   5
ATOM      5  C   UNL     1      42.829   2.222  -6.646  1.00  0.00     0.014 C 
BRANCH   5   6
ATOM      6  C   UNL     1      43.867   1.521  -7.559  1.00  0.00     0.004 C 
ATOM      7  C   UNL     1      44.049   2.250  -8.891  1.00  0.00     0.004 C 
ENDBRANCH   5   6
BRANCH   5   8
ATOM      8  C   UNL     1      42.636   1.516  -5.270  1.00  0.00    -0.011 C 
ATOM      9  C   UNL     1      43.009   0.026  -5.325  1.00  0.00     0.008 C 
ATOM     10  C   UNL     1      41.222   1.692  -4.691  1.00  0.00     0.008 C 
ENDBRANCH   5   8
ENDBRANCH   4   5
ENDBRANCH   1   3
BRANCH   1  11
ATOM     11  C   UNL     1      39.770   2.330 -10.105  1.00  0.00     0.002 C 
ATOM     12  C   UNL     1      38.563   2.314 -11.085  1.00  0.00     0.005 C 
ATOM     13  C   UNL     1      40.082   3.840  -9.896  1.00  0.00    -0.026 C 
ATOM     14  C   UNL     1      38.576   3.671 -11.817  1.00  0.00     0.005 C 
ATOM     15  C   UNL     1      39.854   4.344 -11.331  1.00  0.00    -0.001 C 
ATOM     16  C   UNL     1      41.561   4.139  -9.470  1.00  0.00     0.007 C 
ATOM     17  C   UNL     1      39.079   4.458  -8.872  1.00  0.00     0.012 C 
ATOM     18  C   UNL     1      40.082   5.863 -11.560  1.00  0.00    -0.004 C 
ATOM     19  C   UNL     1      42.215   5.336 -10.225  1.00  0.00     0.005 C 
ATOM     20  C   UNL     1      41.180   6.426 -10.611  1.00  0.00    -0.001 C 
ATOM     21  C   UNL     1      38.830   6.769 -11.501  1.00  0.00     0.004 C 
ATOM     22  C   UNL     1      41.756   7.794 -11.160  1.00  0.00    -0.026 C 
ATOM     23  C   UNL     1      39.207   8.271 -11.376  1.00  0.00     0.004 C 
ATOM     24  C   UNL     1      40.617   8.566 -11.952  1.00  0.00    -0.002 C 
ATOM     25  C   UNL     1      42.258   8.634  -9.937  1.00  0.00     0.010 C 
ATOM     26  C   UNL     1      42.943   7.537 -12.125  1.00  0.00     0.012 C 
ATOM     27  C   UNL     1      40.874  10.082 -12.124  1.00  0.00     0.036 C 
ATOM     28  C   UNL     1      42.544  10.100 -10.265  1.00  0.00     0.032 C 
ATOM     29  C   UNL     1      41.293  10.773 -10.823  1.00  0.00     0.114 C 
BRANCH  29  30
ATOM     30  O   UNL     1      41.575  12.125 -11.073  1.00  0.00    -0.393 OA
ATOM     31  H   UNL     1      42.515  12.278 -10.793  1.00  0.00     0.210 HD
ENDBRANCH  29  30
ENDBRANCH   1  11
TORSDOF 6
ENDMDL
MODEL 2
REMARK VINA RESULT:    -5.292      0.557      1.698
REMARK INTER + INTRA:          -6.513
REMARK INTER:                  -5.607
REMARK INTRA:                  -0.906
REMARK UNBOUND:                 0.481
REMARK SMILES CC[C@@H](C=C[C@H](C)[C@H]1CC[C@H]2[C@H]3CC[C@H]4C[C@H](O)CC[C@@]4(C)[C@@H]3CC[C@]12C)C(C)C
REMARK SMILES IDX 6 1 7 2 5 3 4 4 3 5 2 6 1 7 28 8 29 9 30 10 8 11 9 12 26 13
REMARK SMILES IDX 10 14 11 15 25 16 27 17 12 18 24 19 23 20 13 21 21 22 14 23
REMARK SMILES IDX 15 24 20 25 22 26 16 27 19 28 17 29 18 30
REMARK H PARENT 18 31
REMARK Flexibility Score: inf
ROOT
ATOM      1  C   UNL     1      39.307   1.371  -8.934  1.00  0.00     0.012 C 
ATOM      2  C   UNL     1      38.429   0.120  -9.140  1.00  0.00     0.012 C 
ENDROOT
BRANCH   1   3
ATOM      3  C   UNL     1      40.613   0.969  -8.279  1.00  0.00    -0.028 C 
ATOM      4  C   UNL     1      41.300   1.794  -7.474  1.00  0.00    -0.027 C 
BRANCH   4   5
ATOM      5  C   UNL     1      42.594   1.361  -6.815  1.00  0.00     0.014 C 
BRANCH   5   6
ATOM      6  C   UNL     1      42.434   1.334  -5.274  1.00  0.00     0.004 C 
ATOM      7  C   UNL     1      41.091   1.913  -4.823  1.00  0.00     0.004 C 
ENDBRANCH   5   6
BRANCH   5   8
ATOM      8  C   UNL     1      43.771   2.262  -7.300  1.00  0.00    -0.011 C 
ATOM      9  C   UNL     1      43.519   3.751  -7.015  1.00  0.00     0.008 C 
ATOM     10  C   UNL     1      44.124   2.052  -8.782  1.00  0.00     0.008 C 
ENDBRANCH   5   8
ENDBRANCH   4   5
ENDBRANCH   1   3
BRANCH   1  11
ATOM     11  C   UNL     1      39.559   2.256 -10.207  1.00  0.00     0.002 C 
ATOM     12  C   UNL     1      38.515   2.175 -11.355  1.00  0.00     0.005 C 
ATOM     13  C   UNL     1      39.763   3.780  -9.970  1.00  0.00    -0.026 C 
ATOM     14  C   UNL     1      38.571   3.528 -12.092  1.00  0.00     0.005 C 
ATOM     15  C   UNL     1      39.727   4.267 -11.428  1.00  0.00    -0.001 C 
ATOM     16  C   UNL     1      41.145   4.154  -9.332  1.00  0.00     0.007 C 
ATOM     17  C   UNL     1      38.589   4.351  -9.115  1.00  0.00     0.012 C 
ATOM     18  C   UNL     1      39.912   5.794 -11.638  1.00  0.00    -0.004 C 
ATOM     19  C   UNL     1      41.845   5.380  -9.994  1.00  0.00     0.005 C 
ATOM     20  C   UNL     1      40.827   6.415 -10.543  1.00  0.00    -0.001 C 
ATOM     21  C   UNL     1      38.623   6.637 -11.777  1.00  0.00     0.004 C 
ATOM     22  C   UNL     1      41.411   7.809 -11.014  1.00  0.00    -0.026 C 
ATOM     23  C   UNL     1      38.902   8.156 -11.613  1.00  0.00     0.004 C 
ATOM     24  C   UNL     1      40.367   8.519 -11.976  1.00  0.00    -0.002 C 
ATOM     25  C   UNL     1      41.683   8.676  -9.740  1.00  0.00     0.010 C 
ATOM     26  C   UNL     1      42.740   7.608 -11.789  1.00  0.00     0.012 C 
ATOM     27  C   UNL     1      40.573  10.045 -12.125  1.00  0.00     0.036 C 
ATOM     28  C   UNL     1      41.943  10.154 -10.037  1.00  0.00     0.032 C 
ATOM     29  C   UNL     1      40.757  10.761 -10.783  1.00  0.00     0.114 C 
BRANCH  29  30
ATOM     30  O   UNL     1      41.008  12.125 -11.003  1.00  0.00    -0.393 OA
ATOM     31  H   UNL     1      40.804  12.303 -11.958  1.00  0.00     0.210 HD
ENDBRANCH  29  30
ENDBRANCH   1  11
TORSDOF 6
ENDMDL
MODEL 3
REMARK VINA RESULT:    -4.342      3.584      5.687
REMARK INTER + INTRA:          -5.257
REMARK INTER:                  -4.903
REMARK INTRA:                  -0.355
REMARK UNBOUND:                 0.481
REMARK SMILES CC[C@@H](C=C[C@H](C)[C@H]1CC[C@H]2[C@H]3CC[C@H]4C[C@H](O)CC[C@@]4(C)[C@@H]3CC[C@]12C)C(C)C
REMARK SMILES IDX 6 1 7 2 5 3 4 4 3 5 2 6 1 7 28 8 29 9 30 10 8 11 9 12 26 13
REMARK SMILES IDX 10 14 11 15 25 16 27 17 12 18 24 19 23 20 13 21 21 22 14 23
REMARK SMILES IDX 15 24 20 25 22 26 16 27 19 28 17 29 18 30
REMARK H PARENT 18 31
REMARK Flexibility Score: inf
ROOT
ATOM      1  C   UNL     1      41.667   4.711 -11.923  1.00  0.00     0.012 C 
ATOM      2  C   UNL     1      43.112   4.181 -12.003  1.00  0.00     0.012 C 
ENDROOT
BRANCH   1   3
ATOM      3  C   UNL     1      40.786   3.678 -11.251  1.00  0.00    -0.028 C 
ATOM      4  C   UNL     1      39.650   3.227 -11.807  1.00  0.00    -0.027 C 
BRANCH   4   5
ATOM      5  C   UNL     1      38.796   2.179 -11.123  1.00  0.00     0.014 C 
BRANCH   5   6
ATOM      6  C   UNL     1      37.298   2.403 -11.452  1.00  0.00     0.004 C 
ATOM      7  C   UNL     1      37.040   3.788 -12.049  1.00  0.00     0.004 C 
ENDBRANCH   5   6
BRANCH   5   8
ATOM      8  C   UNL     1      39.098   2.154  -9.594  1.00  0.00    -0.011 C 
ATOM      9  C   UNL     1      39.038   0.732  -9.013  1.00  0.00     0.008 C 
ATOM     10  C   UNL     1      38.197   3.102  -8.784  1.00  0.00     0.008 C 
ENDBRANCH   5   8
ENDBRANCH   4   5
ENDBRANCH   1   3
BRANCH   1  11
ATOM     11  C   UNL     1      41.485   6.126 -11.267  1.00  0.00     0.002 C 
ATOM     12  C   UNL     1      40.096   6.809 -11.407  1.00  0.00     0.005 C 
ATOM     13  C   UNL     1      41.829   6.246  -9.754  1.00  0.00    -0.026 C 
ATOM     14  C   UNL     1      39.944   7.745 -10.191  1.00  0.00     0.005 C 
ATOM     15  C   UNL     1      41.294   7.663  -9.487  1.00  0.00    -0.001 C 
ATOM     16  C   UNL     1      43.363   6.202  -9.436  1.00  0.00     0.007 C 
ATOM     17  C   UNL     1      41.067   5.151  -8.944  1.00  0.00     0.012 C 
ATOM     18  C   UNL     1      41.460   8.187  -8.035  1.00  0.00    -0.004 C 
ATOM     19  C   UNL     1      43.833   7.270  -8.402  1.00  0.00     0.005 C 
ATOM     20  C   UNL     1      42.734   7.604  -7.358  1.00  0.00    -0.001 C 
ATOM     21  C   UNL     1      40.247   8.016  -7.092  1.00  0.00     0.004 C 
ATOM     22  C   UNL     1      43.172   8.485  -6.119  1.00  0.00    -0.026 C 
ATOM     23  C   UNL     1      40.634   8.229  -5.603  1.00  0.00     0.004 C 
ATOM     24  C   UNL     1      41.886   9.134  -5.453  1.00  0.00    -0.002 C 
ATOM     25  C   UNL     1      43.922   7.557  -5.106  1.00  0.00     0.010 C 
ATOM     26  C   UNL     1      44.124   9.624  -6.569  1.00  0.00     0.012 C 
ATOM     27  C   UNL     1      42.093   9.609  -3.995  1.00  0.00     0.036 C 
ATOM     28  C   UNL     1      44.125   8.179  -3.723  1.00  0.00     0.032 C 
ATOM     29  C   UNL     1      42.779   8.562  -3.112  1.00  0.00     0.114 C 
BRANCH  29  30
ATOM     30  O   UNL     1      42.995   9.091  -1.830  1.00  0.00    -0.393 OA
ATOM     31  H   UNL     1      42.490   9.944  -1.782  1.00  0.00     0.210 HD
ENDBRANCH  29  30
ENDBRANCH   1  11
TORSDOF 6
ENDMDL
MODEL 4
REMARK VINA RESULT:    -4.284      2.941      8.069
REMARK INTER + INTRA:          -5.180
REMARK INTER:                  -5.088
REMARK INTRA:                  -0.092
REMARK UNBOUND:                 0.481
REMARK SMILES CC[C@@H](C=C[C@H](C)[C@H]1CC[C@H]2[C@H]3CC[C@H]4C[C@H](O)CC[C@@]4(C)[C@@H]3CC[C@]12C)C(C)C
REMARK SMILES IDX 6 1 7 2 5 3 4 4 3 5 2 6 1 7 28 8 29 9 30 10 8 11 9 12 26 13
REMARK SMILES IDX 10 14 11 15 25 16 27 17 12 18 24 19 23 20 13 21 21 22 14 23
REMARK SMILES IDX 15 24 20 25 22 26 16 27 19 28 17 29 18 30
REMARK H PARENT 18 31
REMARK Flexibility Score: inf
ROOT
ATOM      1  C   UNL     1      39.549   8.332 -10.658  1.00  0.00     0.012 C 
ATOM      2  C   UNL     1      39.476   8.781  -9.186  1.00  0.00     0.012 C 
ENDROOT
BRANCH   1   3
ATOM      3  C   UNL     1      40.446   9.278 -11.431  1.00  0.00    -0.028 C 
ATOM      4  C   UNL     1      41.719   9.515 -11.078  1.00  0.00    -0.027 C 
BRANCH   4   5
ATOM      5  C   UNL     1      42.602  10.451 -11.878  1.00  0.00     0.014 C 
BRANCH   5   6
ATOM      6  C   UNL     1      43.990   9.807 -12.123  1.00  0.00     0.004 C 
ATOM      7  C   UNL     1      44.125   8.447 -11.437  1.00  0.00     0.004 C 
ENDBRANCH   5   6
BRANCH   5   8
ATOM      8  C   UNL     1      42.679  11.844 -11.183  1.00  0.00    -0.011 C 
ATOM      9  C   UNL     1      44.007  12.048 -10.436  1.00  0.00     0.008 C 
ATOM     10  C   UNL     1      41.490  12.120 -10.247  1.00  0.00     0.008 C 
ENDBRANCH   5   8
ENDBRANCH   4   5
ENDBRANCH   1   3
BRANCH   1  11
ATOM     11  C   UNL     1      39.956   6.835 -10.905  1.00  0.00     0.002 C 
ATOM     12  C   UNL     1      41.004   6.550 -12.017  1.00  0.00     0.005 C 
ATOM     13  C   UNL     1      40.467   6.035  -9.672  1.00  0.00    -0.026 C 
ATOM     14  C   UNL     1      41.717   5.242 -11.621  1.00  0.00     0.005 C 
ATOM     15  C   UNL     1      40.963   4.766 -10.385  1.00  0.00    -0.001 C 
ATOM     16  C   UNL     1      39.348   5.650  -8.645  1.00  0.00     0.007 C 
ATOM     17  C   UNL     1      41.617   6.818  -8.966  1.00  0.00     0.012 C 
ATOM     18  C   UNL     1      41.562   3.665  -9.469  1.00  0.00    -0.004 C 
ATOM     19  C   UNL     1      39.431   4.182  -8.127  1.00  0.00     0.005 C 
ATOM     20  C   UNL     1      40.892   3.661  -8.065  1.00  0.00    -0.001 C 
ATOM     21  C   UNL     1      43.101   3.657  -9.310  1.00  0.00     0.004 C 
ATOM     22  C   UNL     1      41.125   2.279  -7.328  1.00  0.00    -0.026 C 
ATOM     23  C   UNL     1      43.556   2.777  -8.114  1.00  0.00     0.004 C 
ATOM     24  C   UNL     1      42.519   1.670  -7.780  1.00  0.00    -0.002 C 
ATOM     25  C   UNL     1      41.099   2.542  -5.785  1.00  0.00     0.010 C 
ATOM     26  C   UNL     1      40.003   1.272  -7.694  1.00  0.00     0.012 C 
ATOM     27  C   UNL     1      43.092   0.603  -6.817  1.00  0.00     0.036 C 
ATOM     28  C   UNL     1      41.624   1.376  -4.947  1.00  0.00     0.032 C 
ATOM     29  C   UNL     1      43.058   1.038  -5.349  1.00  0.00     0.114 C 
BRANCH  29  30
ATOM     30  O   UNL     1      43.526  -0.006  -4.534  1.00  0.00    -0.393 OA
ATOM     31  H   UNL     1      43.351   0.264  -3.595  1.00  0.00     0.210 HD
ENDBRANCH  29  30
ENDBRANCH   1  11
TORSDOF 6
ENDMDL
MODEL 5
REMARK VINA RESULT:    -4.080     14.295     17.624
REMARK INTER + INTRA:          -4.910
REMARK INTER:                  -4.744
REMARK INTRA:                  -0.167
REMARK UNBOUND:                 0.481
REMARK SMILES CC[C@@H](C=C[C@H](C)[C@H]1CC[C@H]2[C@H]3CC[C@H]4C[C@H](O)CC[C@@]4(C)[C@@H]3CC[C@]12C)C(C)C
REMARK SMILES IDX 6 1 7 2 5 3 4 4 3 5 2 6 1 7 28 8 29 9 30 10 8 11 9 12 26 13
REMARK SMILES IDX 10 14 11 15 25 16 27 17 12 18 24 19 23 20 13 21 21 22 14 23
REMARK SMILES IDX 15 24 20 25 22 26 16 27 19 28 17 29 18 30
REMARK H PARENT 18 31
REMARK Flexibility Score: inf
ROOT
ATOM      1  C   UNL     1      33.693   6.931   5.080  1.00  0.00     0.012 C 
ATOM      2  C   UNL     1      32.538   5.931   5.281  1.00  0.00     0.012 C 
ENDROOT
BRANCH   1   3
ATOM      3  C   UNL     1      33.154   8.211   4.474  1.00  0.00    -0.028 C 
ATOM      4  C   UNL     1      33.942   9.106   3.859  1.00  0.00    -0.027 C 
BRANCH   4   5
ATOM      5  C   UNL     1      33.375  10.370   3.243  1.00  0.00     0.014 C 
BRANCH   5   6
ATOM      6  C   UNL     1      33.245  10.211   1.707  1.00  0.00     0.004 C 
ATOM      7  C   UNL     1      34.074   9.041   1.175  1.00  0.00     0.004 C 
ENDBRANCH   5   6
BRANCH   5   8
ATOM      8  C   UNL     1      34.227  11.604   3.669  1.00  0.00    -0.011 C 
ATOM      9  C   UNL     1      35.609  11.615   2.996  1.00  0.00     0.008 C 
ATOM     10  C   UNL     1      34.373  11.743   5.194  1.00  0.00     0.008 C 
ENDBRANCH   5   8
ENDBRANCH   4   5
ENDBRANCH   1   3
BRANCH   1  11
ATOM     11  C   UNL     1      34.577   7.230   6.344  1.00  0.00     0.002 C 
ATOM     12  C   UNL     1      34.702   6.110   7.413  1.00  0.00     0.005 C 
ATOM     13  C   UNL     1      36.041   7.687   6.083  1.00  0.00    -0.026 C 
ATOM     14  C   UNL     1      36.058   6.326   8.117  1.00  0.00     0.005 C 
ATOM     15  C   UNL     1      36.582   7.627   7.521  1.00  0.00    -0.001 C 
ATOM     16  C   UNL     1      36.172   9.152   5.540  1.00  0.00     0.007 C 
ATOM     17  C   UNL     1      36.754   6.680   5.128  1.00  0.00     0.012 C 
ATOM     18  C   UNL     1      38.069   8.036   7.703  1.00  0.00    -0.004 C 
ATOM     19  C   UNL     1      37.298   9.989   6.219  1.00  0.00     0.005 C 
ATOM     20  C   UNL     1      38.499   9.111   6.663  1.00  0.00    -0.001 C 
ATOM     21  C   UNL     1      39.106   6.889   7.723  1.00  0.00     0.004 C 
ATOM     22  C   UNL     1      39.802   9.872   7.139  1.00  0.00    -0.026 C 
ATOM     23  C   UNL     1      40.556   7.414   7.540  1.00  0.00     0.004 C 
ATOM     24  C   UNL     1      40.701   8.889   8.001  1.00  0.00    -0.002 C 
ATOM     25  C   UNL     1      40.568  10.365   5.866  1.00  0.00     0.010 C 
ATOM     26  C   UNL     1      39.427  11.097   8.016  1.00  0.00     0.012 C 
ATOM     27  C   UNL     1      42.182   9.321   8.124  1.00  0.00     0.036 C 
ATOM     28  C   UNL     1      41.997  10.833   6.142  1.00  0.00     0.032 C 
ATOM     29  C   UNL     1      42.809   9.709   6.782  1.00  0.00     0.114 C 
BRANCH  29  30
ATOM     30  O   UNL     1      44.125  10.155   6.983  1.00  0.00    -0.393 OA
ATOM     31  H   UNL     1      44.397  10.630   6.155  1.00  0.00     0.210 HD
ENDBRANCH  29  30
ENDBRANCH   1  11
TORSDOF 6
ENDMDL
MODEL 6
REMARK VINA RESULT:    -3.641      3.953      7.131
REMARK INTER + INTRA:          -4.331
REMARK INTER:                  -3.032
REMARK INTRA:                  -1.299
REMARK UNBOUND:                 0.481
REMARK SMILES CC[C@@H](C=C[C@H](C)[C@H]1CC[C@H]2[C@H]3CC[C@H]4C[C@H](O)CC[C@@]4(C)[C@@H]3CC[C@]12C)C(C)C
REMARK SMILES IDX 6 1 7 2 5 3 4 4 3 5 2 6 1 7 28 8 29 9 30 10 8 11 9 12 26 13
REMARK SMILES IDX 10 14 11 15 25 16 27 17 12 18 24 19 23 20 13 21 21 22 14 23
REMARK SMILES IDX 15 24 20 25 22 26 16 27 19 28 17 29 18 30
REMARK H PARENT 18 31
REMARK Flexibility Score: inf
ROOT
ATOM      1  C   UNL     1      43.529   8.959  -8.327  1.00  0.00     0.012 C 
ATOM      2  C   UNL     1      44.125  10.316  -8.751  1.00  0.00     0.012 C 
ENDROOT
BRANCH   1   3
ATOM      3  C   UNL     1      43.447   8.894  -6.815  1.00  0.00    -0.028 C 
ATOM      4  C   UNL     1      42.321   9.173  -6.141  1.00  0.00    -0.027 C 
BRANCH   4   5
ATOM      5  C   UNL     1      42.260   9.081  -4.629  1.00  0.00     0.014 C 
BRANCH   5   6
ATOM      6  C   UNL     1      43.496   8.323  -4.083  1.00  0.00     0.004 C 
ATOM      7  C   UNL     1      44.112   9.024  -2.870  1.00  0.00     0.004 C 
ENDBRANCH   5   6
BRANCH   5   8
ATOM      8  C   UNL     1      40.903   8.455  -4.184  1.00  0.00    -0.011 C 
ATOM      9  C   UNL     1      39.766   8.770  -5.169  1.00  0.00     0.008 C 
ATOM     10  C   UNL     1      40.496   8.847  -2.753  1.00  0.00     0.008 C 
ENDBRANCH   5   8
ENDBRANCH   4   5
ENDBRANCH   1   3
BRANCH   1  11
ATOM     11  C   UNL     1      42.158   8.570  -8.987  1.00  0.00     0.002 C 
ATOM     12  C   UNL     1      41.802   9.231 -10.348  1.00  0.00     0.005 C 
ATOM     13  C   UNL     1      41.893   7.053  -9.208  1.00  0.00    -0.026 C 
ATOM     14  C   UNL     1      40.865   8.249 -11.079  1.00  0.00     0.005 C 
ATOM     15  C   UNL     1      40.616   7.143 -10.060  1.00  0.00    -0.001 C 
ATOM     16  C   UNL     1      41.585   6.254  -7.895  1.00  0.00     0.007 C 
ATOM     17  C   UNL     1      43.088   6.408  -9.978  1.00  0.00     0.012 C 
ATOM     18  C   UNL     1      39.999   5.788 -10.501  1.00  0.00    -0.004 C 
ATOM     19  C   UNL     1      40.392   5.257  -8.017  1.00  0.00     0.005 C 
ATOM     20  C   UNL     1      40.256   4.672  -9.448  1.00  0.00    -0.001 C 
ATOM     21  C   UNL     1      40.385   5.274 -11.908  1.00  0.00     0.004 C 
ATOM     22  C   UNL     1      39.243   3.471  -9.634  1.00  0.00    -0.026 C 
ATOM     23  C   UNL     1      40.022   3.776 -12.098  1.00  0.00     0.004 C 
ATOM     24  C   UNL     1      38.859   3.339 -11.168  1.00  0.00    -0.002 C 
ATOM     25  C   UNL     1      39.935   2.167  -9.112  1.00  0.00     0.010 C 
ATOM     26  C   UNL     1      37.946   3.722  -8.820  1.00  0.00     0.012 C 
ATOM     27  C   UNL     1      38.280   1.959 -11.565  1.00  0.00     0.036 C 
ATOM     28  C   UNL     1      39.217   0.878  -9.515  1.00  0.00     0.032 C 
ATOM     29  C   UNL     1      39.108   0.784 -11.035  1.00  0.00     0.114 C 
BRANCH  29  30
ATOM     30  O   UNL     1      38.484  -0.427 -11.373  1.00  0.00    -0.393 OA
ATOM     31  H   UNL     1      37.505  -0.265 -11.336  1.00  0.00     0.210 HD
ENDBRANCH  29  30
ENDBRANCH   1  11
TORSDOF 6
ENDMDL
MODEL 7
REMARK VINA RESULT:    -2.920      4.211      6.109
REMARK INTER + INTRA:          -3.378
REMARK INTER:                  -3.557
REMARK INTRA:                   0.179
REMARK UNBOUND:                 0.481
REMARK SMILES CC[C@@H](C=C[C@H](C)[C@H]1CC[C@H]2[C@H]3CC[C@H]4C[C@H](O)CC[C@@]4(C)[C@@H]3CC[C@]12C)C(C)C
REMARK SMILES IDX 6 1 7 2 5 3 4 4 3 5 2 6 1 7 28 8 29 9 30 10 8 11 9 12 26 13
REMARK SMILES IDX 10 14 11 15 25 16 27 17 12 18 24 19 23 20 13 21 21 22 14 23
REMARK SMILES IDX 15 24 20 25 22 26 16 27 19 28 17 29 18 30
REMARK H PARENT 18 31
REMARK Flexibility Score: inf
ROOT
ATOM      1  C   UNL     1      42.597   6.062 -11.311  1.00  0.00     0.012 C 
ATOM      2  C   UNL     1      43.925   6.151 -12.087  1.00  0.00     0.012 C 
ENDROOT
BRANCH   1   3
ATOM      3  C   UNL     1      42.599   4.816 -10.449  1.00  0.00    -0.028 C 
ATOM      4  C   UNL     1      41.760   3.790 -10.662  1.00  0.00    -0.027 C 
BRANCH   4   5
ATOM      5  C   UNL     1      41.795   2.546  -9.797  1.00  0.00     0.014 C 
BRANCH   5   6
ATOM      6  C   UNL     1      40.358   2.128  -9.392  1.00  0.00     0.004 C 
ATOM      7  C   UNL     1      39.322   3.191  -9.762  1.00  0.00     0.004 C 
ENDBRANCH   5   6
BRANCH   5   8
ATOM      8  C   UNL     1      42.743   2.764  -8.579  1.00  0.00    -0.011 C 
ATOM      9  C   UNL     1      44.092   2.051  -8.758  1.00  0.00     0.008 C 
ATOM     10  C   UNL     1      42.104   2.372  -7.236  1.00  0.00     0.008 C 
ENDBRANCH   5   8
ENDBRANCH   4   5
ENDBRANCH   1   3
BRANCH   1  11
ATOM     11  C   UNL     1      42.198   7.330 -10.474  1.00  0.00     0.002 C 
ATOM     12  C   UNL     1      40.769   7.905 -10.681  1.00  0.00     0.005 C 
ATOM     13  C   UNL     1      42.359   7.230  -8.930  1.00  0.00    -0.026 C 
ATOM     14  C   UNL     1      40.389   8.614  -9.365  1.00  0.00     0.005 C 
ATOM     15  C   UNL     1      41.654   8.533  -8.519  1.00  0.00    -0.001 C 
ATOM     16  C   UNL     1      43.846   7.266  -8.434  1.00  0.00     0.007 C 
ATOM     17  C   UNL     1      41.632   5.956  -8.397  1.00  0.00     0.012 C 
ATOM     18  C   UNL     1      41.605   8.826  -6.995  1.00  0.00    -0.004 C 
ATOM     19  C   UNL     1      44.087   8.186  -7.199  1.00  0.00     0.005 C 
ATOM     20  C   UNL     1      42.851   8.250  -6.262  1.00  0.00    -0.001 C 
ATOM     21  C   UNL     1      40.320   8.400  -6.248  1.00  0.00     0.004 C 
ATOM     22  C   UNL     1      43.057   8.951  -4.857  1.00  0.00    -0.026 C 
ATOM     23  C   UNL     1      40.518   8.399  -4.707  1.00  0.00     0.004 C 
ATOM     24  C   UNL     1      41.645   9.371  -4.266  1.00  0.00    -0.002 C 
ATOM     25  C   UNL     1      43.784   7.937  -3.912  1.00  0.00     0.010 C 
ATOM     26  C   UNL     1      43.929  10.225  -5.007  1.00  0.00     0.012 C 
ATOM     27  C   UNL     1      41.640   9.618  -2.739  1.00  0.00     0.036 C 
ATOM     28  C   UNL     1      43.768   8.341  -2.437  1.00  0.00     0.032 C 
ATOM     29  C   UNL     1      42.331   8.503  -1.947  1.00  0.00     0.114 C 
BRANCH  29  30
ATOM     30  O   UNL     1      42.349   8.831  -0.582  1.00  0.00    -0.393 OA
ATOM     31  H   UNL     1      42.535   9.805  -0.524  1.00  0.00     0.210 HD
ENDBRANCH  29  30
ENDBRANCH   1  11
TORSDOF 6
ENDMDL
