MODEL 1
REMARK VINA RESULT:    -3.673      0.000      0.000
REMARK INTER + INTRA:          -3.888
REMARK INTER:                  -4.532
REMARK INTRA:                   0.644
REMARK UNBOUND:                 0.644
REMARK SMILES C=C1[C@@H]2CC[C@H]3[C@@H]2C(C)(C)CCC[C@@]13C
REMARK SMILES IDX 14 1 6 2 7 3 3 4 2 5 1 6 4 7 5 8 15 9 8 10 9 11 10 12 11 13
REMARK SMILES IDX 13 15 12 16
REMARK H PARENT
REMARK Flexibility Score: 80.00
ROOT
ATOM      1  C   UNL     1       8.964  20.257  24.212  1.00  0.00    -0.008 C 
ATOM      2  C   UNL     1       8.384  20.311  22.745  1.00  0.00     0.003 C 
ATOM      3  C   UNL     1       6.859  20.445  22.933  1.00  0.00     0.006 C 
ATOM      4  C   UNL     1       6.769  19.242  23.873  1.00  0.00     0.019 C 
ATOM      5  C   UNL     1       7.813  19.570  24.903  1.00  0.00    -0.068 C 
ATOM      6  C   UNL     1       7.756  19.221  26.195  1.00  0.00     0.009 C 
ATOM      7  C   UNL     1       7.365  18.127  22.981  1.00  0.00     0.008 C 
ATOM      8  C   UNL     1       8.410  18.886  22.125  1.00  0.00     0.005 C 
ATOM      9  C   UNL     1      10.261  19.411  24.337  1.00  0.00     0.016 C 
ENDROOT
BRANCH   3  10
ATOM     10  C   UNL     1       6.234  21.840  23.371  1.00  0.00    -0.032 C 
ATOM     11  C   UNL     1       5.116  21.655  24.429  1.00  0.00     0.011 C 
ATOM     12  C   UNL     1       5.548  22.466  22.125  1.00  0.00     0.011 C 
BRANCH  10  13
ATOM     13  C   UNL     1       7.267  22.900  23.848  1.00  0.00     0.007 CG0
ATOM     14  G   UNL     1       8.064  22.538  25.097  1.00  0.00     0.000 G0
ENDBRANCH  10  13
ENDBRANCH   3  10
BRANCH   1  15
ATOM     15  C   UNL     1       9.273  21.665  24.789  1.00  0.00     0.011 C 
BRANCH  15  16
ATOM     16  C   UNL     1       8.062  22.542  25.092  1.00  0.00     0.001 CG0
ATOM     17  G   UNL     1       7.270  22.898  23.838  1.00  0.00     0.000 G0
ENDBRANCH  15  16
ENDBRANCH   1  15
TORSDOF 0
ENDMDL
MODEL 2
REMARK VINA RESULT:    -3.570      1.769      3.230
REMARK INTER + INTRA:          -3.761
REMARK INTER:                  -4.397
REMARK INTRA:                   0.636
REMARK UNBOUND:                 0.644
REMARK SMILES C=C1[C@@H]2CC[C@H]3[C@@H]2C(C)(C)CCC[C@@]13C
REMARK SMILES IDX 14 1 6 2 7 3 3 4 2 5 1 6 4 7 5 8 15 9 8 10 9 11 10 12 11 13
REMARK SMILES IDX 13 15 12 16
REMARK H PARENT
REMARK Flexibility Score: 80.00
ROOT
ATOM      1  C   UNL     1       9.361  19.783  25.098  1.00  0.00    -0.008 C 
ATOM      2  C   UNL     1       8.068  18.914  25.351  1.00  0.00     0.003 C 
ATOM      3  C   UNL     1       6.920  19.728  24.721  1.00  0.00     0.006 C 
ATOM      4  C   UNL     1       7.282  21.009  25.474  1.00  0.00     0.019 C 
ATOM      5  C   UNL     1       8.743  21.158  25.155  1.00  0.00    -0.068 C 
ATOM      6  C   UNL     1       9.390  22.325  25.036  1.00  0.00     0.009 C 
ATOM      7  C   UNL     1       7.199  20.521  26.940  1.00  0.00     0.008 C 
ATOM      8  C   UNL     1       7.642  19.040  26.840  1.00  0.00     0.005 C 
ATOM      9  C   UNL     1      10.442  19.623  26.201  1.00  0.00     0.016 C 
ENDROOT
BRANCH   3  10
ATOM     10  C   UNL     1       6.746  19.762  23.140  1.00  0.00    -0.032 C 
ATOM     11  C   UNL     1       6.392  21.185  22.638  1.00  0.00     0.011 C 
ATOM     12  C   UNL     1       5.533  18.861  22.775  1.00  0.00     0.011 C 
BRANCH  10  13
ATOM     13  C   UNL     1       7.945  19.182  22.337  1.00  0.00     0.007 CG0
ATOM     14  G   UNL     1       9.270  19.922  22.490  1.00  0.00     0.000 G0
ENDBRANCH  10  13
ENDBRANCH   3  10
BRANCH   1  15
ATOM     15  C   UNL     1      10.038  19.471  23.737  1.00  0.00     0.011 C 
BRANCH  15  16
ATOM     16  C   UNL     1       9.273  19.913  22.493  1.00  0.00     0.001 CG0
ATOM     17  G   UNL     1       7.935  19.194  22.345  1.00  0.00     0.000 G0
ENDBRANCH  15  16
ENDBRANCH   1  15
TORSDOF 0
ENDMDL
MODEL 3
REMARK VINA RESULT:    -3.439     12.462     14.463
REMARK INTER + INTRA:          -3.599
REMARK INTER:                  -4.239
REMARK INTRA:                   0.641
REMARK UNBOUND:                 0.644
REMARK SMILES C=C1[C@@H]2CC[C@H]3[C@@H]2C(C)(C)CCC[C@@]13C
REMARK SMILES IDX 14 1 6 2 7 3 3 4 2 5 1 6 4 7 5 8 15 9 8 10 9 11 10 12 11 13
REMARK SMILES IDX 13 15 12 16
REMARK H PARENT
REMARK Flexibility Score: 80.00
ROOT
ATOM      1  C   UNL     1      15.086  17.614  37.365  1.00  0.00    -0.008 C 
ATOM      2  C   UNL     1      14.795  16.849  36.015  1.00  0.00     0.003 C 
ATOM      3  C   UNL     1      13.267  16.946  35.832  1.00  0.00     0.006 C 
ATOM      4  C   UNL     1      12.966  16.409  37.232  1.00  0.00     0.019 C 
ATOM      5  C   UNL     1      13.805  17.304  38.099  1.00  0.00    -0.068 C 
ATOM      6  C   UNL     1      13.496  17.679  39.347  1.00  0.00     0.009 C 
ATOM      7  C   UNL     1      13.687  15.041  37.182  1.00  0.00     0.008 C 
ATOM      8  C   UNL     1      14.896  15.317  36.255  1.00  0.00     0.005 C 
ATOM      9  C   UNL     1      16.311  17.058  38.142  1.00  0.00     0.016 C 
ENDROOT
BRANCH   3  10
ATOM     10  C   UNL     1      12.611  18.313  35.351  1.00  0.00    -0.032 C 
ATOM     11  C   UNL     1      11.310  18.626  36.135  1.00  0.00     0.011 C 
ATOM     12  C   UNL     1      12.189  18.141  33.866  1.00  0.00     0.011 C 
BRANCH  10  13
ATOM     13  C   UNL     1      13.567  19.540  35.367  1.00  0.00     0.007 CG0
ATOM     14  G   UNL     1      14.104  19.947  36.736  1.00  0.00     0.000 G0
ENDBRANCH  10  13
ENDBRANCH   3  10
BRANCH   1  15
ATOM     15  C   UNL     1      15.321  19.134  37.156  1.00  0.00     0.011 C 
BRANCH  15  16
ATOM     16  C   UNL     1      14.100  19.947  36.739  1.00  0.00     0.001 CG0
ATOM     17  G   UNL     1      13.567  19.539  35.369  1.00  0.00     0.000 G0
ENDBRANCH  15  16
ENDBRANCH   1  15
TORSDOF 0
ENDMDL
MODEL 4
REMARK VINA RESULT:    -3.427      2.766      4.816
REMARK INTER + INTRA:          -3.585
REMARK INTER:                  -4.211
REMARK INTRA:                   0.626
REMARK UNBOUND:                 0.644
REMARK SMILES C=C1[C@@H]2CC[C@H]3[C@@H]2C(C)(C)CCC[C@@]13C
REMARK SMILES IDX 14 1 6 2 7 3 3 4 2 5 1 6 4 7 5 8 15 9 8 10 9 11 10 12 11 13
REMARK SMILES IDX 13 15 12 16
REMARK H PARENT
REMARK Flexibility Score: 80.00
ROOT
ATOM      1  C   UNL     1      10.035  21.201  26.423  1.00  0.00    -0.008 C 
ATOM      2  C   UNL     1      11.594  20.977  26.524  1.00  0.00     0.003 C 
ATOM      3  C   UNL     1      11.881  19.797  25.573  1.00  0.00     0.006 C 
ATOM      4  C   UNL     1      10.819  18.898  26.207  1.00  0.00     0.019 C 
ATOM      5  C   UNL     1       9.601  19.778  26.171  1.00  0.00    -0.068 C 
ATOM      6  C   UNL     1       8.342  19.345  26.031  1.00  0.00     0.009 C 
ATOM      7  C   UNL     1      11.299  18.869  27.677  1.00  0.00     0.008 C 
ATOM      8  C   UNL     1      11.930  20.270  27.866  1.00  0.00     0.005 C 
ATOM      9  C   UNL     1       9.399  21.743  27.732  1.00  0.00     0.016 C 
ENDROOT
BRANCH   3  10
ATOM     10  C   UNL     1      11.885  20.030  24.000  1.00  0.00    -0.032 C 
ATOM     11  C   UNL     1      11.193  18.863  23.251  1.00  0.00     0.011 C 
ATOM     12  C   UNL     1      13.364  20.031  23.522  1.00  0.00     0.011 C 
BRANCH  10  13
ATOM     13  C   UNL     1      11.304  21.396  23.538  1.00  0.00     0.007 CG0
ATOM     14  G   UNL     1       9.831  21.636  23.857  1.00  0.00     0.000 G0
ENDBRANCH  10  13
ENDBRANCH   3  10
BRANCH   1  15
ATOM     15  C   UNL     1       9.640  22.174  25.280  1.00  0.00     0.011 C 
BRANCH  15  16
ATOM     16  C   UNL     1       9.836  21.650  23.860  1.00  0.00     0.001 CG0
ATOM     17  G   UNL     1      11.303  21.387  23.533  1.00  0.00     0.000 G0
ENDBRANCH  15  16
ENDBRANCH   1  15
TORSDOF 0
ENDMDL
MODEL 5
REMARK VINA RESULT:    -3.409      2.994      4.685
REMARK INTER + INTRA:          -3.562
REMARK INTER:                  -4.203
REMARK INTRA:                   0.640
REMARK UNBOUND:                 0.644
REMARK SMILES C=C1[C@@H]2CC[C@H]3[C@@H]2C(C)(C)CCC[C@@]13C
REMARK SMILES IDX 14 1 6 2 7 3 3 4 2 5 1 6 4 7 5 8 15 9 8 10 9 11 10 12 11 13
REMARK SMILES IDX 13 15 12 16
REMARK H PARENT
REMARK Flexibility Score: 80.00
ROOT
ATOM      1  C   UNL     1      12.363  20.179  25.878  1.00  0.00    -0.008 C 
ATOM      2  C   UNL     1      11.358  18.980  25.667  1.00  0.00     0.003 C 
ATOM      3  C   UNL     1      10.108  19.624  25.035  1.00  0.00     0.006 C 
ATOM      4  C   UNL     1       9.988  20.694  26.122  1.00  0.00     0.019 C 
ATOM      5  C   UNL     1      11.370  21.285  26.133  1.00  0.00    -0.068 C 
ATOM      6  C   UNL     1      11.659  22.561  26.417  1.00  0.00     0.009 C 
ATOM      7  C   UNL     1       9.874  19.814  27.389  1.00  0.00     0.008 C 
ATOM      8  C   UNL     1      10.738  18.578  27.034  1.00  0.00     0.005 C 
ATOM      9  C   UNL     1      13.303  19.994  27.100  1.00  0.00     0.016 C 
ENDROOT
BRANCH   3  10
ATOM     10  C   UNL     1      10.124  20.051  23.503  1.00  0.00    -0.032 C 
ATOM     11  C   UNL     1       9.436  21.423  23.288  1.00  0.00     0.011 C 
ATOM     12  C   UNL     1       9.277  19.015  22.712  1.00  0.00     0.011 C 
BRANCH  10  13
ATOM     13  C   UNL     1      11.527  20.032  22.833  1.00  0.00     0.007 CG0
ATOM     14  G   UNL     1      12.552  21.007  23.406  1.00  0.00     0.000 G0
ENDBRANCH  10  13
ENDBRANCH   3  10
BRANCH   1  15
ATOM     15  C   UNL     1      13.261  20.435  24.638  1.00  0.00     0.011 C 
BRANCH  15  16
ATOM     16  C   UNL     1      12.555  20.998  23.407  1.00  0.00     0.001 CG0
ATOM     17  G   UNL     1      11.532  20.026  22.827  1.00  0.00     0.000 G0
ENDBRANCH  15  16
ENDBRANCH   1  15
TORSDOF 0
ENDMDL
MODEL 6
REMARK VINA RESULT:    -3.389      1.535      3.017
REMARK INTER + INTRA:          -3.538
REMARK INTER:                  -4.178
REMARK INTRA:                   0.640
REMARK UNBOUND:                 0.644
REMARK SMILES C=C1[C@@H]2CC[C@H]3[C@@H]2C(C)(C)CCC[C@@]13C
REMARK SMILES IDX 14 1 6 2 7 3 3 4 2 5 1 6 4 7 5 8 15 9 8 10 9 11 10 12 11 13
REMARK SMILES IDX 13 15 12 16
REMARK H PARENT
REMARK Flexibility Score: 80.00
ROOT
ATOM      1  C   UNL     1       8.972  21.295  26.190  1.00  0.00    -0.008 C 
ATOM      2  C   UNL     1       9.581  19.923  25.701  1.00  0.00     0.003 C 
ATOM      3  C   UNL     1       8.417  19.215  24.978  1.00  0.00     0.006 C 
ATOM      4  C   UNL     1       7.453  19.383  26.154  1.00  0.00     0.019 C 
ATOM      5  C   UNL     1       7.549  20.857  26.429  1.00  0.00    -0.068 C 
ATOM      6  C   UNL     1       6.552  21.619  26.897  1.00  0.00     0.009 C 
ATOM      7  C   UNL     1       8.239  18.672  27.281  1.00  0.00     0.008 C 
ATOM      8  C   UNL     1       9.716  18.956  26.911  1.00  0.00     0.005 C 
ATOM      9  C   UNL     1       9.610  21.825  27.503  1.00  0.00     0.016 C 
ENDROOT
BRANCH   3  10
ATOM     10  C   UNL     1       7.982  19.688  23.524  1.00  0.00    -0.032 C 
ATOM     11  C   UNL     1       6.439  19.720  23.375  1.00  0.00     0.011 C 
ATOM     12  C   UNL     1       8.491  18.630  22.506  1.00  0.00     0.011 C 
BRANCH  10  13
ATOM     13  C   UNL     1       8.603  21.036  23.061  1.00  0.00     0.007 CG0
ATOM     14  G   UNL     1       8.224  22.263  23.885  1.00  0.00     0.000 G0
ENDBRANCH  10  13
ENDBRANCH   3  10
BRANCH   1  15
ATOM     15  C   UNL     1       9.097  22.420  25.127  1.00  0.00     0.011 C 
BRANCH  15  16
ATOM     16  C   UNL     1       8.228  22.263  23.884  1.00  0.00     0.001 CG0
ATOM     17  G   UNL     1       8.599  21.031  23.064  1.00  0.00     0.000 G0
ENDBRANCH  15  16
ENDBRANCH   1  15
TORSDOF 0
ENDMDL
MODEL 7
REMARK VINA RESULT:    -3.368      3.061      4.274
REMARK INTER + INTRA:          -3.512
REMARK INTER:                  -4.144
REMARK INTRA:                   0.632
REMARK UNBOUND:                 0.644
REMARK SMILES C=C1[C@@H]2CC[C@H]3[C@@H]2C(C)(C)CCC[C@@]13C
REMARK SMILES IDX 14 1 6 2 7 3 3 4 2 5 1 6 4 7 5 8 15 9 8 10 9 11 10 12 11 13
REMARK SMILES IDX 13 15 12 16
REMARK H PARENT
REMARK Flexibility Score: 80.00
ROOT
ATOM      1  C   UNL     1      11.474  21.692  24.927  1.00  0.00    -0.008 C 
ATOM      2  C   UNL     1      10.206  21.053  24.237  1.00  0.00     0.003 C 
ATOM      3  C   UNL     1       9.980  19.725  24.989  1.00  0.00     0.006 C 
ATOM      4  C   UNL     1      11.422  19.254  24.793  1.00  0.00     0.019 C 
ATOM      5  C   UNL     1      12.208  20.429  25.303  1.00  0.00    -0.068 C 
ATOM      6  C   UNL     1      13.402  20.355  25.905  1.00  0.00     0.009 C 
ATOM      7  C   UNL     1      11.534  19.285  23.250  1.00  0.00     0.008 C 
ATOM      8  C   UNL     1      10.609  20.463  22.856  1.00  0.00     0.005 C 
ATOM      9  C   UNL     1      12.333  22.559  23.966  1.00  0.00     0.016 C 
ENDROOT
BRANCH   3  10
ATOM     10  C   UNL     1       9.343  19.738  26.445  1.00  0.00    -0.032 C 
ATOM     11  C   UNL     1      10.052  18.730  27.385  1.00  0.00     0.011 C 
ATOM     12  C   UNL     1       7.871  19.252  26.325  1.00  0.00     0.011 C 
BRANCH  10  13
ATOM     13  C   UNL     1       9.259  21.141  27.112  1.00  0.00     0.007 CG0
ATOM     14  G   UNL     1      10.593  21.833  27.377  1.00  0.00     0.000 G0
ENDBRANCH  10  13
ENDBRANCH   3  10
BRANCH   1  15
ATOM     15  C   UNL     1      11.111  22.577  26.149  1.00  0.00     0.011 C 
BRANCH  15  16
ATOM     16  C   UNL     1      10.581  21.839  27.374  1.00  0.00     0.001 CG0
ATOM     17  G   UNL     1       9.252  21.139  27.104  1.00  0.00     0.000 G0
ENDBRANCH  15  16
ENDBRANCH   1  15
TORSDOF 0
ENDMDL
MODEL 8
REMARK VINA RESULT:    -3.337      1.683      4.045
REMARK INTER + INTRA:          -3.473
REMARK INTER:                  -4.099
REMARK INTRA:                   0.626
REMARK UNBOUND:                 0.644
REMARK SMILES C=C1[C@@H]2CC[C@H]3[C@@H]2C(C)(C)CCC[C@@]13C
REMARK SMILES IDX 14 1 6 2 7 3 3 4 2 5 1 6 4 7 5 8 15 9 8 10 9 11 10 12 11 13
REMARK SMILES IDX 13 15 12 16
REMARK H PARENT
REMARK Flexibility Score: 80.00
ROOT
ATOM      1  C   UNL     1       7.494  21.147  24.467  1.00  0.00    -0.008 C 
ATOM      2  C   UNL     1       8.190  21.413  25.859  1.00  0.00     0.003 C 
ATOM      3  C   UNL     1       9.313  20.359  25.942  1.00  0.00     0.006 C 
ATOM      4  C   UNL     1       8.375  19.191  25.634  1.00  0.00     0.019 C 
ATOM      5  C   UNL     1       7.698  19.655  24.375  1.00  0.00    -0.068 C 
ATOM      6  C   UNL     1       7.270  18.855  23.390  1.00  0.00     0.009 C 
ATOM      7  C   UNL     1       7.338  19.339  26.773  1.00  0.00     0.008 C 
ATOM      8  C   UNL     1       7.288  20.870  27.002  1.00  0.00     0.005 C 
ATOM      9  C   UNL     1       5.981  21.495  24.453  1.00  0.00     0.016 C 
ENDROOT
BRANCH   3  10
ATOM     10  C   UNL     1      10.644  20.550  25.092  1.00  0.00    -0.032 C 
ATOM     11  C   UNL     1      11.116  19.212  24.468  1.00  0.00     0.011 C 
ATOM     12  C   UNL     1      11.771  20.992  26.067  1.00  0.00     0.011 C 
BRANCH  10  13
ATOM     13  C   UNL     1      10.576  21.664  24.010  1.00  0.00     0.007 CG0
ATOM     14  G   UNL     1       9.548  21.455  22.903  1.00  0.00     0.000 G0
ENDBRANCH  10  13
ENDBRANCH   3  10
BRANCH   1  15
ATOM     15  C   UNL     1       8.160  21.929  23.303  1.00  0.00     0.011 C 
BRANCH  15  16
ATOM     16  C   UNL     1       9.555  21.464  22.898  1.00  0.00     0.001 CG0
ATOM     17  G   UNL     1      10.582  21.664  24.009  1.00  0.00     0.000 G0
ENDBRANCH  15  16
ENDBRANCH   1  15
TORSDOF 0
ENDMDL
MODEL 9
REMARK VINA RESULT:    -3.281      2.665      4.726
REMARK INTER + INTRA:          -3.404
REMARK INTER:                  -4.044
REMARK INTRA:                   0.640
REMARK UNBOUND:                 0.644
REMARK SMILES C=C1[C@@H]2CC[C@H]3[C@@H]2C(C)(C)CCC[C@@]13C
REMARK SMILES IDX 14 1 6 2 7 3 3 4 2 5 1 6 4 7 5 8 15 9 8 10 9 11 10 12 11 13
REMARK SMILES IDX 13 15 12 16
REMARK H PARENT
REMARK Flexibility Score: 80.00
ROOT
ATOM      1  C   UNL     1      11.900  20.349  25.651  1.00  0.00    -0.008 C 
ATOM      2  C   UNL     1      11.285  19.260  26.613  1.00  0.00     0.003 C 
ATOM      3  C   UNL     1       9.972  19.887  27.125  1.00  0.00     0.006 C 
ATOM      4  C   UNL     1      10.651  21.181  27.577  1.00  0.00     0.019 C 
ATOM      5  C   UNL     1      11.397  21.593  26.340  1.00  0.00    -0.068 C 
ATOM      6  C   UNL     1      11.645  22.857  25.976  1.00  0.00     0.009 C 
ATOM      7  C   UNL     1      11.705  20.628  28.566  1.00  0.00     0.008 C 
ATOM      8  C   UNL     1      12.068  19.252  27.956  1.00  0.00     0.005 C 
ATOM      9  C   UNL     1      13.453  20.336  25.611  1.00  0.00     0.016 C 
ENDROOT
BRANCH   3  10
ATOM     10  C   UNL     1       8.701  19.951  26.172  1.00  0.00    -0.032 C 
ATOM     11  C   UNL     1       7.966  21.311  26.296  1.00  0.00     0.011 C 
ATOM     12  C   UNL     1       7.692  18.871  26.651  1.00  0.00     0.011 C 
BRANCH  10  13
ATOM     13  C   UNL     1       8.982  19.618  24.680  1.00  0.00     0.007 CG0
ATOM     14  G   UNL     1       9.936  20.562  23.955  1.00  0.00     0.000 G0
ENDBRANCH  10  13
ENDBRANCH   3  10
BRANCH   1  15
ATOM     15  C   UNL     1      11.398  20.212  24.189  1.00  0.00     0.011 C 
BRANCH  15  16
ATOM     16  C   UNL     1       9.932  20.563  23.951  1.00  0.00     0.001 CG0
ATOM     17  G   UNL     1       8.981  19.613  24.674  1.00  0.00     0.000 G0
ENDBRANCH  15  16
ENDBRANCH   1  15
TORSDOF 0
ENDMDL
