MODEL 1
REMARK VINA RESULT:    -4.315      0.000      0.000
REMARK INTER + INTRA:          -5.497
REMARK INTER:                  -5.828
REMARK INTRA:                   0.331
REMARK UNBOUND:                 0.331
REMARK SMILES C=C(C)[C@@H]1CC[C@H](C)C2=C(C1)[C@H](C)CC2
REMARK SMILES IDX 10 1 9 2 15 3 14 4 12 5 13 6 7 7 8 8 6 9 11 11 4 12 5 13
REMARK SMILES IDX 2 15 1 16 3 17
REMARK H PARENT
REMARK Flexibility Score: 80.00
ROOT
ATOM      1  C   UNL     1       2.297  -2.274  17.243  1.00  0.00    -0.067 C 
ATOM      2  C   UNL     1       3.475  -2.763  17.623  1.00  0.00    -0.068 C 
ATOM      3  C   UNL     1       3.327  -4.031  18.396  1.00  0.00     0.032 C 
ATOM      4  C   UNL     1       1.834  -4.359  18.308  1.00  0.00     0.012 C 
ATOM      5  C   UNL     1       1.154  -3.110  17.722  1.00  0.00     0.012 C 
ATOM      6  C   UNL     1       0.332  -2.362  18.778  1.00  0.00     0.012 C 
ENDROOT
BRANCH   2   7
ATOM      7  C   UNL     1       4.789  -2.105  17.243  1.00  0.00     0.012 C 
ATOM      8  C   UNL     1       5.968  -2.630  18.074  1.00  0.00     0.012 C 
BRANCH   7   9
ATOM      9  C   UNL     1       5.080  -2.250  15.730  1.00  0.00     0.008 CG0
ATOM     10  G   UNL     1       3.843  -2.184  14.809  1.00  0.00     0.000 G0
ENDBRANCH   7   9
ENDBRANCH   2   7
BRANCH   1  11
ATOM     11  C   UNL     1       2.137  -1.003  16.435  1.00  0.00     0.039 C 
BRANCH  11  12
ATOM     12  C   UNL     1       2.889  -0.990  15.065  1.00  0.00     0.018 C 
BRANCH  12  13
ATOM     13  C   UNL     1       3.835  -2.193  14.806  1.00  0.00     0.009 CG0
ATOM     14  G   UNL     1       5.074  -2.239  15.725  1.00  0.00     0.000 G0
ENDBRANCH  12  13
BRANCH  12  15
ATOM     15  C   UNL     1       1.894  -0.877  13.916  1.00  0.00    -0.077 C 
ATOM     16  C   UNL     1       0.573  -0.889  14.154  1.00  0.00     0.008 C 
ATOM     17  C   UNL     1       2.376  -0.739  12.495  1.00  0.00     0.039 C 
ENDBRANCH  12  15
ENDBRANCH  11  12
ENDBRANCH   1  11
TORSDOF 1
ENDMDL
MODEL 2
REMARK VINA RESULT:    -4.245      1.742      4.341
REMARK INTER + INTRA:          -5.403
REMARK INTER:                  -5.743
REMARK INTRA:                   0.340
REMARK UNBOUND:                 0.331
REMARK SMILES C=C(C)[C@@H]1CC[C@H](C)C2=C(C1)[C@H](C)CC2
REMARK SMILES IDX 10 1 9 2 15 3 14 4 12 5 13 6 7 7 8 8 6 9 11 11 4 12 5 13
REMARK SMILES IDX 2 15 1 16 3 17
REMARK H PARENT
REMARK Flexibility Score: 80.00
ROOT
ATOM      1  C   UNL     1       1.475  -3.229  18.663  1.00  0.00    -0.067 C 
ATOM      2  C   UNL     1       0.887  -2.344  17.861  1.00  0.00    -0.068 C 
ATOM      3  C   UNL     1      -0.244  -1.645  18.540  1.00  0.00     0.032 C 
ATOM      4  C   UNL     1      -0.176  -2.130  19.991  1.00  0.00     0.012 C 
ATOM      5  C   UNL     1       0.823  -3.300  20.006  1.00  0.00     0.012 C 
ATOM      6  C   UNL     1       0.117  -4.647  20.202  1.00  0.00     0.012 C 
ENDROOT
BRANCH   2   7
ATOM      7  C   UNL     1       1.377  -2.072  16.451  1.00  0.00     0.012 C 
ATOM      8  C   UNL     1       0.359  -1.281  15.619  1.00  0.00     0.012 C 
BRANCH   7   9
ATOM      9  C   UNL     1       2.750  -1.358  16.455  1.00  0.00     0.008 CG0
ATOM     10  G   UNL     1       3.699  -1.756  17.606  1.00  0.00     0.000 G0
ENDBRANCH   7   9
ENDBRANCH   2   7
BRANCH   1  11
ATOM     11  C   UNL     1       2.658  -4.079  18.250  1.00  0.00     0.039 C 
BRANCH  11  12
ATOM     12  C   UNL     1       3.912  -3.280  17.768  1.00  0.00     0.018 C 
BRANCH  12  13
ATOM     13  C   UNL     1       3.712  -1.750  17.602  1.00  0.00     0.009 CG0
ATOM     14  G   UNL     1       2.754  -1.353  16.458  1.00  0.00     0.000 G0
ENDBRANCH  12  13
BRANCH  12  15
ATOM     15  C   UNL     1       5.090  -3.533  18.701  1.00  0.00    -0.077 C 
ATOM     16  C   UNL     1       4.950  -4.321  19.779  1.00  0.00     0.008 C 
ATOM     17  C   UNL     1       6.436  -2.912  18.423  1.00  0.00     0.039 C 
ENDBRANCH  12  15
ENDBRANCH  11  12
ENDBRANCH   1  11
TORSDOF 1
ENDMDL
MODEL 3
REMARK VINA RESULT:    -4.063      2.259      4.119
REMARK INTER + INTRA:          -5.157
REMARK INTER:                  -5.504
REMARK INTRA:                   0.346
REMARK UNBOUND:                 0.331
REMARK SMILES C=C(C)[C@@H]1CC[C@H](C)C2=C(C1)[C@H](C)CC2
REMARK SMILES IDX 10 1 9 2 15 3 14 4 12 5 13 6 7 7 8 8 6 9 11 11 4 12 5 13
REMARK SMILES IDX 2 15 1 16 3 17
REMARK H PARENT
REMARK Flexibility Score: 80.00
ROOT
ATOM      1  C   UNL     1       4.607  -2.783  18.573  1.00  0.00    -0.067 C 
ATOM      2  C   UNL     1       4.299  -3.426  19.697  1.00  0.00    -0.068 C 
ATOM      3  C   UNL     1       5.129  -2.962  20.848  1.00  0.00     0.032 C 
ATOM      4  C   UNL     1       5.926  -1.779  20.291  1.00  0.00     0.012 C 
ATOM      5  C   UNL     1       5.718  -1.800  18.767  1.00  0.00     0.012 C 
ATOM      6  C   UNL     1       6.983  -2.250  18.027  1.00  0.00     0.012 C 
ENDROOT
BRANCH   2   7
ATOM      7  C   UNL     1       3.189  -4.459  19.765  1.00  0.00     0.012 C 
ATOM      8  C   UNL     1       3.251  -5.301  21.046  1.00  0.00     0.012 C 
BRANCH   7   9
ATOM      9  C   UNL     1       1.795  -3.806  19.607  1.00  0.00     0.008 CG0
ATOM     10  G   UNL     1       1.736  -2.596  18.651  1.00  0.00     0.000 G0
ENDBRANCH   7   9
ENDBRANCH   2   7
BRANCH   1  11
ATOM     11  C   UNL     1       3.922  -3.036  17.247  1.00  0.00     0.039 C 
BRANCH  11  12
ATOM     12  C   UNL     1       2.371  -2.843  17.255  1.00  0.00     0.018 C 
BRANCH  12  13
ATOM     13  C   UNL     1       1.731  -2.599  18.647  1.00  0.00     0.009 CG0
ATOM     14  G   UNL     1       1.801  -3.810  19.602  1.00  0.00     0.000 G0
ENDBRANCH  12  13
BRANCH  12  15
ATOM     15  C   UNL     1       1.974  -1.711  16.315  1.00  0.00    -0.077 C 
ATOM     16  C   UNL     1       0.746  -1.172  16.375  1.00  0.00     0.008 C 
ATOM     17  C   UNL     1       2.958  -1.169  15.309  1.00  0.00     0.039 C 
ENDBRANCH  12  15
ENDBRANCH  11  12
ENDBRANCH   1  11
TORSDOF 1
ENDMDL
MODEL 4
REMARK VINA RESULT:    -4.056      2.376      5.312
REMARK INTER + INTRA:          -5.148
REMARK INTER:                  -5.475
REMARK INTRA:                   0.327
REMARK UNBOUND:                 0.331
REMARK SMILES C=C(C)[C@@H]1CC[C@H](C)C2=C(C1)[C@H](C)CC2
REMARK SMILES IDX 10 1 9 2 15 3 14 4 12 5 13 6 7 7 8 8 6 9 11 11 4 12 5 13
REMARK SMILES IDX 2 15 1 16 3 17
REMARK H PARENT
REMARK Flexibility Score: 80.00
ROOT
ATOM      1  C   UNL     1       3.466  -3.162  19.492  1.00  0.00    -0.067 C 
ATOM      2  C   UNL     1       3.468  -2.632  18.271  1.00  0.00    -0.068 C 
ATOM      3  C   UNL     1       4.833  -2.630  17.668  1.00  0.00     0.032 C 
ATOM      4  C   UNL     1       5.693  -3.408  18.668  1.00  0.00     0.012 C 
ATOM      5  C   UNL     1       4.833  -3.578  19.932  1.00  0.00     0.012 C 
ATOM      6  C   UNL     1       5.332  -2.694  21.081  1.00  0.00     0.012 C 
ENDROOT
BRANCH   2   7
ATOM      7  C   UNL     1       2.199  -2.152  17.591  1.00  0.00     0.012 C 
ATOM      8  C   UNL     1       2.487  -1.283  16.359  1.00  0.00     0.012 C 
BRANCH   7   9
ATOM      9  C   UNL     1       1.271  -3.334  17.220  1.00  0.00     0.008 CG0
ATOM     10  G   UNL     1       1.281  -4.518  18.210  1.00  0.00     0.000 G0
ENDBRANCH   7   9
ENDBRANCH   2   7
BRANCH   1  11
ATOM     11  C   UNL     1       2.222  -3.307  20.342  1.00  0.00     0.039 C 
BRANCH  11  12
ATOM     12  C   UNL     1       1.069  -4.141  19.694  1.00  0.00     0.018 C 
BRANCH  12  13
ATOM     13  C   UNL     1       1.275  -4.527  18.205  1.00  0.00     0.009 CG0
ATOM     14  G   UNL     1       1.267  -3.330  17.229  1.00  0.00     0.000 G0
ENDBRANCH  12  13
BRANCH  12  15
ATOM     15  C   UNL     1       0.808  -5.403  20.508  1.00  0.00    -0.077 C 
ATOM     16  C   UNL     1      -0.240  -6.193  20.224  1.00  0.00     0.008 C 
ATOM     17  C   UNL     1       1.728  -5.791  21.637  1.00  0.00     0.039 C 
ENDBRANCH  12  15
ENDBRANCH  11  12
ENDBRANCH   1  11
TORSDOF 1
ENDMDL
MODEL 5
REMARK VINA RESULT:    -4.042      2.611      4.156
REMARK INTER + INTRA:          -5.128
REMARK INTER:                  -5.462
REMARK INTRA:                   0.334
REMARK UNBOUND:                 0.331
REMARK SMILES C=C(C)[C@@H]1CC[C@H](C)C2=C(C1)[C@H](C)CC2
REMARK SMILES IDX 10 1 9 2 15 3 14 4 12 5 13 6 7 7 8 8 6 9 11 11 4 12 5 13
REMARK SMILES IDX 2 15 1 16 3 17
REMARK H PARENT
REMARK Flexibility Score: 80.00
ROOT
ATOM      1  C   UNL     1       2.997  -2.928  18.649  1.00  0.00    -0.067 C 
ATOM      2  C   UNL     1       2.953  -3.545  19.827  1.00  0.00    -0.068 C 
ATOM      3  C   UNL     1       1.809  -4.501  19.912  1.00  0.00     0.032 C 
ATOM      4  C   UNL     1       1.211  -4.506  18.502  1.00  0.00     0.012 C 
ATOM      5  C   UNL     1       1.874  -3.338  17.751  1.00  0.00     0.012 C 
ATOM      6  C   UNL     1       0.897  -2.177  17.531  1.00  0.00     0.012 C 
ENDROOT
BRANCH   2   7
ATOM      7  C   UNL     1       3.995  -3.315  20.906  1.00  0.00     0.012 C 
ATOM      8  C   UNL     1       3.550  -3.847  22.275  1.00  0.00     0.012 C 
BRANCH   7   9
ATOM      9  C   UNL     1       5.366  -3.914  20.508  1.00  0.00     0.008 CG0
ATOM     10  G   UNL     1       5.714  -3.827  19.006  1.00  0.00     0.000 G0
ENDBRANCH   7   9
ENDBRANCH   2   7
BRANCH   1  11
ATOM     11  C   UNL     1       4.054  -1.912  18.273  1.00  0.00     0.039 C 
BRANCH  11  12
ATOM     12  C   UNL     1       5.529  -2.421  18.377  1.00  0.00     0.018 C 
BRANCH  12  13
ATOM     13  C   UNL     1       5.712  -3.827  19.008  1.00  0.00     0.009 CG0
ATOM     14  G   UNL     1       5.365  -3.901  20.511  1.00  0.00     0.000 G0
ENDBRANCH  12  13
BRANCH  12  15
ATOM     15  C   UNL     1       6.195  -2.395  17.007  1.00  0.00    -0.077 C 
ATOM     16  C   UNL     1       5.459  -2.250  15.893  1.00  0.00     0.008 C 
ATOM     17  C   UNL     1       7.692  -2.522  16.879  1.00  0.00     0.039 C 
ENDBRANCH  12  15
ENDBRANCH  11  12
ENDBRANCH   1  11
TORSDOF 1
ENDMDL
MODEL 6
REMARK VINA RESULT:    -4.021      2.810      5.648
REMARK INTER + INTRA:          -5.101
REMARK INTER:                  -5.436
REMARK INTRA:                   0.336
REMARK UNBOUND:                 0.331
REMARK SMILES C=C(C)[C@@H]1CC[C@H](C)C2=C(C1)[C@H](C)CC2
REMARK SMILES IDX 10 1 9 2 15 3 14 4 12 5 13 6 7 7 8 8 6 9 11 11 4 12 5 13
REMARK SMILES IDX 2 15 1 16 3 17
REMARK H PARENT
REMARK Flexibility Score: 80.00
ROOT
ATOM      1  C   UNL     1       3.465  -3.637  18.997  1.00  0.00    -0.067 C 
ATOM      2  C   UNL     1       4.174  -2.884  18.159  1.00  0.00    -0.068 C 
ATOM      3  C   UNL     1       3.304  -1.965  17.366  1.00  0.00     0.032 C 
ATOM      4  C   UNL     1       1.907  -2.151  17.965  1.00  0.00     0.012 C 
ATOM      5  C   UNL     1       1.996  -3.377  18.890  1.00  0.00     0.012 C 
ATOM      6  C   UNL     1       1.267  -4.588  18.298  1.00  0.00     0.012 C 
ENDROOT
BRANCH   2   7
ATOM      7  C   UNL     1       5.689  -2.946  18.092  1.00  0.00     0.012 C 
ATOM      8  C   UNL     1       6.248  -2.274  16.831  1.00  0.00     0.012 C 
BRANCH   7   9
ATOM      9  C   UNL     1       6.338  -2.348  19.363  1.00  0.00     0.008 CG0
ATOM     10  G   UNL     1       5.566  -2.591  20.677  1.00  0.00     0.000 G0
ENDBRANCH   7   9
ENDBRANCH   2   7
BRANCH   1  11
ATOM     11  C   UNL     1       4.079  -4.653  19.935  1.00  0.00     0.039 C 
BRANCH  11  12
ATOM     12  C   UNL     1       5.156  -4.085  20.915  1.00  0.00     0.018 C 
BRANCH  12  13
ATOM     13  C   UNL     1       5.564  -2.606  20.682  1.00  0.00     0.009 CG0
ATOM     14  G   UNL     1       6.332  -2.357  19.365  1.00  0.00     0.000 G0
ENDBRANCH  12  13
BRANCH  12  15
ATOM     15  C   UNL     1       4.701  -4.258  22.359  1.00  0.00    -0.077 C 
ATOM     16  C   UNL     1       5.382  -5.053  23.200  1.00  0.00     0.008 C 
ATOM     17  C   UNL     1       3.484  -3.529  22.872  1.00  0.00     0.039 C 
ENDBRANCH  12  15
ENDBRANCH  11  12
ENDBRANCH   1  11
TORSDOF 1
ENDMDL
MODEL 7
REMARK VINA RESULT:    -4.017      1.712      4.384
REMARK INTER + INTRA:          -5.095
REMARK INTER:                  -5.421
REMARK INTRA:                   0.326
REMARK UNBOUND:                 0.331
REMARK SMILES C=C(C)[C@@H]1CC[C@H](C)C2=C(C1)[C@H](C)CC2
REMARK SMILES IDX 10 1 9 2 15 3 14 4 12 5 13 6 7 7 8 8 6 9 11 11 4 12 5 13
REMARK SMILES IDX 2 15 1 16 3 17
REMARK H PARENT
REMARK Flexibility Score: 80.00
ROOT
ATOM      1  C   UNL     1       2.997  -2.607  16.539  1.00  0.00    -0.067 C 
ATOM      2  C   UNL     1       4.091  -2.115  15.963  1.00  0.00    -0.068 C 
ATOM      3  C   UNL     1       3.773  -0.986  15.039  1.00  0.00     0.032 C 
ATOM      4  C   UNL     1       2.277  -0.733  15.249  1.00  0.00     0.012 C 
ATOM      5  C   UNL     1       1.753  -1.916  16.080  1.00  0.00     0.012 C 
ATOM      6  C   UNL     1       0.882  -2.858  15.240  1.00  0.00     0.012 C 
ENDROOT
BRANCH   2   7
ATOM      7  C   UNL     1       5.481  -2.634  16.279  1.00  0.00     0.012 C 
ATOM      8  C   UNL     1       6.526  -2.178  15.252  1.00  0.00     0.012 C 
BRANCH   7   9
ATOM      9  C   UNL     1       5.920  -2.246  17.712  1.00  0.00     0.008 CG0
ATOM     10  G   UNL     1       4.796  -2.251  18.771  1.00  0.00     0.000 G0
ENDBRANCH   7   9
ENDBRANCH   2   7
BRANCH   1  11
ATOM     11  C   UNL     1       3.014  -3.750  17.532  1.00  0.00     0.039 C 
BRANCH  11  12
ATOM     12  C   UNL     1       3.919  -3.526  18.787  1.00  0.00     0.018 C 
BRANCH  12  13
ATOM     13  C   UNL     1       4.790  -2.242  18.765  1.00  0.00     0.009 CG0
ATOM     14  G   UNL     1       5.915  -2.252  17.708  1.00  0.00     0.000 G0
ENDBRANCH  12  13
BRANCH  12  15
ATOM     15  C   UNL     1       3.075  -3.539  20.056  1.00  0.00    -0.077 C 
ATOM     16  C   UNL     1       3.656  -3.657  21.260  1.00  0.00     0.008 C 
ATOM     17  C   UNL     1       1.575  -3.408  19.981  1.00  0.00     0.039 C 
ENDBRANCH  12  15
ENDBRANCH  11  12
ENDBRANCH   1  11
TORSDOF 1
ENDMDL
MODEL 8
REMARK VINA RESULT:    -3.996      1.910      5.016
REMARK INTER + INTRA:          -5.067
REMARK INTER:                  -5.455
REMARK INTRA:                   0.388
REMARK UNBOUND:                 0.331
REMARK SMILES C=C(C)[C@@H]1CC[C@H](C)C2=C(C1)[C@H](C)CC2
REMARK SMILES IDX 10 1 9 2 15 3 14 4 12 5 13 6 7 7 8 8 6 9 11 11 4 12 5 13
REMARK SMILES IDX 2 15 1 16 3 17
REMARK H PARENT
REMARK Flexibility Score: 80.00
ROOT
ATOM      1  C   UNL     1       2.168  -1.830  14.737  1.00  0.00    -0.067 C 
ATOM      2  C   UNL     1       0.894  -1.449  14.797  1.00  0.00    -0.068 C 
ATOM      3  C   UNL     1       0.105  -1.961  13.637  1.00  0.00     0.032 C 
ATOM      4  C   UNL     1       1.076  -2.884  12.894  1.00  0.00     0.012 C 
ATOM      5  C   UNL     1       2.462  -2.636  13.512  1.00  0.00     0.012 C 
ATOM      6  C   UNL     1       3.380  -1.864  12.556  1.00  0.00     0.012 C 
ENDROOT
BRANCH   2   7
ATOM      7  C   UNL     1       0.341  -0.639  15.955  1.00  0.00     0.012 C 
ATOM      8  C   UNL     1      -1.030  -0.027  15.640  1.00  0.00     0.012 C 
BRANCH   7   9
ATOM      9  C   UNL     1       0.279  -1.477  17.255  1.00  0.00     0.008 CG0
ATOM     10  G   UNL     1       1.425  -2.494  17.442  1.00  0.00     0.000 G0
ENDBRANCH   7   9
ENDBRANCH   2   7
BRANCH   1  11
ATOM     11  C   UNL     1       3.202  -1.469  15.781  1.00  0.00     0.039 C 
BRANCH  11  12
ATOM     12  C   UNL     1       2.852  -1.909  17.240  1.00  0.00     0.018 C 
BRANCH  12  13
ATOM     13  C   UNL     1       1.428  -2.492  17.443  1.00  0.00     0.009 CG0
ATOM     14  G   UNL     1       0.288  -1.468  17.258  1.00  0.00     0.000 G0
ENDBRANCH  12  13
BRANCH  12  15
ATOM     15  C   UNL     1       3.882  -2.910  17.752  1.00  0.00    -0.077 C 
ATOM     16  C   UNL     1       3.491  -4.064  18.314  1.00  0.00     0.008 C 
ATOM     17  C   UNL     1       5.357  -2.625  17.624  1.00  0.00     0.039 C 
ENDBRANCH  12  15
ENDBRANCH  11  12
ENDBRANCH   1  11
TORSDOF 1
ENDMDL
MODEL 9
REMARK VINA RESULT:    -3.978      2.746      4.780
REMARK INTER + INTRA:          -5.042
REMARK INTER:                  -5.423
REMARK INTRA:                   0.380
REMARK UNBOUND:                 0.331
REMARK SMILES C=C(C)[C@@H]1CC[C@H](C)C2=C(C1)[C@H](C)CC2
REMARK SMILES IDX 10 1 9 2 15 3 14 4 12 5 13 6 7 7 8 8 6 9 11 11 4 12 5 13
REMARK SMILES IDX 2 15 1 16 3 17
REMARK H PARENT
REMARK Flexibility Score: 80.00
ROOT
ATOM      1  C   UNL     1       4.653  -3.077  19.095  1.00  0.00    -0.067 C 
ATOM      2  C   UNL     1       4.722  -3.752  20.240  1.00  0.00    -0.068 C 
ATOM      3  C   UNL     1       5.752  -3.184  21.159  1.00  0.00     0.032 C 
ATOM      4  C   UNL     1       6.229  -1.910  20.457  1.00  0.00     0.012 C 
ATOM      5  C   UNL     1       5.645  -1.960  19.034  1.00  0.00     0.012 C 
ATOM      6  C   UNL     1       6.728  -2.246  17.986  1.00  0.00     0.012 C 
ENDROOT
BRANCH   2   7
ATOM      7  C   UNL     1       3.803  -4.919  20.553  1.00  0.00     0.012 C 
ATOM      8  C   UNL     1       4.300  -5.754  21.741  1.00  0.00     0.012 C 
BRANCH   7   9
ATOM      9  C   UNL     1       2.347  -4.448  20.789  1.00  0.00     0.008 CG0
ATOM     10  G   UNL     1       1.881  -3.273  19.902  1.00  0.00     0.000 G0
ENDBRANCH   7   9
ENDBRANCH   2   7
BRANCH   1  11
ATOM     11  C   UNL     1       3.691  -3.418  17.977  1.00  0.00     0.039 C 
BRANCH  11  12
ATOM     12  C   UNL     1       2.183  -3.455  18.387  1.00  0.00     0.018 C 
BRANCH  12  13
ATOM     13  C   UNL     1       1.895  -3.277  19.902  1.00  0.00     0.009 CG0
ATOM     14  G   UNL     1       2.357  -4.458  20.782  1.00  0.00     0.000 G0
ENDBRANCH  12  13
BRANCH  12  15
ATOM     15  C   UNL     1       1.396  -2.415  17.600  1.00  0.00    -0.077 C 
ATOM     16  C   UNL     1       0.297  -1.850  18.125  1.00  0.00     0.008 C 
ATOM     17  C   UNL     1       1.843  -1.994  16.223  1.00  0.00     0.039 C 
ENDBRANCH  12  15
ENDBRANCH  11  12
ENDBRANCH   1  11
TORSDOF 1
ENDMDL
