MODEL 1
REMARK VINA RESULT:    -4.746      0.000      0.000
REMARK INTER + INTRA:         -10.815
REMARK INTER:                  -8.631
REMARK INTRA:                  -2.183
REMARK UNBOUND:                -2.183
REMARK SMILES CCCCCCCCCCCCCC[C@H](C)C(=O)[O-]
REMARK SMILES IDX 9 1 10 2 11 3 12 4 13 5 14 6 15 7 16 8 17 9 18 10 19 11 8 12
REMARK SMILES IDX 7 13 6 14 5 15 4 16 3 17 2 18 1 19
REMARK H PARENT
REMARK Flexibility Score: inf
ROOT
ATOM      1  C   UNL     1      17.864 -33.916  23.942  1.00  0.00     0.000 C 
ENDROOT
BRANCH   1   2
ATOM      2  C   UNL     1      16.726 -34.791  23.388  1.00  0.00     0.000 C 
BRANCH   2   3
ATOM      3  C   UNL     1      15.559 -33.963  22.820  1.00  0.00     0.000 C 
BRANCH   3   4
ATOM      4  C   UNL     1      14.553 -33.435  23.864  1.00  0.00     0.000 C 
BRANCH   4   5
ATOM      5  C   UNL     1      14.324 -31.914  23.847  1.00  0.00     0.001 C 
BRANCH   5   6
ATOM      6  C   UNL     1      14.961 -31.228  22.623  1.00  0.00     0.009 C 
BRANCH   6   7
ATOM      7  C   UNL     1      13.990 -30.330  21.822  1.00  0.00     0.032 C 
ATOM      8  C   UNL     1      13.464 -29.143  22.642  1.00  0.00     0.014 C 
BRANCH   7   9
ATOM      9  C   UNL     1      12.864 -31.131  21.220  1.00  0.00     0.044 C 
ATOM     10  O   UNL     1      11.675 -30.892  21.558  1.00  0.00    -0.550 OA
ATOM     11  O   UNL     1      13.116 -32.099  20.252  1.00  0.00    -0.550 OA
ENDBRANCH   7   9
ENDBRANCH   6   7
ENDBRANCH   5   6
ENDBRANCH   4   5
ENDBRANCH   3   4
ENDBRANCH   2   3
ENDBRANCH   1   2
BRANCH   1  12
ATOM     12  C   UNL     1      18.500 -33.026  22.862  1.00  0.00     0.000 C 
BRANCH  12  13
ATOM     13  C   UNL     1      18.870 -33.809  21.590  1.00  0.00    -0.000 C 
BRANCH  13  14
ATOM     14  C   UNL     1      18.336 -33.144  20.312  1.00  0.00    -0.000 C 
BRANCH  14  15
ATOM     15  C   UNL     1      17.932 -34.166  19.238  1.00  0.00    -0.000 C 
BRANCH  15  16
ATOM     16  C   UNL     1      16.446 -34.536  19.363  1.00  0.00    -0.000 C 
BRANCH  16  17
ATOM     17  C   UNL     1      16.222 -36.028  19.664  1.00  0.00    -0.000 C 
BRANCH  17  18
ATOM     18  C   UNL     1      17.496 -36.892  19.645  1.00  0.00    -0.003 C 
ATOM     19  C   UNL     1      17.880 -37.422  21.025  1.00  0.00     0.004 C 
ENDBRANCH  17  18
ENDBRANCH  16  17
ENDBRANCH  15  16
ENDBRANCH  14  15
ENDBRANCH  13  14
ENDBRANCH  12  13
ENDBRANCH   1  12
TORSDOF 14
ENDMDL
MODEL 2
REMARK VINA RESULT:    -4.716      1.901      3.096
REMARK INTER + INTRA:         -10.760
REMARK INTER:                  -8.161
REMARK INTRA:                  -2.599
REMARK UNBOUND:                -2.183
REMARK SMILES CCCCCCCCCCCCCC[C@H](C)C(=O)[O-]
REMARK SMILES IDX 9 1 10 2 11 3 12 4 13 5 14 6 15 7 16 8 17 9 18 10 19 11 8 12
REMARK SMILES IDX 7 13 6 14 5 15 4 16 3 17 2 18 1 19
REMARK H PARENT
REMARK Flexibility Score: inf
ROOT
ATOM      1  C   UNL     1      17.813 -31.146  20.778  1.00  0.00     0.000 C 
ENDROOT
BRANCH   1   2
ATOM      2  C   UNL     1      16.633 -30.567  21.576  1.00  0.00     0.000 C 
BRANCH   2   3
ATOM      3  C   UNL     1      16.810 -30.718  23.098  1.00  0.00     0.000 C 
BRANCH   3   4
ATOM      4  C   UNL     1      16.242 -32.019  23.704  1.00  0.00     0.000 C 
BRANCH   4   5
ATOM      5  C   UNL     1      14.854 -32.436  23.186  1.00  0.00     0.001 C 
BRANCH   5   6
ATOM      6  C   UNL     1      13.705 -31.694  23.897  1.00  0.00     0.009 C 
BRANCH   6   7
ATOM      7  C   UNL     1      12.803 -30.867  22.953  1.00  0.00     0.032 C 
ATOM      8  C   UNL     1      13.045 -31.184  21.470  1.00  0.00     0.014 C 
BRANCH   7   9
ATOM      9  C   UNL     1      12.918 -29.390  23.231  1.00  0.00     0.044 C 
ATOM     10  O   UNL     1      13.825 -28.717  22.675  1.00  0.00    -0.550 OA
ATOM     11  O   UNL     1      11.999 -28.747  24.055  1.00  0.00    -0.550 OA
ENDBRANCH   7   9
ENDBRANCH   6   7
ENDBRANCH   5   6
ENDBRANCH   4   5
ENDBRANCH   3   4
ENDBRANCH   2   3
ENDBRANCH   1   2
BRANCH   1  12
ATOM     12  C   UNL     1      19.166 -30.888  21.459  1.00  0.00     0.000 C 
BRANCH  12  13
ATOM     13  C   UNL     1      20.063 -32.139  21.492  1.00  0.00    -0.000 C 
BRANCH  13  14
ATOM     14  C   UNL     1      19.554 -33.203  22.478  1.00  0.00    -0.000 C 
BRANCH  14  15
ATOM     15  C   UNL     1      19.136 -34.505  21.778  1.00  0.00    -0.000 C 
BRANCH  15  16
ATOM     16  C   UNL     1      17.804 -35.027  22.337  1.00  0.00    -0.000 C 
BRANCH  16  17
ATOM     17  C   UNL     1      16.790 -35.386  21.237  1.00  0.00    -0.000 C 
BRANCH  17  18
ATOM     18  C   UNL     1      16.382 -34.216  20.324  1.00  0.00    -0.003 C 
ATOM     19  C   UNL     1      14.901 -34.238  19.949  1.00  0.00     0.004 C 
ENDBRANCH  17  18
ENDBRANCH  16  17
ENDBRANCH  15  16
ENDBRANCH  14  15
ENDBRANCH  13  14
ENDBRANCH  12  13
ENDBRANCH   1  12
TORSDOF 14
ENDMDL
MODEL 3
REMARK VINA RESULT:    -4.684      2.241      3.948
REMARK INTER + INTRA:         -10.701
REMARK INTER:                  -8.122
REMARK INTRA:                  -2.578
REMARK UNBOUND:                -2.183
REMARK SMILES CCCCCCCCCCCCCC[C@H](C)C(=O)[O-]
REMARK SMILES IDX 9 1 10 2 11 3 12 4 13 5 14 6 15 7 16 8 17 9 18 10 19 11 8 12
REMARK SMILES IDX 7 13 6 14 5 15 4 16 3 17 2 18 1 19
REMARK H PARENT
REMARK Flexibility Score: inf
ROOT
ATOM      1  C   UNL     1      17.125 -32.823  20.498  1.00  0.00     0.000 C 
ENDROOT
BRANCH   1   2
ATOM      2  C   UNL     1      17.874 -31.556  20.945  1.00  0.00     0.000 C 
BRANCH   2   3
ATOM      3  C   UNL     1      17.120 -30.768  22.032  1.00  0.00     0.000 C 
BRANCH   3   4
ATOM      4  C   UNL     1      16.504 -29.430  21.571  1.00  0.00     0.000 C 
BRANCH   4   5
ATOM      5  C   UNL     1      15.023 -29.228  21.933  1.00  0.00     0.001 C 
BRANCH   5   6
ATOM      6  C   UNL     1      14.593 -30.045  23.167  1.00  0.00     0.009 C 
BRANCH   6   7
ATOM      7  C   UNL     1      13.079 -30.349  23.232  1.00  0.00     0.032 C 
ATOM      8  C   UNL     1      12.546 -30.994  21.944  1.00  0.00     0.014 C 
BRANCH   7   9
ATOM      9  C   UNL     1      12.285 -29.125  23.611  1.00  0.00     0.044 C 
ATOM     10  O   UNL     1      12.688 -28.380  24.542  1.00  0.00    -0.550 OA
ATOM     11  O   UNL     1      11.136 -28.777  22.908  1.00  0.00    -0.550 OA
ENDBRANCH   7   9
ENDBRANCH   6   7
ENDBRANCH   5   6
ENDBRANCH   4   5
ENDBRANCH   3   4
ENDBRANCH   2   3
ENDBRANCH   1   2
BRANCH   1  12
ATOM     12  C   UNL     1      15.669 -32.850  20.990  1.00  0.00     0.000 C 
BRANCH  12  13
ATOM     13  C   UNL     1      15.367 -34.066  21.885  1.00  0.00    -0.000 C 
BRANCH  13  14
ATOM     14  C   UNL     1      15.074 -33.669  23.340  1.00  0.00    -0.000 C 
BRANCH  14  15
ATOM     15  C   UNL     1      16.335 -33.673  24.218  1.00  0.00    -0.000 C 
BRANCH  15  16
ATOM     16  C   UNL     1      16.887 -35.097  24.381  1.00  0.00    -0.000 C 
BRANCH  16  17
ATOM     17  C   UNL     1      18.162 -35.345  23.555  1.00  0.00    -0.000 C 
BRANCH  17  18
ATOM     18  C   UNL     1      19.081 -34.121  23.399  1.00  0.00    -0.003 C 
ATOM     19  C   UNL     1      20.109 -34.284  22.280  1.00  0.00     0.004 C 
ENDBRANCH  17  18
ENDBRANCH  16  17
ENDBRANCH  15  16
ENDBRANCH  14  15
ENDBRANCH  13  14
ENDBRANCH  12  13
ENDBRANCH   1  12
TORSDOF 14
ENDMDL
MODEL 4
REMARK VINA RESULT:    -4.682      1.271      2.080
REMARK INTER + INTRA:         -10.698
REMARK INTER:                  -8.353
REMARK INTRA:                  -2.344
REMARK UNBOUND:                -2.183
REMARK SMILES CCCCCCCCCCCCCC[C@H](C)C(=O)[O-]
REMARK SMILES IDX 9 1 10 2 11 3 12 4 13 5 14 6 15 7 16 8 17 9 18 10 19 11 8 12
REMARK SMILES IDX 7 13 6 14 5 15 4 16 3 17 2 18 1 19
REMARK H PARENT
REMARK Flexibility Score: inf
ROOT
ATOM      1  C   UNL     1      16.903 -30.667  23.446  1.00  0.00     0.000 C 
ENDROOT
BRANCH   1   2
ATOM      2  C   UNL     1      17.794 -31.779  24.025  1.00  0.00     0.000 C 
BRANCH   2   3
ATOM      3  C   UNL     1      16.997 -33.033  24.429  1.00  0.00     0.000 C 
BRANCH   3   4
ATOM      4  C   UNL     1      16.541 -33.931  23.259  1.00  0.00     0.000 C 
BRANCH   4   5
ATOM      5  C   UNL     1      15.023 -33.973  23.015  1.00  0.00     0.001 C 
BRANCH   5   6
ATOM      6  C   UNL     1      14.578 -33.046  21.866  1.00  0.00     0.009 C 
BRANCH   6   7
ATOM      7  C   UNL     1      13.889 -31.743  22.333  1.00  0.00     0.032 C 
ATOM      8  C   UNL     1      13.440 -31.800  23.801  1.00  0.00     0.014 C 
BRANCH   7   9
ATOM      9  C   UNL     1      12.754 -31.359  21.420  1.00  0.00     0.044 C 
ATOM     10  O   UNL     1      11.818 -30.636  21.853  1.00  0.00    -0.550 OA
ATOM     11  O   UNL     1      12.752 -31.749  20.084  1.00  0.00    -0.550 OA
ENDBRANCH   7   9
ENDBRANCH   6   7
ENDBRANCH   5   6
ENDBRANCH   4   5
ENDBRANCH   3   4
ENDBRANCH   2   3
ENDBRANCH   1   2
BRANCH   1  12
ATOM     12  C   UNL     1      17.342 -30.234  22.039  1.00  0.00     0.000 C 
BRANCH  12  13
ATOM     13  C   UNL     1      18.365 -31.199  21.413  1.00  0.00    -0.000 C 
BRANCH  13  14
ATOM     14  C   UNL     1      17.714 -32.205  20.451  1.00  0.00    -0.000 C 
BRANCH  14  15
ATOM     15  C   UNL     1      18.605 -33.428  20.184  1.00  0.00    -0.000 C 
BRANCH  15  16
ATOM     16  C   UNL     1      18.038 -34.284  19.042  1.00  0.00    -0.000 C 
BRANCH  16  17
ATOM     17  C   UNL     1      16.615 -34.798  19.327  1.00  0.00    -0.000 C 
BRANCH  17  18
ATOM     18  C   UNL     1      16.549 -36.145  20.068  1.00  0.00    -0.003 C 
ATOM     19  C   UNL     1      17.386 -37.236  19.402  1.00  0.00     0.004 C 
ENDBRANCH  17  18
ENDBRANCH  16  17
ENDBRANCH  15  16
ENDBRANCH  14  15
ENDBRANCH  13  14
ENDBRANCH  12  13
ENDBRANCH   1  12
TORSDOF 14
ENDMDL
MODEL 5
REMARK VINA RESULT:    -4.637      1.685      2.490
REMARK INTER + INTRA:         -10.616
REMARK INTER:                  -8.215
REMARK INTRA:                  -2.401
REMARK UNBOUND:                -2.183
REMARK SMILES CCCCCCCCCCCCCC[C@H](C)C(=O)[O-]
REMARK SMILES IDX 9 1 10 2 11 3 12 4 13 5 14 6 15 7 16 8 17 9 18 10 19 11 8 12
REMARK SMILES IDX 7 13 6 14 5 15 4 16 3 17 2 18 1 19
REMARK H PARENT
REMARK Flexibility Score: inf
ROOT
ATOM      1  C   UNL     1      18.522 -33.090  24.088  1.00  0.00     0.000 C 
ENDROOT
BRANCH   1   2
ATOM      2  C   UNL     1      17.146 -33.596  24.553  1.00  0.00     0.000 C 
BRANCH   2   3
ATOM      3  C   UNL     1      16.366 -34.313  23.436  1.00  0.00     0.000 C 
BRANCH   3   4
ATOM      4  C   UNL     1      15.024 -33.658  23.043  1.00  0.00     0.000 C 
BRANCH   4   5
ATOM      5  C   UNL     1      14.922 -32.148  23.319  1.00  0.00     0.001 C 
BRANCH   5   6
ATOM      6  C   UNL     1      13.510 -31.716  23.759  1.00  0.00     0.009 C 
BRANCH   6   7
ATOM      7  C   UNL     1      12.764 -30.839  22.728  1.00  0.00     0.032 C 
ATOM      8  C   UNL     1      13.276 -31.042  21.294  1.00  0.00     0.014 C 
BRANCH   7   9
ATOM      9  C   UNL     1      12.779 -29.385  23.123  1.00  0.00     0.044 C 
ATOM     10  O   UNL     1      13.717 -28.640  22.734  1.00  0.00    -0.550 OA
ATOM     11  O   UNL     1      11.740 -28.839  23.870  1.00  0.00    -0.550 OA
ENDBRANCH   7   9
ENDBRANCH   6   7
ENDBRANCH   5   6
ENDBRANCH   4   5
ENDBRANCH   3   4
ENDBRANCH   2   3
ENDBRANCH   1   2
BRANCH   1  12
ATOM     12  C   UNL     1      18.550 -31.567  23.884  1.00  0.00     0.000 C 
BRANCH  12  13
ATOM     13  C   UNL     1      19.006 -31.166  22.469  1.00  0.00    -0.000 C 
BRANCH  13  14
ATOM     14  C   UNL     1      17.831 -30.781  21.557  1.00  0.00    -0.000 C 
BRANCH  14  15
ATOM     15  C   UNL     1      17.408 -31.926  20.624  1.00  0.00    -0.000 C 
BRANCH  15  16
ATOM     16  C   UNL     1      18.545 -32.942  20.450  1.00  0.00    -0.000 C 
BRANCH  16  17
ATOM     17  C   UNL     1      18.045 -34.341  20.049  1.00  0.00    -0.000 C 
BRANCH  17  18
ATOM     18  C   UNL     1      16.646 -34.370  19.407  1.00  0.00    -0.003 C 
ATOM     19  C   UNL     1      15.797 -35.549  19.877  1.00  0.00     0.004 C 
ENDBRANCH  17  18
ENDBRANCH  16  17
ENDBRANCH  15  16
ENDBRANCH  14  15
ENDBRANCH  13  14
ENDBRANCH  12  13
ENDBRANCH   1  12
TORSDOF 14
ENDMDL
MODEL 6
REMARK VINA RESULT:    -4.619      1.656      3.622
REMARK INTER + INTRA:         -10.582
REMARK INTER:                  -8.435
REMARK INTRA:                  -2.147
REMARK UNBOUND:                -2.183
REMARK SMILES CCCCCCCCCCCCCC[C@H](C)C(=O)[O-]
REMARK SMILES IDX 9 1 10 2 11 3 12 4 13 5 14 6 15 7 16 8 17 9 18 10 19 11 8 12
REMARK SMILES IDX 7 13 6 14 5 15 4 16 3 17 2 18 1 19
REMARK H PARENT
REMARK Flexibility Score: inf
ROOT
ATOM      1  C   UNL     1      17.348 -33.978  19.220  1.00  0.00     0.000 C 
ENDROOT
BRANCH   1   2
ATOM      2  C   UNL     1      16.718 -35.373  19.370  1.00  0.00     0.000 C 
BRANCH   2   3
ATOM      3  C   UNL     1      15.357 -35.339  20.090  1.00  0.00     0.000 C 
BRANCH   3   4
ATOM      4  C   UNL     1      14.643 -33.970  20.090  1.00  0.00     0.000 C 
BRANCH   4   5
ATOM      5  C   UNL     1      14.489 -33.307  21.470  1.00  0.00     0.001 C 
BRANCH   5   6
ATOM      6  C   UNL     1      14.439 -31.769  21.390  1.00  0.00     0.009 C 
BRANCH   6   7
ATOM      7  C   UNL     1      13.897 -31.085  22.666  1.00  0.00     0.032 C 
ATOM      8  C   UNL     1      13.740 -32.059  23.842  1.00  0.00     0.014 C 
BRANCH   7   9
ATOM      9  C   UNL     1      12.621 -30.333  22.392  1.00  0.00     0.044 C 
ATOM     10  O   UNL     1      12.452 -29.185  22.879  1.00  0.00    -0.550 OA
ATOM     11  O   UNL     1      11.643 -30.871  21.560  1.00  0.00    -0.550 OA
ENDBRANCH   7   9
ENDBRANCH   6   7
ENDBRANCH   5   6
ENDBRANCH   4   5
ENDBRANCH   3   4
ENDBRANCH   2   3
ENDBRANCH   1   2
BRANCH   1  12
ATOM     12  C   UNL     1      18.418 -33.698  20.287  1.00  0.00     0.000 C 
BRANCH  12  13
ATOM     13  C   UNL     1      18.066 -32.493  21.178  1.00  0.00    -0.000 C 
BRANCH  13  14
ATOM     14  C   UNL     1      18.019 -32.858  22.671  1.00  0.00    -0.000 C 
BRANCH  14  15
ATOM     15  C   UNL     1      17.937 -34.374  22.906  1.00  0.00    -0.000 C 
BRANCH  15  16
ATOM     16  C   UNL     1      16.790 -34.720  23.867  1.00  0.00    -0.000 C 
BRANCH  16  17
ATOM     17  C   UNL     1      17.258 -34.900  25.321  1.00  0.00    -0.000 C 
BRANCH  17  18
ATOM     18  C   UNL     1      16.929 -36.268  25.943  1.00  0.00    -0.003 C 
ATOM     19  C   UNL     1      18.175 -37.059  26.342  1.00  0.00     0.004 C 
ENDBRANCH  17  18
ENDBRANCH  16  17
ENDBRANCH  15  16
ENDBRANCH  14  15
ENDBRANCH  13  14
ENDBRANCH  12  13
ENDBRANCH   1  12
TORSDOF 14
ENDMDL
MODEL 7
REMARK VINA RESULT:    -4.592      2.811      5.848
REMARK INTER + INTRA:         -10.534
REMARK INTER:                  -7.935
REMARK INTRA:                  -2.600
REMARK UNBOUND:                -2.183
REMARK SMILES CCCCCCCCCCCCCC[C@H](C)C(=O)[O-]
REMARK SMILES IDX 9 1 10 2 11 3 12 4 13 5 14 6 15 7 16 8 17 9 18 10 19 11 8 12
REMARK SMILES IDX 7 13 6 14 5 15 4 16 3 17 2 18 1 19
REMARK H PARENT
REMARK Flexibility Score: inf
ROOT
ATOM      1  C   UNL     1      15.006 -34.699  20.241  1.00  0.00     0.000 C 
ENDROOT
BRANCH   1   2
ATOM      2  C   UNL     1      16.198 -34.383  19.323  1.00  0.00     0.000 C 
BRANCH   2   3
ATOM      3  C   UNL     1      17.476 -35.146  19.720  1.00  0.00     0.000 C 
BRANCH   3   4
ATOM      4  C   UNL     1      17.267 -36.318  20.701  1.00  0.00     0.000 C 
BRANCH   4   5
ATOM      5  C   UNL     1      17.993 -36.184  22.051  1.00  0.00     0.001 C 
BRANCH   5   6
ATOM      6  C   UNL     1      18.149 -34.718  22.501  1.00  0.00     0.009 C 
BRANCH   6   7
ATOM      7  C   UNL     1      17.779 -34.465  23.981  1.00  0.00     0.032 C 
ATOM      8  C   UNL     1      16.264 -34.358  24.205  1.00  0.00     0.014 C 
BRANCH   7   9
ATOM      9  C   UNL     1      18.508 -33.270  24.537  1.00  0.00     0.044 C 
ATOM     10  O   UNL     1      18.294 -32.900  25.722  1.00  0.00    -0.550 OA
ATOM     11  O   UNL     1      19.459 -32.597  23.775  1.00  0.00    -0.550 OA
ENDBRANCH   7   9
ENDBRANCH   6   7
ENDBRANCH   5   6
ENDBRANCH   4   5
ENDBRANCH   3   4
ENDBRANCH   2   3
ENDBRANCH   1   2
BRANCH   1  12
ATOM     12  C   UNL     1      14.636 -33.519  21.154  1.00  0.00     0.000 C 
BRANCH  12  13
ATOM     13  C   UNL     1      13.686 -32.517  20.473  1.00  0.00    -0.000 C 
BRANCH  13  14
ATOM     14  C   UNL     1      13.250 -31.383  21.414  1.00  0.00    -0.000 C 
BRANCH  14  15
ATOM     15  C   UNL     1      13.795 -31.558  22.840  1.00  0.00    -0.000 C 
BRANCH  15  16
ATOM     16  C   UNL     1      14.743 -30.409  23.211  1.00  0.00    -0.000 C 
BRANCH  16  17
ATOM     17  C   UNL     1      16.226 -30.764  23.003  1.00  0.00    -0.000 C 
BRANCH  17  18
ATOM     18  C   UNL     1      16.827 -30.282  21.670  1.00  0.00    -0.003 C 
ATOM     19  C   UNL     1      17.645 -31.359  20.959  1.00  0.00     0.004 C 
ENDBRANCH  17  18
ENDBRANCH  16  17
ENDBRANCH  15  16
ENDBRANCH  14  15
ENDBRANCH  13  14
ENDBRANCH  12  13
ENDBRANCH   1  12
TORSDOF 14
ENDMDL
MODEL 8
REMARK VINA RESULT:    -4.592      2.981      6.777
REMARK INTER + INTRA:         -10.534
REMARK INTER:                  -8.849
REMARK INTRA:                  -1.685
REMARK UNBOUND:                -2.183
REMARK SMILES CCCCCCCCCCCCCC[C@H](C)C(=O)[O-]
REMARK SMILES IDX 9 1 10 2 11 3 12 4 13 5 14 6 15 7 16 8 17 9 18 10 19 11 8 12
REMARK SMILES IDX 7 13 6 14 5 15 4 16 3 17 2 18 1 19
REMARK H PARENT
REMARK Flexibility Score: inf
ROOT
ATOM      1  C   UNL     1      15.042 -34.722  20.188  1.00  0.00     0.000 C 
ENDROOT
BRANCH   1   2
ATOM      2  C   UNL     1      16.245 -34.391  19.289  1.00  0.00     0.000 C 
BRANCH   2   3
ATOM      3  C   UNL     1      17.579 -34.895  19.868  1.00  0.00     0.000 C 
BRANCH   3   4
ATOM      4  C   UNL     1      17.531 -36.294  20.518  1.00  0.00     0.000 C 
BRANCH   4   5
ATOM      5  C   UNL     1      17.814 -36.328  22.030  1.00  0.00     0.001 C 
BRANCH   5   6
ATOM      6  C   UNL     1      17.840 -34.923  22.663  1.00  0.00     0.009 C 
BRANCH   6   7
ATOM      7  C   UNL     1      16.926 -34.767  23.901  1.00  0.00     0.032 C 
ATOM      8  C   UNL     1      16.607 -33.301  24.224  1.00  0.00     0.014 C 
BRANCH   7   9
ATOM      9  C   UNL     1      17.488 -35.490  25.098  1.00  0.00     0.044 C 
ATOM     10  O   UNL     1      16.742 -36.238  25.785  1.00  0.00    -0.550 OA
ATOM     11  O   UNL     1      18.836 -35.386  25.425  1.00  0.00    -0.550 OA
ENDBRANCH   7   9
ENDBRANCH   6   7
ENDBRANCH   5   6
ENDBRANCH   4   5
ENDBRANCH   3   4
ENDBRANCH   2   3
ENDBRANCH   1   2
BRANCH   1  12
ATOM     12  C   UNL     1      14.642 -33.545  21.092  1.00  0.00     0.000 C 
BRANCH  12  13
ATOM     13  C   UNL     1      13.746 -32.521  20.373  1.00  0.00    -0.000 C 
BRANCH  13  14
ATOM     14  C   UNL     1      13.143 -31.486  21.336  1.00  0.00    -0.000 C 
BRANCH  14  15
ATOM     15  C   UNL     1      13.471 -31.787  22.807  1.00  0.00    -0.000 C 
BRANCH  15  16
ATOM     16  C   UNL     1      13.906 -30.512  23.544  1.00  0.00    -0.000 C 
BRANCH  16  17
ATOM     17  C   UNL     1      13.292 -29.234  22.949  1.00  0.00    -0.000 C 
BRANCH  17  18
ATOM     18  C   UNL     1      12.233 -28.551  23.833  1.00  0.00    -0.003 C 
ATOM     19  C   UNL     1      10.936 -28.245  23.086  1.00  0.00     0.004 C 
ENDBRANCH  17  18
ENDBRANCH  16  17
ENDBRANCH  15  16
ENDBRANCH  14  15
ENDBRANCH  13  14
ENDBRANCH  12  13
ENDBRANCH   1  12
TORSDOF 14
ENDMDL
MODEL 9
REMARK VINA RESULT:    -4.551      1.967      3.127
REMARK INTER + INTRA:         -10.459
REMARK INTER:                  -8.177
REMARK INTRA:                  -2.281
REMARK UNBOUND:                -2.183
REMARK SMILES CCCCCCCCCCCCCC[C@H](C)C(=O)[O-]
REMARK SMILES IDX 9 1 10 2 11 3 12 4 13 5 14 6 15 7 16 8 17 9 18 10 19 11 8 12
REMARK SMILES IDX 7 13 6 14 5 15 4 16 3 17 2 18 1 19
REMARK H PARENT
REMARK Flexibility Score: inf
ROOT
ATOM      1  C   UNL     1      17.241 -33.270  24.592  1.00  0.00     0.000 C 
ENDROOT
BRANCH   1   2
ATOM      2  C   UNL     1      16.270 -32.367  23.810  1.00  0.00     0.000 C 
BRANCH   2   3
ATOM      3  C   UNL     1      16.906 -31.029  23.391  1.00  0.00     0.000 C 
BRANCH   3   4
ATOM      4  C   UNL     1      16.693 -30.630  21.915  1.00  0.00     0.000 C 
BRANCH   4   5
ATOM      5  C   UNL     1      15.273 -30.155  21.560  1.00  0.00     0.001 C 
BRANCH   5   6
ATOM      6  C   UNL     1      14.644 -29.279  22.661  1.00  0.00     0.009 C 
BRANCH   6   7
ATOM      7  C   UNL     1      13.441 -29.931  23.381  1.00  0.00     0.032 C 
ATOM      8  C   UNL     1      12.823 -31.086  22.579  1.00  0.00     0.014 C 
BRANCH   7   9
ATOM      9  C   UNL     1      12.407 -28.907  23.769  1.00  0.00     0.044 C 
ATOM     10  O   UNL     1      12.641 -28.105  24.710  1.00  0.00    -0.550 OA
ATOM     11  O   UNL     1      11.212 -28.800  23.064  1.00  0.00    -0.550 OA
ENDBRANCH   7   9
ENDBRANCH   6   7
ENDBRANCH   5   6
ENDBRANCH   4   5
ENDBRANCH   3   4
ENDBRANCH   2   3
ENDBRANCH   1   2
BRANCH   1  12
ATOM     12  C   UNL     1      16.755 -34.725  24.672  1.00  0.00     0.000 C 
BRANCH  12  13
ATOM     13  C   UNL     1      17.661 -35.697  23.895  1.00  0.00    -0.000 C 
BRANCH  13  14
ATOM     14  C   UNL     1      18.662 -34.969  22.983  1.00  0.00    -0.000 C 
BRANCH  14  15
ATOM     15  C   UNL     1      18.343 -35.150  21.492  1.00  0.00    -0.000 C 
BRANCH  15  16
ATOM     16  C   UNL     1      18.428 -33.812  20.744  1.00  0.00    -0.000 C 
BRANCH  16  17
ATOM     17  C   UNL     1      17.246 -33.581  19.787  1.00  0.00    -0.000 C 
BRANCH  17  18
ATOM     18  C   UNL     1      16.065 -34.551  19.971  1.00  0.00    -0.003 C 
ATOM     19  C   UNL     1      14.909 -33.944  20.764  1.00  0.00     0.004 C 
ENDBRANCH  17  18
ENDBRANCH  16  17
ENDBRANCH  15  16
ENDBRANCH  14  15
ENDBRANCH  13  14
ENDBRANCH  12  13
ENDBRANCH   1  12
TORSDOF 14
ENDMDL
