MODEL 1
REMARK VINA RESULT:    -6.424      0.000      0.000
REMARK INTER + INTRA:          -6.424
REMARK INTER:                  -6.424
REMARK INTRA:                   0.000
REMARK UNBOUND:                 0.000
REMARK SMILES O=c1ccc2ccccc2o1
REMARK SMILES IDX 7 1 8 2 9 3 10 4 5 5 6 6 4 7 3 8 2 9 1 10 11 11
REMARK H PARENT
REMARK Flexibility Score: inf
ROOT
ATOM      1  C   UNL     1     -24.114 -25.572 -14.080  1.00  0.00     0.001 A 
ATOM      2  C   UNL     1     -25.319 -25.271 -14.723  1.00  0.00     0.004 A 
ATOM      3  C   UNL     1     -25.920 -24.020 -14.544  1.00  0.00     0.048 A 
ATOM      4  C   UNL     1     -25.315 -23.065 -13.720  1.00  0.00     0.138 A 
ATOM      5  C   UNL     1     -24.098 -23.368 -13.071  1.00  0.00     0.018 A 
ATOM      6  C   UNL     1     -23.501 -24.624 -13.254  1.00  0.00     0.012 A 
ATOM      7  C   UNL     1     -23.517 -22.392 -12.254  1.00  0.00     0.019 A 
ATOM      8  C   UNL     1     -24.151 -21.159 -12.105  1.00  0.00     0.094 A 
ATOM      9  C   UNL     1     -25.355 -20.929 -12.779  1.00  0.00     0.336 A 
ATOM     10  O   UNL     1     -25.941 -19.823 -12.656  1.00  0.00    -0.246 OA
ATOM     11  O   UNL     1     -25.886 -21.874 -13.550  1.00  0.00    -0.423 OA
ENDROOT
TORSDOF 0
ENDMDL
MODEL 2
REMARK VINA RESULT:    -6.399      1.537      3.802
REMARK INTER + INTRA:          -6.399
REMARK INTER:                  -6.399
REMARK INTRA:                   0.000
REMARK UNBOUND:                 0.000
REMARK SMILES O=c1ccc2ccccc2o1
REMARK SMILES IDX 7 1 8 2 9 3 10 4 5 5 6 6 4 7 3 8 2 9 1 10 11 11
REMARK H PARENT
REMARK Flexibility Score: inf
ROOT
ATOM      1  C   UNL     1     -23.854 -21.293 -11.871  1.00  0.00     0.001 A 
ATOM      2  C   UNL     1     -25.179 -20.983 -12.194  1.00  0.00     0.004 A 
ATOM      3  C   UNL     1     -25.951 -21.880 -12.940  1.00  0.00     0.048 A 
ATOM      4  C   UNL     1     -25.398 -23.091 -13.368  1.00  0.00     0.138 A 
ATOM      5  C   UNL     1     -24.059 -23.405 -13.043  1.00  0.00     0.018 A 
ATOM      6  C   UNL     1     -23.291 -22.502 -12.294  1.00  0.00     0.012 A 
ATOM      7  C   UNL     1     -23.534 -24.624 -13.484  1.00  0.00     0.019 A 
ATOM      8  C   UNL     1     -24.340 -25.487 -14.226  1.00  0.00     0.094 A 
ATOM      9  C   UNL     1     -25.657 -25.111 -14.510  1.00  0.00     0.336 A 
ATOM     10  O   UNL     1     -26.399 -25.876 -15.179  1.00  0.00    -0.246 OA
ATOM     11  O   UNL     1     -26.132 -23.945 -14.079  1.00  0.00    -0.423 OA
ENDROOT
TORSDOF 0
ENDMDL
MODEL 3
REMARK VINA RESULT:    -6.394      1.041      1.188
REMARK INTER + INTRA:          -6.394
REMARK INTER:                  -6.394
REMARK INTRA:                   0.000
REMARK UNBOUND:                 0.000
REMARK SMILES O=c1ccc2ccccc2o1
REMARK SMILES IDX 7 1 8 2 9 3 10 4 5 5 6 6 4 7 3 8 2 9 1 10 11 11
REMARK H PARENT
REMARK Flexibility Score: inf
ROOT
ATOM      1  C   UNL     1     -23.523 -24.816 -13.380  1.00  0.00     0.001 A 
ATOM      2  C   UNL     1     -24.349 -24.800 -14.508  1.00  0.00     0.004 A 
ATOM      3  C   UNL     1     -24.998 -23.621 -14.889  1.00  0.00     0.048 A 
ATOM      4  C   UNL     1     -24.823 -22.452 -14.141  1.00  0.00     0.138 A 
ATOM      5  C   UNL     1     -23.988 -22.467 -13.001  1.00  0.00     0.018 A 
ATOM      6  C   UNL     1     -23.340 -23.652 -12.625  1.00  0.00     0.012 A 
ATOM      7  C   UNL     1     -23.832 -21.283 -12.274  1.00  0.00     0.019 A 
ATOM      8  C   UNL     1     -24.498 -20.131 -12.690  1.00  0.00     0.094 A 
ATOM      9  C   UNL     1     -25.309 -20.190 -13.829  1.00  0.00     0.336 A 
ATOM     10  O   UNL     1     -25.918 -19.161 -14.220  1.00  0.00    -0.246 OA
ATOM     11  O   UNL     1     -25.440 -21.329 -14.503  1.00  0.00    -0.423 OA
ENDROOT
TORSDOF 0
ENDMDL
MODEL 4
REMARK VINA RESULT:    -6.337      1.594      2.417
REMARK INTER + INTRA:          -6.337
REMARK INTER:                  -6.337
REMARK INTRA:                   0.000
REMARK UNBOUND:                 0.000
REMARK SMILES O=c1ccc2ccccc2o1
REMARK SMILES IDX 7 1 8 2 9 3 10 4 5 5 6 6 4 7 3 8 2 9 1 10 11 11
REMARK H PARENT
REMARK Flexibility Score: inf
ROOT
ATOM      1  C   UNL     1     -24.350 -24.519 -12.913  1.00  0.00     0.001 A 
ATOM      2  C   UNL     1     -23.125 -23.875 -13.113  1.00  0.00     0.004 A 
ATOM      3  C   UNL     1     -23.034 -22.484 -13.002  1.00  0.00     0.048 A 
ATOM      4  C   UNL     1     -24.171 -21.730 -12.691  1.00  0.00     0.138 A 
ATOM      5  C   UNL     1     -25.409 -22.380 -12.489  1.00  0.00     0.018 A 
ATOM      6  C   UNL     1     -25.494 -23.775 -12.601  1.00  0.00     0.012 A 
ATOM      7  C   UNL     1     -26.528 -21.600 -12.179  1.00  0.00     0.019 A 
ATOM      8  C   UNL     1     -26.391 -20.216 -12.079  1.00  0.00     0.094 A 
ATOM      9  C   UNL     1     -25.133 -19.642 -12.292  1.00  0.00     0.336 A 
ATOM     10  O   UNL     1     -24.990 -18.395 -12.206  1.00  0.00    -0.246 OA
ATOM     11  O   UNL     1     -24.084 -20.406 -12.585  1.00  0.00    -0.423 OA
ENDROOT
TORSDOF 0
ENDMDL
MODEL 5
REMARK VINA RESULT:    -6.275      1.219      2.154
REMARK INTER + INTRA:          -6.275
REMARK INTER:                  -6.275
REMARK INTRA:                   0.000
REMARK UNBOUND:                 0.000
REMARK SMILES O=c1ccc2ccccc2o1
REMARK SMILES IDX 7 1 8 2 9 3 10 4 5 5 6 6 4 7 3 8 2 9 1 10 11 11
REMARK H PARENT
REMARK Flexibility Score: inf
ROOT
ATOM      1  C   UNL     1     -24.260 -24.816 -14.433  1.00  0.00     0.001 A 
ATOM      2  C   UNL     1     -23.578 -24.750 -13.214  1.00  0.00     0.004 A 
ATOM      3  C   UNL     1     -23.600 -23.575 -12.456  1.00  0.00     0.048 A 
ATOM      4  C   UNL     1     -24.306 -22.458 -12.917  1.00  0.00     0.138 A 
ATOM      5  C   UNL     1     -24.995 -22.524 -14.148  1.00  0.00     0.018 A 
ATOM      6  C   UNL     1     -24.969 -23.705 -14.903  1.00  0.00     0.012 A 
ATOM      7  C   UNL     1     -25.692 -21.392 -14.583  1.00  0.00     0.019 A 
ATOM      8  C   UNL     1     -25.687 -20.241 -13.795  1.00  0.00     0.094 A 
ATOM      9  C   UNL     1     -24.983 -20.249 -12.587  1.00  0.00     0.336 A 
ATOM     10  O   UNL     1     -24.966 -19.220 -11.863  1.00  0.00    -0.246 OA
ATOM     11  O   UNL     1     -24.327 -21.339 -12.196  1.00  0.00    -0.423 OA
ENDROOT
TORSDOF 0
ENDMDL
MODEL 6
REMARK VINA RESULT:    -6.109      2.353      2.918
REMARK INTER + INTRA:          -6.109
REMARK INTER:                  -6.109
REMARK INTRA:                   0.000
REMARK UNBOUND:                 0.000
REMARK SMILES O=c1ccc2ccccc2o1
REMARK SMILES IDX 7 1 8 2 9 3 10 4 5 5 6 6 4 7 3 8 2 9 1 10 11 11
REMARK H PARENT
REMARK Flexibility Score: inf
ROOT
ATOM      1  C   UNL     1     -26.723 -23.306 -13.434  1.00  0.00     0.001 A 
ATOM      2  C   UNL     1     -26.123 -22.911 -14.635  1.00  0.00     0.004 A 
ATOM      3  C   UNL     1     -25.544 -21.642 -14.749  1.00  0.00     0.048 A 
ATOM      4  C   UNL     1     -25.564 -20.763 -13.661  1.00  0.00     0.138 A 
ATOM      5  C   UNL     1     -26.170 -21.161 -12.448  1.00  0.00     0.018 A 
ATOM      6  C   UNL     1     -26.749 -22.434 -12.340  1.00  0.00     0.012 A 
ATOM      7  C   UNL     1     -26.174 -20.261 -11.378  1.00  0.00     0.019 A 
ATOM      8  C   UNL     1     -25.586 -19.007 -11.537  1.00  0.00     0.094 A 
ATOM      9  C   UNL     1     -25.004 -18.681 -12.767  1.00  0.00     0.336 A 
ATOM     10  O   UNL     1     -24.469 -17.554 -12.929  1.00  0.00    -0.246 OA
ATOM     11  O   UNL     1     -25.013 -19.556 -13.769  1.00  0.00    -0.423 OA
ENDROOT
TORSDOF 0
ENDMDL
MODEL 7
REMARK VINA RESULT:    -5.982      1.645      4.160
REMARK INTER + INTRA:          -5.982
REMARK INTER:                  -5.982
REMARK INTRA:                   0.000
REMARK UNBOUND:                 0.000
REMARK SMILES O=c1ccc2ccccc2o1
REMARK SMILES IDX 7 1 8 2 9 3 10 4 5 5 6 6 4 7 3 8 2 9 1 10 11 11
REMARK H PARENT
REMARK Flexibility Score: inf
ROOT
ATOM      1  C   UNL     1     -25.348 -19.153 -11.268  1.00  0.00     0.001 A 
ATOM      2  C   UNL     1     -26.075 -18.866 -12.428  1.00  0.00     0.004 A 
ATOM      3  C   UNL     1     -26.027 -19.736 -13.523  1.00  0.00     0.048 A 
ATOM      4  C   UNL     1     -25.249 -20.898 -13.460  1.00  0.00     0.138 A 
ATOM      5  C   UNL     1     -24.515 -21.188 -12.289  1.00  0.00     0.018 A 
ATOM      6  C   UNL     1     -24.568 -20.312 -11.195  1.00  0.00     0.012 A 
ATOM      7  C   UNL     1     -23.748 -22.357 -12.255  1.00  0.00     0.019 A 
ATOM      8  C   UNL     1     -23.729 -23.195 -13.370  1.00  0.00     0.094 A 
ATOM      9  C   UNL     1     -24.481 -22.844 -14.496  1.00  0.00     0.336 A 
ATOM     10  O   UNL     1     -24.477 -23.587 -15.511  1.00  0.00    -0.246 OA
ATOM     11  O   UNL     1     -25.203 -21.726 -14.502  1.00  0.00    -0.423 OA
ENDROOT
TORSDOF 0
ENDMDL
MODEL 8
REMARK VINA RESULT:    -5.910      1.898      4.347
REMARK INTER + INTRA:          -5.910
REMARK INTER:                  -5.910
REMARK INTRA:                   0.000
REMARK UNBOUND:                 0.000
REMARK SMILES O=c1ccc2ccccc2o1
REMARK SMILES IDX 7 1 8 2 9 3 10 4 5 5 6 6 4 7 3 8 2 9 1 10 11 11
REMARK H PARENT
REMARK Flexibility Score: inf
ROOT
ATOM      1  C   UNL     1     -25.497 -20.794 -12.174  1.00  0.00     0.001 A 
ATOM      2  C   UNL     1     -24.145 -20.996 -11.879  1.00  0.00     0.004 A 
ATOM      3  C   UNL     1     -23.495 -22.158 -12.310  1.00  0.00     0.048 A 
ATOM      4  C   UNL     1     -24.198 -23.124 -13.037  1.00  0.00     0.138 A 
ATOM      5  C   UNL     1     -25.564 -22.921 -13.336  1.00  0.00     0.018 A 
ATOM      6  C   UNL     1     -26.209 -21.754 -12.901  1.00  0.00     0.012 A 
ATOM      7  C   UNL     1     -26.240 -23.904 -14.066  1.00  0.00     0.019 A 
ATOM      8  C   UNL     1     -25.553 -25.047 -14.474  1.00  0.00     0.094 A 
ATOM      9  C   UNL     1     -24.200 -25.180 -14.143  1.00  0.00     0.336 A 
ATOM     10  O   UNL     1     -23.563 -26.204 -14.502  1.00  0.00    -0.246 OA
ATOM     11  O   UNL     1     -23.580 -24.230 -13.447  1.00  0.00    -0.423 OA
ENDROOT
TORSDOF 0
ENDMDL
MODEL 9
REMARK VINA RESULT:    -5.857      1.820      4.465
REMARK INTER + INTRA:          -5.857
REMARK INTER:                  -5.857
REMARK INTRA:                   0.000
REMARK UNBOUND:                 0.000
REMARK SMILES O=c1ccc2ccccc2o1
REMARK SMILES IDX 7 1 8 2 9 3 10 4 5 5 6 6 4 7 3 8 2 9 1 10 11 11
REMARK H PARENT
REMARK Flexibility Score: inf
ROOT
ATOM      1  C   UNL     1     -26.076 -19.099 -12.845  1.00  0.00     0.001 A 
ATOM      2  C   UNL     1     -25.391 -19.419 -11.668  1.00  0.00     0.004 A 
ATOM      3  C   UNL     1     -24.688 -20.623 -11.566  1.00  0.00     0.048 A 
ATOM      4  C   UNL     1     -24.668 -21.515 -12.644  1.00  0.00     0.138 A 
ATOM      5  C   UNL     1     -25.359 -21.193 -13.833  1.00  0.00     0.018 A 
ATOM      6  C   UNL     1     -26.062 -19.984 -13.929  1.00  0.00     0.012 A 
ATOM      7  C   UNL     1     -25.320 -22.104 -14.894  1.00  0.00     0.019 A 
ATOM      8  C   UNL     1     -24.607 -23.293 -14.749  1.00  0.00     0.094 A 
ATOM      9  C   UNL     1     -23.946 -23.545 -13.542  1.00  0.00     0.336 A 
ATOM     10  O   UNL     1     -23.297 -24.613 -13.392  1.00  0.00    -0.246 OA
ATOM     11  O   UNL     1     -23.998 -22.662 -12.548  1.00  0.00    -0.423 OA
ENDROOT
TORSDOF 0
ENDMDL
