MODEL 1
REMARK VINA RESULT:    -5.179      0.000      0.000
REMARK INTER + INTRA:          -5.330
REMARK INTER:                  -5.330
REMARK INTRA:                   0.000
REMARK UNBOUND:                 0.000
REMARK SMILES O=c1ccc2cc(O)ccc2o1
REMARK SMILES IDX 9 1 10 2 11 3 5 4 4 5 3 6 2 7 1 8 12 9 6 10 7 11 8 12
REMARK H PARENT 8 13
REMARK Flexibility Score: inf
ROOT
ATOM      1  C   UNL     1      22.253   0.960 -23.124  1.00  0.00     0.050 A 
ATOM      2  C   UNL     1      21.862  -0.314 -22.699  1.00  0.00     0.052 A 
ATOM      3  C   UNL     1      21.467  -0.519 -21.372  1.00  0.00     0.138 A 
ATOM      4  C   UNL     1      21.465   0.563 -20.465  1.00  0.00     0.021 A 
ATOM      5  C   UNL     1      21.065   0.328 -19.147  1.00  0.00     0.019 A 
ATOM      6  C   UNL     1      20.683  -0.960 -18.767  1.00  0.00     0.094 A 
ATOM      7  C   UNL     1      20.711  -1.984 -19.720  1.00  0.00     0.336 A 
ATOM      8  O   UNL     1      20.370  -3.151 -19.397  1.00  0.00    -0.246 OA
ATOM      9  O   UNL     1      21.095  -1.732 -20.969  1.00  0.00    -0.423 OA
ATOM     10  C   UNL     1      21.858   1.839 -20.897  1.00  0.00     0.058 A 
ATOM     11  C   UNL     1      22.253   2.037 -22.229  1.00  0.00     0.116 A 
ENDROOT
BRANCH  11  12
ATOM     12  O   UNL     1      22.646   3.297 -22.672  1.00  0.00    -0.508 OA
ATOM     13  H   UNL     1      22.003   4.080 -22.684  1.00  0.00     0.293 HD
ENDBRANCH  11  12
TORSDOF 1
ENDMDL
MODEL 2
REMARK VINA RESULT:    -5.169      2.155      3.159
REMARK INTER + INTRA:          -5.320
REMARK INTER:                  -5.320
REMARK INTRA:                   0.000
REMARK UNBOUND:                 0.000
REMARK SMILES O=c1ccc2cc(O)ccc2o1
REMARK SMILES IDX 9 1 10 2 11 3 5 4 4 5 3 6 2 7 1 8 12 9 6 10 7 11 8 12
REMARK H PARENT 8 13
REMARK Flexibility Score: inf
ROOT
ATOM      1  C   UNL     1      22.052   0.504 -21.155  1.00  0.00     0.050 A 
ATOM      2  C   UNL     1      21.709   0.794 -19.831  1.00  0.00     0.052 A 
ATOM      3  C   UNL     1      20.804  -0.026 -19.147  1.00  0.00     0.138 A 
ATOM      4  C   UNL     1      20.240  -1.145 -19.799  1.00  0.00     0.021 A 
ATOM      5  C   UNL     1      19.339  -1.945 -19.090  1.00  0.00     0.019 A 
ATOM      6  C   UNL     1      19.026  -1.618 -17.770  1.00  0.00     0.094 A 
ATOM      7  C   UNL     1      19.623  -0.494 -17.190  1.00  0.00     0.336 A 
ATOM      8  O   UNL     1      19.352  -0.183 -16.001  1.00  0.00    -0.246 OA
ATOM      9  O   UNL     1      20.477   0.250 -17.887  1.00  0.00    -0.423 OA
ATOM     10  C   UNL     1      20.589  -1.431 -21.127  1.00  0.00     0.058 A 
ATOM     11  C   UNL     1      21.497  -0.604 -21.806  1.00  0.00     0.116 A 
ENDROOT
BRANCH  11  12
ATOM     12  O   UNL     1      21.852  -0.875 -23.125  1.00  0.00    -0.508 OA
ATOM     13  H   UNL     1      22.570  -0.342 -23.601  1.00  0.00     0.293 HD
ENDBRANCH  11  12
TORSDOF 1
ENDMDL
MODEL 3
REMARK VINA RESULT:    -5.124      1.566      4.650
REMARK INTER + INTRA:          -5.274
REMARK INTER:                  -5.274
REMARK INTRA:                   0.000
REMARK UNBOUND:                 0.000
REMARK SMILES O=c1ccc2cc(O)ccc2o1
REMARK SMILES IDX 9 1 10 2 11 3 5 4 4 5 3 6 2 7 1 8 12 9 6 10 7 11 8 12
REMARK H PARENT 8 13
REMARK Flexibility Score: inf
ROOT
ATOM      1  C   UNL     1      20.779  -0.174 -17.874  1.00  0.00     0.050 A 
ATOM      2  C   UNL     1      21.536   0.545 -18.804  1.00  0.00     0.052 A 
ATOM      3  C   UNL     1      21.514   0.183 -20.156  1.00  0.00     0.138 A 
ATOM      4  C   UNL     1      20.726  -0.911 -20.576  1.00  0.00     0.021 A 
ATOM      5  C   UNL     1      20.724  -1.250 -21.932  1.00  0.00     0.019 A 
ATOM      6  C   UNL     1      21.495  -0.503 -22.824  1.00  0.00     0.094 A 
ATOM      7  C   UNL     1      22.252   0.567 -22.336  1.00  0.00     0.336 A 
ATOM      8  O   UNL     1      22.953   1.252 -23.125  1.00  0.00    -0.246 OA
ATOM      9  O   UNL     1      22.235   0.868 -21.040  1.00  0.00    -0.423 OA
ATOM     10  C   UNL     1      19.968  -1.629 -19.639  1.00  0.00     0.058 A 
ATOM     11  C   UNL     1      19.995  -1.259 -18.285  1.00  0.00     0.116 A 
ENDROOT
BRANCH  11  12
ATOM     12  O   UNL     1      19.249  -1.963 -17.344  1.00  0.00    -0.508 OA
ATOM     13  H   UNL     1      18.297  -2.255 -17.531  1.00  0.00     0.293 HD
ENDBRANCH  11  12
TORSDOF 1
ENDMDL
MODEL 4
REMARK VINA RESULT:    -4.873     17.829     19.142
REMARK INTER + INTRA:          -5.016
REMARK INTER:                  -5.016
REMARK INTRA:                   0.000
REMARK UNBOUND:                 0.000
REMARK SMILES O=c1ccc2cc(O)ccc2o1
REMARK SMILES IDX 9 1 10 2 11 3 5 4 4 5 3 6 2 7 1 8 12 9 6 10 7 11 8 12
REMARK H PARENT 8 13
REMARK Flexibility Score: inf
ROOT
ATOM      1  C   UNL     1       8.505  -5.644  -6.238  1.00  0.00     0.050 A 
ATOM      2  C   UNL     1       7.774  -6.403  -7.157  1.00  0.00     0.052 A 
ATOM      3  C   UNL     1       8.357  -6.788  -8.370  1.00  0.00     0.138 A 
ATOM      4  C   UNL     1       9.685  -6.405  -8.662  1.00  0.00     0.021 A 
ATOM      5  C   UNL     1      10.240  -6.804  -9.881  1.00  0.00     0.019 A 
ATOM      6  C   UNL     1       9.473  -7.562 -10.767  1.00  0.00     0.094 A 
ATOM      7  C   UNL     1       8.164  -7.903 -10.410  1.00  0.00     0.336 A 
ATOM      8  O   UNL     1       7.457  -8.586 -11.196  1.00  0.00    -0.246 OA
ATOM      9  O   UNL     1       7.661  -7.511  -9.243  1.00  0.00    -0.423 OA
ATOM     10  C   UNL     1      10.413  -5.644  -7.736  1.00  0.00     0.058 A 
ATOM     11  C   UNL     1       9.822  -5.262  -6.523  1.00  0.00     0.116 A 
ENDROOT
BRANCH  11  12
ATOM     12  O   UNL     1      10.533  -4.505  -5.595  1.00  0.00    -0.508 OA
ATOM     13  H   UNL     1      10.402  -4.628  -4.598  1.00  0.00     0.293 HD
ENDBRANCH  11  12
TORSDOF 1
ENDMDL
MODEL 5
REMARK VINA RESULT:    -4.867     17.450     19.773
REMARK INTER + INTRA:          -5.009
REMARK INTER:                  -5.009
REMARK INTRA:                   0.000
REMARK UNBOUND:                 0.000
REMARK SMILES O=c1ccc2cc(O)ccc2o1
REMARK SMILES IDX 9 1 10 2 11 3 5 4 4 5 3 6 2 7 1 8 12 9 6 10 7 11 8 12
REMARK H PARENT 8 13
REMARK Flexibility Score: inf
ROOT
ATOM      1  C   UNL     1       7.641  -6.826  -5.575  1.00  0.00     0.050 A 
ATOM      2  C   UNL     1       8.204  -7.809  -6.395  1.00  0.00     0.052 A 
ATOM      3  C   UNL     1       9.237  -7.477  -7.279  1.00  0.00     0.138 A 
ATOM      4  C   UNL     1       9.707  -6.147  -7.341  1.00  0.00     0.021 A 
ATOM      5  C   UNL     1      10.739  -5.845  -8.234  1.00  0.00     0.019 A 
ATOM      6  C   UNL     1      11.271  -6.858  -9.032  1.00  0.00     0.094 A 
ATOM      7  C   UNL     1      10.755  -8.154  -8.917  1.00  0.00     0.336 A 
ATOM      8  O   UNL     1      11.221  -9.081  -9.629  1.00  0.00    -0.246 OA
ATOM      9  O   UNL     1       9.772  -8.413  -8.059  1.00  0.00    -0.423 OA
ATOM     10  C   UNL     1       9.139  -5.165  -6.516  1.00  0.00     0.058 A 
ATOM     11  C   UNL     1       8.104  -5.506  -5.632  1.00  0.00     0.116 A 
ENDROOT
BRANCH  11  12
ATOM     12  O   UNL     1       7.529  -4.541  -4.808  1.00  0.00    -0.508 OA
ATOM     13  H   UNL     1       7.470  -3.569  -5.090  1.00  0.00     0.293 HD
ENDBRANCH  11  12
TORSDOF 1
ENDMDL
MODEL 6
REMARK VINA RESULT:    -4.853      1.795      4.410
REMARK INTER + INTRA:          -4.995
REMARK INTER:                  -4.995
REMARK INTRA:                   0.000
REMARK UNBOUND:                 0.000
REMARK SMILES O=c1ccc2cc(O)ccc2o1
REMARK SMILES IDX 9 1 10 2 11 3 5 4 4 5 3 6 2 7 1 8 12 9 6 10 7 11 8 12
REMARK H PARENT 8 13
REMARK Flexibility Score: inf
ROOT
ATOM      1  C   UNL     1      19.186  -1.896 -18.017  1.00  0.00     0.050 A 
ATOM      2  C   UNL     1      19.564  -2.114 -19.346  1.00  0.00     0.052 A 
ATOM      3  C   UNL     1      20.394  -1.194 -19.998  1.00  0.00     0.138 A 
ATOM      4  C   UNL     1      20.847  -0.048 -19.309  1.00  0.00     0.021 A 
ATOM      5  C   UNL     1      21.675   0.852 -19.986  1.00  0.00     0.019 A 
ATOM      6  C   UNL     1      22.027   0.595 -21.312  1.00  0.00     0.094 A 
ATOM      7  C   UNL     1      21.538  -0.562 -21.930  1.00  0.00     0.336 A 
ATOM      8  O   UNL     1      21.844  -0.811 -23.125  1.00  0.00    -0.246 OA
ATOM      9  O   UNL     1      20.753  -1.402 -21.262  1.00  0.00    -0.423 OA
ATOM     10  C   UNL     1      20.466   0.164 -17.976  1.00  0.00     0.058 A 
ATOM     11  C   UNL     1      19.633  -0.762 -17.330  1.00  0.00     0.116 A 
ENDROOT
BRANCH  11  12
ATOM     12  O   UNL     1      19.246  -0.564 -16.007  1.00  0.00    -0.508 OA
ATOM     13  H   UNL     1      19.760   0.054 -15.390  1.00  0.00     0.293 HD
ENDBRANCH  11  12
TORSDOF 1
ENDMDL
MODEL 7
REMARK VINA RESULT:    -4.796     18.355     20.734
REMARK INTER + INTRA:          -4.936
REMARK INTER:                  -4.936
REMARK INTRA:                   0.000
REMARK UNBOUND:                 0.000
REMARK SMILES O=c1ccc2cc(O)ccc2o1
REMARK SMILES IDX 9 1 10 2 11 3 5 4 4 5 3 6 2 7 1 8 12 9 6 10 7 11 8 12
REMARK H PARENT 8 13
REMARK Flexibility Score: inf
ROOT
ATOM      1  C   UNL     1       7.657  -8.165  -5.351  1.00  0.00     0.050 A 
ATOM      2  C   UNL     1       7.761  -8.357  -6.732  1.00  0.00     0.052 A 
ATOM      3  C   UNL     1       7.945  -7.259  -7.580  1.00  0.00     0.138 A 
ATOM      4  C   UNL     1       8.025  -5.958  -7.036  1.00  0.00     0.021 A 
ATOM      5  C   UNL     1       8.210  -4.881  -7.908  1.00  0.00     0.019 A 
ATOM      6  C   UNL     1       8.308  -5.121  -9.279  1.00  0.00     0.094 A 
ATOM      7  C   UNL     1       8.219  -6.436  -9.746  1.00  0.00     0.336 A 
ATOM      8  O   UNL     1       8.306  -6.672 -10.979  1.00  0.00    -0.246 OA
ATOM      9  O   UNL     1       8.044  -7.443  -8.894  1.00  0.00    -0.423 OA
ATOM     10  C   UNL     1       7.921  -5.772  -5.650  1.00  0.00     0.058 A 
ATOM     11  C   UNL     1       7.736  -6.878  -4.806  1.00  0.00     0.116 A 
ENDROOT
BRANCH  11  12
ATOM     12  O   UNL     1       7.630  -6.708  -3.428  1.00  0.00    -0.508 OA
ATOM     13  H   UNL     1       7.041  -7.308  -2.863  1.00  0.00     0.293 HD
ENDBRANCH  11  12
TORSDOF 1
ENDMDL
MODEL 8
REMARK VINA RESULT:    -4.788     17.271     19.342
REMARK INTER + INTRA:          -4.928
REMARK INTER:                  -4.928
REMARK INTRA:                   0.000
REMARK UNBOUND:                 0.000
REMARK SMILES O=c1ccc2cc(O)ccc2o1
REMARK SMILES IDX 9 1 10 2 11 3 5 4 4 5 3 6 2 7 1 8 12 9 6 10 7 11 8 12
REMARK H PARENT 8 13
REMARK Flexibility Score: inf
ROOT
ATOM      1  C   UNL     1       7.790  -6.671  -6.659  1.00  0.00     0.050 A 
ATOM      2  C   UNL     1       8.052  -7.337  -7.861  1.00  0.00     0.052 A 
ATOM      3  C   UNL     1       8.106  -6.621  -9.062  1.00  0.00     0.138 A 
ATOM      4  C   UNL     1       7.895  -5.225  -9.056  1.00  0.00     0.021 A 
ATOM      5  C   UNL     1       7.955  -4.536 -10.271  1.00  0.00     0.019 A 
ATOM      6  C   UNL     1       8.219  -5.243 -11.445  1.00  0.00     0.094 A 
ATOM      7  C   UNL     1       8.417  -6.626 -11.375  1.00  0.00     0.336 A 
ATOM      8  O   UNL     1       8.656  -7.281 -12.422  1.00  0.00    -0.246 OA
ATOM      9  O   UNL     1       8.355  -7.256 -10.205  1.00  0.00    -0.423 OA
ATOM     10  C   UNL     1       7.634  -4.562  -7.848  1.00  0.00     0.058 A 
ATOM     11  C   UNL     1       7.581  -5.287  -6.648  1.00  0.00     0.116 A 
ENDROOT
BRANCH  11  12
ATOM     12  O   UNL     1       7.322  -4.642  -5.441  1.00  0.00    -0.508 OA
ATOM     13  H   UNL     1       7.697  -4.985  -4.565  1.00  0.00     0.293 HD
ENDBRANCH  11  12
TORSDOF 1
ENDMDL
MODEL 9
REMARK VINA RESULT:    -4.706     16.931     18.977
REMARK INTER + INTRA:          -4.844
REMARK INTER:                  -4.844
REMARK INTRA:                   0.000
REMARK UNBOUND:                 0.000
REMARK SMILES O=c1ccc2cc(O)ccc2o1
REMARK SMILES IDX 9 1 10 2 11 3 5 4 4 5 3 6 2 7 1 8 12 9 6 10 7 11 8 12
REMARK H PARENT 8 13
REMARK Flexibility Score: inf
ROOT
ATOM      1  C   UNL     1      11.906   4.083  -2.875  1.00  0.00     0.050 A 
ATOM      2  C   UNL     1      12.950   4.742  -3.530  1.00  0.00     0.052 A 
ATOM      3  C   UNL     1      13.229   4.453  -4.871  1.00  0.00     0.138 A 
ATOM      4  C   UNL     1      12.451   3.496  -5.559  1.00  0.00     0.021 A 
ATOM      5  C   UNL     1      12.752   3.228  -6.897  1.00  0.00     0.019 A 
ATOM      6  C   UNL     1      13.804   3.910  -7.511  1.00  0.00     0.094 A 
ATOM      7  C   UNL     1      14.532   4.845  -6.767  1.00  0.00     0.336 A 
ATOM      8  O   UNL     1      15.484   5.470  -7.302  1.00  0.00    -0.246 OA
ATOM      9  O   UNL     1      14.223   5.081  -5.494  1.00  0.00    -0.423 OA
ATOM     10  C   UNL     1      11.404   2.839  -4.896  1.00  0.00     0.058 A 
ATOM     11  C   UNL     1      11.131   3.133  -3.552  1.00  0.00     0.116 A 
ENDROOT
BRANCH  11  12
ATOM     12  O   UNL     1      10.095   2.488  -2.881  1.00  0.00    -0.508 OA
ATOM     13  H   UNL     1       9.519   2.973  -2.202  1.00  0.00     0.293 HD
ENDBRANCH  11  12
TORSDOF 1
ENDMDL
