MODEL 1
REMARK VINA RESULT:     4.066      0.000      0.000
REMARK INTER + INTRA:           7.146
REMARK INTER:                   7.632
REMARK INTRA:                  -0.487
REMARK UNBOUND:                -0.487
REMARK SMILES O=C([O-])CCCCCCCCCCCCCCC(=O)[O-]
REMARK SMILES IDX 10 1 9 2 8 3 7 4 6 5 5 6 4 7 2 8 1 9 3 10 11 11 12 12 13 13
REMARK SMILES IDX 14 14 15 15 16 16 17 17 18 18 19 19 20 20
REMARK H PARENT
REMARK Flexibility Score: inf
ROOT
ATOM      1  C   UNL     1      -6.108 -18.614 -24.455  1.00  0.00     0.000 C 
ENDROOT
BRANCH   1   2
ATOM      2  C   UNL     1      -5.867 -18.470 -22.942  1.00  0.00     0.000 C 
BRANCH   2   3
ATOM      3  C   UNL     1      -7.071 -17.941 -22.137  1.00  0.00     0.000 C 
BRANCH   3   4
ATOM      4  C   UNL     1      -8.430 -18.037 -22.859  1.00  0.00     0.000 C 
BRANCH   4   5
ATOM      5  C   UNL     1      -8.599 -17.084 -24.059  1.00  0.00     0.000 C 
BRANCH   5   6
ATOM      6  C   UNL     1      -8.260 -15.607 -23.773  1.00  0.00     0.006 C 
BRANCH   6   7
ATOM      7  C   UNL     1      -9.323 -14.858 -22.952  1.00  0.00     0.053 C 
BRANCH   7   8
ATOM      8  C   UNL     1      -9.036 -13.390 -22.869  1.00  0.00     0.041 C 
ATOM      9  O   UNL     1      -8.247 -12.852 -23.690  1.00  0.00    -0.550 OA
ATOM     10  O   UNL     1      -9.667 -12.610 -21.908  1.00  0.00    -0.550 OA
ENDBRANCH   7   8
ENDBRANCH   6   7
ENDBRANCH   5   6
ENDBRANCH   4   5
ENDBRANCH   3   4
ENDBRANCH   2   3
ENDBRANCH   1   2
BRANCH   1  11
ATOM     11  C   UNL     1      -5.139 -19.599 -25.125  1.00  0.00     0.000 C 
BRANCH  11  12
ATOM     12  C   UNL     1      -3.682 -19.261 -24.768  1.00  0.00     0.000 C 
BRANCH  12  13
ATOM     13  C   UNL     1      -2.984 -20.389 -23.990  1.00  0.00     0.000 C 
BRANCH  13  14
ATOM     14  C   UNL     1      -2.070 -21.243 -24.882  1.00  0.00     0.000 C 
BRANCH  14  15
ATOM     15  C   UNL     1      -2.618 -22.663 -25.112  1.00  0.00     0.000 C 
BRANCH  15  16
ATOM     16  C   UNL     1      -3.859 -22.995 -24.258  1.00  0.00     0.006 C 
BRANCH  16  17
ATOM     17  C   UNL     1      -4.604 -24.234 -24.775  1.00  0.00     0.053 C 
BRANCH  17  18
ATOM     18  C   UNL     1      -6.061 -24.147 -24.441  1.00  0.00     0.041 C 
ATOM     19  O   UNL     1      -6.795 -23.309 -25.028  1.00  0.00    -0.550 OA
ATOM     20  O   UNL     1      -6.617 -25.022 -23.514  1.00  0.00    -0.550 OA
ENDBRANCH  17  18
ENDBRANCH  16  17
ENDBRANCH  15  16
ENDBRANCH  14  15
ENDBRANCH  13  14
ENDBRANCH  12  13
ENDBRANCH  11  12
ENDBRANCH   1  11
TORSDOF 15
ENDMDL
MODEL 2
REMARK VINA RESULT:     5.112      3.866      4.760
REMARK INTER + INTRA:           9.109
REMARK INTER:                   9.146
REMARK INTRA:                  -0.038
REMARK UNBOUND:                -0.487
REMARK SMILES O=C([O-])CCCCCCCCCCCCCCC(=O)[O-]
REMARK SMILES IDX 10 1 9 2 8 3 7 4 6 5 5 6 4 7 2 8 1 9 3 10 11 11 12 12 13 13
REMARK SMILES IDX 14 14 15 15 16 16 17 17 18 18 19 19 20 20
REMARK H PARENT
REMARK Flexibility Score: inf
ROOT
ATOM      1  C   UNL     1      -6.331 -18.178 -24.318  1.00  0.00     0.000 C 
ENDROOT
BRANCH   1   2
ATOM      2  C   UNL     1      -6.493 -18.418 -22.807  1.00  0.00     0.000 C 
BRANCH   2   3
ATOM      3  C   UNL     1      -7.858 -18.000 -22.223  1.00  0.00     0.000 C 
BRANCH   3   4
ATOM      4  C   UNL     1      -9.018 -17.971 -23.237  1.00  0.00     0.000 C 
BRANCH   4   5
ATOM      5  C   UNL     1      -9.042 -16.741 -24.166  1.00  0.00     0.000 C 
BRANCH   5   6
ATOM      6  C   UNL     1      -8.214 -15.536 -23.675  1.00  0.00     0.006 C 
BRANCH   6   7
ATOM      7  C   UNL     1      -8.883 -14.718 -22.559  1.00  0.00     0.053 C 
BRANCH   7   8
ATOM      8  C   UNL     1      -9.049 -13.279 -22.941  1.00  0.00     0.041 C 
ATOM      9  O   UNL     1      -8.105 -12.658 -23.497  1.00  0.00    -0.550 OA
ATOM     10  O   UNL     1     -10.258 -12.633 -22.716  1.00  0.00    -0.550 OA
ENDBRANCH   7   8
ENDBRANCH   6   7
ENDBRANCH   5   6
ENDBRANCH   4   5
ENDBRANCH   3   4
ENDBRANCH   2   3
ENDBRANCH   1   2
BRANCH   1  11
ATOM     11  C   UNL     1      -5.343 -19.154 -24.976  1.00  0.00     0.000 C 
BRANCH  11  12
ATOM     12  C   UNL     1      -3.932 -18.547 -25.036  1.00  0.00     0.000 C 
BRANCH  12  13
ATOM     13  C   UNL     1      -2.899 -19.364 -24.245  1.00  0.00     0.000 C 
BRANCH  13  14
ATOM     14  C   UNL     1      -2.390 -20.587 -25.024  1.00  0.00     0.000 C 
BRANCH  14  15
ATOM     15  C   UNL     1      -0.856 -20.635 -25.125  1.00  0.00     0.000 C 
BRANCH  15  16
ATOM     16  C   UNL     1      -0.184 -19.249 -25.028  1.00  0.00     0.006 C 
BRANCH  16  17
ATOM     17  C   UNL     1       1.345 -19.352 -24.939  1.00  0.00     0.053 C 
BRANCH  17  18
ATOM     18  C   UNL     1       1.937 -18.035 -24.542  1.00  0.00     0.041 C 
ATOM     19  O   UNL     1       1.321 -16.965 -24.789  1.00  0.00    -0.550 OA
ATOM     20  O   UNL     1       3.150 -17.993 -23.862  1.00  0.00    -0.550 OA
ENDBRANCH  17  18
ENDBRANCH  16  17
ENDBRANCH  15  16
ENDBRANCH  14  15
ENDBRANCH  13  14
ENDBRANCH  12  13
ENDBRANCH  11  12
ENDBRANCH   1  11
TORSDOF 15
ENDMDL
