MODEL 1
REMARK VINA RESULT:   -12.901      0.000      0.000
REMARK INTER + INTRA:         -13.278
REMARK INTER:                 -13.278
REMARK INTRA:                   0.000
REMARK UNBOUND:                 0.000
REMARK SMILES C[C@@H]1CC[C@]2(OC1)O[C@@H]1C[C@@H]3[C@H]4CC=C5C[C@@H](O)CC[C@]5(C)[C@H]4CC[C@@]3(C)[C@@H]1[C@@H]2C
REMARK SMILES IDX 1 1 2 2 3 3 4 4 5 5 29 6 28 7 9 8 8 9 10 10 11 11 26 12
REMARK SMILES IDX 25 13 24 14 23 15 12 16 13 17 14 18 15 19 21 20 20 21 19 22
REMARK SMILES IDX 17 23 16 24 22 25 27 26 30 27 6 28 7 29 18 30
REMARK H PARENT 18 31
REMARK Flexibility Score: inf
ROOT
ATOM      1  C   UNL     1     110.066 111.659 104.570  1.00  0.00     0.010 C 
ATOM      2  C   UNL     1     109.149 111.537 105.796  1.00  0.00     0.012 C 
ATOM      3  C   UNL     1     109.515 112.549 106.893  1.00  0.00     0.011 C 
ATOM      4  C   UNL     1     110.792 112.133 107.629  1.00  0.00     0.066 C 
ATOM      5  C   UNL     1     110.707 110.656 108.096  1.00  0.00     0.171 C 
ATOM      6  C   UNL     1     112.017 110.145 108.769  1.00  0.00     0.052 C 
ATOM      7  C   UNL     1     111.597 109.734 110.176  1.00  0.00     0.033 C 
ATOM      8  C   UNL     1     110.089 109.592 110.023  1.00  0.00     0.126 C 
ATOM      9  O   UNL     1     109.664 110.526 109.056  1.00  0.00    -0.346 OA
ATOM     10  C   UNL     1     109.467 109.886 111.400  1.00  0.00     0.037 C 
ATOM     11  C   UNL     1     110.674 110.016 112.326  1.00  0.00     0.002 C 
ATOM     12  C   UNL     1     111.778 110.631 111.442  1.00  0.00    -0.024 C 
ATOM     13  C   UNL     1     113.159 110.469 112.147  1.00  0.00     0.008 C 
ATOM     14  C   UNL     1     113.059 110.247 113.679  1.00  0.00     0.005 C 
ATOM     15  C   UNL     1     111.883 111.016 114.368  1.00  0.00     0.003 C 
ATOM     16  C   UNL     1     110.486 110.762 113.664  1.00  0.00     0.000 C 
ATOM     17  C   UNL     1     109.476 110.038 114.570  1.00  0.00     0.031 C 
ATOM     18  C   UNL     1     109.375 110.770 115.874  1.00  0.00    -0.027 C 
ATOM     19  C   UNL     1     110.486 111.188 116.507  1.00  0.00    -0.065 C 
ATOM     20  C   UNL     1     111.869 110.840 115.949  1.00  0.00    -0.008 C 
ATOM     21  C   UNL     1     112.913 111.810 116.583  1.00  0.00     0.014 C 
ATOM     22  C   UNL     1     112.879 111.833 118.123  1.00  0.00     0.033 C 
ATOM     23  C   UNL     1     111.455 111.871 118.734  1.00  0.00     0.118 C 
ATOM     24  C   UNL     1     110.356 112.127 117.688  1.00  0.00     0.063 C 
ATOM     25  C   UNL     1     112.218 109.386 116.374  1.00  0.00     0.016 C 
ATOM     26  C   UNL     1     111.505 112.146 111.178  1.00  0.00     0.012 C 
ATOM     27  C   UNL     1     113.320 110.958 108.627  1.00  0.00     0.014 C 
ATOM     28  O   UNL     1     110.438 109.821 106.971  1.00  0.00    -0.349 OA
ATOM     29  C   UNL     1     109.183 110.113 106.377  1.00  0.00     0.167 C 
ENDROOT
BRANCH  23  30
ATOM     30  O   UNL     1     111.197 110.660 119.401  1.00  0.00    -0.393 OA
ATOM     31  H   UNL     1     111.029 110.882 120.354  1.00  0.00     0.210 HD
ENDBRANCH  23  30
TORSDOF 1
ENDMDL
MODEL 2
REMARK VINA RESULT:   -12.881      1.690      3.096
REMARK INTER + INTRA:         -13.257
REMARK INTER:                 -13.257
REMARK INTRA:                   0.000
REMARK UNBOUND:                 0.000
REMARK SMILES C[C@@H]1CC[C@]2(OC1)O[C@@H]1C[C@@H]3[C@H]4CC=C5C[C@@H](O)CC[C@]5(C)[C@H]4CC[C@@]3(C)[C@@H]1[C@@H]2C
REMARK SMILES IDX 1 1 2 2 3 3 4 4 5 5 29 6 28 7 9 8 8 9 10 10 11 11 26 12
REMARK SMILES IDX 25 13 24 14 23 15 12 16 13 17 14 18 15 19 21 20 20 21 19 22
REMARK SMILES IDX 17 23 16 24 22 25 27 26 30 27 6 28 7 29 18 30
REMARK H PARENT 18 31
REMARK Flexibility Score: inf
ROOT
ATOM      1  C   UNL     1     111.932 110.550 104.443  1.00  0.00     0.010 C 
ATOM      2  C   UNL     1     112.881 110.635 105.648  1.00  0.00     0.012 C 
ATOM      3  C   UNL     1     112.498 109.640 106.755  1.00  0.00     0.011 C 
ATOM      4  C   UNL     1     111.256 110.110 107.518  1.00  0.00     0.066 C 
ATOM      5  C   UNL     1     111.414 111.582 107.981  1.00  0.00     0.171 C 
ATOM      6  C   UNL     1     110.141 112.148 108.682  1.00  0.00     0.052 C 
ATOM      7  C   UNL     1     110.610 112.541 110.078  1.00  0.00     0.033 C 
ATOM      8  C   UNL     1     112.118 112.621 109.891  1.00  0.00     0.126 C 
ATOM      9  O   UNL     1     112.482 111.669 108.917  1.00  0.00    -0.346 OA
ATOM     10  C   UNL     1     112.758 112.302 111.255  1.00  0.00     0.037 C 
ATOM     11  C   UNL     1     111.568 112.223 112.208  1.00  0.00     0.002 C 
ATOM     12  C   UNL     1     110.420 111.654 111.350  1.00  0.00    -0.024 C 
ATOM     13  C   UNL     1     109.062 111.874 112.086  1.00  0.00     0.008 C 
ATOM     14  C   UNL     1     109.206 112.093 113.614  1.00  0.00     0.005 C 
ATOM     15  C   UNL     1     110.365 111.276 114.278  1.00  0.00     0.003 C 
ATOM     16  C   UNL     1     111.754 111.471 113.543  1.00  0.00     0.000 C 
ATOM     17  C   UNL     1     112.814 112.153 114.425  1.00  0.00     0.031 C 
ATOM     18  C   UNL     1     112.914 111.419 115.727  1.00  0.00    -0.027 C 
ATOM     19  C   UNL     1     111.801 111.048 116.386  1.00  0.00    -0.065 C 
ATOM     20  C   UNL     1     110.421 111.453 115.858  1.00  0.00    -0.008 C 
ATOM     21  C   UNL     1     109.353 110.528 116.516  1.00  0.00     0.014 C 
ATOM     22  C   UNL     1     109.421 110.504 118.056  1.00  0.00     0.033 C 
ATOM     23  C   UNL     1     110.855 110.408 118.635  1.00  0.00     0.118 C 
ATOM     24  C   UNL     1     111.918 110.105 117.565  1.00  0.00     0.063 C 
ATOM     25  C   UNL     1     110.143 112.920 116.289  1.00  0.00     0.016 C 
ATOM     26  C   UNL     1     110.623 110.129 111.082  1.00  0.00     0.012 C 
ATOM     27  C   UNL     1     108.803 111.390 108.571  1.00  0.00     0.014 C 
ATOM     28  O   UNL     1     111.692 112.404 106.849  1.00  0.00    -0.349 OA
ATOM     29  C   UNL     1     112.919 112.060 106.227  1.00  0.00     0.167 C 
ENDROOT
BRANCH  23  30
ATOM     30  O   UNL     1     111.177 111.607 119.293  1.00  0.00    -0.393 OA
ATOM     31  H   UNL     1     110.322 112.020 119.584  1.00  0.00     0.210 HD
ENDBRANCH  23  30
TORSDOF 1
ENDMDL
MODEL 3
REMARK VINA RESULT:   -12.619      2.074      8.837
REMARK INTER + INTRA:         -12.988
REMARK INTER:                 -12.988
REMARK INTRA:                   0.000
REMARK UNBOUND:                 0.000
REMARK SMILES C[C@@H]1CC[C@]2(OC1)O[C@@H]1C[C@@H]3[C@H]4CC=C5C[C@@H](O)CC[C@]5(C)[C@H]4CC[C@@]3(C)[C@@H]1[C@@H]2C
REMARK SMILES IDX 1 1 2 2 3 3 4 4 5 5 29 6 28 7 9 8 8 9 10 10 11 11 26 12
REMARK SMILES IDX 25 13 24 14 23 15 12 16 13 17 14 18 15 19 21 20 20 21 19 22
REMARK SMILES IDX 17 23 16 24 22 25 27 26 30 27 6 28 7 29 18 30
REMARK H PARENT 18 31
REMARK Flexibility Score: inf
ROOT
ATOM      1  C   UNL     1     109.976 110.309 117.525  1.00  0.00     0.010 C 
ATOM      2  C   UNL     1     109.125 110.764 116.330  1.00  0.00     0.012 C 
ATOM      3  C   UNL     1     109.158 109.746 115.179  1.00  0.00     0.011 C 
ATOM      4  C   UNL     1     110.493 109.797 114.431  1.00  0.00     0.066 C 
ATOM      5  C   UNL     1     110.851 111.253 114.033  1.00  0.00     0.171 C 
ATOM      6  C   UNL     1     112.248 111.380 113.352  1.00  0.00     0.052 C 
ATOM      7  C   UNL     1     111.955 111.970 111.976  1.00  0.00     0.033 C 
ATOM      8  C   UNL     1     110.562 112.550 112.174  1.00  0.00     0.126 C 
ATOM      9  O   UNL     1     109.886 111.739 113.107  1.00  0.00    -0.346 OA
ATOM     10  C   UNL     1     109.865 112.527 110.801  1.00  0.00     0.037 C 
ATOM     11  C   UNL     1     110.968 112.088 109.839  1.00  0.00     0.002 C 
ATOM     12  C   UNL     1     111.844 111.126 110.666  1.00  0.00    -0.024 C 
ATOM     13  C   UNL     1     113.203 110.902 109.934  1.00  0.00     0.008 C 
ATOM     14  C   UNL     1     113.158 111.221 108.417  1.00  0.00     0.005 C 
ATOM     15  C   UNL     1     111.797 110.877 107.724  1.00  0.00     0.003 C 
ATOM     16  C   UNL     1     110.550 111.502 108.474  1.00  0.00     0.000 C 
ATOM     17  C   UNL     1     109.794 112.541 107.628  1.00  0.00     0.031 C 
ATOM     18  C   UNL     1     109.464 111.941 106.295  1.00  0.00    -0.027 C 
ATOM     19  C   UNL     1     110.391 111.242 105.615  1.00  0.00    -0.065 C 
ATOM     20  C   UNL     1     111.820 111.129 106.154  1.00  0.00    -0.008 C 
ATOM     21  C   UNL     1     112.517 109.925 105.450  1.00  0.00     0.014 C 
ATOM     22  C   UNL     1     112.460 109.991 103.911  1.00  0.00     0.033 C 
ATOM     23  C   UNL     1     111.085 110.414 103.336  1.00  0.00     0.118 C 
ATOM     24  C   UNL     1     109.971 110.446 104.397  1.00  0.00     0.063 C 
ATOM     25  C   UNL     1     112.586 112.432 105.786  1.00  0.00     0.016 C 
ATOM     26  C   UNL     1     111.131 109.751 110.868  1.00  0.00     0.012 C 
ATOM     27  C   UNL     1     113.246 110.208 113.423  1.00  0.00     0.014 C 
ATOM     28  O   UNL     1     110.858 112.071 115.202  1.00  0.00    -0.349 OA
ATOM     29  C   UNL     1     109.580 112.139 115.814  1.00  0.00     0.167 C 
ENDROOT
BRANCH  23  30
ATOM     30  O   UNL     1     111.197 111.678 102.732  1.00  0.00    -0.393 OA
ATOM     31  H   UNL     1     112.140 111.971 102.841  1.00  0.00     0.210 HD
ENDBRANCH  23  30
TORSDOF 1
ENDMDL
MODEL 4
REMARK VINA RESULT:   -12.581      1.911      8.984
REMARK INTER + INTRA:         -12.949
REMARK INTER:                 -12.949
REMARK INTRA:                   0.000
REMARK UNBOUND:                 0.000
REMARK SMILES C[C@@H]1CC[C@]2(OC1)O[C@@H]1C[C@@H]3[C@H]4CC=C5C[C@@H](O)CC[C@]5(C)[C@H]4CC[C@@]3(C)[C@@H]1[C@@H]2C
REMARK SMILES IDX 1 1 2 2 3 3 4 4 5 5 29 6 28 7 9 8 8 9 10 10 11 11 26 12
REMARK SMILES IDX 25 13 24 14 23 15 12 16 13 17 14 18 15 19 21 20 20 21 19 22
REMARK SMILES IDX 17 23 16 24 22 25 27 26 30 27 6 28 7 29 18 30
REMARK H PARENT 18 31
REMARK Flexibility Score: inf
ROOT
ATOM      1  C   UNL     1     112.010 111.891 117.698  1.00  0.00     0.010 C 
ATOM      2  C   UNL     1     112.907 111.470 116.524  1.00  0.00     0.012 C 
ATOM      3  C   UNL     1     112.885 112.500 115.384  1.00  0.00     0.011 C 
ATOM      4  C   UNL     1     111.574 112.427 114.595  1.00  0.00     0.066 C 
ATOM      5  C   UNL     1     111.263 110.968 114.171  1.00  0.00     0.171 C 
ATOM      6  C   UNL     1     109.891 110.816 113.446  1.00  0.00     0.052 C 
ATOM      7  C   UNL     1     110.238 110.250 112.073  1.00  0.00     0.033 C 
ATOM      8  C   UNL     1     111.637 109.700 112.307  1.00  0.00     0.126 C 
ATOM      9  O   UNL     1     112.266 110.516 113.269  1.00  0.00    -0.346 OA
ATOM     10  C   UNL     1     112.374 109.755 110.956  1.00  0.00     0.037 C 
ATOM     11  C   UNL     1     111.291 110.179 109.966  1.00  0.00     0.002 C 
ATOM     12  C   UNL     1     110.368 111.112 110.776  1.00  0.00    -0.024 C 
ATOM     13  C   UNL     1     109.027 111.313 110.006  1.00  0.00     0.008 C 
ATOM     14  C   UNL     1     109.125 111.012 108.488  1.00  0.00     0.005 C 
ATOM     15  C   UNL     1     110.497 111.396 107.840  1.00  0.00     0.003 C 
ATOM     16  C   UNL     1     111.736 110.791 108.621  1.00  0.00     0.000 C 
ATOM     17  C   UNL     1     112.541 109.779 107.786  1.00  0.00     0.031 C 
ATOM     18  C   UNL     1     112.897 110.402 106.471  1.00  0.00    -0.027 C 
ATOM     19  C   UNL     1     111.974 111.088 105.771  1.00  0.00    -0.065 C 
ATOM     20  C   UNL     1     110.527 111.161 106.267  1.00  0.00    -0.008 C 
ATOM     21  C   UNL     1     109.824 112.357 105.556  1.00  0.00     0.014 C 
ATOM     22  C   UNL     1     109.928 112.310 104.019  1.00  0.00     0.033 C 
ATOM     23  C   UNL     1     111.329 111.926 103.481  1.00  0.00     0.118 C 
ATOM     24  C   UNL     1     112.411 111.907 104.575  1.00  0.00     0.063 C 
ATOM     25  C   UNL     1     109.803 109.846 105.862  1.00  0.00     0.016 C 
ATOM     26  C   UNL     1     111.043 112.500 111.015  1.00  0.00     0.012 C 
ATOM     27  C   UNL     1     108.863 111.964 113.500  1.00  0.00     0.014 C 
ATOM     28  O   UNL     1     111.240 110.136 115.330  1.00  0.00    -0.349 OA
ATOM     29  C   UNL     1     112.500 110.090 115.980  1.00  0.00     0.167 C 
ENDROOT
BRANCH  23  30
ATOM     30  O   UNL     1     111.265 110.667 102.860  1.00  0.00    -0.393 OA
ATOM     31  H   UNL     1     111.261 109.985 103.583  1.00  0.00     0.210 HD
ENDBRANCH  23  30
TORSDOF 1
ENDMDL
MODEL 5
REMARK VINA RESULT:   -12.433      1.635      9.111
REMARK INTER + INTRA:         -12.797
REMARK INTER:                 -12.797
REMARK INTRA:                   0.000
REMARK UNBOUND:                 0.000
REMARK SMILES C[C@@H]1CC[C@]2(OC1)O[C@@H]1C[C@@H]3[C@H]4CC=C5C[C@@H](O)CC[C@]5(C)[C@H]4CC[C@@]3(C)[C@@H]1[C@@H]2C
REMARK SMILES IDX 1 1 2 2 3 3 4 4 5 5 29 6 28 7 9 8 8 9 10 10 11 11 26 12
REMARK SMILES IDX 25 13 24 14 23 15 12 16 13 17 14 18 15 19 21 20 20 21 19 22
REMARK SMILES IDX 17 23 16 24 22 25 27 26 30 27 6 28 7 29 18 30
REMARK H PARENT 18 31
REMARK Flexibility Score: inf
ROOT
ATOM      1  C   UNL     1     112.068 111.748 122.118  1.00  0.00     0.010 C 
ATOM      2  C   UNL     1     112.944 111.324 120.929  1.00  0.00     0.012 C 
ATOM      3  C   UNL     1     112.926 112.366 119.800  1.00  0.00     0.011 C 
ATOM      4  C   UNL     1     111.606 112.324 119.026  1.00  0.00     0.066 C 
ATOM      5  C   UNL     1     111.265 110.875 118.590  1.00  0.00     0.171 C 
ATOM      6  C   UNL     1     109.882 110.753 117.880  1.00  0.00     0.052 C 
ATOM      7  C   UNL     1     110.205 110.196 116.498  1.00  0.00     0.033 C 
ATOM      8  C   UNL     1     111.597 109.620 116.709  1.00  0.00     0.126 C 
ATOM      9  O   UNL     1     112.250 110.415 117.673  1.00  0.00    -0.346 OA
ATOM     10  C   UNL     1     112.320 109.676 115.351  1.00  0.00     0.037 C 
ATOM     11  C   UNL     1     111.233 110.129 114.378  1.00  0.00     0.002 C 
ATOM     12  C   UNL     1     110.335 111.068 115.208  1.00  0.00    -0.024 C 
ATOM     13  C   UNL     1     108.989 111.300 114.455  1.00  0.00     0.008 C 
ATOM     14  C   UNL     1     109.064 111.013 112.933  1.00  0.00     0.005 C 
ATOM     15  C   UNL     1     110.436 111.381 112.274  1.00  0.00     0.003 C 
ATOM     16  C   UNL     1     111.673 110.747 113.034  1.00  0.00     0.000 C 
ATOM     17  C   UNL     1     112.451 109.731 112.180  1.00  0.00     0.031 C 
ATOM     18  C   UNL     1     112.802 110.362 110.867  1.00  0.00    -0.027 C 
ATOM     19  C   UNL     1     111.884 111.070 110.185  1.00  0.00    -0.065 C 
ATOM     20  C   UNL     1     110.444 111.162 110.698  1.00  0.00    -0.008 C 
ATOM     21  C   UNL     1     109.753 112.377 110.007  1.00  0.00     0.014 C 
ATOM     22  C   UNL     1     109.839 112.345 108.469  1.00  0.00     0.033 C 
ATOM     23  C   UNL     1     111.227 111.943 107.911  1.00  0.00     0.118 C 
ATOM     24  C   UNL     1     112.321 111.894 108.992  1.00  0.00     0.063 C 
ATOM     25  C   UNL     1     109.693 109.864 110.288  1.00  0.00     0.016 C 
ATOM     26  C   UNL     1     111.035 112.443 115.453  1.00  0.00     0.012 C 
ATOM     27  C   UNL     1     108.875 111.918 117.957  1.00  0.00     0.014 C 
ATOM     28  O   UNL     1     111.241 110.031 119.741  1.00  0.00    -0.349 OA
ATOM     29  C   UNL     1     112.508 109.957 120.376  1.00  0.00     0.167 C 
ENDROOT
BRANCH  23  30
ATOM     30  O   UNL     1     111.135 110.691 107.278  1.00  0.00    -0.393 OA
ATOM     31  H   UNL     1     111.695 110.058 107.800  1.00  0.00     0.210 HD
ENDBRANCH  23  30
TORSDOF 1
ENDMDL
MODEL 6
REMARK VINA RESULT:   -12.415      1.768      8.932
REMARK INTER + INTRA:         -12.778
REMARK INTER:                 -12.778
REMARK INTRA:                   0.000
REMARK UNBOUND:                 0.000
REMARK SMILES C[C@@H]1CC[C@]2(OC1)O[C@@H]1C[C@@H]3[C@H]4CC=C5C[C@@H](O)CC[C@]5(C)[C@H]4CC[C@@]3(C)[C@@H]1[C@@H]2C
REMARK SMILES IDX 1 1 2 2 3 3 4 4 5 5 29 6 28 7 9 8 8 9 10 10 11 11 26 12
REMARK SMILES IDX 25 13 24 14 23 15 12 16 13 17 14 18 15 19 21 20 20 21 19 22
REMARK SMILES IDX 17 23 16 24 22 25 27 26 30 27 6 28 7 29 18 30
REMARK H PARENT 18 31
REMARK Flexibility Score: inf
ROOT
ATOM      1  C   UNL     1     110.000 110.447 122.061  1.00  0.00     0.010 C 
ATOM      2  C   UNL     1     109.165 110.913 120.859  1.00  0.00     0.012 C 
ATOM      3  C   UNL     1     109.167 109.881 119.721  1.00  0.00     0.011 C 
ATOM      4  C   UNL     1     110.504 109.881 118.974  1.00  0.00     0.066 C 
ATOM      5  C   UNL     1     110.907 111.321 118.559  1.00  0.00     0.171 C 
ATOM      6  C   UNL     1     112.307 111.397 117.878  1.00  0.00     0.052 C 
ATOM      7  C   UNL     1     112.035 111.979 116.495  1.00  0.00     0.033 C 
ATOM      8  C   UNL     1     110.660 112.604 116.684  1.00  0.00     0.126 C 
ATOM      9  O   UNL     1     109.958 111.825 117.626  1.00  0.00    -0.346 OA
ATOM     10  C   UNL     1     109.965 112.587 115.311  1.00  0.00     0.037 C 
ATOM     11  C   UNL     1     111.054 112.102 114.356  1.00  0.00     0.002 C 
ATOM     12  C   UNL     1     111.899 111.123 115.195  1.00  0.00    -0.024 C 
ATOM     13  C   UNL     1     113.251 110.849 114.468  1.00  0.00     0.008 C 
ATOM     14  C   UNL     1     113.217 111.151 112.947  1.00  0.00     0.005 C 
ATOM     15  C   UNL     1     111.848 110.841 112.256  1.00  0.00     0.003 C 
ATOM     16  C   UNL     1     110.619 111.513 112.997  1.00  0.00     0.000 C 
ATOM     17  C   UNL     1     109.897 112.565 112.137  1.00  0.00     0.031 C 
ATOM     18  C   UNL     1     109.550 111.960 110.812  1.00  0.00    -0.027 C 
ATOM     19  C   UNL     1     110.455 111.224 110.141  1.00  0.00    -0.065 C 
ATOM     20  C   UNL     1     111.880 111.074 110.683  1.00  0.00    -0.008 C 
ATOM     21  C   UNL     1     112.540 109.840 109.995  1.00  0.00     0.014 C 
ATOM     22  C   UNL     1     112.487 109.890 108.455  1.00  0.00     0.033 C 
ATOM     23  C   UNL     1     111.126 110.348 107.873  1.00  0.00     0.118 C 
ATOM     24  C   UNL     1     110.013 110.427 108.932  1.00  0.00     0.063 C 
ATOM     25  C   UNL     1     112.686 112.347 110.301  1.00  0.00     0.016 C 
ATOM     26  C   UNL     1     111.144 109.774 115.412  1.00  0.00     0.012 C 
ATOM     27  C   UNL     1     113.269 110.196 117.965  1.00  0.00     0.014 C 
ATOM     28  O   UNL     1     110.938 112.153 119.718  1.00  0.00    -0.349 OA
ATOM     29  C   UNL     1     109.662 112.268 120.328  1.00  0.00     0.167 C 
ENDROOT
BRANCH  23  30
ATOM     30  O   UNL     1     111.277 111.601 107.254  1.00  0.00    -0.393 OA
ATOM     31  H   UNL     1     110.369 111.994 107.165  1.00  0.00     0.210 HD
ENDBRANCH  23  30
TORSDOF 1
ENDMDL
MODEL 7
REMARK VINA RESULT:   -12.215      1.640      8.783
REMARK INTER + INTRA:         -12.573
REMARK INTER:                 -12.573
REMARK INTRA:                   0.000
REMARK UNBOUND:                 0.000
REMARK SMILES C[C@@H]1CC[C@]2(OC1)O[C@@H]1C[C@@H]3[C@H]4CC=C5C[C@@H](O)CC[C@]5(C)[C@H]4CC[C@@]3(C)[C@@H]1[C@@H]2C
REMARK SMILES IDX 1 1 2 2 3 3 4 4 5 5 29 6 28 7 9 8 8 9 10 10 11 11 26 12
REMARK SMILES IDX 25 13 24 14 23 15 12 16 13 17 14 18 15 19 21 20 20 21 19 22
REMARK SMILES IDX 17 23 16 24 22 25 27 26 30 27 6 28 7 29 18 30
REMARK H PARENT 18 31
REMARK Flexibility Score: inf
ROOT
ATOM      1  C   UNL     1     112.329 111.189 119.203  1.00  0.00     0.010 C 
ATOM      2  C   UNL     1     113.250 111.010 117.987  1.00  0.00     0.012 C 
ATOM      3  C   UNL     1     113.071 112.136 116.957  1.00  0.00     0.011 C 
ATOM      4  C   UNL     1     111.766 111.970 116.174  1.00  0.00     0.066 C 
ATOM      5  C   UNL     1     111.639 110.532 115.606  1.00  0.00     0.171 C 
ATOM      6  C   UNL     1     110.284 110.274 114.878  1.00  0.00     0.052 C 
ATOM      7  C   UNL     1     110.675 109.898 113.453  1.00  0.00     0.033 C 
ATOM      8  C   UNL     1     112.139 109.517 113.620  1.00  0.00     0.126 C 
ATOM      9  O   UNL     1     112.675 110.308 114.656  1.00  0.00    -0.346 OA
ATOM     10  C   UNL     1     112.836 109.803 112.277  1.00  0.00     0.037 C 
ATOM     11  C   UNL     1     111.687 110.177 111.343  1.00  0.00     0.002 C 
ATOM     12  C   UNL     1     110.666 110.894 112.249  1.00  0.00    -0.024 C 
ATOM     13  C   UNL     1     109.296 110.992 111.512  1.00  0.00     0.008 C 
ATOM     14  C   UNL     1     109.402 110.860 109.970  1.00  0.00     0.005 C 
ATOM     15  C   UNL     1     110.699 111.484 109.356  1.00  0.00     0.003 C 
ATOM     16  C   UNL     1     112.022 110.973 110.063  1.00  0.00     0.000 C 
ATOM     17  C   UNL     1     112.935 110.165 109.125  1.00  0.00     0.031 C 
ATOM     18  C   UNL     1     113.181 110.957 107.878  1.00  0.00    -0.027 C 
ATOM     19  C   UNL     1     112.163 111.582 107.257  1.00  0.00    -0.065 C 
ATOM     20  C   UNL     1     110.729 111.413 107.767  1.00  0.00    -0.008 C 
ATOM     21  C   UNL     1     109.862 112.571 107.186  1.00  0.00     0.014 C 
ATOM     22  C   UNL     1     109.940 112.692 105.651  1.00  0.00     0.033 C 
ATOM     23  C   UNL     1     111.369 112.551 105.068  1.00  0.00     0.118 C 
ATOM     24  C   UNL     1     112.466 112.567 106.147  1.00  0.00     0.063 C 
ATOM     25  C   UNL     1     110.175 110.061 107.235  1.00  0.00     0.016 C 
ATOM     26  C   UNL     1     111.158 112.328 112.623  1.00  0.00     0.012 C 
ATOM     27  C   UNL     1     109.117 111.265 115.055  1.00  0.00     0.014 C 
ATOM     28  O   UNL     1     111.748 109.593 116.674  1.00  0.00    -0.349 OA
ATOM     29  C   UNL     1     113.016 109.649 117.308  1.00  0.00     0.167 C 
ENDROOT
BRANCH  23  30
ATOM     30  O   UNL     1     111.458 111.363 104.323  1.00  0.00    -0.393 OA
ATOM     31  H   UNL     1     111.455 111.619 103.363  1.00  0.00     0.210 HD
ENDBRANCH  23  30
TORSDOF 1
ENDMDL
MODEL 8
REMARK VINA RESULT:   -12.187      1.899      8.581
REMARK INTER + INTRA:         -12.543
REMARK INTER:                 -12.543
REMARK INTRA:                   0.000
REMARK UNBOUND:                 0.000
REMARK SMILES C[C@@H]1CC[C@]2(OC1)O[C@@H]1C[C@@H]3[C@H]4CC=C5C[C@@H](O)CC[C@]5(C)[C@H]4CC[C@@]3(C)[C@@H]1[C@@H]2C
REMARK SMILES IDX 1 1 2 2 3 3 4 4 5 5 29 6 28 7 9 8 8 9 10 10 11 11 26 12
REMARK SMILES IDX 25 13 24 14 23 15 12 16 13 17 14 18 15 19 21 20 20 21 19 22
REMARK SMILES IDX 17 23 16 24 22 25 27 26 30 27 6 28 7 29 18 30
REMARK H PARENT 18 31
REMARK Flexibility Score: inf
ROOT
ATOM      1  C   UNL     1     109.811 111.256 119.561  1.00  0.00     0.010 C 
ATOM      2  C   UNL     1     108.907 111.393 118.327  1.00  0.00     0.012 C 
ATOM      3  C   UNL     1     109.125 110.250 117.323  1.00  0.00     0.011 C 
ATOM      4  C   UNL     1     110.439 110.426 116.557  1.00  0.00     0.066 C 
ATOM      5  C   UNL     1     110.547 111.855 115.962  1.00  0.00     0.171 C 
ATOM      6  C   UNL     1     111.907 112.127 115.251  1.00  0.00     0.052 C 
ATOM      7  C   UNL     1     111.532 112.466 113.813  1.00  0.00     0.033 C 
ATOM      8  C   UNL     1     110.059 112.821 113.949  1.00  0.00     0.126 C 
ATOM      9  O   UNL     1     109.522 112.040 114.993  1.00  0.00    -0.346 OA
ATOM     10  C   UNL     1     109.390 112.495 112.602  1.00  0.00     0.037 C 
ATOM     11  C   UNL     1     110.560 112.125 111.693  1.00  0.00     0.002 C 
ATOM     12  C   UNL     1     111.580 111.447 112.630  1.00  0.00    -0.024 C 
ATOM     13  C   UNL     1     112.964 111.362 111.916  1.00  0.00     0.008 C 
ATOM     14  C   UNL     1     112.880 111.461 110.371  1.00  0.00     0.005 C 
ATOM     15  C   UNL     1     111.606 110.799 109.749  1.00  0.00     0.003 C 
ATOM     16  C   UNL     1     110.262 111.297 110.425  1.00  0.00     0.000 C 
ATOM     17  C   UNL     1     109.348 112.069 109.457  1.00  0.00     0.031 C 
ATOM     18  C   UNL     1     109.139 111.247 108.222  1.00  0.00    -0.027 C 
ATOM     19  C   UNL     1     110.178 110.631 107.629  1.00  0.00    -0.065 C 
ATOM     20  C   UNL     1     111.601 110.838 108.159  1.00  0.00    -0.008 C 
ATOM     21  C   UNL     1     112.500 109.686 107.614  1.00  0.00     0.014 C 
ATOM     22  C   UNL     1     112.448 109.534 106.082  1.00  0.00     0.033 C 
ATOM     23  C   UNL     1     111.027 109.634 105.473  1.00  0.00     0.118 C 
ATOM     24  C   UNL     1     109.913 109.618 106.535  1.00  0.00     0.063 C 
ATOM     25  C   UNL     1     112.136 112.190 107.609  1.00  0.00     0.016 C 
ATOM     26  C   UNL     1     111.111 110.010 113.024  1.00  0.00     0.012 C 
ATOM     27  C   UNL     1     113.091 111.163 115.466  1.00  0.00     0.014 C 
ATOM     28  O   UNL     1     110.402 112.813 117.010  1.00  0.00    -0.349 OA
ATOM     29  C   UNL     1     109.125 112.744 117.625  1.00  0.00     0.167 C 
ENDROOT
BRANCH  23  30
ATOM     30  O   UNL     1     110.927 110.806 104.703  1.00  0.00    -0.393 OA
ATOM     31  H   UNL     1     111.819 110.964 104.294  1.00  0.00     0.210 HD
ENDBRANCH  23  30
TORSDOF 1
ENDMDL
MODEL 9
REMARK VINA RESULT:   -11.798      1.873      3.723
REMARK INTER + INTRA:         -12.143
REMARK INTER:                 -12.143
REMARK INTRA:                   0.000
REMARK UNBOUND:                 0.000
REMARK SMILES C[C@@H]1CC[C@]2(OC1)O[C@@H]1C[C@@H]3[C@H]4CC=C5C[C@@H](O)CC[C@]5(C)[C@H]4CC[C@@]3(C)[C@@H]1[C@@H]2C
REMARK SMILES IDX 1 1 2 2 3 3 4 4 5 5 29 6 28 7 9 8 8 9 10 10 11 11 26 12
REMARK SMILES IDX 25 13 24 14 23 15 12 16 13 17 14 18 15 19 21 20 20 21 19 22
REMARK SMILES IDX 17 23 16 24 22 25 27 26 30 27 6 28 7 29 18 30
REMARK H PARENT 18 31
REMARK Flexibility Score: inf
ROOT
ATOM      1  C   UNL     1     112.172 110.310 106.681  1.00  0.00     0.010 C 
ATOM      2  C   UNL     1     113.110 110.534 107.877  1.00  0.00     0.012 C 
ATOM      3  C   UNL     1     112.882 109.500 108.990  1.00  0.00     0.011 C 
ATOM      4  C   UNL     1     111.594 109.792 109.764  1.00  0.00     0.066 C 
ATOM      5  C   UNL     1     111.545 111.274 110.221  1.00  0.00     0.171 C 
ATOM      6  C   UNL     1     110.212 111.657 110.931  1.00  0.00     0.052 C 
ATOM      7  C   UNL     1     110.633 112.120 112.322  1.00  0.00     0.033 C 
ATOM      8  C   UNL     1     112.113 112.411 112.120  1.00  0.00     0.126 C 
ATOM      9  O   UNL     1     112.599 111.516 111.146  1.00  0.00    -0.346 OA
ATOM     10  C   UNL     1     112.804 112.193 113.478  1.00  0.00     0.037 C 
ATOM     11  C   UNL     1     111.646 111.951 114.443  1.00  0.00     0.002 C 
ATOM     12  C   UNL     1     110.582 111.221 113.599  1.00  0.00    -0.024 C 
ATOM     13  C   UNL     1     109.214 111.250 114.347  1.00  0.00     0.008 C 
ATOM     14  C   UNL     1     109.339 111.494 115.873  1.00  0.00     0.005 C 
ATOM     15  C   UNL     1     110.608 110.852 116.528  1.00  0.00     0.003 C 
ATOM     16  C   UNL     1     111.949 111.239 115.779  1.00  0.00     0.000 C 
ATOM     17  C   UNL     1     112.910 112.068 116.648  1.00  0.00     0.031 C 
ATOM     18  C   UNL     1     113.124 111.361 117.952  1.00  0.00    -0.027 C 
ATOM     19  C   UNL     1     112.081 110.840 118.623  1.00  0.00    -0.065 C 
ATOM     20  C   UNL     1     110.653 111.043 118.107  1.00  0.00    -0.008 C 
ATOM     21  C   UNL     1     109.732 109.979 118.779  1.00  0.00     0.014 C 
ATOM     22  C   UNL     1     109.817 109.972 120.318  1.00  0.00     0.033 C 
ATOM     23  C   UNL     1     111.256 110.083 120.883  1.00  0.00     0.118 C 
ATOM     24  C   UNL     1     112.341 109.928 119.804  1.00  0.00     0.063 C 
ATOM     25  C   UNL     1     110.174 112.459 118.536  1.00  0.00     0.016 C 
ATOM     26  C   UNL     1     110.997 109.738 113.334  1.00  0.00     0.012 C 
ATOM     27  C   UNL     1     108.993 110.717 110.836  1.00  0.00     0.014 C 
ATOM     28  O   UNL     1     111.694 112.122 109.083  1.00  0.00    -0.349 OA
ATOM     29  C   UNL     1     112.952 111.952 108.450  1.00  0.00     0.167 C 
ENDROOT
BRANCH  23  30
ATOM     30  O   UNL     1     111.411 111.319 121.534  1.00  0.00    -0.393 OA
ATOM     31  H   UNL     1     111.103 111.196 122.471  1.00  0.00     0.210 HD
ENDBRANCH  23  30
TORSDOF 1
ENDMDL
