MODEL 1
REMARK VINA RESULT:    -4.503      0.000      0.000
REMARK INTER + INTRA:          -7.434
REMARK INTER:                  -6.872
REMARK INTRA:                  -0.562
REMARK UNBOUND:                -0.562
REMARK SMILES CCCCCCCCCCC(=O)[O-]
REMARK SMILES IDX 7 1 8 2 9 3 10 4 11 5 12 6 13 7 6 8 5 9 4 10 3 11 2 12 1 13
REMARK H PARENT
REMARK Flexibility Score: inf
ROOT
ATOM      1  C   UNL     1     158.767 145.068 152.077  1.00  0.00     0.000 C 
ENDROOT
BRANCH   1   2
ATOM      2  C   UNL     1     158.864 145.331 153.587  1.00  0.00     0.000 C 
BRANCH   2   3
ATOM      3  C   UNL     1     160.267 145.786 154.019  1.00  0.00     0.006 C 
BRANCH   3   4
ATOM      4  C   UNL     1     160.273 146.461 155.397  1.00  0.00     0.053 C 
BRANCH   4   5
ATOM      5  C   UNL     1     160.518 147.929 155.257  1.00  0.00     0.041 C 
ATOM      6  O   UNL     1     159.709 148.649 154.615  1.00  0.00    -0.550 OA
ATOM      7  O   UNL     1     161.666 148.498 155.795  1.00  0.00    -0.550 OA
ENDBRANCH   4   5
ENDBRANCH   3   4
ENDBRANCH   2   3
ENDBRANCH   1   2
BRANCH   1   8
ATOM      8  C   UNL     1     158.570 146.378 151.303  1.00  0.00     0.000 C 
BRANCH   8   9
ATOM      9  C   UNL     1     158.121 146.102 149.860  1.00  0.00    -0.000 C 
BRANCH   9  10
ATOM     10  C   UNL     1     157.369 144.770 149.715  1.00  0.00    -0.000 C 
BRANCH  10  11
ATOM     11  C   UNL     1     157.927 143.898 148.578  1.00  0.00    -0.000 C 
BRANCH  11  12
ATOM     12  C   UNL     1     159.464 143.896 148.539  1.00  0.00    -0.003 C 
ATOM     13  C   UNL     1     160.021 143.875 147.116  1.00  0.00     0.004 C 
ENDBRANCH  11  12
ENDBRANCH  10  11
ENDBRANCH   9  10
ENDBRANCH   8   9
ENDBRANCH   1   8
TORSDOF 9
ENDMDL
MODEL 2
REMARK VINA RESULT:    -3.871      3.202      6.648
REMARK INTER + INTRA:          -6.469
REMARK INTER:                  -6.108
REMARK INTRA:                  -0.361
REMARK UNBOUND:                -0.562
REMARK SMILES CCCCCCCCCCC(=O)[O-]
REMARK SMILES IDX 7 1 8 2 9 3 10 4 11 5 12 6 13 7 6 8 5 9 4 10 3 11 2 12 1 13
REMARK H PARENT
REMARK Flexibility Score: inf
ROOT
ATOM      1  C   UNL     1     158.238 146.098 151.001  1.00  0.00     0.000 C 
ENDROOT
BRANCH   1   2
ATOM      2  C   UNL     1     157.319 145.542 149.903  1.00  0.00     0.000 C 
BRANCH   2   3
ATOM      3  C   UNL     1     157.607 144.067 149.581  1.00  0.00     0.006 C 
BRANCH   3   4
ATOM      4  C   UNL     1     158.230 143.875 148.192  1.00  0.00     0.053 C 
BRANCH   4   5
ATOM      5  C   UNL     1     159.722 143.902 148.281  1.00  0.00     0.041 C 
ATOM      6  O   UNL     1     160.421 143.905 147.234  1.00  0.00    -0.550 OA
ATOM      7  O   UNL     1     160.346 143.875 149.523  1.00  0.00    -0.550 OA
ENDBRANCH   4   5
ENDBRANCH   3   4
ENDBRANCH   2   3
ENDBRANCH   1   2
BRANCH   1   8
ATOM      8  C   UNL     1     158.587 145.012 152.026  1.00  0.00     0.000 C 
BRANCH   8   9
ATOM      9  C   UNL     1     158.653 145.596 153.445  1.00  0.00    -0.000 C 
BRANCH   9  10
ATOM     10  C   UNL     1     159.868 146.514 153.655  1.00  0.00    -0.000 C 
BRANCH  10  11
ATOM     11  C   UNL     1     159.498 147.829 154.363  1.00  0.00    -0.000 C 
BRANCH  11  12
ATOM     12  C   UNL     1     160.112 147.933 155.768  1.00  0.00    -0.003 C 
ATOM     13  C   UNL     1     161.575 148.373 155.745  1.00  0.00     0.004 C 
ENDBRANCH  11  12
ENDBRANCH  10  11
ENDBRANCH   9  10
ENDBRANCH   8   9
ENDBRANCH   1   8
TORSDOF 9
ENDMDL
MODEL 3
REMARK VINA RESULT:    -2.774     15.158     16.728
REMARK INTER + INTRA:          -4.794
REMARK INTER:                  -3.456
REMARK INTRA:                  -1.339
REMARK UNBOUND:                -0.562
REMARK SMILES CCCCCCCCCCC(=O)[O-]
REMARK SMILES IDX 7 1 8 2 9 3 10 4 11 5 12 6 13 7 6 8 5 9 4 10 3 11 2 12 1 13
REMARK H PARENT
REMARK Flexibility Score: inf
ROOT
ATOM      1  C   UNL     1     148.028 145.149 142.148  1.00  0.00     0.000 C 
ENDROOT
BRANCH   1   2
ATOM      2  C   UNL     1     147.700 146.074 143.330  1.00  0.00     0.000 C 
BRANCH   2   3
ATOM      3  C   UNL     1     147.547 147.544 142.907  1.00  0.00     0.006 C 
BRANCH   3   4
ATOM      4  C   UNL     1     146.125 148.076 143.121  1.00  0.00     0.053 C 
BRANCH   4   5
ATOM      5  C   UNL     1     146.110 149.570 143.047  1.00  0.00     0.041 C 
ATOM      6  O   UNL     1     145.293 150.231 143.740  1.00  0.00    -0.550 OA
ATOM      7  O   UNL     1     146.966 150.232 142.175  1.00  0.00    -0.550 OA
ENDBRANCH   4   5
ENDBRANCH   3   4
ENDBRANCH   2   3
ENDBRANCH   1   2
BRANCH   1   8
ATOM      8  C   UNL     1     146.967 144.053 141.998  1.00  0.00     0.000 C 
BRANCH   8   9
ATOM      9  C   UNL     1     145.629 144.643 141.525  1.00  0.00    -0.000 C 
BRANCH   9  10
ATOM     10  C   UNL     1     145.700 145.211 140.099  1.00  0.00    -0.000 C 
BRANCH  10  11
ATOM     11  C   UNL     1     144.876 146.500 139.935  1.00  0.00    -0.000 C 
BRANCH  11  12
ATOM     12  C   UNL     1     145.736 147.696 139.496  1.00  0.00    -0.003 C 
ATOM     13  C   UNL     1     147.184 147.308 139.197  1.00  0.00     0.004 C 
ENDBRANCH  11  12
ENDBRANCH  10  11
ENDBRANCH   9  10
ENDBRANCH   8   9
ENDBRANCH   1   8
TORSDOF 9
ENDMDL
MODEL 4
REMARK VINA RESULT:    -2.754     14.932     16.484
REMARK INTER + INTRA:          -4.764
REMARK INTER:                  -3.716
REMARK INTRA:                  -1.048
REMARK UNBOUND:                -0.562
REMARK SMILES CCCCCCCCCCC(=O)[O-]
REMARK SMILES IDX 7 1 8 2 9 3 10 4 11 5 12 6 13 7 6 8 5 9 4 10 3 11 2 12 1 13
REMARK H PARENT
REMARK Flexibility Score: inf
ROOT
ATOM      1  C   UNL     1     145.088 150.958 154.055  1.00  0.00     0.000 C 
ENDROOT
BRANCH   1   2
ATOM      2  C   UNL     1     143.971 151.711 153.316  1.00  0.00     0.000 C 
BRANCH   2   3
ATOM      3  C   UNL     1     143.879 151.324 151.831  1.00  0.00     0.006 C 
BRANCH   3   4
ATOM      4  C   UNL     1     145.118 151.747 151.032  1.00  0.00     0.053 C 
BRANCH   4   5
ATOM      5  C   UNL     1     145.517 150.667 150.078  1.00  0.00     0.041 C 
ATOM      6  O   UNL     1     145.782 149.512 150.502  1.00  0.00    -0.550 OA
ATOM      7  O   UNL     1     145.645 150.948 148.723  1.00  0.00    -0.550 OA
ENDBRANCH   4   5
ENDBRANCH   3   4
ENDBRANCH   2   3
ENDBRANCH   1   2
BRANCH   1   8
ATOM      8  C   UNL     1     145.841 151.892 155.010  1.00  0.00     0.000 C 
BRANCH   8   9
ATOM      9  C   UNL     1     145.686 153.359 154.580  1.00  0.00    -0.000 C 
BRANCH   9  10
ATOM     10  C   UNL     1     146.943 153.913 153.890  1.00  0.00    -0.000 C 
BRANCH  10  11
ATOM     11  C   UNL     1     146.612 154.756 152.647  1.00  0.00    -0.000 C 
BRANCH  11  12
ATOM     12  C   UNL     1     145.268 155.491 152.777  1.00  0.00    -0.003 C 
ATOM     13  C   UNL     1     145.421 157.012 152.769  1.00  0.00     0.004 C 
ENDBRANCH  11  12
ENDBRANCH  10  11
ENDBRANCH   9  10
ENDBRANCH   8   9
ENDBRANCH   1   8
TORSDOF 9
ENDMDL
MODEL 5
REMARK VINA RESULT:    -2.753     16.891     19.063
REMARK INTER + INTRA:          -4.763
REMARK INTER:                  -3.850
REMARK INTRA:                  -0.913
REMARK UNBOUND:                -0.562
REMARK SMILES CCCCCCCCCCC(=O)[O-]
REMARK SMILES IDX 7 1 8 2 9 3 10 4 11 5 12 6 13 7 6 8 5 9 4 10 3 11 2 12 1 13
REMARK H PARENT
REMARK Flexibility Score: inf
ROOT
ATOM      1  C   UNL     1     144.431 149.318 142.810  1.00  0.00     0.000 C 
ENDROOT
BRANCH   1   2
ATOM      2  C   UNL     1     143.676 150.434 142.071  1.00  0.00     0.000 C 
BRANCH   2   3
ATOM      3  C   UNL     1     144.183 150.640 140.635  1.00  0.00     0.006 C 
BRANCH   3   4
ATOM      4  C   UNL     1     143.434 149.775 139.613  1.00  0.00     0.053 C 
BRANCH   4   5
ATOM      5  C   UNL     1     143.825 150.155 138.221  1.00  0.00     0.041 C 
ATOM      6  O   UNL     1     144.359 149.307 137.458  1.00  0.00    -0.550 OA
ATOM      7  O   UNL     1     143.647 151.461 137.779  1.00  0.00    -0.550 OA
ENDBRANCH   4   5
ENDBRANCH   3   4
ENDBRANCH   2   3
ENDBRANCH   1   2
BRANCH   1   8
ATOM      8  C   UNL     1     145.727 149.852 143.433  1.00  0.00     0.000 C 
BRANCH   8   9
ATOM      9  C   UNL     1     146.957 149.332 142.674  1.00  0.00    -0.000 C 
BRANCH   9  10
ATOM     10  C   UNL     1     147.178 147.822 142.863  1.00  0.00    -0.000 C 
BRANCH  10  11
ATOM     11  C   UNL     1     147.021 147.035 141.551  1.00  0.00    -0.000 C 
BRANCH  11  12
ATOM     12  C   UNL     1     146.741 147.948 140.347  1.00  0.00    -0.003 C 
ATOM     13  C   UNL     1     146.927 147.236 139.007  1.00  0.00     0.004 C 
ENDBRANCH  11  12
ENDBRANCH  10  11
ENDBRANCH   9  10
ENDBRANCH   8   9
ENDBRANCH   1   8
TORSDOF 9
ENDMDL
MODEL 6
REMARK VINA RESULT:    -2.736     15.519     17.547
REMARK INTER + INTRA:          -4.737
REMARK INTER:                  -3.394
REMARK INTRA:                  -1.343
REMARK UNBOUND:                -0.562
REMARK SMILES CCCCCCCCCCC(=O)[O-]
REMARK SMILES IDX 7 1 8 2 9 3 10 4 11 5 12 6 13 7 6 8 5 9 4 10 3 11 2 12 1 13
REMARK H PARENT
REMARK Flexibility Score: inf
ROOT
ATOM      1  C   UNL     1     145.025 149.880 141.935  1.00  0.00     0.000 C 
ENDROOT
BRANCH   1   2
ATOM      2  C   UNL     1     146.561 149.926 141.904  1.00  0.00     0.000 C 
BRANCH   2   3
ATOM      3  C   UNL     1     147.203 148.839 142.779  1.00  0.00     0.006 C 
BRANCH   3   4
ATOM      4  C   UNL     1     146.266 147.651 143.030  1.00  0.00     0.053 C 
BRANCH   4   5
ATOM      5  C   UNL     1     147.053 146.391 143.201  1.00  0.00     0.041 C 
ATOM      6  O   UNL     1     146.538 145.393 143.768  1.00  0.00    -0.550 OA
ATOM      7  O   UNL     1     148.375 146.334 142.776  1.00  0.00    -0.550 OA
ENDBRANCH   4   5
ENDBRANCH   3   4
ENDBRANCH   2   3
ENDBRANCH   1   2
BRANCH   1   8
ATOM      8  C   UNL     1     144.430 150.567 140.700  1.00  0.00     0.000 C 
BRANCH   8   9
ATOM      9  C   UNL     1     144.006 149.534 139.646  1.00  0.00    -0.000 C 
BRANCH   9  10
ATOM     10  C   UNL     1     143.761 148.139 140.245  1.00  0.00    -0.000 C 
BRANCH  10  11
ATOM     11  C   UNL     1     144.547 147.037 139.515  1.00  0.00    -0.000 C 
BRANCH  11  12
ATOM     12  C   UNL     1     145.734 147.594 138.713  1.00  0.00    -0.003 C 
ATOM     13  C   UNL     1     147.085 147.255 139.342  1.00  0.00     0.004 C 
ENDBRANCH  11  12
ENDBRANCH  10  11
ENDBRANCH   9  10
ENDBRANCH   8   9
ENDBRANCH   1   8
TORSDOF 9
ENDMDL
MODEL 7
REMARK VINA RESULT:    -2.718     14.108     15.458
REMARK INTER + INTRA:          -4.710
REMARK INTER:                  -4.239
REMARK INTRA:                  -0.471
REMARK UNBOUND:                -0.562
REMARK SMILES CCCCCCCCCCC(=O)[O-]
REMARK SMILES IDX 7 1 8 2 9 3 10 4 11 5 12 6 13 7 6 8 5 9 4 10 3 11 2 12 1 13
REMARK H PARENT
REMARK Flexibility Score: inf
ROOT
ATOM      1  C   UNL     1     144.141 150.374 144.845  1.00  0.00     0.000 C 
ENDROOT
BRANCH   1   2
ATOM      2  C   UNL     1     144.416 150.064 146.325  1.00  0.00     0.000 C 
BRANCH   2   3
ATOM      3  C   UNL     1     144.584 151.334 147.174  1.00  0.00     0.006 C 
BRANCH   3   4
ATOM      4  C   UNL     1     145.918 151.368 147.931  1.00  0.00     0.053 C 
BRANCH   4   5
ATOM      5  C   UNL     1     145.767 150.746 149.282  1.00  0.00     0.041 C 
ATOM      6  O   UNL     1     145.357 151.434 150.254  1.00  0.00    -0.550 OA
ATOM      7  O   UNL     1     146.125 149.418 149.482  1.00  0.00    -0.550 OA
ENDBRANCH   4   5
ENDBRANCH   3   4
ENDBRANCH   2   3
ENDBRANCH   1   2
BRANCH   1   8
ATOM      8  C   UNL     1     144.703 149.271 143.940  1.00  0.00     0.000 C 
BRANCH   8   9
ATOM      9  C   UNL     1     146.035 149.704 143.308  1.00  0.00    -0.000 C 
BRANCH   9  10
ATOM     10  C   UNL     1     146.930 148.512 142.933  1.00  0.00    -0.000 C 
BRANCH  10  11
ATOM     11  C   UNL     1     146.217 147.161 143.105  1.00  0.00    -0.000 C 
BRANCH  11  12
ATOM     12  C   UNL     1     147.198 146.007 143.370  1.00  0.00    -0.003 C 
ATOM     13  C   UNL     1     148.534 146.189 142.651  1.00  0.00     0.004 C 
ENDBRANCH  11  12
ENDBRANCH  10  11
ENDBRANCH   9  10
ENDBRANCH   8   9
ENDBRANCH   1   8
TORSDOF 9
ENDMDL
MODEL 8
REMARK VINA RESULT:    -2.701     15.167     16.937
REMARK INTER + INTRA:          -4.684
REMARK INTER:                  -3.407
REMARK INTRA:                  -1.277
REMARK UNBOUND:                -0.562
REMARK SMILES CCCCCCCCCCC(=O)[O-]
REMARK SMILES IDX 7 1 8 2 9 3 10 4 11 5 12 6 13 7 6 8 5 9 4 10 3 11 2 12 1 13
REMARK H PARENT
REMARK Flexibility Score: inf
ROOT
ATOM      1  C   UNL     1     145.611 149.265 140.972  1.00  0.00     0.000 C 
ENDROOT
BRANCH   1   2
ATOM      2  C   UNL     1     146.722 149.882 141.835  1.00  0.00     0.000 C 
BRANCH   2   3
ATOM      3  C   UNL     1     146.490 149.669 143.339  1.00  0.00     0.006 C 
BRANCH   3   4
ATOM      4  C   UNL     1     145.044 149.272 143.664  1.00  0.00     0.053 C 
BRANCH   4   5
ATOM      5  C   UNL     1     144.407 150.298 144.545  1.00  0.00     0.041 C 
ATOM      6  O   UNL     1     143.533 151.078 144.081  1.00  0.00    -0.550 OA
ATOM      7  O   UNL     1     144.812 150.429 145.868  1.00  0.00    -0.550 OA
ENDBRANCH   4   5
ENDBRANCH   3   4
ENDBRANCH   2   3
ENDBRANCH   1   2
BRANCH   1   8
ATOM      8  C   UNL     1     146.136 148.061 140.180  1.00  0.00     0.000 C 
BRANCH   8   9
ATOM      9  C   UNL     1     145.325 146.796 140.500  1.00  0.00    -0.000 C 
BRANCH   9  10
ATOM     10  C   UNL     1     146.174 145.696 141.158  1.00  0.00    -0.000 C 
BRANCH  10  11
ATOM     11  C   UNL     1     147.538 146.215 141.644  1.00  0.00    -0.000 C 
BRANCH  11  12
ATOM     12  C   UNL     1     147.663 146.194 143.176  1.00  0.00    -0.003 C 
ATOM     13  C   UNL     1     146.368 145.775 143.871  1.00  0.00     0.004 C 
ENDBRANCH  11  12
ENDBRANCH  10  11
ENDBRANCH   9  10
ENDBRANCH   8   9
ENDBRANCH   1   8
TORSDOF 9
ENDMDL
