MODEL 1
REMARK VINA RESULT:    -7.473      0.000      0.000
REMARK INTER + INTRA:          -9.324
REMARK INTER:                  -9.002
REMARK INTRA:                  -0.322
REMARK UNBOUND:                -0.322
REMARK SMILES O=c1c(O)c(-c2ccc(O)c(O)c2)oc2cc(O)cc(O)c12
REMARK SMILES IDX 5 1 3 2 2 3 1 4 22 5 20 6 19 7 17 8 16 9 15 10 14 11 6 12
REMARK SMILES IDX 7 13 8 14 9 15 13 16 11 17 10 18 12 20 4 22 21 24 18 26
REMARK H PARENT 10 19 12 21 4 23 21 25 18 27
REMARK Flexibility Score: inf
ROOT
ATOM      1  C   UNL     1       1.126  55.721  18.094  1.00  0.00     0.180 A 
ATOM      2  C   UNL     1       0.803  54.678  18.979  1.00  0.00     0.208 A 
ATOM      3  C   UNL     1      -0.538  54.488  19.348  1.00  0.00     0.238 A 
ATOM      4  O   UNL     1      -0.828  53.520  20.098  1.00  0.00    -0.285 OA
ATOM      5  C   UNL     1      -1.537  55.353  18.840  1.00  0.00     0.111 A 
ATOM      6  C   UNL     1      -2.922  55.278  19.178  1.00  0.00     0.134 A 
ATOM      7  C   UNL     1      -3.840  56.101  18.514  1.00  0.00     0.093 A 
ATOM      8  C   UNL     1      -3.417  57.040  17.575  1.00  0.00     0.123 A 
ATOM      9  C   UNL     1      -2.059  57.163  17.281  1.00  0.00     0.094 A 
ATOM     10  C   UNL     1      -1.123  56.332  17.899  1.00  0.00     0.146 A 
ATOM     11  O   UNL     1       0.159  56.473  17.583  1.00  0.00    -0.452 OA
ENDROOT
BRANCH   1  12
ATOM     12  C   UNL     1       2.520  55.999  17.680  1.00  0.00     0.025 A 
ATOM     13  C   UNL     1       3.301  56.888  18.437  1.00  0.00     0.016 A 
ATOM     14  C   UNL     1       4.625  57.150  18.076  1.00  0.00     0.051 A 
ATOM     15  C   UNL     1       5.193  56.517  16.964  1.00  0.00     0.157 A 
ATOM     16  C   UNL     1       3.101  55.350  16.576  1.00  0.00     0.062 A 
ATOM     17  C   UNL     1       4.427  55.609  16.213  1.00  0.00     0.158 A 
BRANCH  15  18
ATOM     18  O   UNL     1       6.515  56.782  16.605  1.00  0.00    -0.504 OA
ATOM     19  H   UNL     1       6.894  56.476  15.716  1.00  0.00     0.293 HD
ENDBRANCH  15  18
BRANCH  17  20
ATOM     20  O   UNL     1       4.969  54.951  15.108  1.00  0.00    -0.504 OA
ATOM     21  H   UNL     1       4.740  53.990  14.888  1.00  0.00     0.293 HD
ENDBRANCH  17  20
ENDBRANCH   1  12
BRANCH   2  22
ATOM     22  O   UNL     1       1.803  53.823  19.452  1.00  0.00    -0.502 OA
ATOM     23  H   UNL     1       2.643  54.165  19.903  1.00  0.00     0.293 HD
ENDBRANCH   2  22
BRANCH   6  24
ATOM     24  O   UNL     1      -3.440  54.438  20.169  1.00  0.00    -0.507 OA
ATOM     25  H   UNL     1      -3.495  53.433  20.098  1.00  0.00     0.293 HD
ENDBRANCH   6  24
BRANCH   8  26
ATOM     26  O   UNL     1      -4.358  57.854  16.946  1.00  0.00    -0.508 OA
ATOM     27  H   UNL     1      -4.107  58.762  16.572  1.00  0.00     0.293 HD
ENDBRANCH   8  26
TORSDOF 6
ENDMDL
MODEL 2
REMARK VINA RESULT:    -7.147      1.215      2.949
REMARK INTER + INTRA:          -8.931
REMARK INTER:                  -8.606
REMARK INTRA:                  -0.325
REMARK UNBOUND:                -0.322
REMARK SMILES O=c1c(O)c(-c2ccc(O)c(O)c2)oc2cc(O)cc(O)c12
REMARK SMILES IDX 5 1 3 2 2 3 1 4 22 5 20 6 19 7 17 8 16 9 15 10 14 11 6 12
REMARK SMILES IDX 7 13 8 14 9 15 13 16 11 17 10 18 12 20 4 22 21 24 18 26
REMARK H PARENT 10 19 12 21 4 23 21 25 18 27
REMARK Flexibility Score: inf
ROOT
ATOM      1  C   UNL     1       1.087  55.902  18.083  1.00  0.00     0.180 A 
ATOM      2  C   UNL     1       0.018  56.550  17.442  1.00  0.00     0.208 A 
ATOM      3  C   UNL     1      -1.294  56.284  17.867  1.00  0.00     0.238 A 
ATOM      4  O   UNL     1      -2.243  56.909  17.325  1.00  0.00    -0.285 OA
ATOM      5  C   UNL     1      -1.521  55.361  18.915  1.00  0.00     0.111 A 
ATOM      6  C   UNL     1      -2.810  54.985  19.399  1.00  0.00     0.134 A 
ATOM      7  C   UNL     1      -2.911  54.162  20.528  1.00  0.00     0.093 A 
ATOM      8  C   UNL     1      -1.773  53.650  21.150  1.00  0.00     0.123 A 
ATOM      9  C   UNL     1      -0.509  53.963  20.648  1.00  0.00     0.094 A 
ATOM     10  C   UNL     1      -0.375  54.810  19.546  1.00  0.00     0.146 A 
ATOM     11  O   UNL     1       0.846  55.091  19.107  1.00  0.00    -0.452 OA
ENDROOT
BRANCH   1  12
ATOM     12  C   UNL     1       2.495  56.111  17.675  1.00  0.00     0.025 A 
ATOM     13  C   UNL     1       3.298  57.006  18.400  1.00  0.00     0.016 A 
ATOM     14  C   UNL     1       4.635  57.204  18.044  1.00  0.00     0.051 A 
ATOM     15  C   UNL     1       5.192  56.500  16.969  1.00  0.00     0.157 A 
ATOM     16  C   UNL     1       3.063  55.391  16.609  1.00  0.00     0.062 A 
ATOM     17  C   UNL     1       4.402  55.586  16.251  1.00  0.00     0.158 A 
BRANCH  15  18
ATOM     18  O   UNL     1       6.526  56.700  16.615  1.00  0.00    -0.504 OA
ATOM     19  H   UNL     1       7.096  55.947  16.248  1.00  0.00     0.293 HD
ENDBRANCH  15  18
BRANCH  17  20
ATOM     20  O   UNL     1       4.932  54.858  15.185  1.00  0.00    -0.504 OA
ATOM     21  H   UNL     1       5.231  53.896  15.285  1.00  0.00     0.293 HD
ENDBRANCH  17  20
ENDBRANCH   1  12
BRANCH   2  22
ATOM     22  O   UNL     1       0.266  57.475  16.423  1.00  0.00    -0.502 OA
ATOM     23  H   UNL     1      -0.477  57.894  15.877  1.00  0.00     0.293 HD
ENDBRANCH   2  22
BRANCH   6  24
ATOM     24  O   UNL     1      -4.013  55.367  18.796  1.00  0.00    -0.507 OA
ATOM     25  H   UNL     1      -4.178  55.378  17.801  1.00  0.00     0.293 HD
ENDBRANCH   6  24
BRANCH   8  26
ATOM     26  O   UNL     1      -1.912  52.821  22.261  1.00  0.00    -0.508 OA
ATOM     27  H   UNL     1      -1.465  53.041  23.144  1.00  0.00     0.293 HD
ENDBRANCH   8  26
TORSDOF 6
ENDMDL
MODEL 3
REMARK VINA RESULT:    -7.052      1.491      6.700
REMARK INTER + INTRA:          -8.816
REMARK INTER:                  -9.159
REMARK INTRA:                   0.342
REMARK UNBOUND:                -0.322
REMARK SMILES O=c1c(O)c(-c2ccc(O)c(O)c2)oc2cc(O)cc(O)c12
REMARK SMILES IDX 5 1 3 2 2 3 1 4 22 5 20 6 19 7 17 8 16 9 15 10 14 11 6 12
REMARK SMILES IDX 7 13 8 14 9 15 13 16 11 17 10 18 12 20 4 22 21 24 18 26
REMARK H PARENT 10 19 12 21 4 23 21 25 18 27
REMARK Flexibility Score: inf
ROOT
ATOM      1  C   UNL     1      -0.111  55.697  18.363  1.00  0.00     0.180 A 
ATOM      2  C   UNL     1       0.331  55.140  19.576  1.00  0.00     0.208 A 
ATOM      3  C   UNL     1       1.622  54.592  19.643  1.00  0.00     0.238 A 
ATOM      4  O   UNL     1       2.032  54.145  20.745  1.00  0.00    -0.285 OA
ATOM      5  C   UNL     1       2.448  54.593  18.493  1.00  0.00     0.111 A 
ATOM      6  C   UNL     1       3.757  54.027  18.436  1.00  0.00     0.134 A 
ATOM      7  C   UNL     1       4.535  54.201  17.284  1.00  0.00     0.093 A 
ATOM      8  C   UNL     1       4.027  54.860  16.166  1.00  0.00     0.123 A 
ATOM      9  C   UNL     1       2.726  55.364  16.189  1.00  0.00     0.094 A 
ATOM     10  C   UNL     1       1.939  55.238  17.336  1.00  0.00     0.146 A 
ATOM     11  O   UNL     1       0.711  55.741  17.321  1.00  0.00    -0.452 OA
ENDROOT
BRANCH   1  12
ATOM     12  C   UNL     1      -1.468  56.270  18.208  1.00  0.00     0.025 A 
ATOM     13  C   UNL     1      -1.727  57.153  17.147  1.00  0.00     0.016 A 
ATOM     14  C   UNL     1      -3.004  57.690  16.969  1.00  0.00     0.051 A 
ATOM     15  C   UNL     1      -4.045  57.340  17.839  1.00  0.00     0.157 A 
ATOM     16  C   UNL     1      -2.520  55.906  19.067  1.00  0.00     0.062 A 
ATOM     17  C   UNL     1      -3.801  56.440  18.891  1.00  0.00     0.158 A 
BRANCH  15  18
ATOM     18  O   UNL     1      -5.319  57.879  17.661  1.00  0.00    -0.504 OA
ATOM     19  H   UNL     1      -6.123  57.289  17.479  1.00  0.00     0.293 HD
ENDBRANCH  15  18
BRANCH  17  20
ATOM     20  O   UNL     1      -4.820  56.061  19.765  1.00  0.00    -0.504 OA
ATOM     21  H   UNL     1      -5.708  56.547  19.801  1.00  0.00     0.293 HD
ENDBRANCH  17  20
ENDBRANCH   1  12
BRANCH   2  22
ATOM     22  O   UNL     1      -0.493  55.170  20.705  1.00  0.00    -0.502 OA
ATOM     23  H   UNL     1      -0.471  55.931  21.373  1.00  0.00     0.293 HD
ENDBRANCH   2  22
BRANCH   6  24
ATOM     24  O   UNL     1       4.327  53.271  19.465  1.00  0.00    -0.507 OA
ATOM     25  H   UNL     1       5.160  52.708  19.370  1.00  0.00     0.293 HD
ENDBRANCH   6  24
BRANCH   8  26
ATOM     26  O   UNL     1       4.823  55.000  15.031  1.00  0.00    -0.508 OA
ATOM     27  H   UNL     1       4.472  54.778  14.107  1.00  0.00     0.293 HD
ENDBRANCH   8  26
TORSDOF 6
ENDMDL
MODEL 4
REMARK VINA RESULT:    -7.047      1.064      1.729
REMARK INTER + INTRA:          -8.811
REMARK INTER:                  -8.482
REMARK INTRA:                  -0.329
REMARK UNBOUND:                -0.322
REMARK SMILES O=c1c(O)c(-c2ccc(O)c(O)c2)oc2cc(O)cc(O)c12
REMARK SMILES IDX 5 1 3 2 2 3 1 4 22 5 20 6 19 7 17 8 16 9 15 10 14 11 6 12
REMARK SMILES IDX 7 13 8 14 9 15 13 16 11 17 10 18 12 20 4 22 21 24 18 26
REMARK H PARENT 10 19 12 21 4 23 21 25 18 27
REMARK Flexibility Score: inf
ROOT
ATOM      1  C   UNL     1       0.302  55.149  18.234  1.00  0.00     0.180 A 
ATOM      2  C   UNL     1       0.043  54.109  19.143  1.00  0.00     0.208 A 
ATOM      3  C   UNL     1      -1.236  54.007  19.715  1.00  0.00     0.238 A 
ATOM      4  O   UNL     1      -1.477  53.042  20.486  1.00  0.00    -0.285 OA
ATOM      5  C   UNL     1      -2.233  54.954  19.383  1.00  0.00     0.111 A 
ATOM      6  C   UNL     1      -3.550  54.971  19.934  1.00  0.00     0.134 A 
ATOM      7  C   UNL     1      -4.495  55.877  19.436  1.00  0.00     0.093 A 
ATOM      8  C   UNL     1      -4.154  56.808  18.456  1.00  0.00     0.123 A 
ATOM      9  C   UNL     1      -2.852  56.840  17.954  1.00  0.00     0.094 A 
ATOM     10  C   UNL     1      -1.897  55.926  18.405  1.00  0.00     0.146 A 
ATOM     11  O   UNL     1      -0.674  55.983  17.893  1.00  0.00    -0.452 OA
ENDROOT
BRANCH   1  12
ATOM     12  C   UNL     1       1.632  55.337  17.610  1.00  0.00     0.025 A 
ATOM     13  C   UNL     1       1.912  54.718  16.381  1.00  0.00     0.016 A 
ATOM     14  C   UNL     1       3.153  54.898  15.765  1.00  0.00     0.051 A 
ATOM     15  C   UNL     1       4.126  55.712  16.358  1.00  0.00     0.157 A 
ATOM     16  C   UNL     1       2.603  56.170  18.193  1.00  0.00     0.062 A 
ATOM     17  C   UNL     1       3.846  56.354  17.577  1.00  0.00     0.158 A 
BRANCH  15  18
ATOM     18  O   UNL     1       5.364  55.889  15.742  1.00  0.00    -0.504 OA
ATOM     19  H   UNL     1       6.051  56.536  16.110  1.00  0.00     0.293 HD
ENDBRANCH  15  18
BRANCH  17  20
ATOM     20  O   UNL     1       4.789  57.183  18.187  1.00  0.00    -0.504 OA
ATOM     21  H   UNL     1       5.637  56.819  18.603  1.00  0.00     0.293 HD
ENDBRANCH  17  20
ENDBRANCH   1  12
BRANCH   2  22
ATOM     22  O   UNL     1       1.036  53.171  19.439  1.00  0.00    -0.502 OA
ATOM     23  H   UNL     1       1.700  53.302  20.193  1.00  0.00     0.293 HD
ENDBRANCH   2  22
BRANCH   6  24
ATOM     24  O   UNL     1      -3.969  54.144  20.981  1.00  0.00    -0.507 OA
ATOM     25  H   UNL     1      -4.519  54.451  21.770  1.00  0.00     0.293 HD
ENDBRANCH   6  24
BRANCH   8  26
ATOM     26  O   UNL     1      -5.116  57.704  17.995  1.00  0.00    -0.508 OA
ATOM     27  H   UNL     1      -5.942  57.922  18.542  1.00  0.00     0.293 HD
ENDBRANCH   8  26
TORSDOF 6
ENDMDL
MODEL 5
REMARK VINA RESULT:    -7.044      1.711      6.911
REMARK INTER + INTRA:          -8.807
REMARK INTER:                  -9.037
REMARK INTRA:                   0.230
REMARK UNBOUND:                -0.322
REMARK SMILES O=c1c(O)c(-c2ccc(O)c(O)c2)oc2cc(O)cc(O)c12
REMARK SMILES IDX 5 1 3 2 2 3 1 4 22 5 20 6 19 7 17 8 16 9 15 10 14 11 6 12
REMARK SMILES IDX 7 13 8 14 9 15 13 16 11 17 10 18 12 20 4 22 21 24 18 26
REMARK H PARENT 10 19 12 21 4 23 21 25 18 27
REMARK Flexibility Score: inf
ROOT
ATOM      1  C   UNL     1      -1.518  55.575  17.974  1.00  0.00     0.180 A 
ATOM      2  C   UNL     1      -1.474  54.192  18.217  1.00  0.00     0.208 A 
ATOM      3  C   UNL     1      -0.274  53.499  17.989  1.00  0.00     0.238 A 
ATOM      4  O   UNL     1      -0.225  52.271  18.260  1.00  0.00    -0.285 OA
ATOM      5  C   UNL     1       0.860  54.194  17.505  1.00  0.00     0.111 A 
ATOM      6  C   UNL     1       2.115  53.585  17.200  1.00  0.00     0.134 A 
ATOM      7  C   UNL     1       3.207  54.390  16.852  1.00  0.00     0.093 A 
ATOM      8  C   UNL     1       3.073  55.772  16.735  1.00  0.00     0.123 A 
ATOM      9  C   UNL     1       1.835  56.372  16.972  1.00  0.00     0.094 A 
ATOM     10  C   UNL     1       0.737  55.600  17.356  1.00  0.00     0.146 A 
ATOM     11  O   UNL     1      -0.419  56.210  17.583  1.00  0.00    -0.452 OA
ENDROOT
BRANCH   1  12
ATOM     12  C   UNL     1      -2.753  56.369  18.166  1.00  0.00     0.025 A 
ATOM     13  C   UNL     1      -3.045  57.417  17.278  1.00  0.00     0.016 A 
ATOM     14  C   UNL     1      -4.215  58.167  17.428  1.00  0.00     0.051 A 
ATOM     15  C   UNL     1      -5.117  57.871  18.457  1.00  0.00     0.157 A 
ATOM     16  C   UNL     1      -3.671  56.062  19.185  1.00  0.00     0.062 A 
ATOM     17  C   UNL     1      -4.845  56.809  19.338  1.00  0.00     0.158 A 
BRANCH  15  18
ATOM     18  O   UNL     1      -6.283  58.621  18.606  1.00  0.00    -0.504 OA
ATOM     19  H   UNL     1      -7.092  58.253  19.093  1.00  0.00     0.293 HD
ENDBRANCH  15  18
BRANCH  17  20
ATOM     20  O   UNL     1      -5.730  56.480  20.364  1.00  0.00    -0.504 OA
ATOM     21  H   UNL     1      -6.044  55.529  20.520  1.00  0.00     0.293 HD
ENDBRANCH  17  20
ENDBRANCH   1  12
BRANCH   2  22
ATOM     22  O   UNL     1      -2.599  53.529  18.715  1.00  0.00    -0.502 OA
ATOM     23  H   UNL     1      -2.697  53.284  19.693  1.00  0.00     0.293 HD
ENDBRANCH   2  22
BRANCH   6  24
ATOM     24  O   UNL     1       2.332  52.203  17.198  1.00  0.00    -0.507 OA
ATOM     25  H   UNL     1       3.174  51.755  16.866  1.00  0.00     0.293 HD
ENDBRANCH   6  24
BRANCH   8  26
ATOM     26  O   UNL     1       4.177  56.540  16.371  1.00  0.00    -0.508 OA
ATOM     27  H   UNL     1       4.162  57.134  15.550  1.00  0.00     0.293 HD
ENDBRANCH   8  26
TORSDOF 6
ENDMDL
MODEL 6
REMARK VINA RESULT:    -6.857      2.049      6.946
REMARK INTER + INTRA:          -8.582
REMARK INTER:                  -8.749
REMARK INTRA:                   0.167
REMARK UNBOUND:                -0.322
REMARK SMILES O=c1c(O)c(-c2ccc(O)c(O)c2)oc2cc(O)cc(O)c12
REMARK SMILES IDX 5 1 3 2 2 3 1 4 22 5 20 6 19 7 17 8 16 9 15 10 14 11 6 12
REMARK SMILES IDX 7 13 8 14 9 15 13 16 11 17 10 18 12 20 4 22 21 24 18 26
REMARK H PARENT 10 19 12 21 4 23 21 25 18 27
REMARK Flexibility Score: inf
ROOT
ATOM      1  C   UNL     1      -0.094  55.622  17.908  1.00  0.00     0.180 A 
ATOM      2  C   UNL     1       1.062  56.368  17.618  1.00  0.00     0.208 A 
ATOM      3  C   UNL     1       2.311  55.726  17.644  1.00  0.00     0.238 A 
ATOM      4  O   UNL     1       3.336  56.386  17.330  1.00  0.00    -0.285 OA
ATOM      5  C   UNL     1       2.390  54.353  17.975  1.00  0.00     0.111 A 
ATOM      6  C   UNL     1       3.606  53.611  18.072  1.00  0.00     0.134 A 
ATOM      7  C   UNL     1       3.556  52.227  18.279  1.00  0.00     0.093 A 
ATOM      8  C   UNL     1       2.340  51.569  18.458  1.00  0.00     0.123 A 
ATOM      9  C   UNL     1       1.148  52.295  18.426  1.00  0.00     0.094 A 
ATOM     10  C   UNL     1       1.163  53.670  18.185  1.00  0.00     0.146 A 
ATOM     11  O   UNL     1       0.007  54.321  18.151  1.00  0.00    -0.452 OA
ENDROOT
BRANCH   1  12
ATOM     12  C   UNL     1      -1.442  56.234  17.926  1.00  0.00     0.025 A 
ATOM     13  C   UNL     1      -1.802  57.142  16.917  1.00  0.00     0.016 A 
ATOM     14  C   UNL     1      -3.076  57.716  16.903  1.00  0.00     0.051 A 
ATOM     15  C   UNL     1      -4.013  57.380  17.888  1.00  0.00     0.157 A 
ATOM     16  C   UNL     1      -2.393  55.884  18.901  1.00  0.00     0.062 A 
ATOM     17  C   UNL     1      -3.670  56.456  18.889  1.00  0.00     0.158 A 
BRANCH  15  18
ATOM     18  O   UNL     1      -5.284  57.956  17.873  1.00  0.00    -0.504 OA
ATOM     19  H   UNL     1      -5.672  58.402  18.695  1.00  0.00     0.293 HD
ENDBRANCH  15  18
BRANCH  17  20
ATOM     20  O   UNL     1      -4.586  56.089  19.876  1.00  0.00    -0.504 OA
ATOM     21  H   UNL     1      -5.396  55.516  19.672  1.00  0.00     0.293 HD
ENDBRANCH  17  20
ENDBRANCH   1  12
BRANCH   2  22
ATOM     22  O   UNL     1       0.958  57.718  17.271  1.00  0.00    -0.502 OA
ATOM     23  H   UNL     1       0.175  58.294  17.555  1.00  0.00     0.293 HD
ENDBRANCH   2  22
BRANCH   6  24
ATOM     24  O   UNL     1       4.879  54.185  17.998  1.00  0.00    -0.507 OA
ATOM     25  H   UNL     1       5.311  54.720  18.737  1.00  0.00     0.293 HD
ENDBRANCH   6  24
BRANCH   8  26
ATOM     26  O   UNL     1       2.329  50.193  18.678  1.00  0.00    -0.508 OA
ATOM     27  H   UNL     1       3.035  49.587  18.276  1.00  0.00     0.293 HD
ENDBRANCH   8  26
TORSDOF 6
ENDMDL
MODEL 7
REMARK VINA RESULT:    -6.809      2.935      4.441
REMARK INTER + INTRA:          -8.525
REMARK INTER:                  -8.264
REMARK INTRA:                  -0.260
REMARK UNBOUND:                -0.322
REMARK SMILES O=c1c(O)c(-c2ccc(O)c(O)c2)oc2cc(O)cc(O)c12
REMARK SMILES IDX 5 1 3 2 2 3 1 4 22 5 20 6 19 7 17 8 16 9 15 10 14 11 6 12
REMARK SMILES IDX 7 13 8 14 9 15 13 16 11 17 10 18 12 20 4 22 21 24 18 26
REMARK H PARENT 10 19 12 21 4 23 21 25 18 27
REMARK Flexibility Score: inf
ROOT
ATOM      1  C   UNL     1      -1.805  55.293  19.027  1.00  0.00     0.180 A 
ATOM      2  C   UNL     1      -2.048  56.335  18.116  1.00  0.00     0.208 A 
ATOM      3  C   UNL     1      -3.326  56.914  18.069  1.00  0.00     0.238 A 
ATOM      4  O   UNL     1      -3.523  57.883  17.290  1.00  0.00    -0.285 OA
ATOM      5  C   UNL     1      -4.348  56.435  18.922  1.00  0.00     0.111 A 
ATOM      6  C   UNL     1      -5.691  56.920  18.932  1.00  0.00     0.134 A 
ATOM      7  C   UNL     1      -6.584  56.463  19.908  1.00  0.00     0.093 A 
ATOM      8  C   UNL     1      -6.204  55.491  20.833  1.00  0.00     0.123 A 
ATOM      9  C   UNL     1      -4.912  54.965  20.794  1.00  0.00     0.094 A 
ATOM     10  C   UNL     1      -3.988  55.428  19.855  1.00  0.00     0.146 A 
ATOM     11  O   UNL     1      -2.765  54.910  19.860  1.00  0.00    -0.452 OA
ENDROOT
BRANCH   1  12
ATOM     12  C   UNL     1      -0.491  54.615  19.116  1.00  0.00     0.025 A 
ATOM     13  C   UNL     1       0.310  54.809  20.253  1.00  0.00     0.016 A 
ATOM     14  C   UNL     1       1.544  54.164  20.367  1.00  0.00     0.051 A 
ATOM     15  C   UNL     1       1.988  53.303  19.356  1.00  0.00     0.157 A 
ATOM     16  C   UNL     1      -0.051  53.734  18.112  1.00  0.00     0.062 A 
ATOM     17  C   UNL     1       1.183  53.085  18.224  1.00  0.00     0.158 A 
BRANCH  15  18
ATOM     18  O   UNL     1       3.221  52.661  19.471  1.00  0.00    -0.504 OA
ATOM     19  H   UNL     1       3.286  51.657  19.589  1.00  0.00     0.293 HD
ENDBRANCH  15  18
BRANCH  17  20
ATOM     20  O   UNL     1       1.590  52.222  17.206  1.00  0.00    -0.504 OA
ATOM     21  H   UNL     1       0.950  51.883  16.499  1.00  0.00     0.293 HD
ENDBRANCH  17  20
ENDBRANCH   1  12
BRANCH   2  22
ATOM     22  O   UNL     1      -1.018  56.808  17.297  1.00  0.00    -0.502 OA
ATOM     23  H   UNL     1      -0.930  57.784  17.043  1.00  0.00     0.293 HD
ENDBRANCH   2  22
BRANCH   6  24
ATOM     24  O   UNL     1      -6.200  57.826  17.995  1.00  0.00    -0.507 OA
ATOM     25  H   UNL     1      -6.673  57.565  17.143  1.00  0.00     0.293 HD
ENDBRANCH   6  24
BRANCH   8  26
ATOM     26  O   UNL     1      -7.124  55.047  21.780  1.00  0.00    -0.508 OA
ATOM     27  H   UNL     1      -6.825  54.660  22.668  1.00  0.00     0.293 HD
ENDBRANCH   8  26
TORSDOF 6
ENDMDL
MODEL 8
REMARK VINA RESULT:    -6.805      3.011      6.758
REMARK INTER + INTRA:          -8.520
REMARK INTER:                  -8.715
REMARK INTRA:                   0.195
REMARK UNBOUND:                -0.322
REMARK SMILES O=c1c(O)c(-c2ccc(O)c(O)c2)oc2cc(O)cc(O)c12
REMARK SMILES IDX 5 1 3 2 2 3 1 4 22 5 20 6 19 7 17 8 16 9 15 10 14 11 6 12
REMARK SMILES IDX 7 13 8 14 9 15 13 16 11 17 10 18 12 20 4 22 21 24 18 26
REMARK H PARENT 10 19 12 21 4 23 21 25 18 27
REMARK Flexibility Score: inf
ROOT
ATOM      1  C   UNL     1       0.821  53.017  18.047  1.00  0.00     0.180 A 
ATOM      2  C   UNL     1       2.125  52.499  17.977  1.00  0.00     0.208 A 
ATOM      3  C   UNL     1       3.211  53.389  17.949  1.00  0.00     0.238 A 
ATOM      4  O   UNL     1       4.378  52.918  17.941  1.00  0.00    -0.285 OA
ATOM      5  C   UNL     1       2.978  54.784  17.974  1.00  0.00     0.111 A 
ATOM      6  C   UNL     1       4.001  55.778  17.908  1.00  0.00     0.134 A 
ATOM      7  C   UNL     1       3.664  57.128  18.072  1.00  0.00     0.093 A 
ATOM      8  C   UNL     1       2.338  57.524  18.234  1.00  0.00     0.123 A 
ATOM      9  C   UNL     1       1.323  56.565  18.240  1.00  0.00     0.094 A 
ATOM     10  C   UNL     1       1.631  55.209  18.114  1.00  0.00     0.146 A 
ATOM     11  O   UNL     1       0.638  54.329  18.136  1.00  0.00    -0.452 OA
ENDROOT
BRANCH   1  12
ATOM     12  C   UNL     1      -0.374  52.142  18.055  1.00  0.00     0.025 A 
ATOM     13  C   UNL     1      -1.513  52.524  17.327  1.00  0.00     0.016 A 
ATOM     14  C   UNL     1      -2.645  51.705  17.304  1.00  0.00     0.051 A 
ATOM     15  C   UNL     1      -2.650  50.486  17.994  1.00  0.00     0.157 A 
ATOM     16  C   UNL     1      -0.376  50.909  18.730  1.00  0.00     0.062 A 
ATOM     17  C   UNL     1      -1.507  50.085  18.707  1.00  0.00     0.158 A 
BRANCH  15  18
ATOM     18  O   UNL     1      -3.781  49.671  17.971  1.00  0.00    -0.504 OA
ATOM     19  H   UNL     1      -3.881  48.884  18.602  1.00  0.00     0.293 HD
ENDBRANCH  15  18
BRANCH  17  20
ATOM     20  O   UNL     1      -1.475  48.870  19.393  1.00  0.00    -0.504 OA
ATOM     21  H   UNL     1      -2.320  48.381  19.661  1.00  0.00     0.293 HD
ENDBRANCH  17  20
ENDBRANCH   1  12
BRANCH   2  22
ATOM     22  O   UNL     1       2.334  51.116  17.975  1.00  0.00    -0.502 OA
ATOM     23  H   UNL     1       3.110  50.683  18.460  1.00  0.00     0.293 HD
ENDBRANCH   2  22
BRANCH   6  24
ATOM     24  O   UNL     1       5.348  55.497  17.658  1.00  0.00    -0.507 OA
ATOM     25  H   UNL     1       5.683  54.912  16.908  1.00  0.00     0.293 HD
ENDBRANCH   6  24
BRANCH   8  26
ATOM     26  O   UNL     1       2.038  58.877  18.379  1.00  0.00    -0.508 OA
ATOM     27  H   UNL     1       2.650  59.597  18.013  1.00  0.00     0.293 HD
ENDBRANCH   8  26
TORSDOF 6
ENDMDL
MODEL 9
REMARK VINA RESULT:    -6.769      3.308      7.129
REMARK INTER + INTRA:          -8.476
REMARK INTER:                  -8.263
REMARK INTRA:                  -0.213
REMARK UNBOUND:                -0.322
REMARK SMILES O=c1c(O)c(-c2ccc(O)c(O)c2)oc2cc(O)cc(O)c12
REMARK SMILES IDX 5 1 3 2 2 3 1 4 22 5 20 6 19 7 17 8 16 9 15 10 14 11 6 12
REMARK SMILES IDX 7 13 8 14 9 15 13 16 11 17 10 18 12 20 4 22 21 24 18 26
REMARK H PARENT 10 19 12 21 4 23 21 25 18 27
REMARK Flexibility Score: inf
ROOT
ATOM      1  C   UNL     1      -1.896  54.991  19.001  1.00  0.00     0.180 A 
ATOM      2  C   UNL     1      -0.628  55.406  19.443  1.00  0.00     0.208 A 
ATOM      3  C   UNL     1       0.396  54.453  19.563  1.00  0.00     0.238 A 
ATOM      4  O   UNL     1       1.544  54.839  19.907  1.00  0.00    -0.285 OA
ATOM      5  C   UNL     1       0.136  53.097  19.254  1.00  0.00     0.111 A 
ATOM      6  C   UNL     1       1.088  52.040  19.378  1.00  0.00     0.134 A 
ATOM      7  C   UNL     1       0.760  50.758  18.920  1.00  0.00     0.093 A 
ATOM      8  C   UNL     1      -0.505  50.479  18.404  1.00  0.00     0.123 A 
ATOM      9  C   UNL     1      -1.463  51.491  18.334  1.00  0.00     0.094 A 
ATOM     10  C   UNL     1      -1.154  52.788  18.749  1.00  0.00     0.146 A 
ATOM     11  O   UNL     1      -2.091  53.724  18.656  1.00  0.00    -0.452 OA
ENDROOT
BRANCH   1  12
ATOM     12  C   UNL     1      -3.033  55.932  18.875  1.00  0.00     0.025 A 
ATOM     13  C   UNL     1      -3.034  56.879  17.837  1.00  0.00     0.016 A 
ATOM     14  C   UNL     1      -4.105  57.763  17.687  1.00  0.00     0.051 A 
ATOM     15  C   UNL     1      -5.198  57.704  18.561  1.00  0.00     0.157 A 
ATOM     16  C   UNL     1      -4.140  55.863  19.738  1.00  0.00     0.062 A 
ATOM     17  C   UNL     1      -5.216  56.746  19.590  1.00  0.00     0.158 A 
BRANCH  15  18
ATOM     18  O   UNL     1      -6.265  58.589  18.411  1.00  0.00    -0.504 OA
ATOM     19  H   UNL     1      -6.561  59.196  19.166  1.00  0.00     0.293 HD
ENDBRANCH  15  18
BRANCH  17  20
ATOM     20  O   UNL     1      -6.296  56.652  20.468  1.00  0.00    -0.504 OA
ATOM     21  H   UNL     1      -7.011  55.942  20.369  1.00  0.00     0.293 HD
ENDBRANCH  17  20
ENDBRANCH   1  12
BRANCH   2  22
ATOM     22  O   UNL     1      -0.387  56.754  19.722  1.00  0.00    -0.502 OA
ATOM     23  H   UNL     1       0.541  57.112  19.914  1.00  0.00     0.293 HD
ENDBRANCH   2  22
BRANCH   6  24
ATOM     24  O   UNL     1       2.350  52.190  19.963  1.00  0.00    -0.507 OA
ATOM     25  H   UNL     1       3.226  52.063  19.478  1.00  0.00     0.293 HD
ENDBRANCH   6  24
BRANCH   8  26
ATOM     26  O   UNL     1      -0.801  49.188  17.972  1.00  0.00    -0.508 OA
ATOM     27  H   UNL     1      -0.875  48.963  16.987  1.00  0.00     0.293 HD
ENDBRANCH   8  26
TORSDOF 6
ENDMDL
