MODEL 1
REMARK VINA RESULT:    -3.362      0.000      0.000
REMARK INTER + INTRA:         -11.722
REMARK INTER:                  -7.686
REMARK INTRA:                  -4.036
REMARK UNBOUND:                -4.036
REMARK SMILES CCCCCCCCCCCCCCCCCCCCCCCC(=O)[O-]
REMARK SMILES IDX 13 1 14 2 15 3 16 4 17 5 18 6 19 7 20 8 21 9 22 10 23 11
REMARK SMILES IDX 24 12 25 13 26 14 12 15 11 16 10 17 9 18 8 19 7 20 6 21 5 22
REMARK SMILES IDX 4 23 3 24 2 25 1 26
REMARK H PARENT
REMARK Flexibility Score: inf
ROOT
ATOM      1  C   UNL     1      70.764  41.439  38.112  1.00  0.00     0.000 C 
ENDROOT
BRANCH   1   2
ATOM      2  C   UNL     1      72.000  41.573  39.016  1.00  0.00     0.000 C 
BRANCH   2   3
ATOM      3  C   UNL     1      71.908  42.845  39.872  1.00  0.00     0.000 C 
BRANCH   3   4
ATOM      4  C   UNL     1      72.954  43.902  39.483  1.00  0.00     0.000 C 
BRANCH   4   5
ATOM      5  C   UNL     1      73.959  44.183  40.615  1.00  0.00     0.000 C 
BRANCH   5   6
ATOM      6  C   UNL     1      73.504  43.609  41.965  1.00  0.00     0.000 C 
BRANCH   6   7
ATOM      7  C   UNL     1      74.658  42.979  42.764  1.00  0.00     0.000 C 
BRANCH   7   8
ATOM      8  C   UNL     1      74.364  41.516  43.159  1.00  0.00     0.000 C 
BRANCH   8   9
ATOM      9  C   UNL     1      74.451  40.524  41.984  1.00  0.00     0.000 C 
BRANCH   9  10
ATOM     10  C   UNL     1      73.268  39.550  41.873  1.00  0.00     0.006 C 
BRANCH  10  11
ATOM     11  C   UNL     1      73.712  38.081  41.845  1.00  0.00     0.053 C 
BRANCH  11  12
ATOM     12  C   UNL     1      74.529  37.757  43.056  1.00  0.00     0.041 C 
ATOM     13  O   UNL     1      75.723  37.373  42.932  1.00  0.00    -0.550 OA
ATOM     14  O   UNL     1      73.988  37.923  44.325  1.00  0.00    -0.550 OA
ENDBRANCH  11  12
ENDBRANCH  10  11
ENDBRANCH   9  10
ENDBRANCH   8   9
ENDBRANCH   7   8
ENDBRANCH   6   7
ENDBRANCH   5   6
ENDBRANCH   4   5
ENDBRANCH   3   4
ENDBRANCH   2   3
ENDBRANCH   1   2
BRANCH   1  15
ATOM     15  C   UNL     1      69.543  42.199  38.651  1.00  0.00     0.000 C 
BRANCH  15  16
ATOM     16  C   UNL     1      68.210  41.526  38.276  1.00  0.00     0.000 C 
BRANCH  16  17
ATOM     17  C   UNL     1      68.384  40.346  37.297  1.00  0.00     0.000 C 
BRANCH  17  18
ATOM     18  C   UNL     1      67.706  39.038  37.751  1.00  0.00    -0.000 C 
BRANCH  18  19
ATOM     19  C   UNL     1      68.637  37.817  37.875  1.00  0.00    -0.000 C 
BRANCH  19  20
ATOM     20  C   UNL     1      70.068  38.128  38.360  1.00  0.00    -0.000 C 
BRANCH  20  21
ATOM     21  C   UNL     1      70.329  37.851  39.854  1.00  0.00    -0.000 C 
BRANCH  21  22
ATOM     22  C   UNL     1      69.839  38.949  40.819  1.00  0.00    -0.000 C 
BRANCH  22  23
ATOM     23  C   UNL     1      68.491  38.660  41.506  1.00  0.00    -0.000 C 
BRANCH  23  24
ATOM     24  C   UNL     1      67.446  39.785  41.383  1.00  0.00    -0.000 C 
BRANCH  24  25
ATOM     25  C   UNL     1      66.033  39.284  41.007  1.00  0.00    -0.003 C 
ATOM     26  C   UNL     1      65.981  37.769  40.815  1.00  0.00     0.004 C 
ENDBRANCH  24  25
ENDBRANCH  23  24
ENDBRANCH  22  23
ENDBRANCH  21  22
ENDBRANCH  20  21
ENDBRANCH  19  20
ENDBRANCH  18  19
ENDBRANCH  17  18
ENDBRANCH  16  17
ENDBRANCH  15  16
ENDBRANCH   1  15
TORSDOF 22
ENDMDL
MODEL 2
REMARK VINA RESULT:    -3.342      6.042      9.948
REMARK INTER + INTRA:         -11.676
REMARK INTER:                  -6.646
REMARK INTRA:                  -5.029
REMARK UNBOUND:                -4.036
REMARK SMILES CCCCCCCCCCCCCCCCCCCCCCCC(=O)[O-]
REMARK SMILES IDX 13 1 14 2 15 3 16 4 17 5 18 6 19 7 20 8 21 9 22 10 23 11
REMARK SMILES IDX 24 12 25 13 26 14 12 15 11 16 10 17 9 18 8 19 7 20 6 21 5 22
REMARK SMILES IDX 4 23 3 24 2 25 1 26
REMARK H PARENT
REMARK Flexibility Score: inf
ROOT
ATOM      1  C   UNL     1      68.781  36.954  45.480  1.00  0.00     0.000 C 
ENDROOT
BRANCH   1   2
ATOM      2  C   UNL     1      68.056  35.737  44.882  1.00  0.00     0.000 C 
BRANCH   2   3
ATOM      3  C   UNL     1      67.366  34.922  45.986  1.00  0.00     0.000 C 
BRANCH   3   4
ATOM      4  C   UNL     1      65.840  34.860  45.815  1.00  0.00     0.000 C 
BRANCH   4   5
ATOM      5  C   UNL     1      65.343  35.705  44.628  1.00  0.00     0.000 C 
BRANCH   5   6
ATOM      6  C   UNL     1      64.054  36.476  44.951  1.00  0.00     0.000 C 
BRANCH   6   7
ATOM      7  C   UNL     1      64.182  37.986  44.684  1.00  0.00     0.000 C 
BRANCH   7   8
ATOM      8  C   UNL     1      65.564  38.536  45.095  1.00  0.00     0.000 C 
BRANCH   8   9
ATOM      9  C   UNL     1      66.192  39.483  44.053  1.00  0.00     0.000 C 
BRANCH   9  10
ATOM     10  C   UNL     1      67.015  38.784  42.960  1.00  0.00     0.006 C 
BRANCH  10  11
ATOM     11  C   UNL     1      66.146  38.277  41.800  1.00  0.00     0.053 C 
BRANCH  11  12
ATOM     12  C   UNL     1      66.434  39.051  40.552  1.00  0.00     0.041 C 
ATOM     13  O   UNL     1      66.602  40.299  40.602  1.00  0.00    -0.550 OA
ATOM     14  O   UNL     1      66.564  38.387  39.338  1.00  0.00    -0.550 OA
ENDBRANCH  11  12
ENDBRANCH  10  11
ENDBRANCH   9  10
ENDBRANCH   8   9
ENDBRANCH   7   8
ENDBRANCH   6   7
ENDBRANCH   5   6
ENDBRANCH   4   5
ENDBRANCH   3   4
ENDBRANCH   2   3
ENDBRANCH   1   2
BRANCH   1  15
ATOM     15  C   UNL     1      68.658  37.030  47.009  1.00  0.00     0.000 C 
BRANCH  15  16
ATOM     16  C   UNL     1      68.388  38.460  47.513  1.00  0.00     0.000 C 
BRANCH  16  17
ATOM     17  C   UNL     1      67.107  38.568  48.367  1.00  0.00     0.000 C 
BRANCH  17  18
ATOM     18  C   UNL     1      66.500  37.212  48.777  1.00  0.00    -0.000 C 
BRANCH  18  19
ATOM     19  C   UNL     1      64.979  37.079  48.578  1.00  0.00    -0.000 C 
BRANCH  19  20
ATOM     20  C   UNL     1      64.154  38.323  48.969  1.00  0.00    -0.000 C 
BRANCH  20  21
ATOM     21  C   UNL     1      62.989  38.662  48.018  1.00  0.00    -0.000 C 
BRANCH  21  22
ATOM     22  C   UNL     1      62.926  40.133  47.559  1.00  0.00    -0.000 C 
BRANCH  22  23
ATOM     23  C   UNL     1      64.059  41.031  48.087  1.00  0.00    -0.000 C 
BRANCH  23  24
ATOM     24  C   UNL     1      65.084  41.475  47.026  1.00  0.00    -0.000 C 
BRANCH  24  25
ATOM     25  C   UNL     1      66.339  42.154  47.618  1.00  0.00    -0.003 C 
ATOM     26  C   UNL     1      67.413  42.422  46.565  1.00  0.00     0.004 C 
ENDBRANCH  24  25
ENDBRANCH  23  24
ENDBRANCH  22  23
ENDBRANCH  21  22
ENDBRANCH  20  21
ENDBRANCH  19  20
ENDBRANCH  18  19
ENDBRANCH  17  18
ENDBRANCH  16  17
ENDBRANCH  15  16
ENDBRANCH   1  15
TORSDOF 22
ENDMDL
MODEL 3
REMARK VINA RESULT:    -3.300      8.334     11.224
REMARK INTER + INTRA:         -11.581
REMARK INTER:                  -8.411
REMARK INTRA:                  -3.169
REMARK UNBOUND:                -4.036
REMARK SMILES CCCCCCCCCCCCCCCCCCCCCCCC(=O)[O-]
REMARK SMILES IDX 13 1 14 2 15 3 16 4 17 5 18 6 19 7 20 8 21 9 22 10 23 11
REMARK SMILES IDX 24 12 25 13 26 14 12 15 11 16 10 17 9 18 8 19 7 20 6 21 5 22
REMARK SMILES IDX 4 23 3 24 2 25 1 26
REMARK H PARENT
REMARK Flexibility Score: inf
ROOT
ATOM      1  C   UNL     1      66.007  41.919  47.666  1.00  0.00     0.000 C 
ENDROOT
BRANCH   1   2
ATOM      2  C   UNL     1      64.720  41.365  47.034  1.00  0.00     0.000 C 
BRANCH   2   3
ATOM      3  C   UNL     1      63.855  40.665  48.094  1.00  0.00     0.000 C 
BRANCH   3   4
ATOM      4  C   UNL     1      63.064  39.476  47.526  1.00  0.00     0.000 C 
BRANCH   4   5
ATOM      5  C   UNL     1      63.582  39.025  46.148  1.00  0.00     0.000 C 
BRANCH   5   6
ATOM      6  C   UNL     1      64.250  37.642  46.192  1.00  0.00     0.000 C 
BRANCH   6   7
ATOM      7  C   UNL     1      65.332  37.469  45.111  1.00  0.00     0.000 C 
BRANCH   7   8
ATOM      8  C   UNL     1      66.456  38.518  45.237  1.00  0.00     0.000 C 
BRANCH   8   9
ATOM      9  C   UNL     1      66.468  39.557  44.099  1.00  0.00     0.000 C 
BRANCH   9  10
ATOM     10  C   UNL     1      66.305  38.970  42.688  1.00  0.00     0.006 C 
BRANCH  10  11
ATOM     11  C   UNL     1      67.540  39.200  41.807  1.00  0.00     0.053 C 
BRANCH  11  12
ATOM     12  C   UNL     1      67.336  38.600  40.451  1.00  0.00     0.041 C 
ATOM     13  O   UNL     1      66.193  38.601  39.921  1.00  0.00    -0.550 OA
ATOM     14  O   UNL     1      68.418  38.082  39.751  1.00  0.00    -0.550 OA
ENDBRANCH  11  12
ENDBRANCH  10  11
ENDBRANCH   9  10
ENDBRANCH   8   9
ENDBRANCH   7   8
ENDBRANCH   6   7
ENDBRANCH   5   6
ENDBRANCH   4   5
ENDBRANCH   3   4
ENDBRANCH   2   3
ENDBRANCH   1   2
BRANCH   1  15
ATOM     15  C   UNL     1      67.212  40.983  47.486  1.00  0.00     0.000 C 
BRANCH  15  16
ATOM     16  C   UNL     1      67.575  40.226  48.777  1.00  0.00     0.000 C 
BRANCH  16  17
ATOM     17  C   UNL     1      68.089  38.795  48.513  1.00  0.00     0.000 C 
BRANCH  17  18
ATOM     18  C   UNL     1      67.294  37.691  49.237  1.00  0.00    -0.000 C 
BRANCH  18  19
ATOM     19  C   UNL     1      65.826  38.031  49.555  1.00  0.00    -0.000 C 
BRANCH  19  20
ATOM     20  C   UNL     1      65.439  37.940  51.046  1.00  0.00    -0.000 C 
BRANCH  20  21
ATOM     21  C   UNL     1      66.596  37.596  52.004  1.00  0.00    -0.000 C 
BRANCH  21  22
ATOM     22  C   UNL     1      67.160  38.788  52.804  1.00  0.00    -0.000 C 
BRANCH  22  23
ATOM     23  C   UNL     1      66.259  39.293  53.945  1.00  0.00    -0.000 C 
BRANCH  23  24
ATOM     24  C   UNL     1      65.502  38.192  54.712  1.00  0.00    -0.000 C 
BRANCH  24  25
ATOM     25  C   UNL     1      63.968  38.378  54.717  1.00  0.00    -0.003 C 
ATOM     26  C   UNL     1      63.549  39.779  55.156  1.00  0.00     0.004 C 
ENDBRANCH  24  25
ENDBRANCH  23  24
ENDBRANCH  22  23
ENDBRANCH  21  22
ENDBRANCH  20  21
ENDBRANCH  19  20
ENDBRANCH  18  19
ENDBRANCH  17  18
ENDBRANCH  16  17
ENDBRANCH  15  16
ENDBRANCH   1  15
TORSDOF 22
ENDMDL
MODEL 4
REMARK VINA RESULT:    -3.300      7.388     10.504
REMARK INTER + INTRA:         -11.579
REMARK INTER:                  -8.159
REMARK INTRA:                  -3.420
REMARK UNBOUND:                -4.036
REMARK SMILES CCCCCCCCCCCCCCCCCCCCCCCC(=O)[O-]
REMARK SMILES IDX 13 1 14 2 15 3 16 4 17 5 18 6 19 7 20 8 21 9 22 10 23 11
REMARK SMILES IDX 24 12 25 13 26 14 12 15 11 16 10 17 9 18 8 19 7 20 6 21 5 22
REMARK SMILES IDX 4 23 3 24 2 25 1 26
REMARK H PARENT
REMARK Flexibility Score: inf
ROOT
ATOM      1  C   UNL     1      64.213  40.027  48.054  1.00  0.00     0.000 C 
ENDROOT
BRANCH   1   2
ATOM      2  C   UNL     1      64.020  38.652  47.396  1.00  0.00     0.000 C 
BRANCH   2   3
ATOM      3  C   UNL     1      63.437  38.806  45.983  1.00  0.00     0.000 C 
BRANCH   3   4
ATOM      4  C   UNL     1      64.273  38.089  44.912  1.00  0.00     0.000 C 
BRANCH   4   5
ATOM      5  C   UNL     1      65.662  37.670  45.429  1.00  0.00     0.000 C 
BRANCH   5   6
ATOM      6  C   UNL     1      66.806  38.230  44.569  1.00  0.00     0.000 C 
BRANCH   6   7
ATOM      7  C   UNL     1      66.448  39.569  43.902  1.00  0.00     0.000 C 
BRANCH   7   8
ATOM      8  C   UNL     1      66.787  39.580  42.397  1.00  0.00     0.000 C 
BRANCH   8   9
ATOM      9  C   UNL     1      66.900  38.175  41.774  1.00  0.00     0.000 C 
BRANCH   9  10
ATOM     10  C   UNL     1      65.566  37.562  41.322  1.00  0.00     0.006 C 
BRANCH  10  11
ATOM     11  C   UNL     1      65.664  36.050  41.077  1.00  0.00     0.053 C 
BRANCH  11  12
ATOM     12  C   UNL     1      65.588  35.302  42.371  1.00  0.00     0.041 C 
ATOM     13  O   UNL     1      66.634  34.831  42.894  1.00  0.00    -0.550 OA
ATOM     14  O   UNL     1      64.370  35.165  43.023  1.00  0.00    -0.550 OA
ENDBRANCH  11  12
ENDBRANCH  10  11
ENDBRANCH   9  10
ENDBRANCH   8   9
ENDBRANCH   7   8
ENDBRANCH   6   7
ENDBRANCH   5   6
ENDBRANCH   4   5
ENDBRANCH   3   4
ENDBRANCH   2   3
ENDBRANCH   1   2
BRANCH   1  15
ATOM     15  C   UNL     1      64.336  41.167  47.032  1.00  0.00     0.000 C 
BRANCH  15  16
ATOM     16  C   UNL     1      65.799  41.559  46.752  1.00  0.00     0.000 C 
BRANCH  16  17
ATOM     17  C   UNL     1      66.548  42.036  48.014  1.00  0.00     0.000 C 
BRANCH  17  18
ATOM     18  C   UNL     1      67.577  41.027  48.562  1.00  0.00    -0.000 C 
BRANCH  18  19
ATOM     19  C   UNL     1      67.775  39.756  47.715  1.00  0.00    -0.000 C 
BRANCH  19  20
ATOM     20  C   UNL     1      67.728  38.429  48.500  1.00  0.00    -0.000 C 
BRANCH  20  21
ATOM     21  C   UNL     1      67.037  38.505  49.875  1.00  0.00    -0.000 C 
BRANCH  21  22
ATOM     22  C   UNL     1      67.631  37.581  50.958  1.00  0.00    -0.000 C 
BRANCH  22  23
ATOM     23  C   UNL     1      66.884  37.590  52.305  1.00  0.00    -0.000 C 
BRANCH  23  24
ATOM     24  C   UNL     1      66.990  38.908  53.097  1.00  0.00    -0.000 C 
BRANCH  24  25
ATOM     25  C   UNL     1      65.850  39.112  54.120  1.00  0.00    -0.003 C 
ATOM     26  C   UNL     1      66.103  40.297  55.051  1.00  0.00     0.004 C 
ENDBRANCH  24  25
ENDBRANCH  23  24
ENDBRANCH  22  23
ENDBRANCH  21  22
ENDBRANCH  20  21
ENDBRANCH  19  20
ENDBRANCH  18  19
ENDBRANCH  17  18
ENDBRANCH  16  17
ENDBRANCH  15  16
ENDBRANCH   1  15
TORSDOF 22
ENDMDL
MODEL 5
REMARK VINA RESULT:    -3.281      5.726      8.840
REMARK INTER + INTRA:         -11.536
REMARK INTER:                  -8.469
REMARK INTRA:                  -3.067
REMARK UNBOUND:                -4.036
REMARK SMILES CCCCCCCCCCCCCCCCCCCCCCCC(=O)[O-]
REMARK SMILES IDX 13 1 14 2 15 3 16 4 17 5 18 6 19 7 20 8 21 9 22 10 23 11
REMARK SMILES IDX 24 12 25 13 26 14 12 15 11 16 10 17 9 18 8 19 7 20 6 21 5 22
REMARK SMILES IDX 4 23 3 24 2 25 1 26
REMARK H PARENT
REMARK Flexibility Score: inf
ROOT
ATOM      1  C   UNL     1      66.553  39.573  44.064  1.00  0.00     0.000 C 
ENDROOT
BRANCH   1   2
ATOM      2  C   UNL     1      65.313  38.778  44.502  1.00  0.00     0.000 C 
BRANCH   2   3
ATOM      3  C   UNL     1      65.679  37.765  45.598  1.00  0.00     0.000 C 
BRANCH   3   4
ATOM      4  C   UNL     1      67.180  37.762  45.929  1.00  0.00     0.000 C 
BRANCH   4   5
ATOM      5  C   UNL     1      67.456  38.009  47.423  1.00  0.00     0.000 C 
BRANCH   5   6
ATOM      6  C   UNL     1      68.142  39.359  47.681  1.00  0.00     0.000 C 
BRANCH   6   7
ATOM      7  C   UNL     1      67.247  40.342  48.456  1.00  0.00     0.000 C 
BRANCH   7   8
ATOM      8  C   UNL     1      66.158  40.970  47.560  1.00  0.00     0.000 C 
BRANCH   8   9
ATOM      9  C   UNL     1      64.724  40.545  47.933  1.00  0.00     0.000 C 
BRANCH   9  10
ATOM     10  C   UNL     1      63.631  41.070  46.990  1.00  0.00     0.006 C 
BRANCH  10  11
ATOM     11  C   UNL     1      62.414  40.138  46.918  1.00  0.00     0.053 C 
BRANCH  11  12
ATOM     12  C   UNL     1      61.422  40.486  47.982  1.00  0.00     0.041 C 
ATOM     13  O   UNL     1      61.047  39.614  48.812  1.00  0.00    -0.550 OA
ATOM     14  O   UNL     1      60.944  41.786  48.088  1.00  0.00    -0.550 OA
ENDBRANCH  11  12
ENDBRANCH  10  11
ENDBRANCH   9  10
ENDBRANCH   8   9
ENDBRANCH   7   8
ENDBRANCH   6   7
ENDBRANCH   5   6
ENDBRANCH   4   5
ENDBRANCH   3   4
ENDBRANCH   2   3
ENDBRANCH   1   2
BRANCH   1  15
ATOM     15  C   UNL     1      66.932  39.328  42.595  1.00  0.00     0.000 C 
BRANCH  15  16
ATOM     16  C   UNL     1      65.927  38.417  41.866  1.00  0.00     0.000 C 
BRANCH  16  17
ATOM     17  C   UNL     1      66.173  38.343  40.345  1.00  0.00     0.000 C 
BRANCH  17  18
ATOM     18  C   UNL     1      67.159  39.399  39.808  1.00  0.00    -0.000 C 
BRANCH  18  19
ATOM     19  C   UNL     1      67.651  39.173  38.366  1.00  0.00    -0.000 C 
BRANCH  19  20
ATOM     20  C   UNL     1      68.025  40.453  37.591  1.00  0.00    -0.000 C 
BRANCH  20  21
ATOM     21  C   UNL     1      68.267  41.701  38.463  1.00  0.00    -0.000 C 
BRANCH  21  22
ATOM     22  C   UNL     1      69.705  42.258  38.425  1.00  0.00    -0.000 C 
BRANCH  22  23
ATOM     23  C   UNL     1      70.704  41.552  39.359  1.00  0.00    -0.000 C 
BRANCH  23  24
ATOM     24  C   UNL     1      71.531  40.433  38.699  1.00  0.00    -0.000 C 
BRANCH  24  25
ATOM     25  C   UNL     1      71.289  39.035  39.311  1.00  0.00    -0.003 C 
ATOM     26  C   UNL     1      70.647  39.105  40.696  1.00  0.00     0.004 C 
ENDBRANCH  24  25
ENDBRANCH  23  24
ENDBRANCH  22  23
ENDBRANCH  21  22
ENDBRANCH  20  21
ENDBRANCH  19  20
ENDBRANCH  18  19
ENDBRANCH  17  18
ENDBRANCH  16  17
ENDBRANCH  15  16
ENDBRANCH   1  15
TORSDOF 22
ENDMDL
MODEL 6
REMARK VINA RESULT:    -3.257      5.793      8.952
REMARK INTER + INTRA:         -11.482
REMARK INTER:                  -8.708
REMARK INTRA:                  -2.775
REMARK UNBOUND:                -4.036
REMARK SMILES CCCCCCCCCCCCCCCCCCCCCCCC(=O)[O-]
REMARK SMILES IDX 13 1 14 2 15 3 16 4 17 5 18 6 19 7 20 8 21 9 22 10 23 11
REMARK SMILES IDX 24 12 25 13 26 14 12 15 11 16 10 17 9 18 8 19 7 20 6 21 5 22
REMARK SMILES IDX 4 23 3 24 2 25 1 26
REMARK H PARENT
REMARK Flexibility Score: inf
ROOT
ATOM      1  C   UNL     1      64.825  38.743  44.834  1.00  0.00     0.000 C 
ENDROOT
BRANCH   1   2
ATOM      2  C   UNL     1      66.321  38.625  44.502  1.00  0.00     0.000 C 
BRANCH   2   3
ATOM      3  C   UNL     1      66.697  39.576  43.355  1.00  0.00     0.000 C 
BRANCH   3   4
ATOM      4  C   UNL     1      66.097  39.148  42.006  1.00  0.00     0.000 C 
BRANCH   4   5
ATOM      5  C   UNL     1      66.824  39.785  40.807  1.00  0.00     0.000 C 
BRANCH   5   6
ATOM      6  C   UNL     1      67.670  38.771  40.023  1.00  0.00     0.000 C 
BRANCH   6   7
ATOM      7  C   UNL     1      67.333  38.749  38.522  1.00  0.00     0.000 C 
BRANCH   7   8
ATOM      8  C   UNL     1      68.461  39.356  37.662  1.00  0.00     0.000 C 
BRANCH   8   9
ATOM      9  C   UNL     1      68.170  40.790  37.176  1.00  0.00     0.000 C 
BRANCH   9  10
ATOM     10  C   UNL     1      68.395  41.885  38.229  1.00  0.00     0.006 C 
BRANCH  10  11
ATOM     11  C   UNL     1      69.718  41.714  38.987  1.00  0.00     0.053 C 
BRANCH  11  12
ATOM     12  C   UNL     1      70.595  42.910  38.790  1.00  0.00     0.041 C 
ATOM     13  O   UNL     1      70.512  43.591  37.733  1.00  0.00    -0.550 OA
ATOM     14  O   UNL     1      71.472  43.301  39.793  1.00  0.00    -0.550 OA
ENDBRANCH  11  12
ENDBRANCH  10  11
ENDBRANCH   9  10
ENDBRANCH   8   9
ENDBRANCH   7   8
ENDBRANCH   6   7
ENDBRANCH   5   6
ENDBRANCH   4   5
ENDBRANCH   3   4
ENDBRANCH   2   3
ENDBRANCH   1   2
BRANCH   1  15
ATOM     15  C   UNL     1      64.419  37.920  46.065  1.00  0.00     0.000 C 
BRANCH  15  16
ATOM     16  C   UNL     1      63.520  38.707  47.037  1.00  0.00     0.000 C 
BRANCH  16  17
ATOM     17  C   UNL     1      63.584  40.233  46.816  1.00  0.00     0.000 C 
BRANCH  17  18
ATOM     18  C   UNL     1      64.597  40.964  47.718  1.00  0.00    -0.000 C 
BRANCH  18  19
ATOM     19  C   UNL     1      65.748  41.676  46.981  1.00  0.00    -0.000 C 
BRANCH  19  20
ATOM     20  C   UNL     1      67.165  41.315  47.472  1.00  0.00    -0.000 C 
BRANCH  20  21
ATOM     21  C   UNL     1      67.234  40.153  48.482  1.00  0.00    -0.000 C 
BRANCH  21  22
ATOM     22  C   UNL     1      67.586  38.779  47.875  1.00  0.00    -0.000 C 
BRANCH  22  23
ATOM     23  C   UNL     1      67.253  37.568  48.766  1.00  0.00    -0.000 C 
BRANCH  23  24
ATOM     24  C   UNL     1      66.126  37.804  49.789  1.00  0.00    -0.000 C 
BRANCH  24  25
ATOM     25  C   UNL     1      66.433  37.241  51.195  1.00  0.00    -0.003 C 
ATOM     26  C   UNL     1      65.806  38.076  52.311  1.00  0.00     0.004 C 
ENDBRANCH  24  25
ENDBRANCH  23  24
ENDBRANCH  22  23
ENDBRANCH  21  22
ENDBRANCH  20  21
ENDBRANCH  19  20
ENDBRANCH  18  19
ENDBRANCH  17  18
ENDBRANCH  16  17
ENDBRANCH  15  16
ENDBRANCH   1  15
TORSDOF 22
ENDMDL
MODEL 7
REMARK VINA RESULT:    -3.257      8.691     11.467
REMARK INTER + INTRA:         -11.482
REMARK INTER:                  -7.843
REMARK INTRA:                  -3.639
REMARK UNBOUND:                -4.036
REMARK SMILES CCCCCCCCCCCCCCCCCCCCCCCC(=O)[O-]
REMARK SMILES IDX 13 1 14 2 15 3 16 4 17 5 18 6 19 7 20 8 21 9 22 10 23 11
REMARK SMILES IDX 24 12 25 13 26 14 12 15 11 16 10 17 9 18 8 19 7 20 6 21 5 22
REMARK SMILES IDX 4 23 3 24 2 25 1 26
REMARK H PARENT
REMARK Flexibility Score: inf
ROOT
ATOM      1  C   UNL     1      67.579  39.898  48.334  1.00  0.00     0.000 C 
ENDROOT
BRANCH   1   2
ATOM      2  C   UNL     1      67.234  41.042  47.369  1.00  0.00     0.000 C 
BRANCH   2   3
ATOM      3  C   UNL     1      65.970  41.781  47.835  1.00  0.00     0.000 C 
BRANCH   3   4
ATOM      4  C   UNL     1      64.728  41.419  47.006  1.00  0.00     0.000 C 
BRANCH   4   5
ATOM      5  C   UNL     1      63.612  40.787  47.858  1.00  0.00     0.000 C 
BRANCH   5   6
ATOM      6  C   UNL     1      63.878  39.308  48.176  1.00  0.00     0.000 C 
BRANCH   6   7
ATOM      7  C   UNL     1      63.811  38.409  46.929  1.00  0.00     0.000 C 
BRANCH   7   8
ATOM      8  C   UNL     1      65.073  37.535  46.771  1.00  0.00     0.000 C 
BRANCH   8   9
ATOM      9  C   UNL     1      65.787  37.712  45.416  1.00  0.00     0.000 C 
BRANCH   9  10
ATOM     10  C   UNL     1      65.311  38.916  44.589  1.00  0.00     0.006 C 
BRANCH  10  11
ATOM     11  C   UNL     1      66.475  39.717  43.989  1.00  0.00     0.053 C 
BRANCH  11  12
ATOM     12  C   UNL     1      66.791  39.230  42.610  1.00  0.00     0.041 C 
ATOM     13  O   UNL     1      67.983  39.220  42.198  1.00  0.00    -0.550 OA
ATOM     14  O   UNL     1      65.777  38.745  41.795  1.00  0.00    -0.550 OA
ENDBRANCH  11  12
ENDBRANCH  10  11
ENDBRANCH   9  10
ENDBRANCH   8   9
ENDBRANCH   7   8
ENDBRANCH   6   7
ENDBRANCH   5   6
ENDBRANCH   4   5
ENDBRANCH   3   4
ENDBRANCH   2   3
ENDBRANCH   1   2
BRANCH   1  15
ATOM     15  C   UNL     1      68.542  38.869  47.723  1.00  0.00     0.000 C 
BRANCH  15  16
ATOM     16  C   UNL     1      68.942  37.764  48.718  1.00  0.00     0.000 C 
BRANCH  16  17
ATOM     17  C   UNL     1      68.043  36.514  48.625  1.00  0.00     0.000 C 
BRANCH  17  18
ATOM     18  C   UNL     1      67.609  35.939  49.987  1.00  0.00    -0.000 C 
BRANCH  18  19
ATOM     19  C   UNL     1      66.167  36.268  50.416  1.00  0.00    -0.000 C 
BRANCH  19  20
ATOM     20  C   UNL     1      65.880  37.763  50.667  1.00  0.00    -0.000 C 
BRANCH  20  21
ATOM     21  C   UNL     1      66.690  38.403  51.812  1.00  0.00    -0.000 C 
BRANCH  21  22
ATOM     22  C   UNL     1      66.194  38.066  53.233  1.00  0.00    -0.000 C 
BRANCH  22  23
ATOM     23  C   UNL     1      66.185  39.249  54.219  1.00  0.00    -0.000 C 
BRANCH  23  24
ATOM     24  C   UNL     1      64.838  39.498  54.922  1.00  0.00    -0.000 C 
BRANCH  24  25
ATOM     25  C   UNL     1      63.787  38.394  54.665  1.00  0.00    -0.003 C 
ATOM     26  C   UNL     1      63.675  37.409  55.827  1.00  0.00     0.004 C 
ENDBRANCH  24  25
ENDBRANCH  23  24
ENDBRANCH  22  23
ENDBRANCH  21  22
ENDBRANCH  20  21
ENDBRANCH  19  20
ENDBRANCH  18  19
ENDBRANCH  17  18
ENDBRANCH  16  17
ENDBRANCH  15  16
ENDBRANCH   1  15
TORSDOF 22
ENDMDL
MODEL 8
REMARK VINA RESULT:    -3.255      8.266     11.593
REMARK INTER + INTRA:         -11.477
REMARK INTER:                  -7.194
REMARK INTRA:                  -4.282
REMARK UNBOUND:                -4.036
REMARK SMILES CCCCCCCCCCCCCCCCCCCCCCCC(=O)[O-]
REMARK SMILES IDX 13 1 14 2 15 3 16 4 17 5 18 6 19 7 20 8 21 9 22 10 23 11
REMARK SMILES IDX 24 12 25 13 26 14 12 15 11 16 10 17 9 18 8 19 7 20 6 21 5 22
REMARK SMILES IDX 4 23 3 24 2 25 1 26
REMARK H PARENT
REMARK Flexibility Score: inf
ROOT
ATOM      1  C   UNL     1      68.749  35.646  48.987  1.00  0.00     0.000 C 
ENDROOT
BRANCH   1   2
ATOM      2  C   UNL     1      68.286  35.826  50.442  1.00  0.00     0.000 C 
BRANCH   2   3
ATOM      3  C   UNL     1      68.766  37.175  50.999  1.00  0.00     0.000 C 
BRANCH   3   4
ATOM      4  C   UNL     1      67.611  38.062  51.490  1.00  0.00     0.000 C 
BRANCH   4   5
ATOM      5  C   UNL     1      66.503  37.255  52.193  1.00  0.00     0.000 C 
BRANCH   5   6
ATOM      6  C   UNL     1      65.094  37.688  51.761  1.00  0.00     0.000 C 
BRANCH   6   7
ATOM      7  C   UNL     1      64.964  37.860  50.238  1.00  0.00     0.000 C 
BRANCH   7   8
ATOM      8  C   UNL     1      64.423  36.588  49.551  1.00  0.00     0.000 C 
BRANCH   8   9
ATOM      9  C   UNL     1      63.115  36.813  48.768  1.00  0.00     0.000 C 
BRANCH   9  10
ATOM     10  C   UNL     1      62.503  38.214  48.922  1.00  0.00     0.006 C 
BRANCH  10  11
ATOM     11  C   UNL     1      62.555  39.027  47.622  1.00  0.00     0.053 C 
BRANCH  11  12
ATOM     12  C   UNL     1      61.366  39.931  47.520  1.00  0.00     0.041 C 
ATOM     13  O   UNL     1      61.376  40.905  46.721  1.00  0.00    -0.550 OA
ATOM     14  O   UNL     1      60.229  39.671  48.274  1.00  0.00    -0.550 OA
ENDBRANCH  11  12
ENDBRANCH  10  11
ENDBRANCH   9  10
ENDBRANCH   8   9
ENDBRANCH   7   8
ENDBRANCH   6   7
ENDBRANCH   5   6
ENDBRANCH   4   5
ENDBRANCH   3   4
ENDBRANCH   2   3
ENDBRANCH   1   2
BRANCH   1  15
ATOM     15  C   UNL     1      67.595  35.731  47.977  1.00  0.00     0.000 C 
BRANCH  15  16
ATOM     16  C   UNL     1      67.334  37.169  47.492  1.00  0.00     0.000 C 
BRANCH  16  17
ATOM     17  C   UNL     1      68.630  37.985  47.299  1.00  0.00     0.000 C 
BRANCH  17  18
ATOM     18  C   UNL     1      68.610  39.377  47.960  1.00  0.00    -0.000 C 
BRANCH  18  19
ATOM     19  C   UNL     1      67.219  39.893  48.375  1.00  0.00    -0.000 C 
BRANCH  19  20
ATOM     20  C   UNL     1      66.868  41.310  47.875  1.00  0.00    -0.000 C 
BRANCH  20  21
ATOM     21  C   UNL     1      66.550  41.413  46.370  1.00  0.00    -0.000 C 
BRANCH  21  22
ATOM     22  C   UNL     1      65.706  40.257  45.798  1.00  0.00    -0.000 C 
BRANCH  22  23
ATOM     23  C   UNL     1      66.372  39.465  44.656  1.00  0.00    -0.000 C 
BRANCH  23  24
ATOM     24  C   UNL     1      65.412  38.591  43.828  1.00  0.00    -0.000 C 
BRANCH  24  25
ATOM     25  C   UNL     1      64.191  38.079  44.624  1.00  0.00    -0.003 C 
ATOM     26  C   UNL     1      64.429  36.701  45.241  1.00  0.00     0.004 C 
ENDBRANCH  24  25
ENDBRANCH  23  24
ENDBRANCH  22  23
ENDBRANCH  21  22
ENDBRANCH  20  21
ENDBRANCH  19  20
ENDBRANCH  18  19
ENDBRANCH  17  18
ENDBRANCH  16  17
ENDBRANCH  15  16
ENDBRANCH   1  15
TORSDOF 22
ENDMDL
MODEL 9
REMARK VINA RESULT:    -3.224      6.855      9.664
REMARK INTER + INTRA:         -11.406
REMARK INTER:                  -7.973
REMARK INTRA:                  -3.433
REMARK UNBOUND:                -4.036
REMARK SMILES CCCCCCCCCCCCCCCCCCCCCCCC(=O)[O-]
REMARK SMILES IDX 13 1 14 2 15 3 16 4 17 5 18 6 19 7 20 8 21 9 22 10 23 11
REMARK SMILES IDX 24 12 25 13 26 14 12 15 11 16 10 17 9 18 8 19 7 20 6 21 5 22
REMARK SMILES IDX 4 23 3 24 2 25 1 26
REMARK H PARENT
REMARK Flexibility Score: inf
ROOT
ATOM      1  C   UNL     1      66.257  41.745  47.773  1.00  0.00     0.000 C 
ENDROOT
BRANCH   1   2
ATOM      2  C   UNL     1      67.223  40.618  47.374  1.00  0.00     0.000 C 
BRANCH   2   3
ATOM      3  C   UNL     1      67.771  39.908  48.622  1.00  0.00     0.000 C 
BRANCH   3   4
ATOM      4  C   UNL     1      68.278  38.488  48.325  1.00  0.00     0.000 C 
BRANCH   4   5
ATOM      5  C   UNL     1      67.941  38.027  46.895  1.00  0.00     0.000 C 
BRANCH   5   6
ATOM      6  C   UNL     1      67.080  36.755  46.873  1.00  0.00     0.000 C 
BRANCH   6   7
ATOM      7  C   UNL     1      66.613  36.327  48.276  1.00  0.00     0.000 C 
BRANCH   7   8
ATOM      8  C   UNL     1      65.099  36.541  48.478  1.00  0.00     0.000 C 
BRANCH   8   9
ATOM      9  C   UNL     1      64.696  36.793  49.944  1.00  0.00     0.000 C 
BRANCH   9  10
ATOM     10  C   UNL     1      65.494  37.899  50.651  1.00  0.00     0.006 C 
BRANCH  10  11
ATOM     11  C   UNL     1      66.253  37.386  51.882  1.00  0.00     0.053 C 
BRANCH  11  12
ATOM     12  C   UNL     1      66.779  38.530  52.690  1.00  0.00     0.041 C 
ATOM     13  O   UNL     1      67.827  39.131  52.331  1.00  0.00    -0.550 OA
ATOM     14  O   UNL     1      66.088  38.964  53.814  1.00  0.00    -0.550 OA
ENDBRANCH  11  12
ENDBRANCH  10  11
ENDBRANCH   9  10
ENDBRANCH   8   9
ENDBRANCH   7   8
ENDBRANCH   6   7
ENDBRANCH   5   6
ENDBRANCH   4   5
ENDBRANCH   3   4
ENDBRANCH   2   3
ENDBRANCH   1   2
BRANCH   1  15
ATOM     15  C   UNL     1      64.797  41.439  47.407  1.00  0.00     0.000 C 
BRANCH  15  16
ATOM     16  C   UNL     1      64.426  39.961  47.629  1.00  0.00     0.000 C 
BRANCH  16  17
ATOM     17  C   UNL     1      63.769  39.311  46.393  1.00  0.00     0.000 C 
BRANCH  17  18
ATOM     18  C   UNL     1      64.733  39.068  45.215  1.00  0.00    -0.000 C 
BRANCH  18  19
ATOM     19  C   UNL     1      64.495  37.769  44.423  1.00  0.00    -0.000 C 
BRANCH  19  20
ATOM     20  C   UNL     1      65.348  37.611  43.147  1.00  0.00    -0.000 C 
BRANCH  20  21
ATOM     21  C   UNL     1      66.725  38.301  43.190  1.00  0.00    -0.000 C 
BRANCH  21  22
ATOM     22  C   UNL     1      66.911  39.456  42.185  1.00  0.00    -0.000 C 
BRANCH  22  23
ATOM     23  C   UNL     1      66.169  39.283  40.847  1.00  0.00    -0.000 C 
BRANCH  23  24
ATOM     24  C   UNL     1      67.061  39.359  39.594  1.00  0.00    -0.000 C 
BRANCH  24  25
ATOM     25  C   UNL     1      68.266  40.314  39.745  1.00  0.00    -0.003 C 
ATOM     26  C   UNL     1      68.260  41.435  38.706  1.00  0.00     0.004 C 
ENDBRANCH  24  25
ENDBRANCH  23  24
ENDBRANCH  22  23
ENDBRANCH  21  22
ENDBRANCH  20  21
ENDBRANCH  19  20
ENDBRANCH  18  19
ENDBRANCH  17  18
ENDBRANCH  16  17
ENDBRANCH  15  16
ENDBRANCH   1  15
TORSDOF 22
ENDMDL
