MODEL 1
REMARK VINA RESULT:    -5.464      0.000      0.000
REMARK INTER + INTRA:         -11.590
REMARK INTER:                  -9.936
REMARK INTRA:                  -1.654
REMARK UNBOUND:                -1.654
REMARK SMILES CCCCCCCCCCCCCC[C@H](C)C(=O)[O-]
REMARK SMILES IDX 9 1 10 2 11 3 12 4 13 5 14 6 15 7 16 8 17 9 18 10 19 11 8 12
REMARK SMILES IDX 7 13 6 14 5 15 4 16 3 17 2 18 1 19
REMARK H PARENT
REMARK Flexibility Score: inf
ROOT
ATOM      1  C   UNL     1      10.427  54.168  24.676  1.00  0.00     0.000 C 
ENDROOT
BRANCH   1   2
ATOM      2  C   UNL     1       9.255  55.047  25.147  1.00  0.00     0.000 C 
BRANCH   2   3
ATOM      3  C   UNL     1       8.077  54.226  25.698  1.00  0.00     0.000 C 
BRANCH   3   4
ATOM      4  C   UNL     1       7.226  53.594  24.585  1.00  0.00     0.000 C 
BRANCH   4   5
ATOM      5  C   UNL     1       6.903  54.579  23.452  1.00  0.00     0.001 C 
BRANCH   5   6
ATOM      6  C   UNL     1       6.929  53.873  22.086  1.00  0.00     0.009 C 
BRANCH   6   7
ATOM      7  C   UNL     1       7.620  54.714  20.992  1.00  0.00     0.032 C 
ATOM      8  C   UNL     1       7.457  56.223  21.225  1.00  0.00     0.014 C 
BRANCH   7   9
ATOM      9  C   UNL     1       7.071  54.347  19.639  1.00  0.00     0.044 C 
ATOM     10  O   UNL     1       6.416  53.282  19.482  1.00  0.00    -0.550 OA
ATOM     11  O   UNL     1       7.288  55.184  18.552  1.00  0.00    -0.550 OA
ENDBRANCH   7   9
ENDBRANCH   6   7
ENDBRANCH   5   6
ENDBRANCH   4   5
ENDBRANCH   3   4
ENDBRANCH   2   3
ENDBRANCH   1   2
BRANCH   1  12
ATOM     12  C   UNL     1      10.539  53.978  23.149  1.00  0.00     0.000 C 
BRANCH  12  13
ATOM     13  C   UNL     1      10.349  52.534  22.650  1.00  0.00    -0.000 C 
BRANCH  13  14
ATOM     14  C   UNL     1      10.112  51.533  23.794  1.00  0.00    -0.000 C 
BRANCH  14  15
ATOM     15  C   UNL     1      10.381  50.080  23.373  1.00  0.00    -0.000 C 
BRANCH  15  16
ATOM     16  C   UNL     1      10.631  49.148  24.572  1.00  0.00    -0.000 C 
BRANCH  16  17
ATOM     17  C   UNL     1      10.959  47.706  24.130  1.00  0.00    -0.000 C 
BRANCH  17  18
ATOM     18  C   UNL     1       9.890  46.679  24.538  1.00  0.00    -0.003 C 
ATOM     19  C   UNL     1      10.466  45.292  24.811  1.00  0.00     0.004 C 
ENDBRANCH  17  18
ENDBRANCH  16  17
ENDBRANCH  15  16
ENDBRANCH  14  15
ENDBRANCH  13  14
ENDBRANCH  12  13
ENDBRANCH   1  12
TORSDOF 14
ENDMDL
MODEL 2
REMARK VINA RESULT:    -5.007      5.120      7.083
REMARK INTER + INTRA:         -10.760
REMARK INTER:                  -9.528
REMARK INTRA:                  -1.232
REMARK UNBOUND:                -1.654
REMARK SMILES CCCCCCCCCCCCCC[C@H](C)C(=O)[O-]
REMARK SMILES IDX 9 1 10 2 11 3 12 4 13 5 14 6 15 7 16 8 17 9 18 10 19 11 8 12
REMARK SMILES IDX 7 13 6 14 5 15 4 16 3 17 2 18 1 19
REMARK H PARENT
REMARK Flexibility Score: inf
ROOT
ATOM      1  C   UNL     1       6.219  57.378  21.844  1.00  0.00     0.000 C 
ENDROOT
BRANCH   1   2
ATOM      2  C   UNL     1       4.799  57.279  22.429  1.00  0.00     0.000 C 
BRANCH   2   3
ATOM      3  C   UNL     1       3.885  58.429  21.972  1.00  0.00     0.000 C 
BRANCH   3   4
ATOM      4  C   UNL     1       2.409  58.009  21.879  1.00  0.00     0.000 C 
BRANCH   4   5
ATOM      5  C   UNL     1       1.554  59.012  21.091  1.00  0.00     0.001 C 
BRANCH   5   6
ATOM      6  C   UNL     1       1.938  59.009  19.602  1.00  0.00     0.009 C 
BRANCH   6   7
ATOM      7  C   UNL     1       0.957  59.822  18.731  1.00  0.00     0.032 C 
ATOM      8  C   UNL     1      -0.015  60.661  19.573  1.00  0.00     0.014 C 
BRANCH   7   9
ATOM      9  C   UNL     1       0.181  58.897  17.832  1.00  0.00     0.044 C 
ATOM     10  O   UNL     1       0.778  58.175  16.990  1.00  0.00    -0.550 OA
ATOM     11  O   UNL     1      -1.204  58.840  17.925  1.00  0.00    -0.550 OA
ENDBRANCH   7   9
ENDBRANCH   6   7
ENDBRANCH   5   6
ENDBRANCH   4   5
ENDBRANCH   3   4
ENDBRANCH   2   3
ENDBRANCH   1   2
BRANCH   1  12
ATOM     12  C   UNL     1       7.224  56.330  22.368  1.00  0.00     0.000 C 
BRANCH  12  13
ATOM     13  C   UNL     1       7.368  55.065  21.501  1.00  0.00    -0.000 C 
BRANCH  13  14
ATOM     14  C   UNL     1       6.741  53.821  22.152  1.00  0.00    -0.000 C 
BRANCH  14  15
ATOM     15  C   UNL     1       6.595  53.962  23.675  1.00  0.00    -0.000 C 
BRANCH  15  16
ATOM     16  C   UNL     1       7.722  53.256  24.451  1.00  0.00    -0.000 C 
BRANCH  16  17
ATOM     17  C   UNL     1       8.461  54.216  25.407  1.00  0.00    -0.000 C 
BRANCH  17  18
ATOM     18  C   UNL     1       9.761  54.790  24.818  1.00  0.00    -0.003 C 
ATOM     19  C   UNL     1      10.264  54.010  23.606  1.00  0.00     0.004 C 
ENDBRANCH  17  18
ENDBRANCH  16  17
ENDBRANCH  15  16
ENDBRANCH  14  15
ENDBRANCH  13  14
ENDBRANCH  12  13
ENDBRANCH   1  12
TORSDOF 14
ENDMDL
MODEL 3
REMARK VINA RESULT:    -4.970      4.354      8.936
REMARK INTER + INTRA:         -10.692
REMARK INTER:                  -9.605
REMARK INTRA:                  -1.087
REMARK UNBOUND:                -1.654
REMARK SMILES CCCCCCCCCCCCCC[C@H](C)C(=O)[O-]
REMARK SMILES IDX 9 1 10 2 11 3 12 4 13 5 14 6 15 7 16 8 17 9 18 10 19 11 8 12
REMARK SMILES IDX 7 13 6 14 5 15 4 16 3 17 2 18 1 19
REMARK H PARENT
REMARK Flexibility Score: inf
ROOT
ATOM      1  C   UNL     1       7.457  56.406  22.047  1.00  0.00     0.000 C 
ENDROOT
BRANCH   1   2
ATOM      2  C   UNL     1       7.630  55.122  21.214  1.00  0.00     0.000 C 
BRANCH   2   3
ATOM      3  C   UNL     1       7.061  53.877  21.914  1.00  0.00     0.000 C 
BRANCH   3   4
ATOM      4  C   UNL     1       6.493  54.191  23.308  1.00  0.00     0.000 C 
BRANCH   4   5
ATOM      5  C   UNL     1       7.275  53.503  24.438  1.00  0.00     0.001 C 
BRANCH   5   6
ATOM      6  C   UNL     1       8.372  54.429  24.988  1.00  0.00     0.009 C 
BRANCH   6   7
ATOM      7  C   UNL     1       9.743  53.728  25.104  1.00  0.00     0.032 C 
ATOM      8  C   UNL     1      10.810  54.635  25.732  1.00  0.00     0.014 C 
BRANCH   7   9
ATOM      9  C   UNL     1      10.201  53.271  23.745  1.00  0.00     0.044 C 
ATOM     10  O   UNL     1      10.546  54.109  22.871  1.00  0.00    -0.550 OA
ATOM     11  O   UNL     1      10.242  51.914  23.448  1.00  0.00    -0.550 OA
ENDBRANCH   7   9
ENDBRANCH   6   7
ENDBRANCH   5   6
ENDBRANCH   4   5
ENDBRANCH   3   4
ENDBRANCH   2   3
ENDBRANCH   1   2
BRANCH   1  12
ATOM     12  C   UNL     1       6.308  57.333  21.599  1.00  0.00     0.000 C 
BRANCH  12  13
ATOM     13  C   UNL     1       5.000  57.193  22.398  1.00  0.00    -0.000 C 
BRANCH  13  14
ATOM     14  C   UNL     1       4.110  58.446  22.311  1.00  0.00    -0.000 C 
BRANCH  14  15
ATOM     15  C   UNL     1       2.708  58.137  21.765  1.00  0.00    -0.000 C 
BRANCH  15  16
ATOM     16  C   UNL     1       1.584  58.612  22.704  1.00  0.00    -0.000 C 
BRANCH  16  17
ATOM     17  C   UNL     1       1.857  60.020  23.274  1.00  0.00    -0.000 C 
BRANCH  17  18
ATOM     18  C   UNL     1       0.739  60.539  24.194  1.00  0.00    -0.003 C 
ATOM     19  C   UNL     1      -0.035  59.419  24.885  1.00  0.00     0.004 C 
ENDBRANCH  17  18
ENDBRANCH  16  17
ENDBRANCH  15  16
ENDBRANCH  14  15
ENDBRANCH  13  14
ENDBRANCH  12  13
ENDBRANCH   1  12
TORSDOF 14
ENDMDL
MODEL 4
REMARK VINA RESULT:    -4.907      5.138      9.978
REMARK INTER + INTRA:         -10.577
REMARK INTER:                  -9.474
REMARK INTRA:                  -1.103
REMARK UNBOUND:                -1.654
REMARK SMILES CCCCCCCCCCCCCC[C@H](C)C(=O)[O-]
REMARK SMILES IDX 9 1 10 2 11 3 12 4 13 5 14 6 15 7 16 8 17 9 18 10 19 11 8 12
REMARK SMILES IDX 7 13 6 14 5 15 4 16 3 17 2 18 1 19
REMARK H PARENT
REMARK Flexibility Score: inf
ROOT
ATOM      1  C   UNL     1       4.748  57.800  22.120  1.00  0.00     0.000 C 
ENDROOT
BRANCH   1   2
ATOM      2  C   UNL     1       4.937  56.509  22.936  1.00  0.00     0.000 C 
BRANCH   2   3
ATOM      3  C   UNL     1       6.118  55.658  22.440  1.00  0.00     0.000 C 
BRANCH   3   4
ATOM      4  C   UNL     1       7.355  56.506  22.101  1.00  0.00     0.000 C 
BRANCH   4   5
ATOM      5  C   UNL     1       8.520  55.667  21.556  1.00  0.00     0.001 C 
BRANCH   5   6
ATOM      6  C   UNL     1       8.579  54.295  22.247  1.00  0.00     0.009 C 
BRANCH   6   7
ATOM      7  C   UNL     1       9.852  54.109  23.100  1.00  0.00     0.032 C 
ATOM      8  C   UNL     1      10.441  52.697  22.969  1.00  0.00     0.014 C 
BRANCH   7   9
ATOM      9  C   UNL     1       9.549  54.401  24.544  1.00  0.00     0.044 C 
ATOM     10  O   UNL     1       8.358  54.459  24.949  1.00  0.00    -0.550 OA
ATOM     11  O   UNL     1      10.589  54.613  25.442  1.00  0.00    -0.550 OA
ENDBRANCH   7   9
ENDBRANCH   6   7
ENDBRANCH   5   6
ENDBRANCH   4   5
ENDBRANCH   3   4
ENDBRANCH   2   3
ENDBRANCH   1   2
BRANCH   1  12
ATOM     12  C   UNL     1       3.289  58.283  21.976  1.00  0.00     0.000 C 
BRANCH  12  13
ATOM     13  C   UNL     1       2.820  59.287  23.045  1.00  0.00    -0.000 C 
BRANCH  13  14
ATOM     14  C   UNL     1       2.744  60.730  22.516  1.00  0.00    -0.000 C 
BRANCH  14  15
ATOM     15  C   UNL     1       2.478  60.791  21.004  1.00  0.00    -0.000 C 
BRANCH  15  16
ATOM     16  C   UNL     1       1.003  61.071  20.668  1.00  0.00    -0.000 C 
BRANCH  16  17
ATOM     17  C   UNL     1       0.381  59.956  19.801  1.00  0.00    -0.000 C 
BRANCH  17  18
ATOM     18  C   UNL     1       1.424  59.076  19.090  1.00  0.00    -0.003 C 
ATOM     19  C   UNL     1       1.650  59.475  17.633  1.00  0.00     0.004 C 
ENDBRANCH  17  18
ENDBRANCH  16  17
ENDBRANCH  15  16
ENDBRANCH  14  15
ENDBRANCH  13  14
ENDBRANCH  12  13
ENDBRANCH   1  12
TORSDOF 14
ENDMDL
MODEL 5
REMARK VINA RESULT:    -4.902      5.396      7.524
REMARK INTER + INTRA:         -10.569
REMARK INTER:                  -9.838
REMARK INTRA:                  -0.731
REMARK UNBOUND:                -1.654
REMARK SMILES CCCCCCCCCCCCCC[C@H](C)C(=O)[O-]
REMARK SMILES IDX 9 1 10 2 11 3 12 4 13 5 14 6 15 7 16 8 17 9 18 10 19 11 8 12
REMARK SMILES IDX 7 13 6 14 5 15 4 16 3 17 2 18 1 19
REMARK H PARENT
REMARK Flexibility Score: inf
ROOT
ATOM      1  C   UNL     1       5.113  56.809  22.475  1.00  0.00     0.000 C 
ENDROOT
BRANCH   1   2
ATOM      2  C   UNL     1       4.532  58.120  21.916  1.00  0.00     0.000 C 
BRANCH   2   3
ATOM      3  C   UNL     1       2.995  58.110  21.850  1.00  0.00     0.000 C 
BRANCH   3   4
ATOM      4  C   UNL     1       2.430  59.321  21.091  1.00  0.00     0.000 C 
BRANCH   4   5
ATOM      5  C   UNL     1       1.882  58.951  19.704  1.00  0.00     0.001 C 
BRANCH   5   6
ATOM      6  C   UNL     1       0.771  59.924  19.276  1.00  0.00     0.009 C 
BRANCH   6   7
ATOM      7  C   UNL     1       0.379  59.768  17.791  1.00  0.00     0.032 C 
ATOM      8  C   UNL     1       0.497  58.316  17.306  1.00  0.00     0.014 C 
BRANCH   7   9
ATOM      9  C   UNL     1       1.240  60.660  16.937  1.00  0.00     0.044 C 
ATOM     10  O   UNL     1       2.375  60.274  16.551  1.00  0.00    -0.550 OA
ATOM     11  O   UNL     1       0.784  61.921  16.573  1.00  0.00    -0.550 OA
ENDBRANCH   7   9
ENDBRANCH   6   7
ENDBRANCH   5   6
ENDBRANCH   4   5
ENDBRANCH   3   4
ENDBRANCH   2   3
ENDBRANCH   1   2
BRANCH   1  12
ATOM     12  C   UNL     1       6.643  56.800  22.682  1.00  0.00     0.000 C 
BRANCH  12  13
ATOM     13  C   UNL     1       7.479  56.619  21.402  1.00  0.00    -0.000 C 
BRANCH  13  14
ATOM     14  C   UNL     1       7.597  55.147  20.970  1.00  0.00    -0.000 C 
BRANCH  14  15
ATOM     15  C   UNL     1       7.793  54.196  22.160  1.00  0.00    -0.000 C 
BRANCH  15  16
ATOM     16  C   UNL     1       9.262  54.096  22.608  1.00  0.00    -0.000 C 
BRANCH  16  17
ATOM     17  C   UNL     1       9.394  53.614  24.068  1.00  0.00    -0.000 C 
BRANCH  17  18
ATOM     18  C   UNL     1       9.473  54.760  25.091  1.00  0.00    -0.003 C 
ATOM     19  C   UNL     1      10.738  54.714  25.945  1.00  0.00     0.004 C 
ENDBRANCH  17  18
ENDBRANCH  16  17
ENDBRANCH  15  16
ENDBRANCH  14  15
ENDBRANCH  13  14
ENDBRANCH  12  13
ENDBRANCH   1  12
TORSDOF 14
ENDMDL
MODEL 6
REMARK VINA RESULT:    -4.881      5.512     10.134
REMARK INTER + INTRA:         -10.530
REMARK INTER:                  -9.336
REMARK INTRA:                  -1.194
REMARK UNBOUND:                -1.654
REMARK SMILES CCCCCCCCCCCCCC[C@H](C)C(=O)[O-]
REMARK SMILES IDX 9 1 10 2 11 3 12 4 13 5 14 6 15 7 16 8 17 9 18 10 19 11 8 12
REMARK SMILES IDX 7 13 6 14 5 15 4 16 3 17 2 18 1 19
REMARK H PARENT
REMARK Flexibility Score: inf
ROOT
ATOM      1  C   UNL     1       4.895  57.662  22.741  1.00  0.00     0.000 C 
ENDROOT
BRANCH   1   2
ATOM      2  C   UNL     1       5.681  56.425  22.271  1.00  0.00     0.000 C 
BRANCH   2   3
ATOM      3  C   UNL     1       7.198  56.669  22.214  1.00  0.00     0.000 C 
BRANCH   3   4
ATOM      4  C   UNL     1       7.922  55.673  21.294  1.00  0.00     0.000 C 
BRANCH   4   5
ATOM      5  C   UNL     1       8.057  54.276  21.918  1.00  0.00     0.001 C 
BRANCH   5   6
ATOM      6  C   UNL     1       9.398  54.134  22.658  1.00  0.00     0.009 C 
BRANCH   6   7
ATOM      7  C   UNL     1       9.226  53.684  24.124  1.00  0.00     0.032 C 
ATOM      8  C   UNL     1       7.749  53.552  24.525  1.00  0.00     0.014 C 
BRANCH   7   9
ATOM      9  C   UNL     1       9.916  54.656  25.043  1.00  0.00     0.044 C 
ATOM     10  O   UNL     1      10.974  54.328  25.642  1.00  0.00    -0.550 OA
ATOM     11  O   UNL     1       9.383  55.924  25.238  1.00  0.00    -0.550 OA
ENDBRANCH   7   9
ENDBRANCH   6   7
ENDBRANCH   5   6
ENDBRANCH   4   5
ENDBRANCH   3   4
ENDBRANCH   2   3
ENDBRANCH   1   2
BRANCH   1  12
ATOM     12  C   UNL     1       3.674  58.037  21.875  1.00  0.00     0.000 C 
BRANCH  12  13
ATOM     13  C   UNL     1       3.474  59.545  21.636  1.00  0.00    -0.000 C 
BRANCH  13  14
ATOM     14  C   UNL     1       2.965  60.285  22.885  1.00  0.00    -0.000 C 
BRANCH  14  15
ATOM     15  C   UNL     1       1.758  59.588  23.533  1.00  0.00    -0.000 C 
BRANCH  15  16
ATOM     16  C   UNL     1       0.531  60.510  23.656  1.00  0.00    -0.000 C 
BRANCH  16  17
ATOM     17  C   UNL     1      -0.630  60.057  22.746  1.00  0.00    -0.000 C 
BRANCH  17  18
ATOM     18  C   UNL     1      -0.295  60.113  21.246  1.00  0.00    -0.003 C 
ATOM     19  C   UNL     1       0.103  61.509  20.773  1.00  0.00     0.004 C 
ENDBRANCH  17  18
ENDBRANCH  16  17
ENDBRANCH  15  16
ENDBRANCH  14  15
ENDBRANCH  13  14
ENDBRANCH  12  13
ENDBRANCH   1  12
TORSDOF 14
ENDMDL
MODEL 7
REMARK VINA RESULT:    -4.873      5.578      7.791
REMARK INTER + INTRA:         -10.516
REMARK INTER:                  -9.574
REMARK INTRA:                  -0.942
REMARK UNBOUND:                -1.654
REMARK SMILES CCCCCCCCCCCCCC[C@H](C)C(=O)[O-]
REMARK SMILES IDX 9 1 10 2 11 3 12 4 13 5 14 6 15 7 16 8 17 9 18 10 19 11 8 12
REMARK SMILES IDX 7 13 6 14 5 15 4 16 3 17 2 18 1 19
REMARK H PARENT
REMARK Flexibility Score: inf
ROOT
ATOM      1  C   UNL     1       4.328  58.223  22.020  1.00  0.00     0.000 C 
ENDROOT
BRANCH   1   2
ATOM      2  C   UNL     1       3.285  58.841  22.969  1.00  0.00     0.000 C 
BRANCH   2   3
ATOM      3  C   UNL     1       2.809  60.229  22.507  1.00  0.00     0.000 C 
BRANCH   3   4
ATOM      4  C   UNL     1       2.856  60.390  20.979  1.00  0.00     0.000 C 
BRANCH   4   5
ATOM      5  C   UNL     1       1.514  60.068  20.305  1.00  0.00     0.001 C 
BRANCH   5   6
ATOM      6  C   UNL     1       1.672  58.928  19.285  1.00  0.00     0.009 C 
BRANCH   6   7
ATOM      7  C   UNL     1       1.138  59.301  17.885  1.00  0.00     0.032 C 
ATOM      8  C   UNL     1       0.864  60.805  17.746  1.00  0.00     0.014 C 
BRANCH   7   9
ATOM      9  C   UNL     1      -0.120  58.528  17.593  1.00  0.00     0.044 C 
ATOM     10  O   UNL     1      -1.240  58.959  17.975  1.00  0.00    -0.550 OA
ATOM     11  O   UNL     1      -0.049  57.325  16.901  1.00  0.00    -0.550 OA
ENDBRANCH   7   9
ENDBRANCH   6   7
ENDBRANCH   5   6
ENDBRANCH   4   5
ENDBRANCH   3   4
ENDBRANCH   2   3
ENDBRANCH   1   2
BRANCH   1  12
ATOM     12  C   UNL     1       5.143  57.052  22.608  1.00  0.00     0.000 C 
BRANCH  12  13
ATOM     13  C   UNL     1       6.605  56.963  22.131  1.00  0.00    -0.000 C 
BRANCH  13  14
ATOM     14  C   UNL     1       6.980  55.562  21.617  1.00  0.00    -0.000 C 
BRANCH  14  15
ATOM     15  C   UNL     1       8.206  54.978  22.336  1.00  0.00    -0.000 C 
BRANCH  15  16
ATOM     16  C   UNL     1       7.850  53.804  23.266  1.00  0.00    -0.000 C 
BRANCH  16  17
ATOM     17  C   UNL     1       8.130  54.130  24.748  1.00  0.00    -0.000 C 
BRANCH  17  18
ATOM     18  C   UNL     1       9.177  55.240  24.947  1.00  0.00    -0.003 C 
ATOM     19  C   UNL     1      10.423  54.761  25.688  1.00  0.00     0.004 C 
ENDBRANCH  17  18
ENDBRANCH  16  17
ENDBRANCH  15  16
ENDBRANCH  14  15
ENDBRANCH  13  14
ENDBRANCH  12  13
ENDBRANCH   1  12
TORSDOF 14
ENDMDL
MODEL 8
REMARK VINA RESULT:    -4.770      5.254      7.151
REMARK INTER + INTRA:         -10.329
REMARK INTER:                  -9.316
REMARK INTRA:                  -1.013
REMARK UNBOUND:                -1.654
REMARK SMILES CCCCCCCCCCCCCC[C@H](C)C(=O)[O-]
REMARK SMILES IDX 9 1 10 2 11 3 12 4 13 5 14 6 15 7 16 8 17 9 18 10 19 11 8 12
REMARK SMILES IDX 7 13 6 14 5 15 4 16 3 17 2 18 1 19
REMARK H PARENT
REMARK Flexibility Score: inf
ROOT
ATOM      1  C   UNL     1       6.973  57.031  22.065  1.00  0.00     0.000 C 
ENDROOT
BRANCH   1   2
ATOM      2  C   UNL     1       5.497  56.632  22.238  1.00  0.00     0.000 C 
BRANCH   2   3
ATOM      3  C   UNL     1       4.632  57.774  22.797  1.00  0.00     0.000 C 
BRANCH   3   4
ATOM      4  C   UNL     1       3.887  58.544  21.694  1.00  0.00     0.000 C 
BRANCH   4   5
ATOM      5  C   UNL     1       3.175  59.799  22.222  1.00  0.00     0.001 C 
BRANCH   5   6
ATOM      6  C   UNL     1       2.147  59.432  23.304  1.00  0.00     0.009 C 
BRANCH   6   7
ATOM      7  C   UNL     1       1.004  60.464  23.416  1.00  0.00     0.032 C 
ATOM      8  C   UNL     1       0.110  60.215  24.639  1.00  0.00     0.014 C 
BRANCH   7   9
ATOM      9  C   UNL     1       0.168  60.442  22.165  1.00  0.00     0.044 C 
ATOM     10  O   UNL     1      -0.120  59.350  21.607  1.00  0.00    -0.550 OA
ATOM     11  O   UNL     1      -0.288  61.634  21.614  1.00  0.00    -0.550 OA
ENDBRANCH   7   9
ENDBRANCH   6   7
ENDBRANCH   5   6
ENDBRANCH   4   5
ENDBRANCH   3   4
ENDBRANCH   2   3
ENDBRANCH   1   2
BRANCH   1  12
ATOM     12  C   UNL     1       7.949  55.862  21.817  1.00  0.00     0.000 C 
BRANCH  12  13
ATOM     13  C   UNL     1       7.341  54.635  21.113  1.00  0.00    -0.000 C 
BRANCH  13  14
ATOM     14  C   UNL     1       7.004  53.493  22.088  1.00  0.00    -0.000 C 
BRANCH  14  15
ATOM     15  C   UNL     1       8.030  53.367  23.225  1.00  0.00    -0.000 C 
BRANCH  15  16
ATOM     16  C   UNL     1       7.406  53.572  24.617  1.00  0.00    -0.000 C 
BRANCH  16  17
ATOM     17  C   UNL     1       8.340  54.356  25.563  1.00  0.00    -0.000 C 
BRANCH  17  18
ATOM     18  C   UNL     1       9.724  54.646  24.960  1.00  0.00    -0.003 C 
ATOM     19  C   UNL     1      10.840  54.661  26.002  1.00  0.00     0.004 C 
ENDBRANCH  17  18
ENDBRANCH  16  17
ENDBRANCH  15  16
ENDBRANCH  14  15
ENDBRANCH  13  14
ENDBRANCH  12  13
ENDBRANCH   1  12
TORSDOF 14
ENDMDL
MODEL 9
REMARK VINA RESULT:    -4.689      4.443      8.507
REMARK INTER + INTRA:         -10.181
REMARK INTER:                  -8.796
REMARK INTRA:                  -1.385
REMARK UNBOUND:                -1.654
REMARK SMILES CCCCCCCCCCCCCC[C@H](C)C(=O)[O-]
REMARK SMILES IDX 9 1 10 2 11 3 12 4 13 5 14 6 15 7 16 8 17 9 18 10 19 11 8 12
REMARK SMILES IDX 7 13 6 14 5 15 4 16 3 17 2 18 1 19
REMARK H PARENT
REMARK Flexibility Score: inf
ROOT
ATOM      1  C   UNL     1      10.241  52.385  22.700  1.00  0.00     0.000 C 
ENDROOT
BRANCH   1   2
ATOM      2  C   UNL     1       9.858  51.346  23.770  1.00  0.00     0.000 C 
BRANCH   2   3
ATOM      3  C   UNL     1      10.785  50.118  23.766  1.00  0.00     0.000 C 
BRANCH   3   4
ATOM      4  C   UNL     1      10.216  48.948  24.585  1.00  0.00     0.000 C 
BRANCH   4   5
ATOM      5  C   UNL     1      11.308  48.003  25.110  1.00  0.00     0.001 C 
BRANCH   5   6
ATOM      6  C   UNL     1      11.344  48.006  26.647  1.00  0.00     0.009 C 
BRANCH   6   7
ATOM      7  C   UNL     1      12.713  47.573  27.213  1.00  0.00     0.032 C 
ATOM      8  C   UNL     1      12.766  46.071  27.527  1.00  0.00     0.014 C 
BRANCH   7   9
ATOM      9  C   UNL     1      13.028  48.363  28.455  1.00  0.00     0.044 C 
ATOM     10  O   UNL     1      14.078  49.056  28.523  1.00  0.00    -0.550 OA
ATOM     11  O   UNL     1      12.159  48.326  29.538  1.00  0.00    -0.550 OA
ENDBRANCH   7   9
ENDBRANCH   6   7
ENDBRANCH   5   6
ENDBRANCH   4   5
ENDBRANCH   3   4
ENDBRANCH   2   3
ENDBRANCH   1   2
BRANCH   1  12
ATOM     12  C   UNL     1      10.566  53.795  23.236  1.00  0.00     0.000 C 
BRANCH  12  13
ATOM     13  C   UNL     1      10.181  54.046  24.705  1.00  0.00    -0.000 C 
BRANCH  13  14
ATOM     14  C   UNL     1       8.906  54.895  24.851  1.00  0.00    -0.000 C 
BRANCH  14  15
ATOM     15  C   UNL     1       7.627  54.043  24.855  1.00  0.00    -0.000 C 
BRANCH  15  16
ATOM     16  C   UNL     1       6.864  54.106  23.520  1.00  0.00    -0.000 C 
BRANCH  16  17
ATOM     17  C   UNL     1       6.788  55.542  22.960  1.00  0.00    -0.000 C 
BRANCH  17  18
ATOM     18  C   UNL     1       7.152  55.641  21.469  1.00  0.00    -0.003 C 
ATOM     19  C   UNL     1       7.681  54.329  20.894  1.00  0.00     0.004 C 
ENDBRANCH  17  18
ENDBRANCH  16  17
ENDBRANCH  15  16
ENDBRANCH  14  15
ENDBRANCH  13  14
ENDBRANCH  12  13
ENDBRANCH   1  12
TORSDOF 14
ENDMDL
