MODEL 1
REMARK VINA RESULT:    -6.902      0.000      0.000
REMARK INTER + INTRA:          -8.872
REMARK INTER:                  -8.516
REMARK INTRA:                  -0.356
REMARK UNBOUND:                -0.356
REMARK SMILES O=c1c(O)c(-c2cc(O)c(O)c(O)c2)oc2cc(O)cc(O)c12
REMARK SMILES IDX 5 1 3 2 2 3 1 4 23 5 21 6 20 7 18 8 17 9 16 10 15 11 6 12
REMARK SMILES IDX 7 13 8 14 14 15 10 16 12 17 9 18 11 20 13 22 4 24 22 26
REMARK SMILES IDX 19 28
REMARK H PARENT 9 19 11 21 13 23 4 25 22 27 19 29
REMARK Flexibility Score: inf
ROOT
ATOM      1  C   UNL     1      21.219   6.320  31.223  1.00  0.00     0.180 A 
ATOM      2  C   UNL     1      19.870   6.695  31.356  1.00  0.00     0.208 A 
ATOM      3  C   UNL     1      19.300   7.538  30.389  1.00  0.00     0.238 A 
ATOM      4  O   UNL     1      18.074   7.809  30.472  1.00  0.00    -0.285 OA
ATOM      5  C   UNL     1      20.099   8.041  29.332  1.00  0.00     0.111 A 
ATOM      6  C   UNL     1      19.637   8.938  28.321  1.00  0.00     0.134 A 
ATOM      7  C   UNL     1      20.489   9.283  27.264  1.00  0.00     0.093 A 
ATOM      8  C   UNL     1      21.802   8.818  27.215  1.00  0.00     0.123 A 
ATOM      9  C   UNL     1      22.281   7.986  28.226  1.00  0.00     0.094 A 
ATOM     10  C   UNL     1      21.444   7.591  29.273  1.00  0.00     0.146 A 
ATOM     11  O   UNL     1      21.933   6.781  30.204  1.00  0.00    -0.452 OA
ENDROOT
BRANCH   1  12
ATOM     12  C   UNL     1      21.886   5.424  32.195  1.00  0.00     0.029 A 
ATOM     13  C   UNL     1      22.700   5.975  33.195  1.00  0.00     0.062 A 
ATOM     14  C   UNL     1      23.361   5.148  34.114  1.00  0.00     0.162 A 
ATOM     15  C   UNL     1      21.769   4.026  32.101  1.00  0.00     0.062 A 
ATOM     16  C   UNL     1      23.222   3.753  34.027  1.00  0.00     0.200 A 
ATOM     17  C   UNL     1      22.426   3.193  33.012  1.00  0.00     0.162 A 
BRANCH  14  18
ATOM     18  O   UNL     1      24.156   5.710  35.112  1.00  0.00    -0.504 OA
ATOM     19  H   UNL     1      23.782   6.376  35.778  1.00  0.00     0.293 HD
ENDBRANCH  14  18
BRANCH  16  20
ATOM     20  O   UNL     1      23.870   2.914  34.936  1.00  0.00    -0.502 OA
ATOM     21  H   UNL     1      24.782   2.514  34.746  1.00  0.00     0.293 HD
ENDBRANCH  16  20
BRANCH  17  22
ATOM     22  O   UNL     1      22.281   1.812  32.891  1.00  0.00    -0.504 OA
ATOM     23  H   UNL     1      21.483   1.392  32.429  1.00  0.00     0.293 HD
ENDBRANCH  17  22
ENDBRANCH   1  12
BRANCH   2  24
ATOM     24  O   UNL     1      19.121   6.250  32.448  1.00  0.00    -0.502 OA
ATOM     25  H   UNL     1      18.146   5.988  32.367  1.00  0.00     0.293 HD
ENDBRANCH   2  24
BRANCH   6  26
ATOM     26  O   UNL     1      18.372   9.532  28.319  1.00  0.00    -0.507 OA
ATOM     27  H   UNL     1      18.175  10.471  28.008  1.00  0.00     0.293 HD
ENDBRANCH   6  26
BRANCH   8  28
ATOM     28  O   UNL     1      22.626   9.198  26.158  1.00  0.00    -0.508 OA
ATOM     29  H   UNL     1      23.538   8.778  26.019  1.00  0.00     0.293 HD
ENDBRANCH   8  28
TORSDOF 7
ENDMDL
MODEL 2
REMARK VINA RESULT:    -6.655     10.925     13.240
REMARK INTER + INTRA:          -8.567
REMARK INTER:                  -8.209
REMARK INTRA:                  -0.357
REMARK UNBOUND:                -0.356
REMARK SMILES O=c1c(O)c(-c2cc(O)c(O)c(O)c2)oc2cc(O)cc(O)c12
REMARK SMILES IDX 5 1 3 2 2 3 1 4 23 5 21 6 20 7 18 8 17 9 16 10 15 11 6 12
REMARK SMILES IDX 7 13 8 14 14 15 10 16 12 17 9 18 11 20 13 22 4 24 22 26
REMARK SMILES IDX 19 28
REMARK H PARENT 9 19 11 21 13 23 4 25 22 27 19 29
REMARK Flexibility Score: inf
ROOT
ATOM      1  C   UNL     1      27.730   0.874  23.083  1.00  0.00     0.180 A 
ATOM      2  C   UNL     1      27.569   0.636  21.707  1.00  0.00     0.208 A 
ATOM      3  C   UNL     1      28.168  -0.499  21.138  1.00  0.00     0.238 A 
ATOM      4  O   UNL     1      27.957  -0.746  19.922  1.00  0.00    -0.285 OA
ATOM      5  C   UNL     1      28.966  -1.351  21.939  1.00  0.00     0.111 A 
ATOM      6  C   UNL     1      29.657  -2.505  21.458  1.00  0.00     0.134 A 
ATOM      7  C   UNL     1      30.330  -3.334  22.365  1.00  0.00     0.093 A 
ATOM      8  C   UNL     1      30.392  -3.019  23.721  1.00  0.00     0.123 A 
ATOM      9  C   UNL     1      29.767  -1.865  24.194  1.00  0.00     0.094 A 
ATOM     10  C   UNL     1      29.055  -1.038  23.321  1.00  0.00     0.146 A 
ATOM     11  O   UNL     1      28.457   0.039  23.815  1.00  0.00    -0.452 OA
ENDROOT
BRANCH   1  12
ATOM     12  C   UNL     1      27.118   2.042  23.758  1.00  0.00     0.029 A 
ATOM     13  C   UNL     1      25.817   1.936  24.273  1.00  0.00     0.062 A 
ATOM     14  C   UNL     1      25.206   3.033  24.896  1.00  0.00     0.162 A 
ATOM     15  C   UNL     1      27.789   3.273  23.842  1.00  0.00     0.062 A 
ATOM     16  C   UNL     1      25.893   4.255  24.995  1.00  0.00     0.200 A 
ATOM     17  C   UNL     1      27.187   4.373  24.461  1.00  0.00     0.162 A 
BRANCH  14  18
ATOM     18  O   UNL     1      23.918   2.911  25.417  1.00  0.00    -0.504 OA
ATOM     19  H   UNL     1      23.196   2.390  24.933  1.00  0.00     0.293 HD
ENDBRANCH  14  18
BRANCH  16  20
ATOM     20  O   UNL     1      25.300   5.357  25.617  1.00  0.00    -0.502 OA
ATOM     21  H   UNL     1      25.009   6.177  25.098  1.00  0.00     0.293 HD
ENDBRANCH  16  20
BRANCH  17  22
ATOM     22  O   UNL     1      27.887   5.577  24.530  1.00  0.00    -0.504 OA
ATOM     23  H   UNL     1      28.878   5.613  24.740  1.00  0.00     0.293 HD
ENDBRANCH  17  22
ENDBRANCH   1  12
BRANCH   2  24
ATOM     24  O   UNL     1      26.841   1.532  20.919  1.00  0.00    -0.502 OA
ATOM     25  H   UNL     1      27.238   1.986  20.105  1.00  0.00     0.293 HD
ENDBRANCH   2  24
BRANCH   6  26
ATOM     26  O   UNL     1      29.735  -2.867  20.110  1.00  0.00    -0.507 OA
ATOM     27  H   UNL     1      29.027  -2.672  19.418  1.00  0.00     0.293 HD
ENDBRANCH   6  26
BRANCH   8  28
ATOM     28  O   UNL     1      31.086  -3.857  24.591  1.00  0.00    -0.508 OA
ATOM     29  H   UNL     1      32.067  -3.710  24.799  1.00  0.00     0.293 HD
ENDBRANCH   8  28
TORSDOF 7
ENDMDL
MODEL 3
REMARK VINA RESULT:    -6.524     10.420     12.572
REMARK INTER + INTRA:          -8.406
REMARK INTER:                  -8.065
REMARK INTRA:                  -0.341
REMARK UNBOUND:                -0.356
REMARK SMILES O=c1c(O)c(-c2cc(O)c(O)c(O)c2)oc2cc(O)cc(O)c12
REMARK SMILES IDX 5 1 3 2 2 3 1 4 23 5 21 6 20 7 18 8 17 9 16 10 15 11 6 12
REMARK SMILES IDX 7 13 8 14 14 15 10 16 12 17 9 18 11 20 13 22 4 24 22 26
REMARK SMILES IDX 19 28
REMARK H PARENT 9 19 11 21 13 23 4 25 22 27 19 29
REMARK Flexibility Score: inf
ROOT
ATOM      1  C   UNL     1      27.139   1.418  23.069  1.00  0.00     0.180 A 
ATOM      2  C   UNL     1      26.590   1.077  21.821  1.00  0.00     0.208 A 
ATOM      3  C   UNL     1      27.071  -0.061  21.154  1.00  0.00     0.238 A 
ATOM      4  O   UNL     1      26.524  -0.403  20.073  1.00  0.00    -0.285 OA
ATOM      5  C   UNL     1      28.132  -0.812  21.716  1.00  0.00     0.111 A 
ATOM      6  C   UNL     1      28.728  -1.958  21.106  1.00  0.00     0.134 A 
ATOM      7  C   UNL     1      29.700  -2.685  21.805  1.00  0.00     0.093 A 
ATOM      8  C   UNL     1      30.143  -2.273  23.061  1.00  0.00     0.123 A 
ATOM      9  C   UNL     1      29.608  -1.125  23.643  1.00  0.00     0.094 A 
ATOM     10  C   UNL     1      28.608  -0.400  22.988  1.00  0.00     0.146 A 
ATOM     11  O   UNL     1      28.111   0.676  23.586  1.00  0.00    -0.452 OA
ENDROOT
BRANCH   1  12
ATOM     12  C   UNL     1      26.675   2.595  23.839  1.00  0.00     0.029 A 
ATOM     13  C   UNL     1      27.455   3.760  23.853  1.00  0.00     0.062 A 
ATOM     14  C   UNL     1      27.050   4.881  24.591  1.00  0.00     0.162 A 
ATOM     15  C   UNL     1      25.498   2.550  24.605  1.00  0.00     0.062 A 
ATOM     16  C   UNL     1      25.861   4.836  25.338  1.00  0.00     0.200 A 
ATOM     17  C   UNL     1      25.087   3.663  25.346  1.00  0.00     0.162 A 
BRANCH  14  18
ATOM     18  O   UNL     1      27.827   6.039  24.585  1.00  0.00    -0.504 OA
ATOM     19  H   UNL     1      27.410   6.959  24.512  1.00  0.00     0.293 HD
ENDBRANCH  14  18
BRANCH  16  20
ATOM     20  O   UNL     1      25.441   5.945  26.076  1.00  0.00    -0.502 OA
ATOM     21  H   UNL     1      25.237   6.837  25.641  1.00  0.00     0.293 HD
ENDBRANCH  16  20
BRANCH  17  22
ATOM     22  O   UNL     1      23.910   3.582  26.089  1.00  0.00    -0.504 OA
ATOM     23  H   UNL     1      23.446   2.700  26.271  1.00  0.00     0.293 HD
ENDBRANCH  17  22
ENDBRANCH   1  12
BRANCH   2  24
ATOM     24  O   UNL     1      25.597   1.876  21.247  1.00  0.00    -0.502 OA
ATOM     25  H   UNL     1      25.074   2.559  21.781  1.00  0.00     0.293 HD
ENDBRANCH   2  24
BRANCH   6  26
ATOM     26  O   UNL     1      28.424  -2.407  19.818  1.00  0.00    -0.507 OA
ATOM     27  H   UNL     1      27.513  -2.353  19.387  1.00  0.00     0.293 HD
ENDBRANCH   6  26
BRANCH   8  28
ATOM     28  O   UNL     1      31.125  -3.011  23.719  1.00  0.00    -0.508 OA
ATOM     29  H   UNL     1      31.297  -2.899  24.711  1.00  0.00     0.293 HD
ENDBRANCH   8  28
TORSDOF 7
ENDMDL
MODEL 4
REMARK VINA RESULT:    -6.077     11.258     13.275
REMARK INTER + INTRA:          -7.853
REMARK INTER:                  -7.529
REMARK INTRA:                  -0.324
REMARK UNBOUND:                -0.356
REMARK SMILES O=c1c(O)c(-c2cc(O)c(O)c(O)c2)oc2cc(O)cc(O)c12
REMARK SMILES IDX 5 1 3 2 2 3 1 4 23 5 21 6 20 7 18 8 17 9 16 10 15 11 6 12
REMARK SMILES IDX 7 13 8 14 14 15 10 16 12 17 9 18 11 20 13 22 4 24 22 26
REMARK SMILES IDX 19 28
REMARK H PARENT 9 19 11 21 13 23 4 25 22 27 19 29
REMARK Flexibility Score: inf
ROOT
ATOM      1  C   UNL     1      28.203   1.026  21.999  1.00  0.00     0.180 A 
ATOM      2  C   UNL     1      29.143   2.069  21.933  1.00  0.00     0.208 A 
ATOM      3  C   UNL     1      28.933   3.224  22.702  1.00  0.00     0.238 A 
ATOM      4  O   UNL     1      29.815   4.122  22.697  1.00  0.00    -0.285 OA
ATOM      5  C   UNL     1      27.758   3.347  23.483  1.00  0.00     0.111 A 
ATOM      6  C   UNL     1      27.419   4.492  24.267  1.00  0.00     0.134 A 
ATOM      7  C   UNL     1      26.283   4.458  25.085  1.00  0.00     0.093 A 
ATOM      8  C   UNL     1      25.438   3.348  25.099  1.00  0.00     0.123 A 
ATOM      9  C   UNL     1      25.729   2.246  24.296  1.00  0.00     0.094 A 
ATOM     10  C   UNL     1      26.877   2.234  23.499  1.00  0.00     0.146 A 
ATOM     11  O   UNL     1      27.127   1.156  22.765  1.00  0.00    -0.452 OA
ENDROOT
BRANCH   1  12
ATOM     12  C   UNL     1      28.363  -0.228  21.228  1.00  0.00     0.029 A 
ATOM     13  C   UNL     1      29.240  -1.218  21.696  1.00  0.00     0.062 A 
ATOM     14  C   UNL     1      29.426  -2.405  20.974  1.00  0.00     0.162 A 
ATOM     15  C   UNL     1      27.698  -0.425  20.005  1.00  0.00     0.062 A 
ATOM     16  C   UNL     1      28.742  -2.604  19.763  1.00  0.00     0.200 A 
ATOM     17  C   UNL     1      27.880  -1.606  19.277  1.00  0.00     0.162 A 
BRANCH  14  18
ATOM     18  O   UNL     1      30.290  -3.387  21.458  1.00  0.00    -0.504 OA
ATOM     19  H   UNL     1      30.038  -4.369  21.448  1.00  0.00     0.293 HD
ENDBRANCH  14  18
BRANCH  16  20
ATOM     20  O   UNL     1      28.913  -3.782  19.033  1.00  0.00    -0.502 OA
ATOM     21  H   UNL     1      28.265  -4.558  19.101  1.00  0.00     0.293 HD
ENDBRANCH  16  20
BRANCH  17  22
ATOM     22  O   UNL     1      27.198  -1.768  18.072  1.00  0.00    -0.504 OA
ATOM     23  H   UNL     1      27.670  -1.730  17.176  1.00  0.00     0.293 HD
ENDBRANCH  17  22
ENDBRANCH   1  12
BRANCH   2  24
ATOM     24  O   UNL     1      30.257   1.960  21.096  1.00  0.00    -0.502 OA
ATOM     25  H   UNL     1      30.394   1.173  20.473  1.00  0.00     0.293 HD
ENDBRANCH   2  24
BRANCH   6  26
ATOM     26  O   UNL     1      28.145   5.687  24.262  1.00  0.00    -0.507 OA
ATOM     27  H   UNL     1      28.563   6.113  25.075  1.00  0.00     0.293 HD
ENDBRANCH   6  26
BRANCH   8  28
ATOM     28  O   UNL     1      24.306   3.357  25.911  1.00  0.00    -0.508 OA
ATOM     29  H   UNL     1      23.779   2.512  26.094  1.00  0.00     0.293 HD
ENDBRANCH   8  28
TORSDOF 7
ENDMDL
MODEL 5
REMARK VINA RESULT:    -6.066     11.318     13.356
REMARK INTER + INTRA:          -7.840
REMARK INTER:                  -7.478
REMARK INTRA:                  -0.363
REMARK UNBOUND:                -0.356
REMARK SMILES O=c1c(O)c(-c2cc(O)c(O)c(O)c2)oc2cc(O)cc(O)c12
REMARK SMILES IDX 5 1 3 2 2 3 1 4 23 5 21 6 20 7 18 8 17 9 16 10 15 11 6 12
REMARK SMILES IDX 7 13 8 14 14 15 10 16 12 17 9 18 11 20 13 22 4 24 22 26
REMARK SMILES IDX 19 28
REMARK H PARENT 9 19 11 21 13 23 4 25 22 27 19 29
REMARK Flexibility Score: inf
ROOT
ATOM      1  C   UNL     1      27.488   1.186  21.860  1.00  0.00     0.180 A 
ATOM      2  C   UNL     1      28.069  -0.049  22.198  1.00  0.00     0.208 A 
ATOM      3  C   UNL     1      28.282  -0.999  21.187  1.00  0.00     0.238 A 
ATOM      4  O   UNL     1      28.870  -2.072  21.482  1.00  0.00    -0.285 OA
ATOM      5  C   UNL     1      27.860  -0.727  19.863  1.00  0.00     0.111 A 
ATOM      6  C   UNL     1      27.985  -1.635  18.767  1.00  0.00     0.134 A 
ATOM      7  C   UNL     1      27.631  -1.216  17.479  1.00  0.00     0.093 A 
ATOM      8  C   UNL     1      27.097   0.052  17.255  1.00  0.00     0.123 A 
ATOM      9  C   UNL     1      26.920   0.928  18.325  1.00  0.00     0.094 A 
ATOM     10  C   UNL     1      27.300   0.554  19.617  1.00  0.00     0.146 A 
ATOM     11  O   UNL     1      27.133   1.426  20.604  1.00  0.00    -0.452 OA
ENDROOT
BRANCH   1  12
ATOM     12  C   UNL     1      27.245   2.244  22.868  1.00  0.00     0.029 A 
ATOM     13  C   UNL     1      25.971   2.371  23.440  1.00  0.00     0.062 A 
ATOM     14  C   UNL     1      25.707   3.378  24.379  1.00  0.00     0.162 A 
ATOM     15  C   UNL     1      28.248   3.162  23.221  1.00  0.00     0.062 A 
ATOM     16  C   UNL     1      26.722   4.279  24.744  1.00  0.00     0.200 A 
ATOM     17  C   UNL     1      27.995   4.171  24.156  1.00  0.00     0.162 A 
BRANCH  14  18
ATOM     18  O   UNL     1      24.441   3.484  24.951  1.00  0.00    -0.504 OA
ATOM     19  H   UNL     1      23.625   3.722  24.398  1.00  0.00     0.293 HD
ENDBRANCH  14  18
BRANCH  16  20
ATOM     20  O   UNL     1      26.478   5.285  25.681  1.00  0.00    -0.502 OA
ATOM     21  H   UNL     1      25.722   5.950  25.574  1.00  0.00     0.293 HD
ENDBRANCH  16  20
BRANCH  17  22
ATOM     22  O   UNL     1      29.017   5.059  24.486  1.00  0.00    -0.504 OA
ATOM     23  H   UNL     1      28.854   5.885  25.049  1.00  0.00     0.293 HD
ENDBRANCH  17  22
ENDBRANCH   1  12
BRANCH   2  24
ATOM     24  O   UNL     1      28.407  -0.328  23.525  1.00  0.00    -0.502 OA
ATOM     25  H   UNL     1      28.011  -1.109  24.033  1.00  0.00     0.293 HD
ENDBRANCH   2  24
BRANCH   6  26
ATOM     26  O   UNL     1      28.424  -2.957  18.892  1.00  0.00    -0.507 OA
ATOM     27  H   UNL     1      27.859  -3.725  19.220  1.00  0.00     0.293 HD
ENDBRANCH   6  26
BRANCH   8  28
ATOM     28  O   UNL     1      26.739   0.429  15.962  1.00  0.00    -0.508 OA
ATOM     29  H   UNL     1      27.044  -0.099  15.153  1.00  0.00     0.293 HD
ENDBRANCH   8  28
TORSDOF 7
ENDMDL
MODEL 6
REMARK VINA RESULT:    -6.049     11.282     13.337
REMARK INTER + INTRA:          -7.819
REMARK INTER:                  -7.475
REMARK INTRA:                  -0.344
REMARK UNBOUND:                -0.356
REMARK SMILES O=c1c(O)c(-c2cc(O)c(O)c(O)c2)oc2cc(O)cc(O)c12
REMARK SMILES IDX 5 1 3 2 2 3 1 4 23 5 21 6 20 7 18 8 17 9 16 10 15 11 6 12
REMARK SMILES IDX 7 13 8 14 14 15 10 16 12 17 9 18 11 20 13 22 4 24 22 26
REMARK SMILES IDX 19 28
REMARK H PARENT 9 19 11 21 13 23 4 25 22 27 19 29
REMARK Flexibility Score: inf
ROOT
ATOM      1  C   UNL     1      28.308   1.065  21.973  1.00  0.00     0.180 A 
ATOM      2  C   UNL     1      29.233   2.122  21.917  1.00  0.00     0.208 A 
ATOM      3  C   UNL     1      28.996   3.276  22.680  1.00  0.00     0.238 A 
ATOM      4  O   UNL     1      29.865   4.186  22.684  1.00  0.00    -0.285 OA
ATOM      5  C   UNL     1      27.810   3.382  23.447  1.00  0.00     0.111 A 
ATOM      6  C   UNL     1      27.445   4.524  24.225  1.00  0.00     0.134 A 
ATOM      7  C   UNL     1      26.300   4.474  25.028  1.00  0.00     0.093 A 
ATOM      8  C   UNL     1      25.472   3.353  25.035  1.00  0.00     0.123 A 
ATOM      9  C   UNL     1      25.788   2.253  24.238  1.00  0.00     0.094 A 
ATOM     10  C   UNL     1      26.946   2.257  23.455  1.00  0.00     0.146 A 
ATOM     11  O   UNL     1      27.221   1.181  22.727  1.00  0.00    -0.452 OA
ENDROOT
BRANCH   1  12
ATOM     12  C   UNL     1      28.496  -0.188  21.208  1.00  0.00     0.029 A 
ATOM     13  C   UNL     1      27.763  -0.392  20.029  1.00  0.00     0.062 A 
ATOM     14  C   UNL     1      27.906  -1.579  19.296  1.00  0.00     0.162 A 
ATOM     15  C   UNL     1      29.349  -1.206  21.667  1.00  0.00     0.062 A 
ATOM     16  C   UNL     1      28.777  -2.583  19.751  1.00  0.00     0.200 A 
ATOM     17  C   UNL     1      29.496  -2.394  20.944  1.00  0.00     0.162 A 
BRANCH  14  18
ATOM     18  O   UNL     1      27.183  -1.763  18.118  1.00  0.00    -0.504 OA
ATOM     19  H   UNL     1      26.172  -1.689  18.097  1.00  0.00     0.293 HD
ENDBRANCH  14  18
BRANCH  16  20
ATOM     20  O   UNL     1      28.934  -3.770  19.032  1.00  0.00    -0.502 OA
ATOM     21  H   UNL     1      28.513  -4.641  19.332  1.00  0.00     0.293 HD
ENDBRANCH  16  20
BRANCH  17  22
ATOM     22  O   UNL     1      30.357  -3.378  21.430  1.00  0.00    -0.504 OA
ATOM     23  H   UNL     1      30.633  -4.176  20.871  1.00  0.00     0.293 HD
ENDBRANCH  17  22
ENDBRANCH   1  12
BRANCH   2  24
ATOM     24  O   UNL     1      30.359   2.028  21.093  1.00  0.00    -0.502 OA
ATOM     25  H   UNL     1      30.784   2.839  20.661  1.00  0.00     0.293 HD
ENDBRANCH   2  24
BRANCH   6  26
ATOM     26  O   UNL     1      28.153   5.730  24.225  1.00  0.00    -0.507 OA
ATOM     27  H   UNL     1      28.243   6.347  23.433  1.00  0.00     0.293 HD
ENDBRANCH   6  26
BRANCH   8  28
ATOM     28  O   UNL     1      24.330   3.346  25.833  1.00  0.00    -0.508 OA
ATOM     29  H   UNL     1      24.372   3.111  26.817  1.00  0.00     0.293 HD
ENDBRANCH   8  28
TORSDOF 7
ENDMDL
MODEL 7
REMARK VINA RESULT:    -5.984      9.196     11.280
REMARK INTER + INTRA:          -7.739
REMARK INTER:                  -7.434
REMARK INTRA:                  -0.305
REMARK UNBOUND:                -0.356
REMARK SMILES O=c1c(O)c(-c2cc(O)c(O)c(O)c2)oc2cc(O)cc(O)c12
REMARK SMILES IDX 5 1 3 2 2 3 1 4 23 5 21 6 20 7 18 8 17 9 16 10 15 11 6 12
REMARK SMILES IDX 7 13 8 14 14 15 10 16 12 17 9 18 11 20 13 22 4 24 22 26
REMARK SMILES IDX 19 28
REMARK H PARENT 9 19 11 21 13 23 4 25 22 27 19 29
REMARK Flexibility Score: inf
ROOT
ATOM      1  C   UNL     1      27.379   3.045  23.572  1.00  0.00     0.180 A 
ATOM      2  C   UNL     1      26.217   3.384  24.287  1.00  0.00     0.208 A 
ATOM      3  C   UNL     1      26.253   4.482  25.162  1.00  0.00     0.238 A 
ATOM      4  O   UNL     1      25.190   4.826  25.742  1.00  0.00    -0.285 OA
ATOM      5  C   UNL     1      27.463   5.192  25.353  1.00  0.00     0.111 A 
ATOM      6  C   UNL     1      27.626   6.292  26.249  1.00  0.00     0.134 A 
ATOM      7  C   UNL     1      28.843   6.986  26.276  1.00  0.00     0.093 A 
ATOM      8  C   UNL     1      29.921   6.582  25.490  1.00  0.00     0.123 A 
ATOM      9  C   UNL     1      29.791   5.474  24.652  1.00  0.00     0.094 A 
ATOM     10  C   UNL     1      28.577   4.785  24.574  1.00  0.00     0.146 A 
ATOM     11  O   UNL     1      28.490   3.750  23.747  1.00  0.00    -0.452 OA
ENDROOT
BRANCH   1  12
ATOM     12  C   UNL     1      27.415   1.910  22.621  1.00  0.00     0.029 A 
ATOM     13  C   UNL     1      28.119   0.747  22.963  1.00  0.00     0.062 A 
ATOM     14  C   UNL     1      28.189  -0.334  22.073  1.00  0.00     0.162 A 
ATOM     15  C   UNL     1      26.808   1.996  21.357  1.00  0.00     0.062 A 
ATOM     16  C   UNL     1      27.560  -0.249  20.818  1.00  0.00     0.200 A 
ATOM     17  C   UNL     1      26.873   0.923  20.461  1.00  0.00     0.162 A 
BRANCH  14  18
ATOM     18  O   UNL     1      28.880  -1.490  22.431  1.00  0.00    -0.504 OA
ATOM     19  H   UNL     1      28.397  -2.361  22.622  1.00  0.00     0.293 HD
ENDBRANCH  14  18
BRANCH  16  20
ATOM     20  O   UNL     1      27.616  -1.317  19.921  1.00  0.00    -0.502 OA
ATOM     21  H   UNL     1      28.104  -1.253  19.036  1.00  0.00     0.293 HD
ENDBRANCH  16  20
BRANCH  17  22
ATOM     22  O   UNL     1      26.252   1.043  19.218  1.00  0.00    -0.504 OA
ATOM     23  H   UNL     1      25.486   0.442  18.937  1.00  0.00     0.293 HD
ENDBRANCH  17  22
ENDBRANCH   1  12
BRANCH   2  24
ATOM     24  O   UNL     1      25.054   2.623  24.142  1.00  0.00    -0.502 OA
ATOM     25  H   UNL     1      24.308   2.635  24.827  1.00  0.00     0.293 HD
ENDBRANCH   2  24
BRANCH   6  26
ATOM     26  O   UNL     1      26.643   6.727  27.143  1.00  0.00    -0.507 OA
ATOM     27  H   UNL     1      25.722   7.043  26.881  1.00  0.00     0.293 HD
ENDBRANCH   6  26
BRANCH   8  28
ATOM     28  O   UNL     1      31.122   7.285  25.556  1.00  0.00    -0.508 OA
ATOM     29  H   UNL     1      32.014   6.807  25.594  1.00  0.00     0.293 HD
ENDBRANCH   8  28
TORSDOF 7
ENDMDL
MODEL 8
REMARK VINA RESULT:    -5.971     11.347     13.315
REMARK INTER + INTRA:          -7.723
REMARK INTER:                  -7.385
REMARK INTRA:                  -0.338
REMARK UNBOUND:                -0.356
REMARK SMILES O=c1c(O)c(-c2cc(O)c(O)c(O)c2)oc2cc(O)cc(O)c12
REMARK SMILES IDX 5 1 3 2 2 3 1 4 23 5 21 6 20 7 18 8 17 9 16 10 15 11 6 12
REMARK SMILES IDX 7 13 8 14 14 15 10 16 12 17 9 18 11 20 13 22 4 24 22 26
REMARK SMILES IDX 19 28
REMARK H PARENT 9 19 11 21 13 23 4 25 22 27 19 29
REMARK Flexibility Score: inf
ROOT
ATOM      1  C   UNL     1      27.465   1.205  21.799  1.00  0.00     0.180 A 
ATOM      2  C   UNL     1      28.052  -0.023  22.149  1.00  0.00     0.208 A 
ATOM      3  C   UNL     1      28.283  -0.977  21.146  1.00  0.00     0.238 A 
ATOM      4  O   UNL     1      28.877  -2.044  21.453  1.00  0.00    -0.285 OA
ATOM      5  C   UNL     1      27.875  -0.715  19.815  1.00  0.00     0.111 A 
ATOM      6  C   UNL     1      28.019  -1.628  18.726  1.00  0.00     0.134 A 
ATOM      7  C   UNL     1      27.676  -1.218  17.432  1.00  0.00     0.093 A 
ATOM      8  C   UNL     1      27.135   0.045  17.195  1.00  0.00     0.123 A 
ATOM      9  C   UNL     1      26.938   0.925  18.259  1.00  0.00     0.094 A 
ATOM     10  C   UNL     1      27.307   0.560  19.557  1.00  0.00     0.146 A 
ATOM     11  O   UNL     1      27.122   1.436  20.538  1.00  0.00    -0.452 OA
ENDROOT
BRANCH   1  12
ATOM     12  C   UNL     1      27.202   2.266  22.798  1.00  0.00     0.029 A 
ATOM     13  C   UNL     1      28.246   3.116  23.192  1.00  0.00     0.062 A 
ATOM     14  C   UNL     1      28.030   4.114  24.153  1.00  0.00     0.162 A 
ATOM     15  C   UNL     1      25.942   2.402  23.406  1.00  0.00     0.062 A 
ATOM     16  C   UNL     1      26.761   4.258  24.740  1.00  0.00     0.200 A 
ATOM     17  C   UNL     1      25.718   3.394  24.367  1.00  0.00     0.162 A 
BRANCH  14  18
ATOM     18  O   UNL     1      29.072   4.962  24.524  1.00  0.00    -0.504 OA
ATOM     19  H   UNL     1      30.000   4.870  24.128  1.00  0.00     0.293 HD
ENDBRANCH  14  18
BRANCH  16  20
ATOM     20  O   UNL     1      26.528   5.249  25.696  1.00  0.00    -0.502 OA
ATOM     21  H   UNL     1      27.233   5.931  25.950  1.00  0.00     0.293 HD
ENDBRANCH  16  20
BRANCH  17  22
ATOM     22  O   UNL     1      24.453   3.502  24.943  1.00  0.00    -0.504 OA
ATOM     23  H   UNL     1      24.038   2.750  25.479  1.00  0.00     0.293 HD
ENDBRANCH  17  22
ENDBRANCH   1  12
BRANCH   2  24
ATOM     24  O   UNL     1      28.377  -0.293  23.481  1.00  0.00    -0.502 OA
ATOM     25  H   UNL     1      28.272   0.396  24.216  1.00  0.00     0.293 HD
ENDBRANCH   2  24
BRANCH   6  26
ATOM     26  O   UNL     1      28.467  -2.945  18.862  1.00  0.00    -0.507 OA
ATOM     27  H   UNL     1      29.042  -3.285  19.619  1.00  0.00     0.293 HD
ENDBRANCH   6  26
BRANCH   8  28
ATOM     28  O   UNL     1      26.788   0.412  15.897  1.00  0.00    -0.508 OA
ATOM     29  H   UNL     1      26.718  -0.272  15.153  1.00  0.00     0.293 HD
ENDBRANCH   8  28
TORSDOF 7
ENDMDL
MODEL 9
REMARK VINA RESULT:    -5.881      1.243      7.224
REMARK INTER + INTRA:          -7.613
REMARK INTER:                  -7.283
REMARK INTRA:                  -0.329
REMARK UNBOUND:                -0.356
REMARK SMILES O=c1c(O)c(-c2cc(O)c(O)c(O)c2)oc2cc(O)cc(O)c12
REMARK SMILES IDX 5 1 3 2 2 3 1 4 23 5 21 6 20 7 18 8 17 9 16 10 15 11 6 12
REMARK SMILES IDX 7 13 8 14 14 15 10 16 12 17 9 18 11 20 13 22 4 24 22 26
REMARK SMILES IDX 19 28
REMARK H PARENT 9 19 11 21 13 23 4 25 22 27 19 29
REMARK Flexibility Score: inf
ROOT
ATOM      1  C   UNL     1      21.973   7.249  30.713  1.00  0.00     0.180 A 
ATOM      2  C   UNL     1      22.762   7.979  31.620  1.00  0.00     0.208 A 
ATOM      3  C   UNL     1      23.322   7.314  32.723  1.00  0.00     0.238 A 
ATOM      4  O   UNL     1      24.087   7.955  33.489  1.00  0.00    -0.285 OA
ATOM      5  C   UNL     1      23.042   5.942  32.936  1.00  0.00     0.111 A 
ATOM      6  C   UNL     1      23.520   5.178  34.044  1.00  0.00     0.134 A 
ATOM      7  C   UNL     1      23.267   3.801  34.094  1.00  0.00     0.093 A 
ATOM      8  C   UNL     1      22.501   3.173  33.113  1.00  0.00     0.123 A 
ATOM      9  C   UNL     1      21.982   3.919  32.055  1.00  0.00     0.094 A 
ATOM     10  C   UNL     1      22.250   5.287  31.956  1.00  0.00     0.146 A 
ATOM     11  O   UNL     1      21.755   5.956  30.922  1.00  0.00    -0.452 OA
ENDROOT
BRANCH   1  12
ATOM     12  C   UNL     1      21.360   7.877  29.521  1.00  0.00     0.029 A 
ATOM     13  C   UNL     1      19.983   8.143  29.513  1.00  0.00     0.062 A 
ATOM     14  C   UNL     1      19.373   8.717  28.389  1.00  0.00     0.162 A 
ATOM     15  C   UNL     1      22.117   8.158  28.371  1.00  0.00     0.062 A 
ATOM     16  C   UNL     1      20.141   9.015  27.251  1.00  0.00     0.200 A 
ATOM     17  C   UNL     1      21.517   8.728  27.243  1.00  0.00     0.162 A 
BRANCH  14  18
ATOM     18  O   UNL     1      18.006   8.990  28.400  1.00  0.00    -0.504 OA
ATOM     19  H   UNL     1      17.651   9.923  28.578  1.00  0.00     0.293 HD
ENDBRANCH  14  18
BRANCH  16  20
ATOM     20  O   UNL     1      19.551   9.589  26.123  1.00  0.00    -0.502 OA
ATOM     21  H   UNL     1      20.056  10.217  25.509  1.00  0.00     0.293 HD
ENDBRANCH  16  20
BRANCH  17  22
ATOM     22  O   UNL     1      22.303   8.998  26.124  1.00  0.00    -0.504 OA
ATOM     23  H   UNL     1      22.091   8.615  25.210  1.00  0.00     0.293 HD
ENDBRANCH  17  22
ENDBRANCH   1  12
BRANCH   2  24
ATOM     24  O   UNL     1      22.962   9.349  31.434  1.00  0.00    -0.502 OA
ATOM     25  H   UNL     1      23.656   9.872  31.954  1.00  0.00     0.293 HD
ENDBRANCH   2  24
BRANCH   6  26
ATOM     26  O   UNL     1      24.221   5.720  35.125  1.00  0.00    -0.507 OA
ATOM     27  H   UNL     1      24.840   6.515  35.072  1.00  0.00     0.293 HD
ENDBRANCH   6  26
BRANCH   8  28
ATOM     28  O   UNL     1      22.254   1.805  33.205  1.00  0.00    -0.508 OA
ATOM     29  H   UNL     1      22.089   1.355  34.098  1.00  0.00     0.293 HD
ENDBRANCH   8  28
TORSDOF 7
ENDMDL
