MODEL 1
REMARK VINA RESULT:    -3.550      0.000      0.000
REMARK INTER + INTRA:          -4.202
REMARK INTER:                  -4.172
REMARK INTRA:                  -0.030
REMARK UNBOUND:                -0.030
REMARK SMILES O=C([O-])CCC(=O)[O-]
REMARK SMILES IDX 4 1 2 2 1 3 3 4 5 5 6 6 7 7 8 8
REMARK H PARENT
REMARK Flexibility Score: inf
ROOT
ATOM      1  C   UNL     1      35.263  41.591  20.375  1.00  0.00     0.059 C 
ENDROOT
BRANCH   1   2
ATOM      2  C   UNL     1      34.107  40.920  21.048  1.00  0.00     0.042 C 
ATOM      3  O   UNL     1      33.063  40.651  20.397  1.00  0.00    -0.550 OA
ATOM      4  O   UNL     1      34.201  40.547  22.383  1.00  0.00    -0.550 OA
ENDBRANCH   1   2
BRANCH   1   5
ATOM      5  C   UNL     1      35.732  40.768  19.173  1.00  0.00     0.059 C 
BRANCH   5   6
ATOM      6  C   UNL     1      36.728  41.541  18.367  1.00  0.00     0.042 C 
ATOM      7  O   UNL     1      36.466  41.869  17.180  1.00  0.00    -0.550 OA
ATOM      8  O   UNL     1      37.926  41.944  18.943  1.00  0.00    -0.550 OA
ENDBRANCH   5   6
ENDBRANCH   1   5
TORSDOF 3
ENDMDL
MODEL 2
REMARK VINA RESULT:    -3.546     12.050     12.199
REMARK INTER + INTRA:          -4.197
REMARK INTER:                  -4.157
REMARK INTRA:                  -0.040
REMARK UNBOUND:                -0.030
REMARK SMILES O=C([O-])CCC(=O)[O-]
REMARK SMILES IDX 4 1 2 2 1 3 3 4 5 5 6 6 7 7 8 8
REMARK H PARENT
REMARK Flexibility Score: inf
ROOT
ATOM      1  C   UNL     1      40.100  50.257  12.961  1.00  0.00     0.059 C 
ENDROOT
BRANCH   1   2
ATOM      2  C   UNL     1      39.677  51.231  14.016  1.00  0.00     0.042 C 
ATOM      3  O   UNL     1      38.620  51.900  13.873  1.00  0.00    -0.550 OA
ATOM      4  O   UNL     1      40.425  51.365  15.179  1.00  0.00    -0.550 OA
ENDBRANCH   1   2
BRANCH   1   5
ATOM      5  C   UNL     1      41.570  49.877  13.144  1.00  0.00     0.059 C 
BRANCH   5   6
ATOM      6  C   UNL     1      41.825  48.501  12.612  1.00  0.00     0.042 C 
ATOM      7  O   UNL     1      41.260  48.116  11.554  1.00  0.00    -0.550 OA
ATOM      8  O   UNL     1      42.724  47.662  13.257  1.00  0.00    -0.550 OA
ENDBRANCH   5   6
ENDBRANCH   1   5
TORSDOF 3
ENDMDL
MODEL 3
REMARK VINA RESULT:    -3.545      1.357      2.031
REMARK INTER + INTRA:          -4.197
REMARK INTER:                  -4.077
REMARK INTRA:                  -0.120
REMARK UNBOUND:                -0.030
REMARK SMILES O=C([O-])CCC(=O)[O-]
REMARK SMILES IDX 4 1 2 2 1 3 3 4 5 5 6 6 7 7 8 8
REMARK H PARENT
REMARK Flexibility Score: inf
ROOT
ATOM      1  C   UNL     1      35.265  41.658  20.450  1.00  0.00     0.059 C 
ENDROOT
BRANCH   1   2
ATOM      2  C   UNL     1      34.373  40.506  20.113  1.00  0.00     0.042 C 
ATOM      3  O   UNL     1      33.190  40.473  20.544  1.00  0.00    -0.550 OA
ATOM      4  O   UNL     1      34.832  39.490  19.283  1.00  0.00    -0.550 OA
ENDBRANCH   1   2
BRANCH   1   5
ATOM      5  C   UNL     1      36.681  41.167  20.756  1.00  0.00     0.059 C 
BRANCH   5   6
ATOM      6  C   UNL     1      37.640  41.654  19.715  1.00  0.00     0.042 C 
ATOM      7  O   UNL     1      38.770  42.096  20.052  1.00  0.00    -0.550 OA
ATOM      8  O   UNL     1      37.305  41.574  18.369  1.00  0.00    -0.550 OA
ENDBRANCH   5   6
ENDBRANCH   1   5
TORSDOF 3
ENDMDL
MODEL 4
REMARK VINA RESULT:    -3.544     11.766     12.522
REMARK INTER + INTRA:          -4.196
REMARK INTER:                  -4.142
REMARK INTRA:                  -0.054
REMARK UNBOUND:                -0.030
REMARK SMILES O=C([O-])CCC(=O)[O-]
REMARK SMILES IDX 4 1 2 2 1 3 3 4 5 5 6 6 7 7 8 8
REMARK H PARENT
REMARK Flexibility Score: inf
ROOT
ATOM      1  C   UNL     1      41.426  49.892  12.980  1.00  0.00     0.059 C 
ENDROOT
BRANCH   1   2
ATOM      2  C   UNL     1      41.635  48.469  12.568  1.00  0.00     0.042 C 
ATOM      3  O   UNL     1      42.785  47.959  12.612  1.00  0.00    -0.550 OA
ATOM      4  O   UNL     1      40.551  47.691  12.181  1.00  0.00    -0.550 OA
ENDBRANCH   1   2
BRANCH   1   5
ATOM      5  C   UNL     1      39.938  50.244  12.953  1.00  0.00     0.059 C 
BRANCH   5   6
ATOM      6  C   UNL     1      39.610  51.216  14.042  1.00  0.00     0.042 C 
ATOM      7  O   UNL     1      40.365  51.323  15.044  1.00  0.00    -0.550 OA
ATOM      8  O   UNL     1      38.497  52.040  13.927  1.00  0.00    -0.550 OA
ENDBRANCH   5   6
ENDBRANCH   1   5
TORSDOF 3
ENDMDL
MODEL 5
REMARK VINA RESULT:    -3.528      0.998      4.101
REMARK INTER + INTRA:          -4.177
REMARK INTER:                  -4.061
REMARK INTRA:                  -0.117
REMARK UNBOUND:                -0.030
REMARK SMILES O=C([O-])CCC(=O)[O-]
REMARK SMILES IDX 4 1 2 2 1 3 3 4 5 5 6 6 7 7 8 8
REMARK H PARENT
REMARK Flexibility Score: inf
ROOT
ATOM      1  C   UNL     1      36.300  40.890  20.099  1.00  0.00     0.059 C 
ENDROOT
BRANCH   1   2
ATOM      2  C   UNL     1      36.047  40.933  18.625  1.00  0.00     0.042 C 
ATOM      3  O   UNL     1      35.243  40.121  18.096  1.00  0.00    -0.550 OA
ATOM      4  O   UNL     1      36.662  41.901  17.841  1.00  0.00    -0.550 OA
ENDBRANCH   1   2
BRANCH   1   5
ATOM      5  C   UNL     1      35.268  41.739  20.843  1.00  0.00     0.059 C 
BRANCH   5   6
ATOM      6  C   UNL     1      34.180  40.874  21.397  1.00  0.00     0.042 C 
ATOM      7  O   UNL     1      34.219  40.498  22.598  1.00  0.00    -0.550 OA
ATOM      8  O   UNL     1      33.097  40.523  20.600  1.00  0.00    -0.550 OA
ENDBRANCH   5   6
ENDBRANCH   1   5
TORSDOF 3
ENDMDL
MODEL 6
REMARK VINA RESULT:    -3.526      1.431      4.038
REMARK INTER + INTRA:          -4.174
REMARK INTER:                  -4.051
REMARK INTRA:                  -0.123
REMARK UNBOUND:                -0.030
REMARK SMILES O=C([O-])CCC(=O)[O-]
REMARK SMILES IDX 4 1 2 2 1 3 3 4 5 5 6 6 7 7 8 8
REMARK H PARENT
REMARK Flexibility Score: inf
ROOT
ATOM      1  C   UNL     1      36.709  41.101  20.899  1.00  0.00     0.059 C 
ENDROOT
BRANCH   1   2
ATOM      2  C   UNL     1      37.724  41.630  19.936  1.00  0.00     0.042 C 
ATOM      3  O   UNL     1      38.851  42.012  20.348  1.00  0.00    -0.550 OA
ATOM      4  O   UNL     1      37.444  41.657  18.575  1.00  0.00    -0.550 OA
ENDBRANCH   1   2
BRANCH   1   5
ATOM      5  C   UNL     1      35.317  41.630  20.553  1.00  0.00     0.059 C 
BRANCH   5   6
ATOM      6  C   UNL     1      34.417  40.507  20.143  1.00  0.00     0.042 C 
ATOM      7  O   UNL     1      33.227  40.465  20.553  1.00  0.00    -0.550 OA
ATOM      8  O   UNL     1      34.878  39.531  19.268  1.00  0.00    -0.550 OA
ENDBRANCH   5   6
ENDBRANCH   1   5
TORSDOF 3
ENDMDL
MODEL 7
REMARK VINA RESULT:    -3.517     11.922     13.243
REMARK INTER + INTRA:          -4.164
REMARK INTER:                  -4.133
REMARK INTRA:                  -0.031
REMARK UNBOUND:                -0.030
REMARK SMILES O=C([O-])CCC(=O)[O-]
REMARK SMILES IDX 4 1 2 2 1 3 3 4 5 5 6 6 7 7 8 8
REMARK H PARENT
REMARK Flexibility Score: inf
ROOT
ATOM      1  C   UNL     1      49.121  41.291  20.095  1.00  0.00     0.059 C 
ENDROOT
BRANCH   1   2
ATOM      2  C   UNL     1      49.172  42.338  21.162  1.00  0.00     0.042 C 
ATOM      3  O   UNL     1      49.709  43.453  20.930  1.00  0.00    -0.550 OA
ATOM      4  O   UNL     1      48.583  42.101  22.398  1.00  0.00    -0.550 OA
ENDBRANCH   1   2
BRANCH   1   5
ATOM      5  C   UNL     1      47.673  40.886  19.812  1.00  0.00     0.059 C 
BRANCH   5   6
ATOM      6  C   UNL     1      47.564  40.243  18.465  1.00  0.00     0.042 C 
ATOM      7  O   UNL     1      46.458  40.213  17.864  1.00  0.00    -0.550 OA
ATOM      8  O   UNL     1      48.695  39.720  17.850  1.00  0.00    -0.550 OA
ENDBRANCH   5   6
ENDBRANCH   1   5
TORSDOF 3
ENDMDL
MODEL 8
REMARK VINA RESULT:    -3.465     11.834     13.328
REMARK INTER + INTRA:          -4.103
REMARK INTER:                  -4.069
REMARK INTRA:                  -0.033
REMARK UNBOUND:                -0.030
REMARK SMILES O=C([O-])CCC(=O)[O-]
REMARK SMILES IDX 4 1 2 2 1 3 3 4 5 5 6 6 7 7 8 8
REMARK H PARENT
REMARK Flexibility Score: inf
ROOT
ATOM      1  C   UNL     1      47.731  40.875  19.893  1.00  0.00     0.059 C 
ENDROOT
BRANCH   1   2
ATOM      2  C   UNL     1      47.541  40.238  18.552  1.00  0.00     0.042 C 
ATOM      3  O   UNL     1      48.526  39.751  17.937  1.00  0.00    -0.550 OA
ATOM      4  O   UNL     1      46.268  40.138  18.003  1.00  0.00    -0.550 OA
ENDBRANCH   1   2
BRANCH   1   5
ATOM      5  C   UNL     1      49.125  41.495  19.997  1.00  0.00     0.059 C 
BRANCH   5   6
ATOM      6  C   UNL     1      49.211  42.393  21.191  1.00  0.00     0.042 C 
ATOM      7  O   UNL     1      49.837  43.482  21.121  1.00  0.00    -0.550 OA
ATOM      8  O   UNL     1      48.556  42.049  22.367  1.00  0.00    -0.550 OA
ENDBRANCH   5   6
ENDBRANCH   1   5
TORSDOF 3
ENDMDL
MODEL 9
REMARK VINA RESULT:    -3.463     10.679     12.334
REMARK INTER + INTRA:          -4.101
REMARK INTER:                  -4.000
REMARK INTRA:                  -0.101
REMARK UNBOUND:                -0.030
REMARK SMILES O=C([O-])CCC(=O)[O-]
REMARK SMILES IDX 4 1 2 2 1 3 3 4 5 5 6 6 7 7 8 8
REMARK H PARENT
REMARK Flexibility Score: inf
ROOT
ATOM      1  C   UNL     1      46.850  40.453  19.383  1.00  0.00     0.059 C 
ENDROOT
BRANCH   1   2
ATOM      2  C   UNL     1      48.256  40.550  18.882  1.00  0.00     0.042 C 
ATOM      3  O   UNL     1      49.073  41.334  19.436  1.00  0.00    -0.550 OA
ATOM      4  O   UNL     1      48.680  39.741  17.836  1.00  0.00    -0.550 OA
ENDBRANCH   1   2
BRANCH   1   5
ATOM      5  C   UNL     1      46.017  39.556  18.465  1.00  0.00     0.059 C 
BRANCH   5   6
ATOM      6  C   UNL     1      45.759  38.235  19.118  1.00  0.00     0.042 C 
ATOM      7  O   UNL     1      46.174  37.172  18.585  1.00  0.00    -0.550 OA
ATOM      8  O   UNL     1      45.103  38.181  20.342  1.00  0.00    -0.550 OA
ENDBRANCH   5   6
ENDBRANCH   1   5
TORSDOF 3
ENDMDL
