MODEL 1
REMARK VINA RESULT:    -3.971      0.000      0.000
REMARK INTER + INTRA:          -5.805
REMARK INTER:                  -5.364
REMARK INTRA:                  -0.441
REMARK UNBOUND:                -0.441
REMARK SMILES CCCCCCCC(=O)[O-]
REMARK SMILES IDX 5 1 6 2 7 3 8 4 9 5 10 6 4 7 3 8 2 9 1 10
REMARK H PARENT
REMARK Flexibility Score: inf
ROOT
ATOM      1  C   UNL     1      17.051  12.247  -6.009  1.00  0.00     0.000 C 
ENDROOT
BRANCH   1   2
ATOM      2  C   UNL     1      17.264  12.180  -7.533  1.00  0.00     0.006 C 
BRANCH   2   3
ATOM      3  C   UNL     1      16.580  13.310  -8.319  1.00  0.00     0.053 C 
BRANCH   3   4
ATOM      4  C   UNL     1      15.167  12.969  -8.676  1.00  0.00     0.041 C 
ATOM      5  O   UNL     1      14.897  12.481  -9.805  1.00  0.00    -0.550 OA
ATOM      6  O   UNL     1      14.150  13.161  -7.748  1.00  0.00    -0.550 OA
ENDBRANCH   3   4
ENDBRANCH   2   3
ENDBRANCH   1   2
BRANCH   1   7
ATOM      7  C   UNL     1      18.283  12.780  -5.258  1.00  0.00     0.000 C 
BRANCH   7   8
ATOM      8  C   UNL     1      17.993  14.082  -4.496  1.00  0.00    -0.000 C 
BRANCH   8   9
ATOM      9  C   UNL     1      17.791  15.284  -5.432  1.00  0.00    -0.003 C 
ATOM     10  C   UNL     1      16.404  15.893  -5.253  1.00  0.00     0.004 C 
ENDBRANCH   8   9
ENDBRANCH   7   8
ENDBRANCH   1   7
TORSDOF 6
ENDMDL
MODEL 2
REMARK VINA RESULT:    -3.873      2.343      3.903
REMARK INTER + INTRA:          -5.673
REMARK INTER:                  -5.187
REMARK INTRA:                  -0.485
REMARK UNBOUND:                -0.441
REMARK SMILES CCCCCCCC(=O)[O-]
REMARK SMILES IDX 5 1 6 2 7 3 8 4 9 5 10 6 4 7 3 8 2 9 1 10
REMARK H PARENT
REMARK Flexibility Score: inf
ROOT
ATOM      1  C   UNL     1      17.689  11.954  -5.625  1.00  0.00     0.000 C 
ENDROOT
BRANCH   1   2
ATOM      2  C   UNL     1      18.754  12.955  -5.137  1.00  0.00     0.006 C 
BRANCH   2   3
ATOM      3  C   UNL     1      18.183  14.195  -4.431  1.00  0.00     0.053 C 
BRANCH   3   4
ATOM      4  C   UNL     1      17.614  15.181  -5.403  1.00  0.00     0.041 C 
ATOM      5  O   UNL     1      18.232  15.455  -6.465  1.00  0.00    -0.550 OA
ATOM      6  O   UNL     1      16.383  15.775  -5.150  1.00  0.00    -0.550 OA
ENDBRANCH   3   4
ENDBRANCH   2   3
ENDBRANCH   1   2
BRANCH   1   7
ATOM      7  C   UNL     1      17.771  11.687  -7.138  1.00  0.00     0.000 C 
BRANCH   7   8
ATOM      8  C   UNL     1      16.825  12.587  -7.948  1.00  0.00    -0.000 C 
BRANCH   8   9
ATOM      9  C   UNL     1      15.536  12.931  -7.187  1.00  0.00    -0.003 C 
ATOM     10  C   UNL     1      14.406  13.283  -8.150  1.00  0.00     0.004 C 
ENDBRANCH   8   9
ENDBRANCH   7   8
ENDBRANCH   1   7
TORSDOF 6
ENDMDL
MODEL 3
REMARK VINA RESULT:    -3.860      3.492      5.030
REMARK INTER + INTRA:          -5.654
REMARK INTER:                  -5.417
REMARK INTRA:                  -0.237
REMARK UNBOUND:                -0.441
REMARK SMILES CCCCCCCC(=O)[O-]
REMARK SMILES IDX 5 1 6 2 7 3 8 4 9 5 10 6 4 7 3 8 2 9 1 10
REMARK H PARENT
REMARK Flexibility Score: inf
ROOT
ATOM      1  C   UNL     1      16.680  12.370  -6.544  1.00  0.00     0.000 C 
ENDROOT
BRANCH   1   2
ATOM      2  C   UNL     1      17.709  12.630  -5.428  1.00  0.00     0.006 C 
BRANCH   2   3
ATOM      3  C   UNL     1      17.773  14.089  -4.950  1.00  0.00     0.053 C 
BRANCH   3   4
ATOM      4  C   UNL     1      18.919  14.324  -4.015  1.00  0.00     0.041 C 
ATOM      5  O   UNL     1      19.442  13.358  -3.397  1.00  0.00    -0.550 OA
ATOM      6  O   UNL     1      19.430  15.605  -3.850  1.00  0.00    -0.550 OA
ENDBRANCH   3   4
ENDBRANCH   2   3
ENDBRANCH   1   2
BRANCH   1   7
ATOM      7  C   UNL     1      15.717  13.551  -6.752  1.00  0.00     0.000 C 
BRANCH   7   8
ATOM      8  C   UNL     1      14.608  13.236  -7.768  1.00  0.00    -0.000 C 
BRANCH   8   9
ATOM      9  C   UNL     1      15.157  12.693  -9.097  1.00  0.00    -0.003 C 
ATOM     10  C   UNL     1      15.960  13.759  -9.837  1.00  0.00     0.004 C 
ENDBRANCH   8   9
ENDBRANCH   7   8
ENDBRANCH   1   7
TORSDOF 6
ENDMDL
MODEL 4
REMARK VINA RESULT:    -3.790      3.014      4.915
REMARK INTER + INTRA:          -5.560
REMARK INTER:                  -5.178
REMARK INTRA:                  -0.382
REMARK UNBOUND:                -0.441
REMARK SMILES CCCCCCCC(=O)[O-]
REMARK SMILES IDX 5 1 6 2 7 3 8 4 9 5 10 6 4 7 3 8 2 9 1 10
REMARK H PARENT
REMARK Flexibility Score: inf
ROOT
ATOM      1  C   UNL     1      15.938  13.155  -6.624  1.00  0.00     0.000 C 
ENDROOT
BRANCH   1   2
ATOM      2  C   UNL     1      16.276  14.529  -6.015  1.00  0.00     0.006 C 
BRANCH   2   3
ATOM      3  C   UNL     1      17.768  14.897  -6.071  1.00  0.00     0.053 C 
BRANCH   3   4
ATOM      4  C   UNL     1      18.466  14.607  -4.779  1.00  0.00     0.041 C 
ATOM      5  O   UNL     1      19.004  15.539  -4.124  1.00  0.00    -0.550 OA
ATOM      6  O   UNL     1      18.497  13.310  -4.282  1.00  0.00    -0.550 OA
ENDBRANCH   3   4
ENDBRANCH   2   3
ENDBRANCH   1   2
BRANCH   1   7
ATOM      7  C   UNL     1      14.727  13.206  -7.572  1.00  0.00     0.000 C 
BRANCH   7   8
ATOM      8  C   UNL     1      15.091  12.824  -9.015  1.00  0.00    -0.000 C 
BRANCH   8   9
ATOM      9  C   UNL     1      16.042  13.834  -9.674  1.00  0.00    -0.003 C 
ATOM     10  C   UNL     1      17.363  13.175 -10.059  1.00  0.00     0.004 C 
ENDBRANCH   8   9
ENDBRANCH   7   8
ENDBRANCH   1   7
TORSDOF 6
ENDMDL
MODEL 5
REMARK VINA RESULT:    -3.736      1.141      1.995
REMARK INTER + INTRA:          -5.488
REMARK INTER:                  -5.147
REMARK INTRA:                  -0.341
REMARK UNBOUND:                -0.441
REMARK SMILES CCCCCCCC(=O)[O-]
REMARK SMILES IDX 5 1 6 2 7 3 8 4 9 5 10 6 4 7 3 8 2 9 1 10
REMARK H PARENT
REMARK Flexibility Score: inf
ROOT
ATOM      1  C   UNL     1      16.459  14.396  -5.851  1.00  0.00     0.000 C 
ENDROOT
BRANCH   1   2
ATOM      2  C   UNL     1      16.244  12.936  -6.293  1.00  0.00     0.006 C 
BRANCH   2   3
ATOM      3  C   UNL     1      16.438  12.693  -7.798  1.00  0.00     0.053 C 
BRANCH   3   4
ATOM      4  C   UNL     1      15.178  12.932  -8.571  1.00  0.00     0.041 C 
ATOM      5  O   UNL     1      15.189  12.892  -9.831  1.00  0.00    -0.550 OA
ATOM      6  O   UNL     1      13.985  13.169  -7.901  1.00  0.00    -0.550 OA
ENDBRANCH   3   4
ENDBRANCH   2   3
ENDBRANCH   1   2
BRANCH   1   7
ATOM      7  C   UNL     1      17.687  15.044  -6.514  1.00  0.00     0.000 C 
BRANCH   7   8
ATOM      8  C   UNL     1      18.942  14.968  -5.632  1.00  0.00    -0.000 C 
BRANCH   8   9
ATOM      9  C   UNL     1      18.614  14.709  -4.153  1.00  0.00    -0.003 C 
ATOM     10  C   UNL     1      19.645  13.783  -3.515  1.00  0.00     0.004 C 
ENDBRANCH   8   9
ENDBRANCH   7   8
ENDBRANCH   1   7
TORSDOF 6
ENDMDL
MODEL 6
REMARK VINA RESULT:    -3.733      2.662      4.541
REMARK INTER + INTRA:          -5.483
REMARK INTER:                  -5.039
REMARK INTRA:                  -0.444
REMARK UNBOUND:                -0.441
REMARK SMILES CCCCCCCC(=O)[O-]
REMARK SMILES IDX 5 1 6 2 7 3 8 4 9 5 10 6 4 7 3 8 2 9 1 10
REMARK H PARENT
REMARK Flexibility Score: inf
ROOT
ATOM      1  C   UNL     1      14.674  13.265  -7.673  1.00  0.00     0.000 C 
ENDROOT
BRANCH   1   2
ATOM      2  C   UNL     1      15.633  12.970  -6.505  1.00  0.00     0.006 C 
BRANCH   2   3
ATOM      3  C   UNL     1      16.427  14.191  -6.011  1.00  0.00     0.053 C 
BRANCH   3   4
ATOM      4  C   UNL     1      17.575  13.797  -5.135  1.00  0.00     0.041 C 
ATOM      5  O   UNL     1      18.135  12.678  -5.288  1.00  0.00    -0.550 OA
ATOM      6  O   UNL     1      18.048  14.677  -4.170  1.00  0.00    -0.550 OA
ENDBRANCH   3   4
ENDBRANCH   2   3
ENDBRANCH   1   2
BRANCH   1   7
ATOM      7  C   UNL     1      15.266  12.882  -9.041  1.00  0.00     0.000 C 
BRANCH   7   8
ATOM      8  C   UNL     1      16.113  14.008  -9.654  1.00  0.00    -0.000 C 
BRANCH   8   9
ATOM      9  C   UNL     1      17.493  13.524 -10.123  1.00  0.00    -0.003 C 
ATOM     10  C   UNL     1      18.214  12.761  -9.016  1.00  0.00     0.004 C 
ENDBRANCH   8   9
ENDBRANCH   7   8
ENDBRANCH   1   7
TORSDOF 6
ENDMDL
MODEL 7
REMARK VINA RESULT:    -3.695      1.704      2.276
REMARK INTER + INTRA:          -5.431
REMARK INTER:                  -5.163
REMARK INTRA:                  -0.268
REMARK UNBOUND:                -0.441
REMARK SMILES CCCCCCCC(=O)[O-]
REMARK SMILES IDX 5 1 6 2 7 3 8 4 9 5 10 6 4 7 3 8 2 9 1 10
REMARK H PARENT
REMARK Flexibility Score: inf
ROOT
ATOM      1  C   UNL     1      15.959  13.754  -6.717  1.00  0.00     0.000 C 
ENDROOT
BRANCH   1   2
ATOM      2  C   UNL     1      14.771  13.385  -7.627  1.00  0.00     0.006 C 
BRANCH   2   3
ATOM      3  C   UNL     1      15.171  12.726  -8.957  1.00  0.00     0.053 C 
BRANCH   3   4
ATOM      4  C   UNL     1      16.301  13.448  -9.622  1.00  0.00     0.041 C 
ATOM      5  O   UNL     1      17.422  12.887  -9.756  1.00  0.00    -0.550 OA
ATOM      6  O   UNL     1      16.109  14.729 -10.123  1.00  0.00    -0.550 OA
ENDBRANCH   3   4
ENDBRANCH   2   3
ENDBRANCH   1   2
BRANCH   1   7
ATOM      7  C   UNL     1      16.706  12.520  -6.183  1.00  0.00     0.000 C 
BRANCH   7   8
ATOM      8  C   UNL     1      17.838  12.890  -5.212  1.00  0.00    -0.000 C 
BRANCH   8   9
ATOM      9  C   UNL     1      17.800  14.367  -4.792  1.00  0.00    -0.003 C 
ATOM     10  C   UNL     1      18.942  14.695  -3.834  1.00  0.00     0.004 C 
ENDBRANCH   8   9
ENDBRANCH   7   8
ENDBRANCH   1   7
TORSDOF 6
ENDMDL
MODEL 8
REMARK VINA RESULT:    -3.614      9.257     10.523
REMARK INTER + INTRA:          -5.323
REMARK INTER:                  -4.839
REMARK INTRA:                  -0.483
REMARK UNBOUND:                -0.441
REMARK SMILES CCCCCCCC(=O)[O-]
REMARK SMILES IDX 5 1 6 2 7 3 8 4 9 5 10 6 4 7 3 8 2 9 1 10
REMARK H PARENT
REMARK Flexibility Score: inf
ROOT
ATOM      1  C   UNL     1      16.531   2.801  -7.072  1.00  0.00     0.000 C 
ENDROOT
BRANCH   1   2
ATOM      2  C   UNL     1      17.550   2.038  -6.204  1.00  0.00     0.006 C 
BRANCH   2   3
ATOM      3  C   UNL     1      17.146   1.896  -4.728  1.00  0.00     0.053 C 
BRANCH   3   4
ATOM      4  C   UNL     1      17.587   3.070  -3.910  1.00  0.00     0.041 C 
ATOM      5  O   UNL     1      17.041   3.313  -2.801  1.00  0.00    -0.550 OA
ATOM      6  O   UNL     1      18.623   3.880  -4.359  1.00  0.00    -0.550 OA
ENDBRANCH   3   4
ENDBRANCH   2   3
ENDBRANCH   1   2
BRANCH   1   7
ATOM      7  C   UNL     1      17.064   4.158  -7.562  1.00  0.00     0.000 C 
BRANCH   7   8
ATOM      8  C   UNL     1      16.355   5.347  -6.897  1.00  0.00    -0.000 C 
BRANCH   8   9
ATOM      9  C   UNL     1      14.957   4.985  -6.371  1.00  0.00    -0.003 C 
ATOM     10  C   UNL     1      13.926   6.029  -6.789  1.00  0.00     0.004 C 
ENDBRANCH   8   9
ENDBRANCH   7   8
ENDBRANCH   1   7
TORSDOF 6
ENDMDL
MODEL 9
REMARK VINA RESULT:    -3.545      2.491      4.461
REMARK INTER + INTRA:          -5.229
REMARK INTER:                  -4.731
REMARK INTRA:                  -0.498
REMARK UNBOUND:                -0.441
REMARK SMILES CCCCCCCC(=O)[O-]
REMARK SMILES IDX 5 1 6 2 7 3 8 4 9 5 10 6 4 7 3 8 2 9 1 10
REMARK H PARENT
REMARK Flexibility Score: inf
ROOT
ATOM      1  C   UNL     1      17.723  15.117  -8.405  1.00  0.00     0.000 C 
ENDROOT
BRANCH   1   2
ATOM      2  C   UNL     1      18.370  15.068  -7.009  1.00  0.00     0.006 C 
BRANCH   2   3
ATOM      3  C   UNL     1      17.391  14.757  -5.866  1.00  0.00     0.053 C 
BRANCH   3   4
ATOM      4  C   UNL     1      17.722  13.468  -5.179  1.00  0.00     0.041 C 
ATOM      5  O   UNL     1      17.234  12.384  -5.594  1.00  0.00    -0.550 OA
ATOM      6  O   UNL     1      18.596  13.460  -4.099  1.00  0.00    -0.550 OA
ENDBRANCH   3   4
ENDBRANCH   2   3
ENDBRANCH   1   2
BRANCH   1   7
ATOM      7  C   UNL     1      17.388  13.720  -8.956  1.00  0.00     0.000 C 
BRANCH   7   8
ATOM      8  C   UNL     1      16.058  13.691  -9.724  1.00  0.00    -0.000 C 
BRANCH   8   9
ATOM      9  C   UNL     1      15.024  12.750  -9.086  1.00  0.00    -0.003 C 
ATOM     10  C   UNL     1      14.501  13.320  -7.771  1.00  0.00     0.004 C 
ENDBRANCH   8   9
ENDBRANCH   7   8
ENDBRANCH   1   7
TORSDOF 6
ENDMDL
