MODEL 1
REMARK VINA RESULT:     0.000      0.000      0.000
REMARK INTER + INTRA:          -0.065
REMARK INTER:                   0.000
REMARK INTRA:                  -0.065
REMARK UNBOUND:                -0.065
REMARK SMILES COc1cc2ccc(=O)oc2cc1O
REMARK SMILES IDX 3 1 13 2 12 3 11 4 5 5 4 6 6 7 7 8 8 9 9 10 10 11 2 12 1 13
REMARK SMILES IDX 14 14
REMARK H PARENT 14 15
REMARK Flexibility Score: inf
ROOT
ATOM      1  C   UNL     1     176.476 180.806 182.612  1.00  0.00     0.161 A 
ATOM      2  C   UNL     1     176.135 180.651 181.254  1.00  0.00     0.161 A 
ATOM      3  C   UNL     1     175.283 179.616 180.854  1.00  0.00     0.098 A 
ATOM      4  C   UNL     1     174.760 178.727 181.795  1.00  0.00     0.142 A 
ATOM      5  C   UNL     1     175.096 178.872 183.157  1.00  0.00     0.022 A 
ATOM      6  C   UNL     1     175.950 179.907 183.562  1.00  0.00     0.062 A 
ATOM      7  C   UNL     1     174.557 177.965 184.077  1.00  0.00     0.019 A 
ATOM      8  C   UNL     1     173.712 176.952 183.624  1.00  0.00     0.094 A 
ATOM      9  C   UNL     1     173.425 176.869 182.258  1.00  0.00     0.336 A 
ATOM     10  O   UNL     1     172.664 175.962 181.829  1.00  0.00    -0.246 OA
ATOM     11  O   UNL     1     173.950 177.745 181.406  1.00  0.00    -0.423 OA
ENDROOT
BRANCH   1  12
ATOM     12  O   UNL     1     177.335 181.854 182.979  1.00  0.00    -0.493 OA
ATOM     13  C   UNL     1     178.732 181.711 183.211  1.00  0.00     0.278 C 
ENDBRANCH   1  12
BRANCH   2  14
ATOM     14  O   UNL     1     176.636 181.520 180.284  1.00  0.00    -0.504 OA
ATOM     15  H   UNL     1     176.200 181.625 179.376  1.00  0.00     0.293 HD
ENDBRANCH   2  14
TORSDOF 2
ENDMDL
MODEL 2
REMARK VINA RESULT:     0.000      9.134     11.182
REMARK INTER + INTRA:          -0.065
REMARK INTER:                   0.000
REMARK INTRA:                  -0.065
REMARK UNBOUND:                -0.065
REMARK SMILES COc1cc2ccc(=O)oc2cc1O
REMARK SMILES IDX 3 1 13 2 12 3 11 4 5 5 4 6 6 7 7 8 8 9 9 10 10 11 2 12 1 13
REMARK SMILES IDX 14 14
REMARK H PARENT 14 15
REMARK Flexibility Score: inf
ROOT
ATOM      1  C   UNL     1     183.017 184.145 183.343  1.00  0.00     0.161 A 
ATOM      2  C   UNL     1     183.402 185.495 183.466  1.00  0.00     0.161 A 
ATOM      3  C   UNL     1     184.034 186.148 182.402  1.00  0.00     0.098 A 
ATOM      4  C   UNL     1     184.290 185.470 181.208  1.00  0.00     0.142 A 
ATOM      5  C   UNL     1     183.910 184.118 181.075  1.00  0.00     0.022 A 
ATOM      6  C   UNL     1     183.277 183.460 182.138  1.00  0.00     0.062 A 
ATOM      7  C   UNL     1     184.180 183.466 179.866  1.00  0.00     0.019 A 
ATOM      8  C   UNL     1     184.812 184.164 178.838  1.00  0.00     0.094 A 
ATOM      9  C   UNL     1     185.161 185.504 179.043  1.00  0.00     0.336 A 
ATOM     10  O   UNL     1     185.732 186.152 178.127  1.00  0.00    -0.246 OA
ATOM     11  O   UNL     1     184.892 186.099 180.201  1.00  0.00    -0.423 OA
ENDROOT
BRANCH   1  12
ATOM     12  O   UNL     1     182.386 183.519 184.430  1.00  0.00    -0.493 OA
ATOM     13  C   UNL     1     183.043 182.676 185.371  1.00  0.00     0.278 C 
ENDBRANCH   1  12
BRANCH   2  14
ATOM     14  O   UNL     1     183.163 186.205 184.642  1.00  0.00    -0.504 OA
ATOM     15  H   UNL     1     183.743 186.099 185.465  1.00  0.00     0.293 HD
ENDBRANCH   2  14
TORSDOF 2
ENDMDL
MODEL 3
REMARK VINA RESULT:     0.000      7.157     10.273
REMARK INTER + INTRA:          -0.065
REMARK INTER:                   0.000
REMARK INTRA:                  -0.065
REMARK UNBOUND:                -0.065
REMARK SMILES COc1cc2ccc(=O)oc2cc1O
REMARK SMILES IDX 3 1 13 2 12 3 11 4 5 5 4 6 6 7 7 8 8 9 9 10 10 11 2 12 1 13
REMARK SMILES IDX 14 14
REMARK H PARENT 14 15
REMARK Flexibility Score: inf
ROOT
ATOM      1  C   UNL     1     182.147 178.082 185.434  1.00  0.00     0.161 A 
ATOM      2  C   UNL     1     183.150 177.752 186.367  1.00  0.00     0.161 A 
ATOM      3  C   UNL     1     184.199 178.642 186.619  1.00  0.00     0.098 A 
ATOM      4  C   UNL     1     184.263 179.867 185.951  1.00  0.00     0.142 A 
ATOM      5  C   UNL     1     183.264 180.207 185.015  1.00  0.00     0.022 A 
ATOM      6  C   UNL     1     182.213 179.318 184.758  1.00  0.00     0.062 A 
ATOM      7  C   UNL     1     183.356 181.441 184.361  1.00  0.00     0.019 A 
ATOM      8  C   UNL     1     184.422 182.292 184.651  1.00  0.00     0.094 A 
ATOM      9  C   UNL     1     185.376 181.887 185.591  1.00  0.00     0.336 A 
ATOM     10  O   UNL     1     186.346 182.641 185.867  1.00  0.00    -0.246 OA
ATOM     11  O   UNL     1     185.264 180.709 186.198  1.00  0.00    -0.423 OA
ENDROOT
BRANCH   1  12
ATOM     12  O   UNL     1     181.109 177.164 185.203  1.00  0.00    -0.493 OA
ATOM     13  C   UNL     1     181.062 176.256 184.108  1.00  0.00     0.278 C 
ENDBRANCH   1  12
BRANCH   2  14
ATOM     14  O   UNL     1     183.121 176.539 187.054  1.00  0.00    -0.504 OA
ATOM     15  H   UNL     1     182.482 176.368 187.822  1.00  0.00     0.293 HD
ENDBRANCH   2  14
TORSDOF 2
ENDMDL
MODEL 4
REMARK VINA RESULT:     0.000      4.043      5.625
REMARK INTER + INTRA:          -0.065
REMARK INTER:                   0.000
REMARK INTRA:                  -0.065
REMARK UNBOUND:                -0.065
REMARK SMILES COc1cc2ccc(=O)oc2cc1O
REMARK SMILES IDX 3 1 13 2 12 3 11 4 5 5 4 6 6 7 7 8 8 9 9 10 10 11 2 12 1 13
REMARK SMILES IDX 14 14
REMARK H PARENT 14 15
REMARK Flexibility Score: inf
ROOT
ATOM      1  C   UNL     1     174.592 181.513 186.587  1.00  0.00     0.161 A 
ATOM      2  C   UNL     1     175.431 182.632 186.417  1.00  0.00     0.161 A 
ATOM      3  C   UNL     1     176.638 182.508 185.721  1.00  0.00     0.098 A 
ATOM      4  C   UNL     1     177.024 181.277 185.186  1.00  0.00     0.142 A 
ATOM      5  C   UNL     1     176.191 180.151 185.350  1.00  0.00     0.022 A 
ATOM      6  C   UNL     1     174.981 180.269 186.048  1.00  0.00     0.062 A 
ATOM      7  C   UNL     1     176.604 178.931 184.803  1.00  0.00     0.019 A 
ATOM      8  C   UNL     1     177.817 178.863 184.118  1.00  0.00     0.094 A 
ATOM      9  C   UNL     1     178.590 180.022 183.995  1.00  0.00     0.336 A 
ATOM     10  O   UNL     1     179.688 179.982 183.379  1.00  0.00    -0.246 OA
ATOM     11  O   UNL     1     178.173 181.169 184.524  1.00  0.00    -0.423 OA
ENDROOT
BRANCH   1  12
ATOM     12  O   UNL     1     173.388 181.671 187.292  1.00  0.00    -0.493 OA
ATOM     13  C   UNL     1     173.202 181.330 188.662  1.00  0.00     0.278 C 
ENDBRANCH   1  12
BRANCH   2  14
ATOM     14  O   UNL     1     175.081 183.878 186.936  1.00  0.00    -0.504 OA
ATOM     15  H   UNL     1     175.767 184.515 187.321  1.00  0.00     0.293 HD
ENDBRANCH   2  14
TORSDOF 2
ENDMDL
MODEL 5
REMARK VINA RESULT:     0.000      6.987      7.839
REMARK INTER + INTRA:          -0.065
REMARK INTER:                   0.000
REMARK INTRA:                  -0.065
REMARK UNBOUND:                -0.065
REMARK SMILES COc1cc2ccc(=O)oc2cc1O
REMARK SMILES IDX 3 1 13 2 12 3 11 4 5 5 4 6 6 7 7 8 8 9 9 10 10 11 2 12 1 13
REMARK SMILES IDX 14 14
REMARK H PARENT 14 15
REMARK Flexibility Score: inf
ROOT
ATOM      1  C   UNL     1     176.815 177.232 176.765  1.00  0.00     0.161 A 
ATOM      2  C   UNL     1     177.634 177.363 175.627  1.00  0.00     0.161 A 
ATOM      3  C   UNL     1     178.418 176.288 175.194  1.00  0.00     0.098 A 
ATOM      4  C   UNL     1     178.397 175.074 175.885  1.00  0.00     0.142 A 
ATOM      5  C   UNL     1     177.581 174.933 177.026  1.00  0.00     0.022 A 
ATOM      6  C   UNL     1     176.795 176.007 177.464  1.00  0.00     0.062 A 
ATOM      7  C   UNL     1     177.581 173.704 177.697  1.00  0.00     0.019 A 
ATOM      8  C   UNL     1     178.382 172.666 177.223  1.00  0.00     0.094 A 
ATOM      9  C   UNL     1     179.165 172.880 176.085  1.00  0.00     0.336 A 
ATOM     10  O   UNL     1     179.895 171.954 175.640  1.00  0.00    -0.246 OA
ATOM     11  O   UNL     1     179.145 174.057 175.466  1.00  0.00    -0.423 OA
ENDROOT
BRANCH   1  12
ATOM     12  O   UNL     1     176.042 178.331 177.174  1.00  0.00    -0.493 OA
ATOM     13  C   UNL     1     176.404 179.233 178.214  1.00  0.00     0.278 C 
ENDBRANCH   1  12
BRANCH   2  14
ATOM     14  O   UNL     1     177.682 178.559 174.910  1.00  0.00    -0.504 OA
ATOM     15  H   UNL     1     178.124 178.627 174.001  1.00  0.00     0.293 HD
ENDBRANCH   2  14
TORSDOF 2
ENDMDL
MODEL 6
REMARK VINA RESULT:     0.000      8.106      9.123
REMARK INTER + INTRA:          -0.065
REMARK INTER:                   0.000
REMARK INTRA:                  -0.065
REMARK UNBOUND:                -0.065
REMARK SMILES COc1cc2ccc(=O)oc2cc1O
REMARK SMILES IDX 3 1 13 2 12 3 11 4 5 5 4 6 6 7 7 8 8 9 9 10 10 11 2 12 1 13
REMARK SMILES IDX 14 14
REMARK H PARENT 14 15
REMARK Flexibility Score: inf
ROOT
ATOM      1  C   UNL     1     184.223 182.771 181.524  1.00  0.00     0.161 A 
ATOM      2  C   UNL     1     182.946 183.135 181.053  1.00  0.00     0.161 A 
ATOM      3  C   UNL     1     181.912 183.403 181.956  1.00  0.00     0.098 A 
ATOM      4  C   UNL     1     182.134 183.314 183.333  1.00  0.00     0.142 A 
ATOM      5  C   UNL     1     183.408 182.950 183.814  1.00  0.00     0.022 A 
ATOM      6  C   UNL     1     184.447 182.680 182.914  1.00  0.00     0.062 A 
ATOM      7  C   UNL     1     183.599 182.869 185.199  1.00  0.00     0.019 A 
ATOM      8  C   UNL     1     182.534 183.147 186.054  1.00  0.00     0.094 A 
ATOM      9  C   UNL     1     181.298 183.502 185.504  1.00  0.00     0.336 A 
ATOM     10  O   UNL     1     180.324 183.757 186.260  1.00  0.00    -0.246 OA
ATOM     11  O   UNL     1     181.144 183.572 184.185  1.00  0.00    -0.423 OA
ENDROOT
BRANCH   1  12
ATOM     12  O   UNL     1     185.239 182.507 180.591  1.00  0.00    -0.493 OA
ATOM     13  C   UNL     1     185.628 181.206 180.165  1.00  0.00     0.278 C 
ENDBRANCH   1  12
BRANCH   2  14
ATOM     14  O   UNL     1     182.686 183.235 179.687  1.00  0.00    -0.504 OA
ATOM     15  H   UNL     1     183.376 183.577 179.029  1.00  0.00     0.293 HD
ENDBRANCH   2  14
TORSDOF 2
ENDMDL
MODEL 7
REMARK VINA RESULT:     0.000      4.117      7.096
REMARK INTER + INTRA:          -0.065
REMARK INTER:                   0.000
REMARK INTRA:                  -0.065
REMARK UNBOUND:                -0.065
REMARK SMILES COc1cc2ccc(=O)oc2cc1O
REMARK SMILES IDX 3 1 13 2 12 3 11 4 5 5 4 6 6 7 7 8 8 9 9 10 10 11 2 12 1 13
REMARK SMILES IDX 14 14
REMARK H PARENT 14 15
REMARK Flexibility Score: inf
ROOT
ATOM      1  C   UNL     1     175.284 182.946 183.358  1.00  0.00     0.161 A 
ATOM      2  C   UNL     1     175.073 182.644 181.998  1.00  0.00     0.161 A 
ATOM      3  C   UNL     1     175.499 183.532 181.005  1.00  0.00     0.098 A 
ATOM      4  C   UNL     1     176.136 184.726 181.349  1.00  0.00     0.142 A 
ATOM      5  C   UNL     1     176.351 185.039 182.707  1.00  0.00     0.022 A 
ATOM      6  C   UNL     1     175.926 184.152 183.706  1.00  0.00     0.062 A 
ATOM      7  C   UNL     1     176.992 186.243 183.021  1.00  0.00     0.019 A 
ATOM      8  C   UNL     1     177.396 187.091 181.991  1.00  0.00     0.094 A 
ATOM      9  C   UNL     1     177.149 186.715 180.667  1.00  0.00     0.336 A 
ATOM     10  O   UNL     1     177.506 187.468 179.722  1.00  0.00    -0.246 OA
ATOM     11  O   UNL     1     176.538 185.565 180.397  1.00  0.00    -0.423 OA
ENDROOT
BRANCH   1  12
ATOM     12  O   UNL     1     174.843 182.033 184.331  1.00  0.00    -0.493 OA
ATOM     13  C   UNL     1     173.626 182.152 185.058  1.00  0.00     0.278 C 
ENDBRANCH   1  12
BRANCH   2  14
ATOM     14  O   UNL     1     174.441 181.461 181.615  1.00  0.00    -0.504 OA
ATOM     15  H   UNL     1     174.909 180.753 181.063  1.00  0.00     0.293 HD
ENDBRANCH   2  14
TORSDOF 2
ENDMDL
MODEL 8
REMARK VINA RESULT:     0.000      6.993      9.503
REMARK INTER + INTRA:          -0.065
REMARK INTER:                   0.000
REMARK INTRA:                  -0.065
REMARK UNBOUND:                -0.065
REMARK SMILES COc1cc2ccc(=O)oc2cc1O
REMARK SMILES IDX 3 1 13 2 12 3 11 4 5 5 4 6 6 7 7 8 8 9 9 10 10 11 2 12 1 13
REMARK SMILES IDX 14 14
REMARK H PARENT 14 15
REMARK Flexibility Score: inf
ROOT
ATOM      1  C   UNL     1     181.211 182.351 180.229  1.00  0.00     0.161 A 
ATOM      2  C   UNL     1     181.423 183.736 180.376  1.00  0.00     0.161 A 
ATOM      3  C   UNL     1     181.752 184.521 179.266  1.00  0.00     0.098 A 
ATOM      4  C   UNL     1     181.872 183.942 178.001  1.00  0.00     0.142 A 
ATOM      5  C   UNL     1     181.663 182.556 177.842  1.00  0.00     0.022 A 
ATOM      6  C   UNL     1     181.334 181.766 178.952  1.00  0.00     0.062 A 
ATOM      7  C   UNL     1     181.791 182.005 176.562  1.00  0.00     0.019 A 
ATOM      8  C   UNL     1     182.121 182.833 175.490  1.00  0.00     0.094 A 
ATOM      9  C   UNL     1     182.314 184.198 175.723  1.00  0.00     0.336 A 
ATOM     10  O   UNL     1     182.611 184.963 174.768  1.00  0.00    -0.246 OA
ATOM     11  O   UNL     1     182.185 184.696 176.950  1.00  0.00    -0.423 OA
ENDROOT
BRANCH   1  12
ATOM     12  O   UNL     1     180.884 181.591 181.364  1.00  0.00    -0.493 OA
ATOM     13  C   UNL     1     181.812 180.814 182.112  1.00  0.00     0.278 C 
ENDBRANCH   1  12
BRANCH   2  14
ATOM     14  O   UNL     1     181.311 184.351 181.623  1.00  0.00    -0.504 OA
ATOM     15  H   UNL     1     181.765 183.984 182.450  1.00  0.00     0.293 HD
ENDBRANCH   2  14
TORSDOF 2
ENDMDL
MODEL 9
REMARK VINA RESULT:     0.000      7.887      8.685
REMARK INTER + INTRA:          -0.065
REMARK INTER:                   0.000
REMARK INTRA:                  -0.065
REMARK UNBOUND:                -0.065
REMARK SMILES COc1cc2ccc(=O)oc2cc1O
REMARK SMILES IDX 3 1 13 2 12 3 11 4 5 5 4 6 6 7 7 8 8 9 9 10 10 11 2 12 1 13
REMARK SMILES IDX 14 14
REMARK H PARENT 14 15
REMARK Flexibility Score: inf
ROOT
ATOM      1  C   UNL     1     181.968 175.970 185.540  1.00  0.00     0.161 A 
ATOM      2  C   UNL     1     180.752 175.317 185.257  1.00  0.00     0.161 A 
ATOM      3  C   UNL     1     180.591 174.616 184.057  1.00  0.00     0.098 A 
ATOM      4  C   UNL     1     181.632 174.555 183.128  1.00  0.00     0.142 A 
ATOM      5  C   UNL     1     182.853 175.206 183.401  1.00  0.00     0.022 A 
ATOM      6  C   UNL     1     183.019 175.910 184.601  1.00  0.00     0.062 A 
ATOM      7  C   UNL     1     183.877 175.128 182.450  1.00  0.00     0.019 A 
ATOM      8  C   UNL     1     183.663 174.416 181.271  1.00  0.00     0.094 A 
ATOM      9  C   UNL     1     182.426 173.796 181.068  1.00  0.00     0.336 A 
ATOM     10  O   UNL     1     182.213 173.148 180.010  1.00  0.00    -0.246 OA
ATOM     11  O   UNL     1     181.470 173.886 181.989  1.00  0.00    -0.423 OA
ENDROOT
BRANCH   1  12
ATOM     12  O   UNL     1     182.096 176.666 186.754  1.00  0.00    -0.493 OA
ATOM     13  C   UNL     1     181.939 178.073 186.899  1.00  0.00     0.278 C 
ENDBRANCH   1  12
BRANCH   2  14
ATOM     14  O   UNL     1     179.690 175.353 186.160  1.00  0.00    -0.504 OA
ATOM     15  H   UNL     1     179.236 176.219 186.425  1.00  0.00     0.293 HD
ENDBRANCH   2  14
TORSDOF 2
ENDMDL
