MODEL 1
REMARK VINA RESULT:    -4.393      0.000      0.000
REMARK INTER + INTRA:          -6.102
REMARK INTER:                  -5.678
REMARK INTRA:                  -0.424
REMARK UNBOUND:                -0.424
REMARK SMILES C=CC(=O)CCCCC
REMARK SMILES IDX 6 1 7 2 8 3 9 4 5 5 3 6 4 7 2 8 1 9
REMARK H PARENT
REMARK Flexibility Score: inf
ROOT
ATOM      1  C   UNL     1      -7.210  31.087  23.559  1.00  0.00     0.008 C 
ENDROOT
BRANCH   1   2
ATOM      2  C   UNL     1      -7.048  29.809  22.719  1.00  0.00     0.000 C 
BRANCH   2   3
ATOM      3  C   UNL     1      -8.369  29.353  22.079  1.00  0.00    -0.003 C 
ATOM      4  C   UNL     1      -8.675  27.879  22.341  1.00  0.00     0.004 C 
ENDBRANCH   2   3
ENDBRANCH   1   2
BRANCH   1   5
ATOM      5  C   UNL     1      -8.440  31.906  23.142  1.00  0.00     0.080 C 
BRANCH   5   6
ATOM      6  C   UNL     1      -8.058  33.264  22.624  1.00  0.00     0.155 C 
ATOM      7  O   UNL     1      -7.626  34.131  23.432  1.00  0.00    -0.295 OA
BRANCH   6   8
ATOM      8  C   UNL     1      -8.164  33.568  21.184  1.00  0.00     0.039 C 
ATOM      9  C   UNL     1      -7.672  32.762  20.245  1.00  0.00     0.012 C 
ENDBRANCH   6   8
ENDBRANCH   5   6
ENDBRANCH   1   5
TORSDOF 5
ENDMDL
MODEL 2
REMARK VINA RESULT:    -4.377      1.649      1.666
REMARK INTER + INTRA:          -6.080
REMARK INTER:                  -5.688
REMARK INTRA:                  -0.392
REMARK UNBOUND:                -0.424
REMARK SMILES C=CC(=O)CCCCC
REMARK SMILES IDX 6 1 7 2 8 3 9 4 5 5 3 6 4 7 2 8 1 9
REMARK H PARENT
REMARK Flexibility Score: inf
ROOT
ATOM      1  C   UNL     1      -7.554  31.317  23.387  1.00  0.00     0.008 C 
ENDROOT
BRANCH   1   2
ATOM      2  C   UNL     1      -7.182  29.999  22.689  1.00  0.00     0.000 C 
BRANCH   2   3
ATOM      3  C   UNL     1      -7.954  28.795  23.251  1.00  0.00    -0.003 C 
ATOM      4  C   UNL     1      -8.653  27.980  22.164  1.00  0.00     0.004 C 
ENDBRANCH   2   3
ENDBRANCH   1   2
BRANCH   1   5
ATOM      5  C   UNL     1      -8.927  31.843  22.943  1.00  0.00     0.080 C 
BRANCH   5   6
ATOM      6  C   UNL     1      -8.953  32.167  21.476  1.00  0.00     0.155 C 
ATOM      7  O   UNL     1      -9.680  31.481  20.706  1.00  0.00    -0.295 OA
BRANCH   6   8
ATOM      8  C   UNL     1      -8.157  33.293  20.948  1.00  0.00     0.039 C 
ATOM      9  C   UNL     1      -7.452  33.204  19.822  1.00  0.00     0.012 C 
ENDBRANCH   6   8
ENDBRANCH   5   6
ENDBRANCH   1   5
TORSDOF 5
ENDMDL
MODEL 3
REMARK VINA RESULT:    -4.290      1.696      2.100
REMARK INTER + INTRA:          -5.968
REMARK INTER:                  -5.721
REMARK INTRA:                  -0.247
REMARK UNBOUND:                -0.424
REMARK SMILES C=CC(=O)CCCCC
REMARK SMILES IDX 6 1 7 2 8 3 9 4 5 5 3 6 4 7 2 8 1 9
REMARK H PARENT
REMARK Flexibility Score: inf
ROOT
ATOM      1  C   UNL     1      -7.784  31.005  21.656  1.00  0.00     0.008 C 
ENDROOT
BRANCH   1   2
ATOM      2  C   UNL     1      -8.031  30.357  23.028  1.00  0.00     0.000 C 
BRANCH   2   3
ATOM      3  C   UNL     1      -7.711  28.854  23.037  1.00  0.00    -0.003 C 
ATOM      4  C   UNL     1      -8.646  28.045  22.138  1.00  0.00     0.004 C 
ENDBRANCH   2   3
ENDBRANCH   1   2
BRANCH   1   5
ATOM      5  C   UNL     1      -8.695  32.217  21.413  1.00  0.00     0.080 C 
BRANCH   5   6
ATOM      6  C   UNL     1      -7.920  33.413  20.937  1.00  0.00     0.155 C 
ATOM      7  O   UNL     1      -7.350  33.370  19.812  1.00  0.00    -0.295 OA
BRANCH   6   8
ATOM      8  C   UNL     1      -7.849  34.632  21.767  1.00  0.00     0.039 C 
ATOM      9  C   UNL     1      -7.528  34.599  23.058  1.00  0.00     0.012 C 
ENDBRANCH   6   8
ENDBRANCH   5   6
ENDBRANCH   1   5
TORSDOF 5
ENDMDL
MODEL 4
REMARK VINA RESULT:    -4.143      1.737      4.302
REMARK INTER + INTRA:          -5.778
REMARK INTER:                  -5.380
REMARK INTRA:                  -0.398
REMARK UNBOUND:                -0.424
REMARK SMILES C=CC(=O)CCCCC
REMARK SMILES IDX 6 1 7 2 8 3 9 4 5 5 3 6 4 7 2 8 1 9
REMARK H PARENT
REMARK Flexibility Score: inf
ROOT
ATOM      1  C   UNL     1      -7.921  33.301  20.951  1.00  0.00     0.008 C 
ENDROOT
BRANCH   1   2
ATOM      2  C   UNL     1      -7.913  34.678  21.636  1.00  0.00     0.000 C 
BRANCH   2   3
ATOM      3  C   UNL     1      -7.258  34.640  23.026  1.00  0.00    -0.003 C 
ATOM      4  C   UNL     1      -8.253  34.909  24.155  1.00  0.00     0.004 C 
ENDBRANCH   2   3
ENDBRANCH   1   2
BRANCH   1   5
ATOM      5  C   UNL     1      -9.110  32.437  21.397  1.00  0.00     0.080 C 
BRANCH   5   6
ATOM      6  C   UNL     1      -8.717  31.451  22.460  1.00  0.00     0.155 C 
ATOM      7  O   UNL     1      -9.389  31.394  23.526  1.00  0.00    -0.295 OA
BRANCH   6   8
ATOM      8  C   UNL     1      -7.572  30.543  22.246  1.00  0.00     0.039 C 
ATOM      9  C   UNL     1      -6.838  30.071  23.251  1.00  0.00     0.012 C 
ENDBRANCH   6   8
ENDBRANCH   5   6
ENDBRANCH   1   5
TORSDOF 5
ENDMDL
MODEL 5
REMARK VINA RESULT:    -4.099      2.375      4.080
REMARK INTER + INTRA:          -5.721
REMARK INTER:                  -5.391
REMARK INTRA:                  -0.330
REMARK UNBOUND:                -0.424
REMARK SMILES C=CC(=O)CCCCC
REMARK SMILES IDX 6 1 7 2 8 3 9 4 5 5 3 6 4 7 2 8 1 9
REMARK H PARENT
REMARK Flexibility Score: inf
ROOT
ATOM      1  C   UNL     1      -7.599  32.493  23.598  1.00  0.00     0.008 C 
ENDROOT
BRANCH   1   2
ATOM      2  C   UNL     1      -8.098  33.465  24.680  1.00  0.00     0.000 C 
BRANCH   2   3
ATOM      3  C   UNL     1      -7.661  34.915  24.417  1.00  0.00    -0.003 C 
ATOM      4  C   UNL     1      -8.663  35.940  24.947  1.00  0.00     0.004 C 
ENDBRANCH   2   3
ENDBRANCH   1   2
BRANCH   1   5
ATOM      5  C   UNL     1      -8.754  31.786  22.874  1.00  0.00     0.080 C 
BRANCH   5   6
ATOM      6  C   UNL     1      -9.000  32.370  21.511  1.00  0.00     0.155 C 
ATOM      7  O   UNL     1      -9.981  31.959  20.833  1.00  0.00    -0.295 OA
BRANCH   6   8
ATOM      8  C   UNL     1      -8.116  33.429  20.985  1.00  0.00     0.039 C 
ATOM      9  C   UNL     1      -7.432  33.291  19.851  1.00  0.00     0.012 C 
ENDBRANCH   6   8
ENDBRANCH   5   6
ENDBRANCH   1   5
TORSDOF 5
ENDMDL
MODEL 6
REMARK VINA RESULT:    -4.050      1.965      3.127
REMARK INTER + INTRA:          -5.658
REMARK INTER:                  -5.137
REMARK INTRA:                  -0.521
REMARK UNBOUND:                -0.424
REMARK SMILES C=CC(=O)CCCCC
REMARK SMILES IDX 6 1 7 2 8 3 9 4 5 5 3 6 4 7 2 8 1 9
REMARK H PARENT
REMARK Flexibility Score: inf
ROOT
ATOM      1  C   UNL     1      -8.682  31.411  23.068  1.00  0.00     0.008 C 
ENDROOT
BRANCH   1   2
ATOM      2  C   UNL     1      -8.013  31.288  21.689  1.00  0.00     0.000 C 
BRANCH   2   3
ATOM      3  C   UNL     1      -8.560  32.305  20.675  1.00  0.00    -0.003 C 
ATOM      4  C   UNL     1      -7.454  33.039  19.918  1.00  0.00     0.004 C 
ENDBRANCH   2   3
ENDBRANCH   1   2
BRANCH   1   5
ATOM      5  C   UNL     1      -7.661  31.660  24.189  1.00  0.00     0.080 C 
BRANCH   5   6
ATOM      6  C   UNL     1      -7.839  33.014  24.816  1.00  0.00     0.155 C 
ATOM      7  O   UNL     1      -7.671  33.144  26.060  1.00  0.00    -0.295 OA
BRANCH   6   8
ATOM      8  C   UNL     1      -8.182  34.182  23.980  1.00  0.00     0.039 C 
ATOM      9  C   UNL     1      -7.267  34.860  23.291  1.00  0.00     0.012 C 
ENDBRANCH   6   8
ENDBRANCH   5   6
ENDBRANCH   1   5
TORSDOF 5
ENDMDL
MODEL 7
REMARK VINA RESULT:    -4.036      1.718      4.015
REMARK INTER + INTRA:          -5.640
REMARK INTER:                  -5.264
REMARK INTRA:                  -0.376
REMARK UNBOUND:                -0.424
REMARK SMILES C=CC(=O)CCCCC
REMARK SMILES IDX 6 1 7 2 8 3 9 4 5 5 3 6 4 7 2 8 1 9
REMARK H PARENT
REMARK Flexibility Score: inf
ROOT
ATOM      1  C   UNL     1      -9.184  32.095  23.204  1.00  0.00     0.008 C 
ENDROOT
BRANCH   1   2
ATOM      2  C   UNL     1      -9.343  32.457  21.718  1.00  0.00     0.000 C 
BRANCH   2   3
ATOM      3  C   UNL     1      -8.270  33.445  21.234  1.00  0.00    -0.003 C 
ATOM      4  C   UNL     1      -7.530  32.953  19.990  1.00  0.00     0.004 C 
ENDBRANCH   2   3
ENDBRANCH   1   2
BRANCH   1   5
ATOM      5  C   UNL     1      -7.728  31.777  23.573  1.00  0.00     0.080 C 
BRANCH   5   6
ATOM      6  C   UNL     1      -7.508  30.303  23.760  1.00  0.00     0.155 C 
ATOM      7  O   UNL     1      -7.379  29.843  24.928  1.00  0.00    -0.295 OA
BRANCH   6   8
ATOM      8  C   UNL     1      -7.470  29.401  22.591  1.00  0.00     0.039 C 
ATOM      9  C   UNL     1      -8.242  28.320  22.498  1.00  0.00     0.012 C 
ENDBRANCH   6   8
ENDBRANCH   5   6
ENDBRANCH   1   5
TORSDOF 5
ENDMDL
MODEL 8
REMARK VINA RESULT:    -3.995      2.530      4.619
REMARK INTER + INTRA:          -5.586
REMARK INTER:                  -5.236
REMARK INTRA:                  -0.351
REMARK UNBOUND:                -0.424
REMARK SMILES C=CC(=O)CCCCC
REMARK SMILES IDX 6 1 7 2 8 3 9 4 5 5 3 6 4 7 2 8 1 9
REMARK H PARENT
REMARK Flexibility Score: inf
ROOT
ATOM      1  C   UNL     1      -7.312  34.821  23.729  1.00  0.00     0.008 C 
ENDROOT
BRANCH   1   2
ATOM      2  C   UNL     1      -8.260  35.687  24.575  1.00  0.00     0.000 C 
BRANCH   2   3
ATOM      3  C   UNL     1      -8.138  35.398  26.080  1.00  0.00    -0.003 C 
ATOM      4  C   UNL     1      -7.686  33.967  26.373  1.00  0.00     0.004 C 
ENDBRANCH   2   3
ENDBRANCH   1   2
BRANCH   1   5
ATOM      5  C   UNL     1      -7.849  34.587  22.310  1.00  0.00     0.080 C 
BRANCH   5   6
ATOM      6  C   UNL     1      -8.366  33.188  22.130  1.00  0.00     0.155 C 
ATOM      7  O   UNL     1      -9.181  32.947  21.198  1.00  0.00    -0.295 OA
BRANCH   6   8
ATOM      8  C   UNL     1      -7.903  32.104  23.020  1.00  0.00     0.039 C 
ATOM      9  C   UNL     1      -7.492  30.925  22.555  1.00  0.00     0.012 C 
ENDBRANCH   6   8
ENDBRANCH   5   6
ENDBRANCH   1   5
TORSDOF 5
ENDMDL
MODEL 9
REMARK VINA RESULT:    -3.952      1.815      2.833
REMARK INTER + INTRA:          -5.531
REMARK INTER:                  -5.150
REMARK INTRA:                  -0.381
REMARK UNBOUND:                -0.424
REMARK SMILES C=CC(=O)CCCCC
REMARK SMILES IDX 6 1 7 2 8 3 9 4 5 5 3 6 4 7 2 8 1 9
REMARK H PARENT
REMARK Flexibility Score: inf
ROOT
ATOM      1  C   UNL     1      -9.061  32.759  21.821  1.00  0.00     0.008 C 
ENDROOT
BRANCH   1   2
ATOM      2  C   UNL     1      -7.931  31.780  21.460  1.00  0.00     0.000 C 
BRANCH   2   3
ATOM      3  C   UNL     1      -8.162  30.374  22.038  1.00  0.00    -0.003 C 
ATOM      4  C   UNL     1      -6.967  29.863  22.843  1.00  0.00     0.004 C 
ENDBRANCH   2   3
ENDBRANCH   1   2
BRANCH   1   5
ATOM      5  C   UNL     1      -9.410  32.718  23.317  1.00  0.00     0.080 C 
BRANCH   5   6
ATOM      6  C   UNL     1      -8.379  33.426  24.150  1.00  0.00     0.155 C 
ATOM      7  O   UNL     1      -7.716  32.768  24.999  1.00  0.00    -0.295 OA
BRANCH   6   8
ATOM      8  C   UNL     1      -8.130  34.868  23.958  1.00  0.00     0.039 C 
ATOM      9  C   UNL     1      -8.592  35.791  24.800  1.00  0.00     0.012 C 
ENDBRANCH   6   8
ENDBRANCH   5   6
ENDBRANCH   1   5
TORSDOF 5
ENDMDL
