MODEL 1
REMARK VINA RESULT:    -7.184      0.000      0.000
REMARK INTER + INTRA:         -11.151
REMARK INTER:                 -10.754
REMARK INTRA:                  -0.397
REMARK UNBOUND:                -0.397
REMARK SMILES C=C(CC[C@H](C(=O)[O-])[C@@H]1[C@H](O)C[C@]2(C)C3=C(CC[C@]12C)[C@@]1(C)CC[C@H](OC(C)=O)C(C)(C)[C@H]1CC3)C(C)C
REMARK SMILES IDX 4 1 5 2 6 3 7 4 8 5 9 6 10 7 19 8 12 9 13 10 18 11 20 12
REMARK SMILES IDX 14 13 15 14 17 15 16 16 35 17 21 18 34 19 33 20 23 21 22 22
REMARK SMILES IDX 30 23 24 24 25 25 31 26 32 27 11 28 26 30 27 31 29 32 28 33
REMARK SMILES IDX 3 34 2 35 1 36 36 37 37 38 38 39
REMARK H PARENT 11 29
REMARK Flexibility Score: inf
ROOT
ATOM      1  C   UNL     1      -6.294  36.061   2.985  1.00  0.00     0.014 C 
ENDROOT
BRANCH   1   2
ATOM      2  C   UNL     1      -7.021  36.054   1.605  1.00  0.00     0.042 C 
BRANCH   2   3
ATOM      3  C   UNL     1      -5.987  35.870   0.523  1.00  0.00     0.045 C 
ATOM      4  O   UNL     1      -6.134  34.977  -0.354  1.00  0.00    -0.550 OA
ATOM      5  O   UNL     1      -4.831  36.647   0.520  1.00  0.00    -0.550 OA
ENDBRANCH   2   3
BRANCH   2   6
ATOM      6  C   UNL     1      -7.874  37.352   1.369  1.00  0.00     0.033 C 
ATOM      7  C   UNL     1      -8.993  37.595   2.425  1.00  0.00     0.119 C 
ATOM      8  C   UNL     1      -8.575  37.516  -0.026  1.00  0.00    -0.017 C 
ATOM      9  C   UNL     1     -10.220  38.138   1.680  1.00  0.00     0.043 C 
ATOM     10  C   UNL     1      -9.764  38.505   0.255  1.00  0.00    -0.003 C 
ATOM     11  C   UNL     1      -9.166  36.175  -0.527  1.00  0.00     0.012 C 
ATOM     12  C   UNL     1      -7.587  38.069  -1.097  1.00  0.00     0.013 C 
ATOM     13  C   UNL     1      -9.296  39.988   0.249  1.00  0.00     0.017 C 
ATOM     14  C   UNL     1     -10.946  38.369  -0.729  1.00  0.00    -0.064 C 
ATOM     15  C   UNL     1      -9.951  36.361  -1.822  1.00  0.00     0.032 C 
ATOM     16  C   UNL     1     -10.941  37.522  -1.788  1.00  0.00    -0.064 C 
ATOM     17  C   UNL     1     -12.230  39.090  -0.429  1.00  0.00     0.032 C 
ATOM     18  C   UNL     1     -11.948  37.711  -2.961  1.00  0.00    -0.008 C 
ATOM     19  C   UNL     1     -12.819  39.801  -1.643  1.00  0.00     0.009 C 
ATOM     20  C   UNL     1     -12.430  39.221  -3.048  1.00  0.00     0.009 C 
ATOM     21  C   UNL     1     -13.178  36.795  -2.753  1.00  0.00     0.015 C 
ATOM     22  C   UNL     1     -11.201  37.285  -4.267  1.00  0.00     0.016 C 
ATOM     23  C   UNL     1     -13.589  39.498  -4.112  1.00  0.00     0.005 C 
ATOM     24  C   UNL     1     -14.270  37.007  -3.815  1.00  0.00     0.047 C 
ATOM     25  C   UNL     1     -14.753  38.468  -3.900  1.00  0.00     0.182 C 
ATOM     26  C   UNL     1     -13.061  39.450  -5.584  1.00  0.00     0.015 C 
ATOM     27  C   UNL     1     -14.152  40.943  -3.933  1.00  0.00     0.015 C 
BRANCH   7  28
ATOM     28  O   UNL     1      -9.323  36.451   3.178  1.00  0.00    -0.393 OA
ATOM     29  H   UNL     1      -9.393  36.718   4.130  1.00  0.00     0.210 HD
ENDBRANCH   7  28
BRANCH  25  30
ATOM     30  O   UNL     1     -15.704  38.554  -4.967  1.00  0.00    -0.462 OA
BRANCH  30  31
ATOM     31  C   UNL     1     -17.055  38.873  -4.793  1.00  0.00     0.302 C 
ATOM     32  O   UNL     1     -17.886  38.716  -5.725  1.00  0.00    -0.253 OA
ATOM     33  C   UNL     1     -17.520  39.375  -3.470  1.00  0.00     0.139 C 
ENDBRANCH  30  31
ENDBRANCH  25  30
ENDBRANCH   2   6
ENDBRANCH   1   2
BRANCH   1  34
ATOM     34  C   UNL     1      -5.435  34.805   3.183  1.00  0.00     0.031 C 
BRANCH  34  35
ATOM     35  C   UNL     1      -5.789  34.106   4.474  1.00  0.00    -0.075 C 
ATOM     36  C   UNL     1      -6.975  34.351   5.058  1.00  0.00     0.008 C 
BRANCH  35  37
ATOM     37  C   UNL     1      -4.803  33.114   5.072  1.00  0.00     0.008 C 
ATOM     38  C   UNL     1      -4.716  33.274   6.594  1.00  0.00     0.012 C 
ATOM     39  C   UNL     1      -5.147  31.668   4.689  1.00  0.00     0.012 C 
ENDBRANCH  35  37
ENDBRANCH  34  35
ENDBRANCH   1  34
TORSDOF 9
ENDMDL
MODEL 2
REMARK VINA RESULT:    -7.042      4.580      7.359
REMARK INTER + INTRA:         -10.939
REMARK INTER:                 -10.422
REMARK INTRA:                  -0.517
REMARK UNBOUND:                -0.397
REMARK SMILES C=C(CC[C@H](C(=O)[O-])[C@@H]1[C@H](O)C[C@]2(C)C3=C(CC[C@]12C)[C@@]1(C)CC[C@H](OC(C)=O)C(C)(C)[C@H]1CC3)C(C)C
REMARK SMILES IDX 4 1 5 2 6 3 7 4 8 5 9 6 10 7 19 8 12 9 13 10 18 11 20 12
REMARK SMILES IDX 14 13 15 14 17 15 16 16 35 17 21 18 34 19 33 20 23 21 22 22
REMARK SMILES IDX 30 23 24 24 25 25 31 26 32 27 11 28 26 30 27 31 29 32 28 33
REMARK SMILES IDX 3 34 2 35 1 36 36 37 37 38 38 39
REMARK H PARENT 11 29
REMARK Flexibility Score: inf
ROOT
ATOM      1  C   UNL     1      -5.916  36.528   2.472  1.00  0.00     0.014 C 
ENDROOT
BRANCH   1   2
ATOM      2  C   UNL     1      -6.647  36.212   1.130  1.00  0.00     0.042 C 
BRANCH   2   3
ATOM      3  C   UNL     1      -5.779  36.687  -0.008  1.00  0.00     0.045 C 
ATOM      4  O   UNL     1      -5.806  36.094  -1.120  1.00  0.00    -0.550 OA
ATOM      5  O   UNL     1      -4.898  37.748   0.179  1.00  0.00    -0.550 OA
ENDBRANCH   2   3
BRANCH   2   6
ATOM      6  C   UNL     1      -8.081  36.851   1.064  1.00  0.00     0.033 C 
ATOM      7  C   UNL     1      -8.120  38.388   1.318  1.00  0.00     0.119 C 
ATOM      8  C   UNL     1      -9.189  36.246   1.998  1.00  0.00    -0.017 C 
ATOM      9  C   UNL     1      -9.371  38.685   2.157  1.00  0.00     0.043 C 
ATOM     10  C   UNL     1     -10.234  37.410   2.157  1.00  0.00    -0.003 C 
ATOM     11  C   UNL     1      -8.626  35.903   3.399  1.00  0.00     0.012 C 
ATOM     12  C   UNL     1      -9.820  34.966   1.374  1.00  0.00     0.013 C 
ATOM     13  C   UNL     1     -11.216  37.473   0.952  1.00  0.00     0.017 C 
ATOM     14  C   UNL     1     -11.068  37.337   3.454  1.00  0.00    -0.064 C 
ATOM     15  C   UNL     1      -9.729  35.431   4.342  1.00  0.00     0.032 C 
ATOM     16  C   UNL     1     -10.964  36.326   4.352  1.00  0.00    -0.064 C 
ATOM     17  C   UNL     1     -11.931  38.508   3.832  1.00  0.00     0.032 C 
ATOM     18  C   UNL     1     -12.086  36.081   5.405  1.00  0.00    -0.008 C 
ATOM     19  C   UNL     1     -13.326  38.103   4.295  1.00  0.00     0.009 C 
ATOM     20  C   UNL     1     -13.471  36.660   4.893  1.00  0.00     0.009 C 
ATOM     21  C   UNL     1     -11.711  36.763   6.743  1.00  0.00     0.015 C 
ATOM     22  C   UNL     1     -12.169  34.534   5.619  1.00  0.00     0.016 C 
ATOM     23  C   UNL     1     -14.658  36.610   5.961  1.00  0.00     0.005 C 
ATOM     24  C   UNL     1     -12.822  36.658   7.800  1.00  0.00     0.047 C 
ATOM     25  C   UNL     1     -14.170  37.229   7.317  1.00  0.00     0.182 C 
ATOM     26  C   UNL     1     -15.200  35.157   6.172  1.00  0.00     0.015 C 
ATOM     27  C   UNL     1     -15.885  37.427   5.444  1.00  0.00     0.015 C 
BRANCH   7  28
ATOM     28  O   UNL     1      -6.961  38.891   1.940  1.00  0.00    -0.393 OA
ATOM     29  H   UNL     1      -6.219  38.858   1.283  1.00  0.00     0.210 HD
ENDBRANCH   7  28
BRANCH  25  30
ATOM     30  O   UNL     1     -15.136  37.007   8.351  1.00  0.00    -0.462 OA
BRANCH  30  31
ATOM     31  C   UNL     1     -15.487  37.955   9.318  1.00  0.00     0.302 C 
ATOM     32  O   UNL     1     -16.167  38.971   9.016  1.00  0.00    -0.253 OA
ATOM     33  C   UNL     1     -15.075  37.738  10.732  1.00  0.00     0.139 C 
ENDBRANCH  30  31
ENDBRANCH  25  30
ENDBRANCH   2   6
ENDBRANCH   1   2
BRANCH   1  34
ATOM     34  C   UNL     1      -4.837  35.484   2.792  1.00  0.00     0.031 C 
BRANCH  34  35
ATOM     35  C   UNL     1      -4.912  35.057   4.238  1.00  0.00    -0.075 C 
ATOM     36  C   UNL     1      -4.194  35.716   5.164  1.00  0.00     0.008 C 
BRANCH  35  37
ATOM     37  C   UNL     1      -5.828  33.904   4.622  1.00  0.00     0.008 C 
ATOM     38  C   UNL     1      -5.043  32.592   4.734  1.00  0.00     0.012 C 
ATOM     39  C   UNL     1      -6.601  34.196   5.915  1.00  0.00     0.012 C 
ENDBRANCH  35  37
ENDBRANCH  34  35
ENDBRANCH   1  34
TORSDOF 9
ENDMDL
MODEL 3
REMARK VINA RESULT:    -6.762      5.313      8.085
REMARK INTER + INTRA:         -10.520
REMARK INTER:                  -9.574
REMARK INTRA:                  -0.946
REMARK UNBOUND:                -0.397
REMARK SMILES C=C(CC[C@H](C(=O)[O-])[C@@H]1[C@H](O)C[C@]2(C)C3=C(CC[C@]12C)[C@@]1(C)CC[C@H](OC(C)=O)C(C)(C)[C@H]1CC3)C(C)C
REMARK SMILES IDX 4 1 5 2 6 3 7 4 8 5 9 6 10 7 19 8 12 9 13 10 18 11 20 12
REMARK SMILES IDX 14 13 15 14 17 15 16 16 35 17 21 18 34 19 33 20 23 21 22 22
REMARK SMILES IDX 30 23 24 24 25 25 31 26 32 27 11 28 26 30 27 31 29 32 28 33
REMARK SMILES IDX 3 34 2 35 1 36 36 37 37 38 38 39
REMARK H PARENT 11 29
REMARK Flexibility Score: inf
ROOT
ATOM      1  C   UNL     1     -15.946  37.987   7.393  1.00  0.00     0.014 C 
ENDROOT
BRANCH   1   2
ATOM      2  C   UNL     1     -14.623  37.543   6.695  1.00  0.00     0.042 C 
BRANCH   2   3
ATOM      3  C   UNL     1     -13.611  37.211   7.762  1.00  0.00     0.045 C 
ATOM      4  O   UNL     1     -13.125  36.050   7.841  1.00  0.00    -0.550 OA
ATOM      5  O   UNL     1     -13.248  38.167   8.706  1.00  0.00    -0.550 OA
ENDBRANCH   2   3
BRANCH   2   6
ATOM      6  C   UNL     1     -14.074  38.629   5.702  1.00  0.00     0.033 C 
ATOM      7  C   UNL     1     -15.119  39.155   4.673  1.00  0.00     0.119 C 
ATOM      8  C   UNL     1     -12.804  38.263   4.856  1.00  0.00    -0.017 C 
ATOM      9  C   UNL     1     -14.394  39.337   3.332  1.00  0.00     0.043 C 
ATOM     10  C   UNL     1     -12.884  39.218   3.609  1.00  0.00    -0.003 C 
ATOM     11  C   UNL     1     -12.859  36.799   4.351  1.00  0.00     0.012 C 
ATOM     12  C   UNL     1     -11.495  38.470   5.676  1.00  0.00     0.013 C 
ATOM     13  C   UNL     1     -12.323  40.633   3.929  1.00  0.00     0.017 C 
ATOM     14  C   UNL     1     -12.157  38.683   2.356  1.00  0.00    -0.064 C 
ATOM     15  C   UNL     1     -11.685  36.483   3.429  1.00  0.00     0.032 C 
ATOM     16  C   UNL     1     -11.451  37.525   2.339  1.00  0.00    -0.064 C 
ATOM     17  C   UNL     1     -12.357  39.388   1.044  1.00  0.00     0.032 C 
ATOM     18  C   UNL     1     -10.418  37.242   1.209  1.00  0.00    -0.008 C 
ATOM     19  C   UNL     1     -11.058  39.603   0.273  1.00  0.00     0.009 C 
ATOM     20  C   UNL     1      -9.892  38.599   0.577  1.00  0.00     0.009 C 
ATOM     21  C   UNL     1     -11.073  36.383   0.100  1.00  0.00     0.015 C 
ATOM     22  C   UNL     1      -9.248  36.437   1.863  1.00  0.00     0.016 C 
ATOM     23  C   UNL     1      -8.950  38.426  -0.702  1.00  0.00     0.005 C 
ATOM     24  C   UNL     1     -10.146  36.154  -1.105  1.00  0.00     0.047 C 
ATOM     25  C   UNL     1      -9.638  37.466  -1.734  1.00  0.00     0.182 C 
ATOM     26  C   UNL     1      -7.525  37.906  -0.317  1.00  0.00     0.015 C 
ATOM     27  C   UNL     1      -8.703  39.810  -1.382  1.00  0.00     0.015 C 
BRANCH   7  28
ATOM     28  O   UNL     1     -16.246  38.323   4.530  1.00  0.00    -0.393 OA
ATOM     29  H   UNL     1     -16.873  38.523   5.272  1.00  0.00     0.210 HD
ENDBRANCH   7  28
BRANCH  25  30
ATOM     30  O   UNL     1      -8.732  37.125  -2.789  1.00  0.00    -0.462 OA
BRANCH  30  31
ATOM     31  C   UNL     1      -8.926  37.460  -4.133  1.00  0.00     0.302 C 
ATOM     32  O   UNL     1      -8.006  37.984  -4.813  1.00  0.00    -0.253 OA
ATOM     33  C   UNL     1     -10.235  37.157  -4.775  1.00  0.00     0.139 C 
ENDBRANCH  30  31
ENDBRANCH  25  30
ENDBRANCH   2   6
ENDBRANCH   1   2
BRANCH   1  34
ATOM     34  C   UNL     1     -16.626  36.820   8.121  1.00  0.00     0.031 C 
BRANCH  34  35
ATOM     35  C   UNL     1     -17.475  36.011   7.169  1.00  0.00    -0.075 C 
ATOM     36  C   UNL     1     -18.704  36.447   6.842  1.00  0.00     0.008 C 
BRANCH  35  37
ATOM     37  C   UNL     1     -16.906  34.732   6.575  1.00  0.00     0.008 C 
ATOM     38  C   UNL     1     -17.809  33.532   6.885  1.00  0.00     0.012 C 
ATOM     39  C   UNL     1     -16.663  34.863   5.065  1.00  0.00     0.012 C 
ENDBRANCH  35  37
ENDBRANCH  34  35
ENDBRANCH   1  34
TORSDOF 9
ENDMDL
MODEL 4
REMARK VINA RESULT:    -6.702      4.409      8.239
REMARK INTER + INTRA:         -10.430
REMARK INTER:                 -10.041
REMARK INTRA:                  -0.389
REMARK UNBOUND:                -0.397
REMARK SMILES C=C(CC[C@H](C(=O)[O-])[C@@H]1[C@H](O)C[C@]2(C)C3=C(CC[C@]12C)[C@@]1(C)CC[C@H](OC(C)=O)C(C)(C)[C@H]1CC3)C(C)C
REMARK SMILES IDX 4 1 5 2 6 3 7 4 8 5 9 6 10 7 19 8 12 9 13 10 18 11 20 12
REMARK SMILES IDX 14 13 15 14 17 15 16 16 35 17 21 18 34 19 33 20 23 21 22 22
REMARK SMILES IDX 30 23 24 24 25 25 31 26 32 27 11 28 26 30 27 31 29 32 28 33
REMARK SMILES IDX 3 34 2 35 1 36 36 37 37 38 38 39
REMARK H PARENT 11 29
REMARK Flexibility Score: inf
ROOT
ATOM      1  C   UNL     1      -6.172  38.105  -0.783  1.00  0.00     0.014 C 
ENDROOT
BRANCH   1   2
ATOM      2  C   UNL     1      -6.839  37.509   0.496  1.00  0.00     0.042 C 
BRANCH   2   3
ATOM      3  C   UNL     1      -6.454  36.055   0.598  1.00  0.00     0.045 C 
ATOM      4  O   UNL     1      -5.971  35.598   1.669  1.00  0.00    -0.550 OA
ATOM      5  O   UNL     1      -6.575  35.218  -0.508  1.00  0.00    -0.550 OA
ENDBRANCH   2   3
BRANCH   2   6
ATOM      6  C   UNL     1      -8.399  37.692   0.499  1.00  0.00     0.033 C 
ATOM      7  C   UNL     1      -8.880  39.169   0.624  1.00  0.00     0.119 C 
ATOM      8  C   UNL     1      -9.220  36.895   1.574  1.00  0.00    -0.017 C 
ATOM      9  C   UNL     1     -10.112  39.177   1.539  1.00  0.00     0.043 C 
ATOM     10  C   UNL     1     -10.554  37.713   1.724  1.00  0.00    -0.003 C 
ATOM     11  C   UNL     1      -8.501  36.883   2.946  1.00  0.00     0.012 C 
ATOM     12  C   UNL     1      -9.476  35.426   1.119  1.00  0.00     0.013 C 
ATOM     13  C   UNL     1     -11.578  37.358   0.607  1.00  0.00     0.017 C 
ATOM     14  C   UNL     1     -11.253  37.540   3.090  1.00  0.00    -0.064 C 
ATOM     15  C   UNL     1      -9.357  36.213   4.018  1.00  0.00     0.032 C 
ATOM     16  C   UNL     1     -10.800  36.705   4.058  1.00  0.00    -0.064 C 
ATOM     17  C   UNL     1     -12.402  38.443   3.439  1.00  0.00     0.032 C 
ATOM     18  C   UNL     1     -11.735  36.259   5.221  1.00  0.00    -0.008 C 
ATOM     19  C   UNL     1     -13.584  37.701   4.054  1.00  0.00     0.009 C 
ATOM     20  C   UNL     1     -13.258  36.351   4.784  1.00  0.00     0.009 C 
ATOM     21  C   UNL     1     -11.505  37.160   6.458  1.00  0.00     0.015 C 
ATOM     22  C   UNL     1     -11.341  34.787   5.573  1.00  0.00     0.016 C 
ATOM     23  C   UNL     1     -14.312  36.073   5.951  1.00  0.00     0.005 C 
ATOM     24  C   UNL     1     -12.472  36.850   7.613  1.00  0.00     0.047 C 
ATOM     25  C   UNL     1     -13.953  36.949   7.202  1.00  0.00     0.182 C 
ATOM     26  C   UNL     1     -14.383  34.556   6.331  1.00  0.00     0.015 C 
ATOM     27  C   UNL     1     -15.755  36.436   5.474  1.00  0.00     0.015 C 
BRANCH   7  28
ATOM     28  O   UNL     1      -7.890  40.051   1.098  1.00  0.00    -0.393 OA
ATOM     29  H   UNL     1      -8.202  40.430   1.959  1.00  0.00     0.210 HD
ENDBRANCH   7  28
BRANCH  25  30
ATOM     30  O   UNL     1     -14.749  36.567   8.330  1.00  0.00    -0.462 OA
BRANCH  30  31
ATOM     31  C   UNL     1     -15.431  37.469   9.153  1.00  0.00     0.302 C 
ATOM     32  O   UNL     1     -16.464  38.065   8.751  1.00  0.00    -0.253 OA
ATOM     33  C   UNL     1     -14.942  37.700  10.541  1.00  0.00     0.139 C 
ENDBRANCH  30  31
ENDBRANCH  25  30
ENDBRANCH   2   6
ENDBRANCH   1   2
BRANCH   1  34
ATOM     34  C   UNL     1      -7.215  38.487  -1.843  1.00  0.00     0.031 C 
BRANCH  34  35
ATOM     35  C   UNL     1      -7.202  37.505  -2.991  1.00  0.00    -0.075 C 
ATOM     36  C   UNL     1      -6.029  37.063  -3.475  1.00  0.00     0.008 C 
BRANCH  35  37
ATOM     37  C   UNL     1      -8.526  37.011  -3.555  1.00  0.00     0.008 C 
ATOM     38  C   UNL     1      -9.508  36.662  -2.431  1.00  0.00     0.012 C 
ATOM     39  C   UNL     1      -9.142  38.023  -4.530  1.00  0.00     0.012 C 
ENDBRANCH  35  37
ENDBRANCH  34  35
ENDBRANCH   1  34
TORSDOF 9
ENDMDL
MODEL 5
REMARK VINA RESULT:    -6.630      2.030      2.649
REMARK INTER + INTRA:         -10.321
REMARK INTER:                 -10.589
REMARK INTRA:                   0.268
REMARK UNBOUND:                -0.397
REMARK SMILES C=C(CC[C@H](C(=O)[O-])[C@@H]1[C@H](O)C[C@]2(C)C3=C(CC[C@]12C)[C@@]1(C)CC[C@H](OC(C)=O)C(C)(C)[C@H]1CC3)C(C)C
REMARK SMILES IDX 4 1 5 2 6 3 7 4 8 5 9 6 10 7 19 8 12 9 13 10 18 11 20 12
REMARK SMILES IDX 14 13 15 14 17 15 16 16 35 17 21 18 34 19 33 20 23 21 22 22
REMARK SMILES IDX 30 23 24 24 25 25 31 26 32 27 11 28 26 30 27 31 29 32 28 33
REMARK SMILES IDX 3 34 2 35 1 36 36 37 37 38 38 39
REMARK H PARENT 11 29
REMARK Flexibility Score: inf
ROOT
ATOM      1  C   UNL     1      -5.075  36.482   2.825  1.00  0.00     0.014 C 
ENDROOT
BRANCH   1   2
ATOM      2  C   UNL     1      -4.359  36.753   1.465  1.00  0.00     0.042 C 
BRANCH   2   3
ATOM      3  C   UNL     1      -2.884  36.918   1.729  1.00  0.00     0.045 C 
ATOM      4  O   UNL     1      -2.250  36.038   2.372  1.00  0.00    -0.550 OA
ATOM      5  O   UNL     1      -2.222  38.071   1.316  1.00  0.00    -0.550 OA
ENDBRANCH   2   3
BRANCH   2   6
ATOM      6  C   UNL     1      -4.950  38.000   0.714  1.00  0.00     0.033 C 
ATOM      7  C   UNL     1      -5.671  39.031   1.634  1.00  0.00     0.119 C 
ATOM      8  C   UNL     1      -5.947  37.729  -0.468  1.00  0.00    -0.017 C 
ATOM      9  C   UNL     1      -6.909  39.535   0.880  1.00  0.00     0.043 C 
ATOM     10  C   UNL     1      -6.783  39.056  -0.578  1.00  0.00    -0.003 C 
ATOM     11  C   UNL     1      -6.919  36.569  -0.138  1.00  0.00     0.012 C 
ATOM     12  C   UNL     1      -5.187  37.398  -1.788  1.00  0.00     0.013 C 
ATOM     13  C   UNL     1      -6.032  40.145  -1.397  1.00  0.00     0.017 C 
ATOM     14  C   UNL     1      -8.185  38.870  -1.197  1.00  0.00    -0.064 C 
ATOM     15  C   UNL     1      -7.964  36.388  -1.236  1.00  0.00     0.032 C 
ATOM     16  C   UNL     1      -8.641  37.684  -1.670  1.00  0.00    -0.064 C 
ATOM     17  C   UNL     1      -9.161  40.012  -1.143  1.00  0.00     0.032 C 
ATOM     18  C   UNL     1      -9.861  37.630  -2.637  1.00  0.00    -0.008 C 
ATOM     19  C   UNL     1      -9.889  40.244  -2.463  1.00  0.00     0.009 C 
ATOM     20  C   UNL     1     -10.020  39.004  -3.415  1.00  0.00     0.009 C 
ATOM     21  C   UNL     1     -11.156  37.346  -1.837  1.00  0.00     0.015 C 
ATOM     22  C   UNL     1      -9.596  36.451  -3.628  1.00  0.00     0.016 C 
ATOM     23  C   UNL     1     -11.335  39.121  -4.314  1.00  0.00     0.005 C 
ATOM     24  C   UNL     1     -12.420  37.388  -2.710  1.00  0.00     0.047 C 
ATOM     25  C   UNL     1     -12.590  38.722  -3.462  1.00  0.00     0.182 C 
ATOM     26  C   UNL     1     -11.241  38.251  -5.612  1.00  0.00     0.015 C 
ATOM     27  C   UNL     1     -11.513  40.586  -4.824  1.00  0.00     0.015 C 
BRANCH   7  28
ATOM     28  O   UNL     1      -6.021  38.518   2.898  1.00  0.00    -0.393 OA
ATOM     29  H   UNL     1      -5.998  39.265   3.550  1.00  0.00     0.210 HD
ENDBRANCH   7  28
BRANCH  25  30
ATOM     30  O   UNL     1     -13.751  38.613  -4.293  1.00  0.00    -0.462 OA
BRANCH  30  31
ATOM     31  C   UNL     1     -15.038  38.341  -3.816  1.00  0.00     0.302 C 
ATOM     32  O   UNL     1     -15.451  37.158  -3.697  1.00  0.00    -0.253 OA
ATOM     33  C   UNL     1     -15.918  39.472  -3.413  1.00  0.00     0.139 C 
ENDBRANCH  30  31
ENDBRANCH  25  30
ENDBRANCH   2   6
ENDBRANCH   1   2
BRANCH   1  34
ATOM     34  C   UNL     1      -5.622  35.051   2.905  1.00  0.00     0.031 C 
BRANCH  34  35
ATOM     35  C   UNL     1      -5.412  34.468   4.283  1.00  0.00    -0.075 C 
ATOM     36  C   UNL     1      -6.410  34.512   5.181  1.00  0.00     0.008 C 
BRANCH  35  37
ATOM     37  C   UNL     1      -4.078  33.816   4.613  1.00  0.00     0.008 C 
ATOM     38  C   UNL     1      -3.319  34.621   5.674  1.00  0.00     0.012 C 
ATOM     39  C   UNL     1      -4.252  32.355   5.049  1.00  0.00     0.012 C 
ENDBRANCH  35  37
ENDBRANCH  34  35
ENDBRANCH   1  34
TORSDOF 9
ENDMDL
MODEL 6
REMARK VINA RESULT:    -6.553      2.357      4.099
REMARK INTER + INTRA:         -10.207
REMARK INTER:                  -9.813
REMARK INTRA:                  -0.393
REMARK UNBOUND:                -0.397
REMARK SMILES C=C(CC[C@H](C(=O)[O-])[C@@H]1[C@H](O)C[C@]2(C)C3=C(CC[C@]12C)[C@@]1(C)CC[C@H](OC(C)=O)C(C)(C)[C@H]1CC3)C(C)C
REMARK SMILES IDX 4 1 5 2 6 3 7 4 8 5 9 6 10 7 19 8 12 9 13 10 18 11 20 12
REMARK SMILES IDX 14 13 15 14 17 15 16 16 35 17 21 18 34 19 33 20 23 21 22 22
REMARK SMILES IDX 30 23 24 24 25 25 31 26 32 27 11 28 26 30 27 31 29 32 28 33
REMARK SMILES IDX 3 34 2 35 1 36 36 37 37 38 38 39
REMARK H PARENT 11 29
REMARK Flexibility Score: inf
ROOT
ATOM      1  C   UNL     1      -5.914  35.211   2.857  1.00  0.00     0.014 C 
ENDROOT
BRANCH   1   2
ATOM      2  C   UNL     1      -7.181  36.040   2.481  1.00  0.00     0.042 C 
BRANCH   2   3
ATOM      3  C   UNL     1      -8.220  35.833   3.554  1.00  0.00     0.045 C 
ATOM      4  O   UNL     1      -8.879  36.811   3.999  1.00  0.00    -0.550 OA
ATOM      5  O   UNL     1      -8.417  34.570   4.105  1.00  0.00    -0.550 OA
ENDBRANCH   2   3
BRANCH   2   6
ATOM      6  C   UNL     1      -7.741  35.667   1.061  1.00  0.00     0.033 C 
ATOM      7  C   UNL     1      -6.656  35.507  -0.044  1.00  0.00     0.119 C 
ATOM      8  C   UNL     1      -8.831  36.613   0.441  1.00  0.00    -0.017 C 
ATOM      9  C   UNL     1      -7.221  36.111  -1.337  1.00  0.00     0.043 C 
ATOM     10  C   UNL     1      -8.723  36.359  -1.107  1.00  0.00    -0.003 C 
ATOM     11  C   UNL     1      -8.511  38.104   0.712  1.00  0.00     0.012 C 
ATOM     12  C   UNL     1     -10.250  36.286   0.996  1.00  0.00     0.013 C 
ATOM     13  C   UNL     1      -9.509  35.088  -1.540  1.00  0.00     0.017 C 
ATOM     14  C   UNL     1      -9.203  37.542  -1.977  1.00  0.00    -0.064 C 
ATOM     15  C   UNL     1      -9.503  39.024   0.006  1.00  0.00     0.032 C 
ATOM     16  C   UNL     1      -9.735  38.678  -1.462  1.00  0.00    -0.064 C 
ATOM     17  C   UNL     1      -8.935  37.513  -3.455  1.00  0.00     0.032 C 
ATOM     18  C   UNL     1     -10.566  39.642  -2.360  1.00  0.00    -0.008 C 
ATOM     19  C   UNL     1     -10.141  37.926  -4.293  1.00  0.00     0.009 C 
ATOM     20  C   UNL     1     -11.188  38.863  -3.594  1.00  0.00     0.009 C 
ATOM     21  C   UNL     1      -9.664  40.786  -2.882  1.00  0.00     0.015 C 
ATOM     22  C   UNL     1     -11.689  40.243  -1.452  1.00  0.00     0.016 C 
ATOM     23  C   UNL     1     -11.926  39.784  -4.671  1.00  0.00     0.005 C 
ATOM     24  C   UNL     1     -10.388  41.719  -3.866  1.00  0.00     0.047 C 
ATOM     25  C   UNL     1     -10.986  40.973  -5.075  1.00  0.00     0.182 C 
ATOM     26  C   UNL     1     -13.303  40.312  -4.149  1.00  0.00     0.015 C 
ATOM     27  C   UNL     1     -12.270  38.954  -5.948  1.00  0.00     0.015 C 
BRANCH   7  28
ATOM     28  O   UNL     1      -5.416  36.088   0.287  1.00  0.00    -0.393 OA
ATOM     29  H   UNL     1      -4.702  35.570  -0.165  1.00  0.00     0.210 HD
ENDBRANCH   7  28
BRANCH  25  30
ATOM     30  O   UNL     1     -11.694  41.928  -5.873  1.00  0.00    -0.462 OA
BRANCH  30  31
ATOM     31  C   UNL     1     -11.163  42.559  -7.003  1.00  0.00     0.302 C 
ATOM     32  O   UNL     1      -9.993  42.311  -7.397  1.00  0.00    -0.253 OA
ATOM     33  C   UNL     1     -12.010  43.513  -7.769  1.00  0.00     0.139 C 
ENDBRANCH  30  31
ENDBRANCH  25  30
ENDBRANCH   2   6
ENDBRANCH   1   2
BRANCH   1  34
ATOM     34  C   UNL     1      -5.237  35.749   4.125  1.00  0.00     0.031 C 
BRANCH  34  35
ATOM     35  C   UNL     1      -4.112  34.842   4.564  1.00  0.00    -0.075 C 
ATOM     36  C   UNL     1      -2.898  34.971   4.003  1.00  0.00     0.008 C 
BRANCH  35  37
ATOM     37  C   UNL     1      -4.374  33.817   5.658  1.00  0.00     0.008 C 
ATOM     38  C   UNL     1      -5.672  34.132   6.409  1.00  0.00     0.012 C 
ATOM     39  C   UNL     1      -4.391  32.386   5.105  1.00  0.00     0.012 C 
ENDBRANCH  35  37
ENDBRANCH  34  35
ENDBRANCH   1  34
TORSDOF 9
ENDMDL
MODEL 7
REMARK VINA RESULT:    -6.397      4.464      7.343
REMARK INTER + INTRA:          -9.973
REMARK INTER:                  -9.783
REMARK INTRA:                  -0.191
REMARK UNBOUND:                -0.397
REMARK SMILES C=C(CC[C@H](C(=O)[O-])[C@@H]1[C@H](O)C[C@]2(C)C3=C(CC[C@]12C)[C@@]1(C)CC[C@H](OC(C)=O)C(C)(C)[C@H]1CC3)C(C)C
REMARK SMILES IDX 4 1 5 2 6 3 7 4 8 5 9 6 10 7 19 8 12 9 13 10 18 11 20 12
REMARK SMILES IDX 14 13 15 14 17 15 16 16 35 17 21 18 34 19 33 20 23 21 22 22
REMARK SMILES IDX 30 23 24 24 25 25 31 26 32 27 11 28 26 30 27 31 29 32 28 33
REMARK SMILES IDX 3 34 2 35 1 36 36 37 37 38 38 39
REMARK H PARENT 11 29
REMARK Flexibility Score: inf
ROOT
ATOM      1  C   UNL     1      -5.876  37.330   1.618  1.00  0.00     0.014 C 
ENDROOT
BRANCH   1   2
ATOM      2  C   UNL     1      -6.667  36.650   0.459  1.00  0.00     0.042 C 
BRANCH   2   3
ATOM      3  C   UNL     1      -6.005  37.014  -0.847  1.00  0.00     0.045 C 
ATOM      4  O   UNL     1      -5.769  36.127  -1.710  1.00  0.00    -0.550 OA
ATOM      5  O   UNL     1      -5.597  38.324  -1.083  1.00  0.00    -0.550 OA
ENDBRANCH   2   3
BRANCH   2   6
ATOM      6  C   UNL     1      -8.188  37.042   0.460  1.00  0.00     0.033 C 
ATOM      7  C   UNL     1      -8.466  38.568   0.598  1.00  0.00     0.119 C 
ATOM      8  C   UNL     1      -9.114  36.352   1.525  1.00  0.00    -0.017 C 
ATOM      9  C   UNL     1      -9.689  38.734   1.510  1.00  0.00     0.043 C 
ATOM     10  C   UNL     1     -10.326  37.342   1.679  1.00  0.00    -0.003 C 
ATOM     11  C   UNL     1      -8.408  36.230   2.898  1.00  0.00     0.012 C 
ATOM     12  C   UNL     1      -9.564  34.936   1.055  1.00  0.00     0.013 C 
ATOM     13  C   UNL     1     -11.383  37.139   0.556  1.00  0.00     0.017 C 
ATOM     14  C   UNL     1     -11.046  37.252   3.041  1.00  0.00    -0.064 C 
ATOM     15  C   UNL     1      -9.351  35.672   3.961  1.00  0.00     0.032 C 
ATOM     16  C   UNL     1     -10.715  36.354   4.003  1.00  0.00    -0.064 C 
ATOM     17  C   UNL     1     -12.065  38.298   3.396  1.00  0.00     0.032 C 
ATOM     18  C   UNL     1     -11.706  36.027   5.159  1.00  0.00    -0.008 C 
ATOM     19  C   UNL     1     -13.339  37.717   4.002  1.00  0.00     0.009 C 
ATOM     20  C   UNL     1     -13.200  36.328   4.718  1.00  0.00     0.009 C 
ATOM     21  C   UNL     1     -11.361  36.877   6.405  1.00  0.00     0.015 C 
ATOM     22  C   UNL     1     -11.515  34.513   5.497  1.00  0.00     0.016 C 
ATOM     23  C   UNL     1     -14.287  36.184   5.880  1.00  0.00     0.005 C 
ATOM     24  C   UNL     1     -12.365  36.690   7.555  1.00  0.00     0.047 C 
ATOM     25  C   UNL     1     -13.818  36.991   7.141  1.00  0.00     0.182 C 
ATOM     26  C   UNL     1     -14.563  34.687   6.245  1.00  0.00     0.015 C 
ATOM     27  C   UNL     1     -15.665  36.743   5.404  1.00  0.00     0.015 C 
BRANCH   7  28
ATOM     28  O   UNL     1      -7.368  39.305   1.083  1.00  0.00    -0.393 OA
ATOM     29  H   UNL     1      -7.589  40.269   1.015  1.00  0.00     0.210 HD
ENDBRANCH   7  28
BRANCH  25  30
ATOM     30  O   UNL     1     -14.662  36.710   8.263  1.00  0.00    -0.462 OA
BRANCH  30  31
ATOM     31  C   UNL     1     -15.253  37.689   9.068  1.00  0.00     0.302 C 
ATOM     32  O   UNL     1     -15.449  37.491  10.296  1.00  0.00    -0.253 OA
ATOM     33  C   UNL     1     -15.625  38.999   8.466  1.00  0.00     0.139 C 
ENDBRANCH  30  31
ENDBRANCH  25  30
ENDBRANCH   2   6
ENDBRANCH   1   2
BRANCH   1  34
ATOM     34  C   UNL     1      -4.488  36.702   1.806  1.00  0.00     0.031 C 
BRANCH  34  35
ATOM     35  C   UNL     1      -4.424  35.909   3.090  1.00  0.00    -0.075 C 
ATOM     36  C   UNL     1      -5.370  34.991   3.352  1.00  0.00     0.008 C 
BRANCH  35  37
ATOM     37  C   UNL     1      -3.267  36.148   4.049  1.00  0.00     0.008 C 
ATOM     38  C   UNL     1      -3.721  36.006   5.506  1.00  0.00     0.012 C 
ATOM     39  C   UNL     1      -2.079  35.224   3.750  1.00  0.00     0.012 C 
ENDBRANCH  35  37
ENDBRANCH  34  35
ENDBRANCH   1  34
TORSDOF 9
ENDMDL
MODEL 8
REMARK VINA RESULT:    -6.396      3.868      6.568
REMARK INTER + INTRA:          -9.971
REMARK INTER:                  -9.565
REMARK INTRA:                  -0.406
REMARK UNBOUND:                -0.397
REMARK SMILES C=C(CC[C@H](C(=O)[O-])[C@@H]1[C@H](O)C[C@]2(C)C3=C(CC[C@]12C)[C@@]1(C)CC[C@H](OC(C)=O)C(C)(C)[C@H]1CC3)C(C)C
REMARK SMILES IDX 4 1 5 2 6 3 7 4 8 5 9 6 10 7 19 8 12 9 13 10 18 11 20 12
REMARK SMILES IDX 14 13 15 14 17 15 16 16 35 17 21 18 34 19 33 20 23 21 22 22
REMARK SMILES IDX 30 23 24 24 25 25 31 26 32 27 11 28 26 30 27 31 29 32 28 33
REMARK SMILES IDX 3 34 2 35 1 36 36 37 37 38 38 39
REMARK H PARENT 11 29
REMARK Flexibility Score: inf
ROOT
ATOM      1  C   UNL     1      -4.138  35.636   6.834  1.00  0.00     0.014 C 
ENDROOT
BRANCH   1   2
ATOM      2  C   UNL     1      -2.807  35.527   6.026  1.00  0.00     0.042 C 
BRANCH   2   3
ATOM      3  C   UNL     1      -1.659  35.503   7.003  1.00  0.00     0.045 C 
ATOM      4  O   UNL     1      -0.875  34.516   7.041  1.00  0.00    -0.550 OA
ATOM      5  O   UNL     1      -1.489  36.545   7.911  1.00  0.00    -0.550 OA
ENDBRANCH   2   3
BRANCH   2   6
ATOM      6  C   UNL     1      -2.645  36.686   4.978  1.00  0.00     0.033 C 
ATOM      7  C   UNL     1      -3.145  38.078   5.465  1.00  0.00     0.119 C 
ATOM      8  C   UNL     1      -3.296  36.481   3.564  1.00  0.00    -0.017 C 
ATOM      9  C   UNL     1      -3.835  38.762   4.277  1.00  0.00     0.043 C 
ATOM     10  C   UNL     1      -3.498  37.942   3.018  1.00  0.00    -0.003 C 
ATOM     11  C   UNL     1      -4.687  35.806   3.670  1.00  0.00     0.012 C 
ATOM     12  C   UNL     1      -2.383  35.624   2.636  1.00  0.00     0.013 C 
ATOM     13  C   UNL     1      -2.193  38.508   2.389  1.00  0.00     0.017 C 
ATOM     14  C   UNL     1      -4.632  38.078   1.979  1.00  0.00    -0.064 C 
ATOM     15  C   UNL     1      -5.369  35.719   2.308  1.00  0.00     0.032 C 
ATOM     16  C   UNL     1      -5.353  37.025   1.520  1.00  0.00    -0.064 C 
ATOM     17  C   UNL     1      -5.074  39.452   1.560  1.00  0.00     0.032 C 
ATOM     18  C   UNL     1      -6.179  37.142   0.204  1.00  0.00    -0.008 C 
ATOM     19  C   UNL     1      -5.259  39.590   0.052  1.00  0.00     0.009 C 
ATOM     20  C   UNL     1      -5.579  38.271  -0.735  1.00  0.00     0.009 C 
ATOM     21  C   UNL     1      -7.652  37.484   0.535  1.00  0.00     0.015 C 
ATOM     22  C   UNL     1      -6.116  35.743  -0.490  1.00  0.00     0.016 C 
ATOM     23  C   UNL     1      -6.443  38.592  -2.040  1.00  0.00     0.005 C 
ATOM     24  C   UNL     1      -8.507  37.725  -0.720  1.00  0.00     0.047 C 
ATOM     25  C   UNL     1      -7.940  38.828  -1.633  1.00  0.00     0.182 C 
ATOM     26  C   UNL     1      -6.328  37.460  -3.115  1.00  0.00     0.015 C 
ATOM     27  C   UNL     1      -5.901  39.875  -2.747  1.00  0.00     0.015 C 
BRANCH   7  28
ATOM     28  O   UNL     1      -4.002  38.016   6.581  1.00  0.00    -0.393 OA
ATOM     29  H   UNL     1      -4.519  37.172   6.526  1.00  0.00     0.210 HD
ENDBRANCH   7  28
BRANCH  25  30
ATOM     30  O   UNL     1      -8.773  38.907  -2.796  1.00  0.00    -0.462 OA
BRANCH  30  31
ATOM     31  C   UNL     1      -9.640  39.969  -3.072  1.00  0.00     0.302 C 
ATOM     32  O   UNL     1     -10.175  40.094  -4.204  1.00  0.00    -0.253 OA
ATOM     33  C   UNL     1      -9.959  40.947  -1.995  1.00  0.00     0.139 C 
ENDBRANCH  30  31
ENDBRANCH  25  30
ENDBRANCH   2   6
ENDBRANCH   1   2
BRANCH   1  34
ATOM     34  C   UNL     1      -4.639  34.261   7.294  1.00  0.00     0.031 C 
BRANCH  34  35
ATOM     35  C   UNL     1      -5.269  33.505   6.148  1.00  0.00    -0.075 C 
ATOM     36  C   UNL     1      -6.461  33.900   5.667  1.00  0.00     0.008 C 
BRANCH  35  37
ATOM     37  C   UNL     1      -4.523  32.326   5.541  1.00  0.00     0.008 C 
ATOM     38  C   UNL     1      -4.238  31.252   6.597  1.00  0.00     0.012 C 
ATOM     39  C   UNL     1      -5.273  31.733   4.341  1.00  0.00     0.012 C 
ENDBRANCH  35  37
ENDBRANCH  34  35
ENDBRANCH   1  34
TORSDOF 9
ENDMDL
MODEL 9
REMARK VINA RESULT:    -6.162      4.115      8.720
REMARK INTER + INTRA:          -9.621
REMARK INTER:                  -8.824
REMARK INTRA:                  -0.797
REMARK UNBOUND:                -0.397
REMARK SMILES C=C(CC[C@H](C(=O)[O-])[C@@H]1[C@H](O)C[C@]2(C)C3=C(CC[C@]12C)[C@@]1(C)CC[C@H](OC(C)=O)C(C)(C)[C@H]1CC3)C(C)C
REMARK SMILES IDX 4 1 5 2 6 3 7 4 8 5 9 6 10 7 19 8 12 9 13 10 18 11 20 12
REMARK SMILES IDX 14 13 15 14 17 15 16 16 35 17 21 18 34 19 33 20 23 21 22 22
REMARK SMILES IDX 30 23 24 24 25 25 31 26 32 27 11 28 26 30 27 31 29 32 28 33
REMARK SMILES IDX 3 34 2 35 1 36 36 37 37 38 38 39
REMARK H PARENT 11 29
REMARK Flexibility Score: inf
ROOT
ATOM      1  C   UNL     1      -9.894  36.750  -3.537  1.00  0.00     0.014 C 
ENDROOT
BRANCH   1   2
ATOM      2  C   UNL     1      -9.766  37.956  -2.554  1.00  0.00     0.042 C 
BRANCH   2   3
ATOM      3  C   UNL     1      -8.777  38.937  -3.132  1.00  0.00     0.045 C 
ATOM      4  O   UNL     1      -9.029  40.172  -3.127  1.00  0.00    -0.550 OA
ATOM      5  O   UNL     1      -7.604  38.482  -3.727  1.00  0.00    -0.550 OA
ENDBRANCH   2   3
BRANCH   2   6
ATOM      6  C   UNL     1      -9.351  37.508  -1.107  1.00  0.00     0.033 C 
ATOM      7  C   UNL     1      -9.552  35.991  -0.813  1.00  0.00     0.119 C 
ATOM      8  C   UNL     1     -10.015  38.258   0.103  1.00  0.00    -0.017 C 
ATOM      9  C   UNL     1     -10.068  35.865   0.627  1.00  0.00     0.043 C 
ATOM     10  C   UNL     1      -9.898  37.241   1.296  1.00  0.00    -0.003 C 
ATOM     11  C   UNL     1     -11.518  38.534  -0.155  1.00  0.00     0.012 C 
ATOM     12  C   UNL     1      -9.293  39.606   0.402  1.00  0.00     0.013 C 
ATOM     13  C   UNL     1      -8.496  37.298   1.968  1.00  0.00     0.017 C 
ATOM     14  C   UNL     1     -10.966  37.430   2.395  1.00  0.00    -0.064 C 
ATOM     15  C   UNL     1     -12.188  39.152   1.069  1.00  0.00     0.032 C 
ATOM     16  C   UNL     1     -11.888  38.425   2.377  1.00  0.00    -0.064 C 
ATOM     17  C   UNL     1     -11.103  36.383   3.464  1.00  0.00     0.032 C 
ATOM     18  C   UNL     1     -12.655  38.820   3.673  1.00  0.00    -0.008 C 
ATOM     19  C   UNL     1     -11.238  36.969   4.866  1.00  0.00     0.009 C 
ATOM     20  C   UNL     1     -11.820  38.423   4.962  1.00  0.00     0.009 C 
ATOM     21  C   UNL     1     -14.027  38.104   3.713  1.00  0.00     0.015 C 
ATOM     22  C   UNL     1     -12.881  40.366   3.606  1.00  0.00     0.016 C 
ATOM     23  C   UNL     1     -12.582  38.633   6.350  1.00  0.00     0.005 C 
ATOM     24  C   UNL     1     -14.798  38.358   5.018  1.00  0.00     0.047 C 
ATOM     25  C   UNL     1     -14.000  37.965   6.276  1.00  0.00     0.182 C 
ATOM     26  C   UNL     1     -12.696  40.145   6.736  1.00  0.00     0.015 C 
ATOM     27  C   UNL     1     -11.774  37.979   7.516  1.00  0.00     0.015 C 
BRANCH   7  28
ATOM     28  O   UNL     1     -10.415  35.346  -1.720  1.00  0.00    -0.393 OA
ATOM     29  H   UNL     1     -11.282  35.827  -1.715  1.00  0.00     0.210 HD
ENDBRANCH   7  28
BRANCH  25  30
ATOM     30  O   UNL     1     -14.784  38.316   7.422  1.00  0.00    -0.462 OA
BRANCH  30  31
ATOM     31  C   UNL     1     -15.447  37.392   8.236  1.00  0.00     0.302 C 
ATOM     32  O   UNL     1     -16.130  36.459   7.740  1.00  0.00    -0.253 OA
ATOM     33  C   UNL     1     -15.311  37.498   9.715  1.00  0.00     0.139 C 
ENDBRANCH  30  31
ENDBRANCH  25  30
ENDBRANCH   2   6
ENDBRANCH   1   2
BRANCH   1  34
ATOM     34  C   UNL     1     -10.670  37.130  -4.805  1.00  0.00     0.031 C 
BRANCH  34  35
ATOM     35  C   UNL     1     -12.051  37.636  -4.462  1.00  0.00    -0.075 C 
ATOM     36  C   UNL     1     -12.917  36.825  -3.830  1.00  0.00     0.008 C 
BRANCH  35  37
ATOM     37  C   UNL     1     -12.421  39.069  -4.813  1.00  0.00     0.008 C 
ATOM     38  C   UNL     1     -12.630  39.910  -3.548  1.00  0.00     0.012 C 
ATOM     39  C   UNL     1     -11.382  39.716  -5.738  1.00  0.00     0.012 C 
ENDBRANCH  35  37
ENDBRANCH  34  35
ENDBRANCH   1  34
TORSDOF 9
ENDMDL
