MODEL 1
REMARK VINA RESULT:    -3.550      0.000      0.000
REMARK INTER + INTRA:          -5.375
REMARK INTER:                  -5.002
REMARK INTRA:                  -0.372
REMARK UNBOUND:                -0.372
REMARK SMILES C=CCCCCCCC(=O)[O-]
REMARK SMILES IDX 6 1 7 2 8 3 9 4 10 5 11 6 5 7 4 8 3 9 2 10 1 11
REMARK H PARENT
REMARK Flexibility Score: inf
ROOT
ATOM      1  C   UNL     1      57.057  28.554  50.655  1.00  0.00     0.000 C 
ENDROOT
BRANCH   1   2
ATOM      2  C   UNL     1      58.067  29.537  50.039  1.00  0.00     0.006 C 
BRANCH   2   3
ATOM      3  C   UNL     1      59.020  28.860  49.044  1.00  0.00     0.053 C 
BRANCH   3   4
ATOM      4  C   UNL     1      59.854  27.832  49.739  1.00  0.00     0.041 C 
ATOM      5  O   UNL     1      59.806  26.626  49.378  1.00  0.00    -0.550 OA
ATOM      6  O   UNL     1      60.723  28.210  50.755  1.00  0.00    -0.550 OA
ENDBRANCH   3   4
ENDBRANCH   2   3
ENDBRANCH   1   2
BRANCH   1   7
ATOM      7  C   UNL     1      55.623  29.111  50.664  1.00  0.00     0.000 C 
BRANCH   7   8
ATOM      8  C   UNL     1      54.586  28.091  50.159  1.00  0.00     0.004 C 
BRANCH   8   9
ATOM      9  C   UNL     1      55.149  26.678  49.921  1.00  0.00     0.027 C 
BRANCH   9  10
ATOM     10  C   UNL     1      54.223  25.813  49.109  1.00  0.00    -0.035 C 
ATOM     11  C   UNL     1      52.941  26.136  48.922  1.00  0.00     0.004 C 
ENDBRANCH   9  10
ENDBRANCH   8   9
ENDBRANCH   7   8
ENDBRANCH   1   7
TORSDOF 7
ENDMDL
MODEL 2
REMARK VINA RESULT:    -3.519      8.544     10.386
REMARK INTER + INTRA:          -5.332
REMARK INTER:                  -4.815
REMARK INTRA:                  -0.517
REMARK UNBOUND:                -0.372
REMARK SMILES C=CCCCCCCC(=O)[O-]
REMARK SMILES IDX 6 1 7 2 8 3 9 4 10 5 11 6 5 7 4 8 3 9 2 10 1 11
REMARK H PARENT
REMARK Flexibility Score: inf
ROOT
ATOM      1  C   UNL     1      59.287  17.468  48.364  1.00  0.00     0.000 C 
ENDROOT
BRANCH   1   2
ATOM      2  C   UNL     1      57.991  16.881  48.949  1.00  0.00     0.006 C 
BRANCH   2   3
ATOM      3  C   UNL     1      57.837  17.165  50.449  1.00  0.00     0.053 C 
BRANCH   3   4
ATOM      4  C   UNL     1      57.084  18.440  50.662  1.00  0.00     0.041 C 
ATOM      5  O   UNL     1      55.861  18.511  50.371  1.00  0.00    -0.550 OA
ATOM      6  O   UNL     1      57.721  19.538  51.229  1.00  0.00    -0.550 OA
ENDBRANCH   3   4
ENDBRANCH   2   3
ENDBRANCH   1   2
BRANCH   1   7
ATOM      7  C   UNL     1      60.374  17.677  49.432  1.00  0.00     0.000 C 
BRANCH   7   8
ATOM      8  C   UNL     1      60.915  19.119  49.456  1.00  0.00     0.004 C 
BRANCH   8   9
ATOM      9  C   UNL     1      60.205  20.078  48.484  1.00  0.00     0.027 C 
BRANCH   9  10
ATOM     10  C   UNL     1      60.838  21.443  48.450  1.00  0.00    -0.035 C 
ATOM     11  C   UNL     1      60.845  22.244  49.519  1.00  0.00     0.004 C 
ENDBRANCH   9  10
ENDBRANCH   8   9
ENDBRANCH   7   8
ENDBRANCH   1   7
TORSDOF 7
ENDMDL
MODEL 3
REMARK VINA RESULT:    -3.483      8.184      9.383
REMARK INTER + INTRA:          -5.281
REMARK INTER:                  -4.768
REMARK INTRA:                  -0.514
REMARK UNBOUND:                -0.372
REMARK SMILES C=CCCCCCCC(=O)[O-]
REMARK SMILES IDX 6 1 7 2 8 3 9 4 10 5 11 6 5 7 4 8 3 9 2 10 1 11
REMARK H PARENT
REMARK Flexibility Score: inf
ROOT
ATOM      1  C   UNL     1      59.387  17.441  48.441  1.00  0.00     0.000 C 
ENDROOT
BRANCH   1   2
ATOM      2  C   UNL     1      60.075  18.622  49.145  1.00  0.00     0.006 C 
BRANCH   2   3
ATOM      3  C   UNL     1      59.908  19.944  48.384  1.00  0.00     0.053 C 
BRANCH   3   4
ATOM      4  C   UNL     1      60.991  20.903  48.764  1.00  0.00     0.041 C 
ATOM      5  O   UNL     1      60.786  22.145  48.708  1.00  0.00    -0.550 OA
ATOM      6  O   UNL     1      62.211  20.428  49.227  1.00  0.00    -0.550 OA
ENDBRANCH   3   4
ENDBRANCH   2   3
ENDBRANCH   1   2
BRANCH   1   7
ATOM      7  C   UNL     1      58.120  16.972  49.177  1.00  0.00     0.000 C 
BRANCH   7   8
ATOM      8  C   UNL     1      58.293  16.953  50.707  1.00  0.00     0.004 C 
BRANCH   8   9
ATOM      9  C   UNL     1      57.369  17.926  51.462  1.00  0.00     0.027 C 
BRANCH   9  10
ATOM     10  C   UNL     1      56.622  18.851  50.539  1.00  0.00    -0.035 C 
ATOM     11  C   UNL     1      55.302  19.032  50.641  1.00  0.00     0.004 C 
ENDBRANCH   9  10
ENDBRANCH   8   9
ENDBRANCH   7   8
ENDBRANCH   1   7
TORSDOF 7
ENDMDL
MODEL 4
REMARK VINA RESULT:    -3.315      2.974      4.955
REMARK INTER + INTRA:          -5.043
REMARK INTER:                  -4.295
REMARK INTRA:                  -0.748
REMARK UNBOUND:                -0.372
REMARK SMILES C=CCCCCCCC(=O)[O-]
REMARK SMILES IDX 6 1 7 2 8 3 9 4 10 5 11 6 5 7 4 8 3 9 2 10 1 11
REMARK H PARENT
REMARK Flexibility Score: inf
ROOT
ATOM      1  C   UNL     1      56.768  28.122  51.715  1.00  0.00     0.000 C 
ENDROOT
BRANCH   1   2
ATOM      2  C   UNL     1      56.086  26.776  51.418  1.00  0.00     0.006 C 
BRANCH   2   3
ATOM      3  C   UNL     1      55.916  26.518  49.914  1.00  0.00     0.053 C 
BRANCH   3   4
ATOM      4  C   UNL     1      54.467  26.376  49.572  1.00  0.00     0.041 C 
ATOM      5  O   UNL     1      53.975  25.238  49.356  1.00  0.00    -0.550 OA
ATOM      6  O   UNL     1      53.647  27.498  49.537  1.00  0.00    -0.550 OA
ENDBRANCH   3   4
ENDBRANCH   2   3
ENDBRANCH   1   2
BRANCH   1   7
ATOM      7  C   UNL     1      56.828  29.038  50.481  1.00  0.00     0.000 C 
BRANCH   7   8
ATOM      8  C   UNL     1      58.242  29.587  50.216  1.00  0.00     0.004 C 
BRANCH   8   9
ATOM      9  C   UNL     1      58.961  28.938  49.020  1.00  0.00     0.027 C 
BRANCH   9  10
ATOM     10  C   UNL     1      59.959  27.893  49.440  1.00  0.00    -0.035 C 
ATOM     11  C   UNL     1      59.625  26.605  49.555  1.00  0.00     0.004 C 
ENDBRANCH   9  10
ENDBRANCH   8   9
ENDBRANCH   7   8
ENDBRANCH   1   7
TORSDOF 7
ENDMDL
MODEL 5
REMARK VINA RESULT:    -3.313      8.628     10.474
REMARK INTER + INTRA:          -5.041
REMARK INTER:                  -4.642
REMARK INTRA:                  -0.399
REMARK UNBOUND:                -0.372
REMARK SMILES C=CCCCCCCC(=O)[O-]
REMARK SMILES IDX 6 1 7 2 8 3 9 4 10 5 11 6 5 7 4 8 3 9 2 10 1 11
REMARK H PARENT
REMARK Flexibility Score: inf
ROOT
ATOM      1  C   UNL     1      57.835  17.501  50.670  1.00  0.00     0.000 C 
ENDROOT
BRANCH   1   2
ATOM      2  C   UNL     1      57.007  18.796  50.728  1.00  0.00     0.006 C 
BRANCH   2   3
ATOM      3  C   UNL     1      55.919  18.755  51.810  1.00  0.00     0.053 C 
BRANCH   3   4
ATOM      4  C   UNL     1      54.730  19.555  51.382  1.00  0.00     0.041 C 
ATOM      5  O   UNL     1      54.106  20.261  52.218  1.00  0.00    -0.550 OA
ATOM      6  O   UNL     1      54.338  19.562  50.049  1.00  0.00    -0.550 OA
ENDBRANCH   3   4
ENDBRANCH   2   3
ENDBRANCH   1   2
BRANCH   1   7
ATOM      7  C   UNL     1      58.091  17.029  49.229  1.00  0.00     0.000 C 
BRANCH   7   8
ATOM      8  C   UNL     1      59.581  17.070  48.845  1.00  0.00     0.004 C 
BRANCH   8   9
ATOM      9  C   UNL     1      60.303  18.370  49.243  1.00  0.00     0.027 C 
BRANCH   9  10
ATOM     10  C   UNL     1      59.878  19.549  48.409  1.00  0.00    -0.035 C 
ATOM     11  C   UNL     1      60.313  20.786  48.665  1.00  0.00     0.004 C 
ENDBRANCH   9  10
ENDBRANCH   8   9
ENDBRANCH   7   8
ENDBRANCH   1   7
TORSDOF 7
ENDMDL
MODEL 6
REMARK VINA RESULT:    -3.297      3.028      5.322
REMARK INTER + INTRA:          -5.018
REMARK INTER:                  -4.318
REMARK INTRA:                  -0.700
REMARK UNBOUND:                -0.372
REMARK SMILES C=CCCCCCCC(=O)[O-]
REMARK SMILES IDX 6 1 7 2 8 3 9 4 10 5 11 6 5 7 4 8 3 9 2 10 1 11
REMARK H PARENT
REMARK Flexibility Score: inf
ROOT
ATOM      1  C   UNL     1      57.461  25.997  51.197  1.00  0.00     0.000 C 
ENDROOT
BRANCH   1   2
ATOM      2  C   UNL     1      56.520  26.236  50.004  1.00  0.00     0.006 C 
BRANCH   2   3
ATOM      3  C   UNL     1      55.454  27.300  50.296  1.00  0.00     0.053 C 
BRANCH   3   4
ATOM      4  C   UNL     1      54.178  26.964  49.589  1.00  0.00     0.041 C 
ATOM      5  O   UNL     1      54.033  25.840  49.042  1.00  0.00    -0.550 OA
ATOM      6  O   UNL     1      53.130  27.876  49.576  1.00  0.00    -0.550 OA
ENDBRANCH   3   4
ENDBRANCH   2   3
ENDBRANCH   1   2
BRANCH   1   7
ATOM      7  C   UNL     1      58.886  25.618  50.757  1.00  0.00     0.000 C 
BRANCH   7   8
ATOM      8  C   UNL     1      59.323  26.338  49.468  1.00  0.00     0.004 C 
BRANCH   8   9
ATOM      9  C   UNL     1      59.916  27.740  49.695  1.00  0.00     0.027 C 
BRANCH   9  10
ATOM     10  C   UNL     1      59.062  28.833  49.111  1.00  0.00    -0.035 C 
ATOM     11  C   UNL     1      58.382  29.683  49.884  1.00  0.00     0.004 C 
ENDBRANCH   9  10
ENDBRANCH   8   9
ENDBRANCH   7   8
ENDBRANCH   1   7
TORSDOF 7
ENDMDL
MODEL 7
REMARK VINA RESULT:    -3.258      1.552      2.973
REMARK INTER + INTRA:          -4.963
REMARK INTER:                  -4.451
REMARK INTRA:                  -0.513
REMARK UNBOUND:                -0.372
REMARK SMILES C=CCCCCCCC(=O)[O-]
REMARK SMILES IDX 6 1 7 2 8 3 9 4 10 5 11 6 5 7 4 8 3 9 2 10 1 11
REMARK H PARENT
REMARK Flexibility Score: inf
ROOT
ATOM      1  C   UNL     1      55.665  26.226  50.561  1.00  0.00     0.000 C 
ENDROOT
BRANCH   1   2
ATOM      2  C   UNL     1      57.071  26.502  50.004  1.00  0.00     0.006 C 
BRANCH   2   3
ATOM      3  C   UNL     1      57.542  27.938  50.272  1.00  0.00     0.053 C 
BRANCH   3   4
ATOM      4  C   UNL     1      58.754  28.250  49.453  1.00  0.00     0.041 C 
ATOM      5  O   UNL     1      58.909  29.399  48.961  1.00  0.00    -0.550 OA
ATOM      6  O   UNL     1      59.737  27.286  49.271  1.00  0.00    -0.550 OA
ENDBRANCH   3   4
ENDBRANCH   2   3
ENDBRANCH   1   2
BRANCH   1   7
ATOM      7  C   UNL     1      54.591  26.186  49.460  1.00  0.00     0.000 C 
BRANCH   7   8
ATOM      8  C   UNL     1      53.576  27.338  49.576  1.00  0.00     0.004 C 
BRANCH   8   9
ATOM      9  C   UNL     1      53.771  28.232  50.814  1.00  0.00     0.027 C 
BRANCH   9  10
ATOM     10  C   UNL     1      54.171  29.638  50.458  1.00  0.00    -0.035 C 
ATOM     11  C   UNL     1      53.744  30.691  51.160  1.00  0.00     0.004 C 
ENDBRANCH   9  10
ENDBRANCH   8   9
ENDBRANCH   7   8
ENDBRANCH   1   7
TORSDOF 7
ENDMDL
MODEL 8
REMARK VINA RESULT:    -3.167      1.534      2.306
REMARK INTER + INTRA:          -4.836
REMARK INTER:                  -4.358
REMARK INTRA:                  -0.478
REMARK UNBOUND:                -0.372
REMARK SMILES C=CCCCCCCC(=O)[O-]
REMARK SMILES IDX 6 1 7 2 8 3 9 4 10 5 11 6 5 7 4 8 3 9 2 10 1 11
REMARK H PARENT
REMARK Flexibility Score: inf
ROOT
ATOM      1  C   UNL     1      58.520  29.680  50.476  1.00  0.00     0.000 C 
ENDROOT
BRANCH   1   2
ATOM      2  C   UNL     1      58.845  28.888  49.198  1.00  0.00     0.006 C 
BRANCH   2   3
ATOM      3  C   UNL     1      60.244  28.259  49.231  1.00  0.00     0.053 C 
BRANCH   3   4
ATOM      4  C   UNL     1      60.201  26.929  49.913  1.00  0.00     0.041 C 
ATOM      5  O   UNL     1      61.055  26.638  50.792  1.00  0.00    -0.550 OA
ATOM      6  O   UNL     1      59.188  26.026  49.614  1.00  0.00    -0.550 OA
ENDBRANCH   3   4
ENDBRANCH   2   3
ENDBRANCH   1   2
BRANCH   1   7
ATOM      7  C   UNL     1      57.100  29.401  50.998  1.00  0.00     0.000 C 
BRANCH   7   8
ATOM      8  C   UNL     1      56.514  28.084  50.456  1.00  0.00     0.004 C 
BRANCH   8   9
ATOM      9  C   UNL     1      54.994  28.118  50.218  1.00  0.00     0.027 C 
BRANCH   9  10
ATOM     10  C   UNL     1      54.381  29.449  50.561  1.00  0.00    -0.035 C 
ATOM     11  C   UNL     1      53.096  29.718  50.312  1.00  0.00     0.004 C 
ENDBRANCH   9  10
ENDBRANCH   8   9
ENDBRANCH   7   8
ENDBRANCH   1   7
TORSDOF 7
ENDMDL
MODEL 9
REMARK VINA RESULT:    -3.116      1.436      2.579
REMARK INTER + INTRA:          -4.764
REMARK INTER:                  -4.290
REMARK INTRA:                  -0.474
REMARK UNBOUND:                -0.372
REMARK SMILES C=CCCCCCCC(=O)[O-]
REMARK SMILES IDX 6 1 7 2 8 3 9 4 10 5 11 6 5 7 4 8 3 9 2 10 1 11
REMARK H PARENT
REMARK Flexibility Score: inf
ROOT
ATOM      1  C   UNL     1      58.852  28.852  49.152  1.00  0.00     0.000 C 
ENDROOT
BRANCH   1   2
ATOM      2  C   UNL     1      59.929  27.892  49.684  1.00  0.00     0.006 C 
BRANCH   2   3
ATOM      3  C   UNL     1      59.521  26.418  49.559  1.00  0.00     0.053 C 
BRANCH   3   4
ATOM      4  C   UNL     1      60.573  25.536  50.154  1.00  0.00     0.041 C 
ATOM      5  O   UNL     1      61.495  26.031  50.853  1.00  0.00    -0.550 OA
ATOM      6  O   UNL     1      60.509  24.159  49.975  1.00  0.00    -0.550 OA
ENDBRANCH   3   4
ENDBRANCH   2   3
ENDBRANCH   1   2
BRANCH   1   7
ATOM      7  C   UNL     1      58.126  29.607  50.278  1.00  0.00     0.000 C 
BRANCH   7   8
ATOM      8  C   UNL     1      57.186  28.700  51.093  1.00  0.00     0.004 C 
BRANCH   8   9
ATOM      9  C   UNL     1      55.917  28.263  50.340  1.00  0.00     0.027 C 
BRANCH   9  10
ATOM     10  C   UNL     1      55.860  26.776  50.112  1.00  0.00    -0.035 C 
ATOM     11  C   UNL     1      54.789  26.187  49.573  1.00  0.00     0.004 C 
ENDBRANCH   9  10
ENDBRANCH   8   9
ENDBRANCH   7   8
ENDBRANCH   1   7
TORSDOF 7
ENDMDL
