MODEL 1
REMARK VINA RESULT:    -3.262      0.000      0.000
REMARK INTER + INTRA:          -6.847
REMARK INTER:                  -6.122
REMARK INTRA:                  -0.725
REMARK UNBOUND:                -0.725
REMARK SMILES O=C([O-])CCCCCCCCCCCCCCC(=O)[O-]
REMARK SMILES IDX 10 1 9 2 8 3 7 4 6 5 5 6 4 7 2 8 1 9 3 10 11 11 12 12 13 13
REMARK SMILES IDX 14 14 15 15 16 16 17 17 18 18 19 19 20 20
REMARK H PARENT
REMARK Flexibility Score: inf
ROOT
ATOM      1  C   UNL     1     -30.949 -21.196 -33.781  1.00  0.00     0.000 C 
ENDROOT
BRANCH   1   2
ATOM      2  C   UNL     1     -32.075 -21.903 -34.553  1.00  0.00     0.000 C 
BRANCH   2   3
ATOM      3  C   UNL     1     -32.802 -20.966 -35.533  1.00  0.00     0.000 C 
BRANCH   3   4
ATOM      4  C   UNL     1     -33.928 -21.689 -36.303  1.00  0.00     0.000 C 
BRANCH   4   5
ATOM      5  C   UNL     1     -33.714 -21.712 -37.826  1.00  0.00     0.000 C 
BRANCH   5   6
ATOM      6  C   UNL     1     -32.229 -21.701 -38.222  1.00  0.00     0.006 C 
BRANCH   6   7
ATOM      7  C   UNL     1     -31.834 -22.946 -39.028  1.00  0.00     0.053 C 
BRANCH   7   8
ATOM      8  C   UNL     1     -31.902 -24.192 -38.199  1.00  0.00     0.041 C 
ATOM      9  O   UNL     1     -32.334 -25.263 -38.702  1.00  0.00    -0.550 OA
ATOM     10  O   UNL     1     -31.511 -24.165 -36.866  1.00  0.00    -0.550 OA
ENDBRANCH   7   8
ENDBRANCH   6   7
ENDBRANCH   5   6
ENDBRANCH   4   5
ENDBRANCH   3   4
ENDBRANCH   2   3
ENDBRANCH   1   2
BRANCH   1  11
ATOM     11  C   UNL     1     -31.328 -19.773 -33.350  1.00  0.00     0.000 C 
BRANCH  11  12
ATOM     12  C   UNL     1     -30.076 -18.906 -33.155  1.00  0.00     0.000 C 
BRANCH  12  13
ATOM     13  C   UNL     1     -28.939 -19.652 -32.433  1.00  0.00     0.000 C 
BRANCH  13  14
ATOM     14  C   UNL     1     -28.461 -19.001 -31.119  1.00  0.00     0.000 C 
BRANCH  14  15
ATOM     15  C   UNL     1     -29.338 -19.294 -29.888  1.00  0.00     0.000 C 
BRANCH  15  16
ATOM     16  C   UNL     1     -30.803 -18.875 -30.087  1.00  0.00     0.006 C 
BRANCH  16  17
ATOM     17  C   UNL     1     -31.742 -19.759 -29.260  1.00  0.00     0.053 C 
BRANCH  17  18
ATOM     18  C   UNL     1     -33.156 -19.290 -29.392  1.00  0.00     0.041 C 
ATOM     19  O   UNL     1     -33.589 -18.889 -30.504  1.00  0.00    -0.550 OA
ATOM     20  O   UNL     1     -33.982 -19.250 -28.276  1.00  0.00    -0.550 OA
ENDBRANCH  17  18
ENDBRANCH  16  17
ENDBRANCH  15  16
ENDBRANCH  14  15
ENDBRANCH  13  14
ENDBRANCH  12  13
ENDBRANCH  11  12
ENDBRANCH   1  11
TORSDOF 15
ENDMDL
MODEL 2
REMARK VINA RESULT:    -3.244      1.674      8.130
REMARK INTER + INTRA:          -6.813
REMARK INTER:                  -5.914
REMARK INTRA:                  -0.899
REMARK UNBOUND:                -0.725
REMARK SMILES O=C([O-])CCCCCCCCCCCCCCC(=O)[O-]
REMARK SMILES IDX 10 1 9 2 8 3 7 4 6 5 5 6 4 7 2 8 1 9 3 10 11 11 12 12 13 13
REMARK SMILES IDX 14 14 15 15 16 16 17 17 18 18 19 19 20 20
REMARK H PARENT
REMARK Flexibility Score: inf
ROOT
ATOM      1  C   UNL     1     -30.060 -20.903 -33.986  1.00  0.00     0.000 C 
ENDROOT
BRANCH   1   2
ATOM      2  C   UNL     1     -29.936 -19.373 -33.907  1.00  0.00     0.000 C 
BRANCH   2   3
ATOM      3  C   UNL     1     -28.712 -18.917 -33.094  1.00  0.00     0.000 C 
BRANCH   3   4
ATOM      4  C   UNL     1     -28.545 -19.728 -31.791  1.00  0.00     0.000 C 
BRANCH   4   5
ATOM      5  C   UNL     1     -28.666 -18.875 -30.516  1.00  0.00     0.000 C 
BRANCH   5   6
ATOM      6  C   UNL     1     -30.083 -18.887 -29.921  1.00  0.00     0.006 C 
BRANCH   6   7
ATOM      7  C   UNL     1     -30.974 -19.957 -30.565  1.00  0.00     0.053 C 
BRANCH   7   8
ATOM      8  C   UNL     1     -30.734 -21.313 -29.975  1.00  0.00     0.041 C 
ATOM      9  O   UNL     1     -30.866 -22.345 -30.685  1.00  0.00    -0.550 OA
ATOM     10  O   UNL     1     -30.389 -21.438 -28.635  1.00  0.00    -0.550 OA
ENDBRANCH   7   8
ENDBRANCH   6   7
ENDBRANCH   5   6
ENDBRANCH   4   5
ENDBRANCH   3   4
ENDBRANCH   2   3
ENDBRANCH   1   2
BRANCH   1  11
ATOM     11  C   UNL     1     -31.497 -21.394 -33.762  1.00  0.00     0.000 C 
BRANCH  11  12
ATOM     12  C   UNL     1     -32.410 -20.964 -34.919  1.00  0.00     0.000 C 
BRANCH  12  13
ATOM     13  C   UNL     1     -33.044 -22.156 -35.656  1.00  0.00     0.000 C 
BRANCH  13  14
ATOM     14  C   UNL     1     -34.048 -21.781 -36.766  1.00  0.00     0.000 C 
BRANCH  14  15
ATOM     15  C   UNL     1     -33.418 -21.450 -38.131  1.00  0.00     0.000 C 
BRANCH  15  16
ATOM     16  C   UNL     1     -32.083 -22.174 -38.362  1.00  0.00     0.006 C 
BRANCH  16  17
ATOM     17  C   UNL     1     -32.296 -23.485 -39.124  1.00  0.00     0.053 C 
BRANCH  17  18
ATOM     18  C   UNL     1     -31.837 -24.649 -38.304  1.00  0.00     0.041 C 
ATOM     19  O   UNL     1     -31.087 -24.468 -37.310  1.00  0.00    -0.550 OA
ATOM     20  O   UNL     1     -32.198 -25.940 -38.668  1.00  0.00    -0.550 OA
ENDBRANCH  17  18
ENDBRANCH  16  17
ENDBRANCH  15  16
ENDBRANCH  14  15
ENDBRANCH  13  14
ENDBRANCH  12  13
ENDBRANCH  11  12
ENDBRANCH   1  11
TORSDOF 15
ENDMDL
MODEL 3
REMARK VINA RESULT:    -3.204      1.595      1.928
REMARK INTER + INTRA:          -6.739
REMARK INTER:                  -5.952
REMARK INTRA:                  -0.786
REMARK UNBOUND:                -0.725
REMARK SMILES O=C([O-])CCCCCCCCCCCCCCC(=O)[O-]
REMARK SMILES IDX 10 1 9 2 8 3 7 4 6 5 5 6 4 7 2 8 1 9 3 10 11 11 12 12 13 13
REMARK SMILES IDX 14 14 15 15 16 16 17 17 18 18 19 19 20 20
REMARK H PARENT
REMARK Flexibility Score: inf
ROOT
ATOM      1  C   UNL     1     -31.149 -21.254 -34.205  1.00  0.00     0.000 C 
ENDROOT
BRANCH   1   2
ATOM      2  C   UNL     1     -32.194 -22.230 -34.767  1.00  0.00     0.000 C 
BRANCH   2   3
ATOM      3  C   UNL     1     -33.396 -21.511 -35.405  1.00  0.00     0.000 C 
BRANCH   3   4
ATOM      4  C   UNL     1     -33.644 -21.970 -36.858  1.00  0.00     0.000 C 
BRANCH   4   5
ATOM      5  C   UNL     1     -32.868 -21.150 -37.903  1.00  0.00     0.000 C 
BRANCH   5   6
ATOM      6  C   UNL     1     -31.838 -21.989 -38.677  1.00  0.00     0.006 C 
BRANCH   6   7
ATOM      7  C   UNL     1     -32.394 -23.361 -39.082  1.00  0.00     0.053 C 
BRANCH   7   8
ATOM      8  C   UNL     1     -31.836 -24.462 -38.235  1.00  0.00     0.041 C 
ATOM      9  O   UNL     1     -31.035 -24.197 -37.298  1.00  0.00    -0.550 OA
ATOM     10  O   UNL     1     -32.179 -25.784 -38.493  1.00  0.00    -0.550 OA
ENDBRANCH   7   8
ENDBRANCH   6   7
ENDBRANCH   5   6
ENDBRANCH   4   5
ENDBRANCH   3   4
ENDBRANCH   2   3
ENDBRANCH   1   2
BRANCH   1  11
ATOM     11  C   UNL     1     -31.773 -19.948 -33.691  1.00  0.00     0.000 C 
BRANCH  11  12
ATOM     12  C   UNL     1     -30.687 -18.911 -33.370  1.00  0.00     0.000 C 
BRANCH  12  13
ATOM     13  C   UNL     1     -29.301 -19.543 -33.152  1.00  0.00     0.000 C 
BRANCH  13  14
ATOM     14  C   UNL     1     -28.485 -18.944 -31.988  1.00  0.00     0.000 C 
BRANCH  14  15
ATOM     15  C   UNL     1     -28.870 -19.458 -30.588  1.00  0.00     0.000 C 
BRANCH  15  16
ATOM     16  C   UNL     1     -30.198 -18.875 -30.084  1.00  0.00     0.006 C 
BRANCH  16  17
ATOM     17  C   UNL     1     -31.324 -19.909 -30.185  1.00  0.00     0.053 C 
BRANCH  17  18
ATOM     18  C   UNL     1     -30.812 -21.277 -29.861  1.00  0.00     0.041 C 
ATOM     19  O   UNL     1     -30.287 -21.508 -28.740  1.00  0.00    -0.550 OA
ATOM     20  O   UNL     1     -30.868 -22.284 -30.816  1.00  0.00    -0.550 OA
ENDBRANCH  17  18
ENDBRANCH  16  17
ENDBRANCH  15  16
ENDBRANCH  14  15
ENDBRANCH  13  14
ENDBRANCH  12  13
ENDBRANCH  11  12
ENDBRANCH   1  11
TORSDOF 15
ENDMDL
MODEL 4
REMARK VINA RESULT:    -3.007      1.609      1.772
REMARK INTER + INTRA:          -6.369
REMARK INTER:                  -5.402
REMARK INTRA:                  -0.967
REMARK UNBOUND:                -0.725
REMARK SMILES O=C([O-])CCCCCCCCCCCCCCC(=O)[O-]
REMARK SMILES IDX 10 1 9 2 8 3 7 4 6 5 5 6 4 7 2 8 1 9 3 10 11 11 12 12 13 13
REMARK SMILES IDX 14 14 15 15 16 16 17 17 18 18 19 19 20 20
REMARK H PARENT
REMARK Flexibility Score: inf
ROOT
ATOM      1  C   UNL     1     -31.635 -20.724 -34.231  1.00  0.00     0.000 C 
ENDROOT
BRANCH   1   2
ATOM      2  C   UNL     1     -32.223 -22.129 -34.438  1.00  0.00     0.000 C 
BRANCH   2   3
ATOM      3  C   UNL     1     -33.355 -22.151 -35.481  1.00  0.00     0.000 C 
BRANCH   3   4
ATOM      4  C   UNL     1     -33.226 -21.002 -36.503  1.00  0.00     0.000 C 
BRANCH   4   5
ATOM      5  C   UNL     1     -34.124 -21.175 -37.740  1.00  0.00     0.000 C 
BRANCH   5   6
ATOM      6  C   UNL     1     -33.423 -21.920 -38.888  1.00  0.00     0.006 C 
BRANCH   6   7
ATOM      7  C   UNL     1     -31.966 -22.263 -38.553  1.00  0.00     0.053 C 
BRANCH   7   8
ATOM      8  C   UNL     1     -31.786 -23.724 -38.275  1.00  0.00     0.041 C 
ATOM      9  O   UNL     1     -32.166 -24.580 -39.118  1.00  0.00    -0.550 OA
ATOM     10  O   UNL     1     -31.223 -24.141 -37.075  1.00  0.00    -0.550 OA
ENDBRANCH   7   8
ENDBRANCH   6   7
ENDBRANCH   5   6
ENDBRANCH   4   5
ENDBRANCH   3   4
ENDBRANCH   2   3
ENDBRANCH   1   2
BRANCH   1  11
ATOM     11  C   UNL     1     -30.177 -20.617 -34.700  1.00  0.00     0.000 C 
BRANCH  11  12
ATOM     12  C   UNL     1     -29.219 -20.548 -33.502  1.00  0.00     0.000 C 
BRANCH  12  13
ATOM     13  C   UNL     1     -28.996 -19.112 -32.996  1.00  0.00     0.000 C 
BRANCH  13  14
ATOM     14  C   UNL     1     -28.229 -19.000 -31.662  1.00  0.00     0.000 C 
BRANCH  14  15
ATOM     15  C   UNL     1     -29.114 -18.896 -30.407  1.00  0.00     0.000 C 
BRANCH  15  16
ATOM     16  C   UNL     1     -30.615 -18.876 -30.735  1.00  0.00     0.006 C 
BRANCH  16  17
ATOM     17  C   UNL     1     -31.395 -19.792 -29.788  1.00  0.00     0.053 C 
BRANCH  17  18
ATOM     18  C   UNL     1     -30.822 -21.173 -29.803  1.00  0.00     0.041 C 
ATOM     19  O   UNL     1     -30.801 -21.839 -30.871  1.00  0.00    -0.550 OA
ATOM     20  O   UNL     1     -30.356 -21.744 -28.626  1.00  0.00    -0.550 OA
ENDBRANCH  17  18
ENDBRANCH  16  17
ENDBRANCH  15  16
ENDBRANCH  14  15
ENDBRANCH  13  14
ENDBRANCH  12  13
ENDBRANCH  11  12
ENDBRANCH   1  11
TORSDOF 15
ENDMDL
MODEL 5
REMARK VINA RESULT:    -2.921      1.800      8.611
REMARK INTER + INTRA:          -6.208
REMARK INTER:                  -5.132
REMARK INTRA:                  -1.075
REMARK UNBOUND:                -0.725
REMARK SMILES O=C([O-])CCCCCCCCCCCCCCC(=O)[O-]
REMARK SMILES IDX 10 1 9 2 8 3 7 4 6 5 5 6 4 7 2 8 1 9 3 10 11 11 12 12 13 13
REMARK SMILES IDX 14 14 15 15 16 16 17 17 18 18 19 19 20 20
REMARK H PARENT
REMARK Flexibility Score: inf
ROOT
ATOM      1  C   UNL     1     -33.148 -22.061 -34.898  1.00  0.00     0.000 C 
ENDROOT
BRANCH   1   2
ATOM      2  C   UNL     1     -31.845 -21.974 -34.086  1.00  0.00     0.000 C 
BRANCH   2   3
ATOM      3  C   UNL     1     -30.918 -20.846 -34.569  1.00  0.00     0.000 C 
BRANCH   3   4
ATOM      4  C   UNL     1     -29.591 -20.806 -33.782  1.00  0.00     0.000 C 
BRANCH   4   5
ATOM      5  C   UNL     1     -29.146 -19.384 -33.398  1.00  0.00     0.000 C 
BRANCH   5   6
ATOM      6  C   UNL     1     -29.815 -18.875 -32.111  1.00  0.00     0.006 C 
BRANCH   6   7
ATOM      7  C   UNL     1     -29.512 -19.774 -30.905  1.00  0.00     0.053 C 
BRANCH   7   8
ATOM      8  C   UNL     1     -30.759 -20.158 -30.169  1.00  0.00     0.041 C 
ATOM      9  O   UNL     1     -30.789 -21.215 -29.484  1.00  0.00    -0.550 OA
ATOM     10  O   UNL     1     -31.895 -19.363 -30.258  1.00  0.00    -0.550 OA
ENDBRANCH   7   8
ENDBRANCH   6   7
ENDBRANCH   5   6
ENDBRANCH   4   5
ENDBRANCH   3   4
ENDBRANCH   2   3
ENDBRANCH   1   2
BRANCH   1  11
ATOM     11  C   UNL     1     -33.253 -20.965 -35.968  1.00  0.00     0.000 C 
BRANCH  11  12
ATOM     12  C   UNL     1     -33.764 -21.542 -37.296  1.00  0.00     0.000 C 
BRANCH  12  13
ATOM     13  C   UNL     1     -32.719 -21.462 -38.424  1.00  0.00     0.000 C 
BRANCH  13  14
ATOM     14  C   UNL     1     -32.142 -22.819 -38.878  1.00  0.00     0.000 C 
BRANCH  14  15
ATOM     15  C   UNL     1     -31.908 -23.839 -37.749  1.00  0.00     0.000 C 
BRANCH  15  16
ATOM     16  C   UNL     1     -31.757 -25.277 -38.266  1.00  0.00     0.006 C 
BRANCH  16  17
ATOM     17  C   UNL     1     -33.127 -25.911 -38.528  1.00  0.00     0.053 C 
BRANCH  17  18
ATOM     18  C   UNL     1     -32.991 -27.385 -38.743  1.00  0.00     0.041 C 
ATOM     19  O   UNL     1     -31.850 -27.911 -38.825  1.00  0.00    -0.550 OA
ATOM     20  O   UNL     1     -34.125 -28.171 -38.902  1.00  0.00    -0.550 OA
ENDBRANCH  17  18
ENDBRANCH  16  17
ENDBRANCH  15  16
ENDBRANCH  14  15
ENDBRANCH  13  14
ENDBRANCH  12  13
ENDBRANCH  11  12
ENDBRANCH   1  11
TORSDOF 15
ENDMDL
MODEL 6
REMARK VINA RESULT:    -2.238      2.057      8.515
REMARK INTER + INTRA:          -4.925
REMARK INTER:                  -5.747
REMARK INTRA:                   0.822
REMARK UNBOUND:                -0.725
REMARK SMILES O=C([O-])CCCCCCCCCCCCCCC(=O)[O-]
REMARK SMILES IDX 10 1 9 2 8 3 7 4 6 5 5 6 4 7 2 8 1 9 3 10 11 11 12 12 13 13
REMARK SMILES IDX 14 14 15 15 16 16 17 17 18 18 19 19 20 20
REMARK H PARENT
REMARK Flexibility Score: inf
ROOT
ATOM      1  C   UNL     1     -31.392 -21.236 -33.878  1.00  0.00     0.000 C 
ENDROOT
BRANCH   1   2
ATOM      2  C   UNL     1     -29.915 -20.953 -34.194  1.00  0.00     0.000 C 
BRANCH   2   3
ATOM      3  C   UNL     1     -29.488 -19.526 -33.807  1.00  0.00     0.000 C 
BRANCH   3   4
ATOM      4  C   UNL     1     -30.015 -19.118 -32.415  1.00  0.00     0.000 C 
BRANCH   4   5
ATOM      5  C   UNL     1     -31.548 -19.015 -32.345  1.00  0.00     0.000 C 
BRANCH   5   6
ATOM      6  C   UNL     1     -32.094 -19.185 -30.918  1.00  0.00     0.006 C 
BRANCH   6   7
ATOM      7  C   UNL     1     -30.987 -19.520 -29.909  1.00  0.00     0.053 C 
BRANCH   7   8
ATOM      8  C   UNL     1     -30.734 -20.995 -29.829  1.00  0.00     0.041 C 
ATOM      9  O   UNL     1     -31.135 -21.757 -30.748  1.00  0.00    -0.550 OA
ATOM     10  O   UNL     1     -30.078 -21.531 -28.727  1.00  0.00    -0.550 OA
ENDBRANCH   7   8
ENDBRANCH   6   7
ENDBRANCH   5   6
ENDBRANCH   4   5
ENDBRANCH   3   4
ENDBRANCH   2   3
ENDBRANCH   1   2
BRANCH   1  11
ATOM     11  C   UNL     1     -32.239 -21.445 -35.141  1.00  0.00     0.000 C 
BRANCH  11  12
ATOM     12  C   UNL     1     -32.894 -22.834 -35.138  1.00  0.00     0.000 C 
BRANCH  12  13
ATOM     13  C   UNL     1     -33.060 -23.420 -36.552  1.00  0.00     0.000 C 
BRANCH  13  14
ATOM     14  C   UNL     1     -32.365 -22.623 -37.675  1.00  0.00     0.000 C 
BRANCH  14  15
ATOM     15  C   UNL     1     -31.549 -23.471 -38.668  1.00  0.00     0.000 C 
BRANCH  15  16
ATOM     16  C   UNL     1     -32.293 -24.735 -39.125  1.00  0.00     0.006 C 
BRANCH  16  17
ATOM     17  C   UNL     1     -32.040 -25.898 -38.160  1.00  0.00     0.053 C 
BRANCH  17  18
ATOM     18  C   UNL     1     -32.886 -27.076 -38.526  1.00  0.00     0.041 C 
ATOM     19  O   UNL     1     -34.123 -27.065 -38.295  1.00  0.00    -0.550 OA
ATOM     20  O   UNL     1     -32.299 -28.208 -39.078  1.00  0.00    -0.550 OA
ENDBRANCH  17  18
ENDBRANCH  16  17
ENDBRANCH  15  16
ENDBRANCH  14  15
ENDBRANCH  13  14
ENDBRANCH  12  13
ENDBRANCH  11  12
ENDBRANCH   1  11
TORSDOF 15
ENDMDL
MODEL 7
REMARK VINA RESULT:    -2.056      2.414      7.954
REMARK INTER + INTRA:          -4.585
REMARK INTER:                  -3.264
REMARK INTRA:                  -1.321
REMARK UNBOUND:                -0.725
REMARK SMILES O=C([O-])CCCCCCCCCCCCCCC(=O)[O-]
REMARK SMILES IDX 10 1 9 2 8 3 7 4 6 5 5 6 4 7 2 8 1 9 3 10 11 11 12 12 13 13
REMARK SMILES IDX 14 14 15 15 16 16 17 17 18 18 19 19 20 20
REMARK H PARENT
REMARK Flexibility Score: inf
ROOT
ATOM      1  C   UNL     1     -32.763 -20.127 -33.820  1.00  0.00     0.000 C 
ENDROOT
BRANCH   1   2
ATOM      2  C   UNL     1     -32.311 -18.940 -32.953  1.00  0.00     0.000 C 
BRANCH   2   3
ATOM      3  C   UNL     1     -32.807 -19.043 -31.500  1.00  0.00     0.000 C 
BRANCH   3   4
ATOM      4  C   UNL     1     -31.806 -19.795 -30.596  1.00  0.00     0.000 C 
BRANCH   4   5
ATOM      5  C   UNL     1     -30.767 -18.875 -29.932  1.00  0.00     0.000 C 
BRANCH   5   6
ATOM      6  C   UNL     1     -29.319 -19.269 -30.268  1.00  0.00     0.006 C 
BRANCH   6   7
ATOM      7  C   UNL     1     -29.230 -20.118 -31.543  1.00  0.00     0.053 C 
BRANCH   7   8
ATOM      8  C   UNL     1     -28.357 -19.478 -32.579  1.00  0.00     0.041 C 
ATOM      9  O   UNL     1     -27.302 -18.880 -32.237  1.00  0.00    -0.550 OA
ATOM     10  O   UNL     1     -28.721 -19.521 -33.920  1.00  0.00    -0.550 OA
ENDBRANCH   7   8
ENDBRANCH   6   7
ENDBRANCH   5   6
ENDBRANCH   4   5
ENDBRANCH   3   4
ENDBRANCH   2   3
ENDBRANCH   1   2
BRANCH   1  11
ATOM     11  C   UNL     1     -31.596 -21.030 -34.242  1.00  0.00     0.000 C 
BRANCH  11  12
ATOM     12  C   UNL     1     -32.047 -22.052 -35.296  1.00  0.00     0.000 C 
BRANCH  12  13
ATOM     13  C   UNL     1     -33.550 -21.961 -35.613  1.00  0.00     0.000 C 
BRANCH  13  14
ATOM     14  C   UNL     1     -33.889 -21.484 -37.040  1.00  0.00     0.000 C 
BRANCH  14  15
ATOM     15  C   UNL     1     -32.684 -21.015 -37.875  1.00  0.00     0.000 C 
BRANCH  15  16
ATOM     16  C   UNL     1     -32.273 -22.030 -38.952  1.00  0.00     0.006 C 
BRANCH  16  17
ATOM     17  C   UNL     1     -32.943 -23.386 -38.711  1.00  0.00     0.053 C 
BRANCH  17  18
ATOM     18  C   UNL     1     -31.922 -24.421 -38.358  1.00  0.00     0.041 C 
ATOM     19  O   UNL     1     -30.740 -24.081 -38.094  1.00  0.00    -0.550 OA
ATOM     20  O   UNL     1     -32.265 -25.767 -38.370  1.00  0.00    -0.550 OA
ENDBRANCH  17  18
ENDBRANCH  16  17
ENDBRANCH  15  16
ENDBRANCH  14  15
ENDBRANCH  13  14
ENDBRANCH  12  13
ENDBRANCH  11  12
ENDBRANCH   1  11
TORSDOF 15
ENDMDL
MODEL 8
REMARK VINA RESULT:    -1.812      0.863      8.347
REMARK INTER + INTRA:          -4.126
REMARK INTER:                  -2.926
REMARK INTRA:                  -1.200
REMARK UNBOUND:                -0.725
REMARK SMILES O=C([O-])CCCCCCCCCCCCCCC(=O)[O-]
REMARK SMILES IDX 10 1 9 2 8 3 7 4 6 5 5 6 4 7 2 8 1 9 3 10 11 11 12 12 13 13
REMARK SMILES IDX 14 14 15 15 16 16 17 17 18 18 19 19 20 20
REMARK H PARENT
REMARK Flexibility Score: inf
ROOT
ATOM      1  C   UNL     1     -31.363 -21.225 -33.165  1.00  0.00     0.000 C 
ENDROOT
BRANCH   1   2
ATOM      2  C   UNL     1     -30.599 -20.179 -33.993  1.00  0.00     0.000 C 
BRANCH   2   3
ATOM      3  C   UNL     1     -29.139 -20.012 -33.538  1.00  0.00     0.000 C 
BRANCH   3   4
ATOM      4  C   UNL     1     -28.982 -18.891 -32.487  1.00  0.00     0.000 C 
BRANCH   4   5
ATOM      5  C   UNL     1     -28.749 -19.416 -31.060  1.00  0.00     0.000 C 
BRANCH   5   6
ATOM      6  C   UNL     1     -29.774 -18.875 -30.050  1.00  0.00     0.006 C 
BRANCH   6   7
ATOM      7  C   UNL     1     -30.878 -19.894 -29.742  1.00  0.00     0.053 C 
BRANCH   7   8
ATOM      8  C   UNL     1     -32.235 -19.259 -29.722  1.00  0.00     0.041 C 
ATOM      9  O   UNL     1     -32.780 -18.962 -28.626  1.00  0.00    -0.550 OA
ATOM     10  O   UNL     1     -32.908 -19.016 -30.914  1.00  0.00    -0.550 OA
ENDBRANCH   7   8
ENDBRANCH   6   7
ENDBRANCH   5   6
ENDBRANCH   4   5
ENDBRANCH   3   4
ENDBRANCH   2   3
ENDBRANCH   1   2
BRANCH   1  11
ATOM     11  C   UNL     1     -32.220 -22.157 -34.033  1.00  0.00     0.000 C 
BRANCH  11  12
ATOM     12  C   UNL     1     -32.177 -21.728 -35.507  1.00  0.00     0.000 C 
BRANCH  12  13
ATOM     13  C   UNL     1     -33.545 -21.837 -36.202  1.00  0.00     0.000 C 
BRANCH  13  14
ATOM     14  C   UNL     1     -33.825 -20.758 -37.268  1.00  0.00     0.000 C 
BRANCH  14  15
ATOM     15  C   UNL     1     -33.108 -20.968 -38.614  1.00  0.00     0.000 C 
BRANCH  15  16
ATOM     16  C   UNL     1     -33.140 -22.429 -39.085  1.00  0.00     0.006 C 
BRANCH  16  17
ATOM     17  C   UNL     1     -31.744 -23.058 -39.015  1.00  0.00     0.053 C 
BRANCH  17  18
ATOM     18  C   UNL     1     -31.778 -24.326 -38.222  1.00  0.00     0.041 C 
ATOM     19  O   UNL     1     -31.093 -24.434 -37.171  1.00  0.00    -0.550 OA
ATOM     20  O   UNL     1     -32.529 -25.405 -38.669  1.00  0.00    -0.550 OA
ENDBRANCH  17  18
ENDBRANCH  16  17
ENDBRANCH  15  16
ENDBRANCH  14  15
ENDBRANCH  13  14
ENDBRANCH  12  13
ENDBRANCH  11  12
ENDBRANCH   1  11
TORSDOF 15
ENDMDL
