MODEL 1
REMARK VINA RESULT:    -7.693      0.000      0.000
REMARK INTER + INTRA:          -8.921
REMARK INTER:                  -8.817
REMARK INTRA:                  -0.104
REMARK UNBOUND:                -0.104
REMARK SMILES C=C(C)[C@H]1CC[C@@]2(C(=O)[O-])CC[C@@]3(C)[C@H](CC[C@H]4[C@@]5(C)CC[C@H](O)C(C)(C)[C@H]5CC[C@@]43C)[C@H]12
REMARK SMILES IDX 7 1 6 2 33 3 11 4 5 5 15 6 4 7 12 8 16 9 13 10 17 11 31 12
REMARK SMILES IDX 14 13 18 14 30 15 32 16 19 17 29 18 21 19 20 20 28 21 22 22
REMARK SMILES IDX 25 23 23 24 26 25 27 26 8 27 9 28 10 29 2 30 3 31 1 32 24 33
REMARK H PARENT 24 34
REMARK Flexibility Score: inf
ROOT
ATOM      1  C   UNL     1      48.167  37.262  11.190  1.00  0.00     0.014 C 
ATOM      2  C   UNL     1      48.475  37.389  12.694  1.00  0.00     0.014 C 
ATOM      3  C   UNL     1      46.726  37.790  11.147  1.00  0.00     0.012 C 
ATOM      4  C   UNL     1      48.144  35.813  10.655  1.00  0.00     0.014 C 
ATOM      5  C   UNL     1      47.718  38.655  13.168  1.00  0.00     0.009 C 
ATOM      6  C   UNL     1      46.003  37.776   9.765  1.00  0.00     0.000 C 
ATOM      7  C   UNL     1      46.726  39.034  12.042  1.00  0.00     0.018 C 
ATOM      8  C   UNL     1      47.603  35.791   9.203  1.00  0.00     0.008 C 
ATOM      9  C   UNL     1      46.308  38.977   8.860  1.00  0.00     0.005 C 
ATOM     10  C   UNL     1      46.145  36.375   9.009  1.00  0.00    -0.024 C 
ATOM     11  C   UNL     1      45.356  39.048   7.646  1.00  0.00     0.005 C 
ATOM     12  C   UNL     1      45.741  36.512   7.418  1.00  0.00    -0.024 C 
ATOM     13  C   UNL     1      45.175  35.379   9.739  1.00  0.00     0.012 C 
ATOM     14  C   UNL     1      44.684  37.682   7.270  1.00  0.00     0.002 C 
ATOM     15  C   UNL     1      45.102  35.204   6.867  1.00  0.00     0.008 C 
ATOM     16  C   UNL     1      47.007  36.778   6.525  1.00  0.00     0.012 C 
ATOM     17  C   UNL     1      43.728  37.762   5.970  1.00  0.00    -0.026 C 
ATOM     18  C   UNL     1      44.528  35.345   5.459  1.00  0.00     0.005 C 
ATOM     19  C   UNL     1      44.374  38.621   4.830  1.00  0.00     0.010 C 
ATOM     20  C   UNL     1      42.427  38.502   6.445  1.00  0.00     0.012 C 
ATOM     21  C   UNL     1      43.320  36.316   5.426  1.00  0.00     0.003 C 
ATOM     22  C   UNL     1      43.621  38.611   3.494  1.00  0.00     0.033 C 
ATOM     23  C   UNL     1      42.580  36.302   4.007  1.00  0.00    -0.006 C 
ATOM     24  C   UNL     1      43.367  37.180   2.988  1.00  0.00     0.120 C 
ATOM     25  C   UNL     1      41.093  36.773   4.135  1.00  0.00     0.014 C 
ATOM     26  C   UNL     1      42.503  34.861   3.419  1.00  0.00     0.014 C 
ENDROOT
BRANCH   1  27
ATOM     27  C   UNL     1      49.228  38.076  10.446  1.00  0.00     0.048 C 
ATOM     28  O   UNL     1      49.143  39.327  10.305  1.00  0.00    -0.550 OA
ATOM     29  O   UNL     1      50.373  37.435   9.981  1.00  0.00    -0.550 OA
ENDBRANCH   1  27
BRANCH   7  30
ATOM     30  C   UNL     1      45.345  39.446  12.539  1.00  0.00    -0.077 C 
ATOM     31  C   UNL     1      44.747  38.754  13.738  1.00  0.00     0.039 C 
ATOM     32  C   UNL     1      44.658  40.460  11.979  1.00  0.00     0.008 C 
ENDBRANCH   7  30
BRANCH  24  33
ATOM     33  O   UNL     1      42.737  37.194   1.727  1.00  0.00    -0.393 OA
ATOM     34  H   UNL     1      42.602  38.133   1.450  1.00  0.00     0.210 HD
ENDBRANCH  24  33
TORSDOF 3
ENDMDL
MODEL 2
REMARK VINA RESULT:    -7.632      1.930      2.705
REMARK INTER + INTRA:          -8.852
REMARK INTER:                  -8.757
REMARK INTRA:                  -0.095
REMARK UNBOUND:                -0.104
REMARK SMILES C=C(C)[C@H]1CC[C@@]2(C(=O)[O-])CC[C@@]3(C)[C@H](CC[C@H]4[C@@]5(C)CC[C@H](O)C(C)(C)[C@H]5CC[C@@]43C)[C@H]12
REMARK SMILES IDX 7 1 6 2 33 3 11 4 5 5 15 6 4 7 12 8 16 9 13 10 17 11 31 12
REMARK SMILES IDX 14 13 18 14 30 15 32 16 19 17 29 18 21 19 20 20 28 21 22 22
REMARK SMILES IDX 25 23 23 24 26 25 27 26 8 27 9 28 10 29 2 30 3 31 1 32 24 33
REMARK H PARENT 24 34
REMARK Flexibility Score: inf
ROOT
ATOM      1  C   UNL     1      50.025  34.917   9.890  1.00  0.00     0.014 C 
ATOM      2  C   UNL     1      50.870  34.726  11.164  1.00  0.00     0.014 C 
ATOM      3  C   UNL     1      49.034  35.991  10.362  1.00  0.00     0.012 C 
ATOM      4  C   UNL     1      49.200  33.680   9.470  1.00  0.00     0.014 C 
ATOM      5  C   UNL     1      50.946  36.125  11.825  1.00  0.00     0.009 C 
ATOM      6  C   UNL     1      47.934  36.439   9.350  1.00  0.00     0.000 C 
ATOM      7  C   UNL     1      49.880  37.009  11.133  1.00  0.00     0.018 C 
ATOM      8  C   UNL     1      48.223  34.055   8.326  1.00  0.00     0.008 C 
ATOM      9  C   UNL     1      48.376  37.507   8.342  1.00  0.00     0.005 C 
ATOM     10  C   UNL     1      47.188  35.204   8.663  1.00  0.00    -0.024 C 
ATOM     11  C   UNL     1      47.181  38.107   7.568  1.00  0.00     0.005 C 
ATOM     12  C   UNL     1      46.344  35.683   7.332  1.00  0.00    -0.024 C 
ATOM     13  C   UNL     1      46.217  34.615   9.747  1.00  0.00     0.012 C 
ATOM     14  C   UNL     1      45.908  37.192   7.533  1.00  0.00     0.002 C 
ATOM     15  C   UNL     1      45.060  34.828   7.120  1.00  0.00     0.008 C 
ATOM     16  C   UNL     1      47.193  35.511   6.021  1.00  0.00     0.012 C 
ATOM     17  C   UNL     1      44.683  37.812   6.681  1.00  0.00    -0.026 C 
ATOM     18  C   UNL     1      44.142  35.359   6.022  1.00  0.00     0.005 C 
ATOM     19  C   UNL     1      45.180  38.460   5.343  1.00  0.00     0.010 C 
ATOM     20  C   UNL     1      44.083  38.958   7.570  1.00  0.00     0.012 C 
ATOM     21  C   UNL     1      43.536  36.737   6.396  1.00  0.00     0.003 C 
ATOM     22  C   UNL     1      44.074  38.918   4.386  1.00  0.00     0.033 C 
ATOM     23  C   UNL     1      42.409  37.196   5.357  1.00  0.00    -0.006 C 
ATOM     24  C   UNL     1      43.075  37.789   4.078  1.00  0.00     0.120 C 
ATOM     25  C   UNL     1      41.417  38.217   6.007  1.00  0.00     0.014 C 
ATOM     26  C   UNL     1      41.524  35.995   4.908  1.00  0.00     0.014 C 
ENDROOT
BRANCH   1  27
ATOM     27  C   UNL     1      50.989  35.306   8.767  1.00  0.00     0.048 C 
ATOM     28  O   UNL     1      51.512  36.452   8.694  1.00  0.00    -0.550 OA
ATOM     29  O   UNL     1      51.375  34.343   7.840  1.00  0.00    -0.550 OA
ENDBRANCH   1  27
BRANCH   7  30
ATOM     30  C   UNL     1      49.082  37.889  12.089  1.00  0.00    -0.077 C 
ATOM     31  C   UNL     1      48.776  39.315  11.709  1.00  0.00     0.039 C 
ATOM     32  C   UNL     1      48.581  37.413  13.245  1.00  0.00     0.008 C 
ENDBRANCH   7  30
BRANCH  24  33
ATOM     33  O   UNL     1      42.107  38.210   3.143  1.00  0.00    -0.393 OA
ATOM     34  H   UNL     1      41.749  39.085   3.430  1.00  0.00     0.210 HD
ENDBRANCH  24  33
TORSDOF 3
ENDMDL
MODEL 3
REMARK VINA RESULT:    -7.503      7.153     10.135
REMARK INTER + INTRA:          -8.703
REMARK INTER:                  -8.830
REMARK INTRA:                   0.126
REMARK UNBOUND:                -0.104
REMARK SMILES C=C(C)[C@H]1CC[C@@]2(C(=O)[O-])CC[C@@]3(C)[C@H](CC[C@H]4[C@@]5(C)CC[C@H](O)C(C)(C)[C@H]5CC[C@@]43C)[C@H]12
REMARK SMILES IDX 7 1 6 2 33 3 11 4 5 5 15 6 4 7 12 8 16 9 13 10 17 11 31 12
REMARK SMILES IDX 14 13 18 14 30 15 32 16 19 17 29 18 21 19 20 20 28 21 22 22
REMARK SMILES IDX 25 23 23 24 26 25 27 26 8 27 9 28 10 29 2 30 3 31 1 32 24 33
REMARK H PARENT 24 34
REMARK Flexibility Score: inf
ROOT
ATOM      1  C   UNL     1      39.393  28.130   8.755  1.00  0.00     0.014 C 
ATOM      2  C   UNL     1      38.459  27.038   9.310  1.00  0.00     0.014 C 
ATOM      3  C   UNL     1      38.551  28.662   7.587  1.00  0.00     0.012 C 
ATOM      4  C   UNL     1      40.722  27.606   8.166  1.00  0.00     0.014 C 
ATOM      5  C   UNL     1      37.021  27.579   9.103  1.00  0.00     0.009 C 
ATOM      6  C   UNL     1      39.186  29.781   6.704  1.00  0.00     0.000 C 
ATOM      7  C   UNL     1      37.128  28.785   8.140  1.00  0.00     0.018 C 
ATOM      8  C   UNL     1      41.470  28.752   7.438  1.00  0.00     0.008 C 
ATOM      9  C   UNL     1      39.042  31.205   7.256  1.00  0.00     0.005 C 
ATOM     10  C   UNL     1      40.679  29.436   6.250  1.00  0.00    -0.024 C 
ATOM     11  C   UNL     1      39.430  32.276   6.213  1.00  0.00     0.005 C 
ATOM     12  C   UNL     1      41.454  30.775   5.683  1.00  0.00    -0.024 C 
ATOM     13  C   UNL     1      40.559  28.351   5.122  1.00  0.00     0.012 C 
ATOM     14  C   UNL     1      40.372  31.757   5.072  1.00  0.00     0.002 C 
ATOM     15  C   UNL     1      42.479  30.422   4.566  1.00  0.00     0.008 C 
ATOM     16  C   UNL     1      42.283  31.481   6.815  1.00  0.00     0.012 C 
ATOM     17  C   UNL     1      40.807  32.899   4.015  1.00  0.00    -0.026 C 
ATOM     18  C   UNL     1      43.075  31.642   3.870  1.00  0.00     0.005 C 
ATOM     19  C   UNL     1      41.167  34.244   4.735  1.00  0.00     0.010 C 
ATOM     20  C   UNL     1      39.540  33.160   3.126  1.00  0.00     0.012 C 
ATOM     21  C   UNL     1      42.003  32.427   3.068  1.00  0.00     0.003 C 
ATOM     22  C   UNL     1      41.759  35.333   3.832  1.00  0.00     0.033 C 
ATOM     23  C   UNL     1      42.655  33.574   2.163  1.00  0.00    -0.006 C 
ATOM     24  C   UNL     1      42.976  34.824   3.038  1.00  0.00     0.120 C 
ATOM     25  C   UNL     1      41.728  33.946   0.959  1.00  0.00     0.014 C 
ATOM     26  C   UNL     1      43.993  33.102   1.519  1.00  0.00     0.014 C 
ENDROOT
BRANCH   1  27
ATOM     27  C   UNL     1      39.680  29.100   9.905  1.00  0.00     0.048 C 
ATOM     28  O   UNL     1      40.115  30.267   9.709  1.00  0.00    -0.550 OA
ATOM     29  O   UNL     1      39.370  28.719  11.207  1.00  0.00    -0.550 OA
ENDBRANCH   1  27
BRANCH   7  30
ATOM     30  C   UNL     1      36.043  28.827   7.069  1.00  0.00    -0.077 C 
ATOM     31  C   UNL     1      35.016  29.930   7.090  1.00  0.00     0.039 C 
ATOM     32  C   UNL     1      36.007  27.940   6.056  1.00  0.00     0.008 C 
ENDBRANCH   7  30
BRANCH  24  33
ATOM     33  O   UNL     1      43.546  35.858   2.268  1.00  0.00    -0.393 OA
ATOM     34  H   UNL     1      43.398  35.660   1.312  1.00  0.00     0.210 HD
ENDBRANCH  24  33
TORSDOF 3
ENDMDL
MODEL 4
REMARK VINA RESULT:    -7.356      7.229     11.226
REMARK INTER + INTRA:          -8.535
REMARK INTER:                  -8.474
REMARK INTRA:                  -0.061
REMARK UNBOUND:                -0.104
REMARK SMILES C=C(C)[C@H]1CC[C@@]2(C(=O)[O-])CC[C@@]3(C)[C@H](CC[C@H]4[C@@]5(C)CC[C@H](O)C(C)(C)[C@H]5CC[C@@]43C)[C@H]12
REMARK SMILES IDX 7 1 6 2 33 3 11 4 5 5 15 6 4 7 12 8 16 9 13 10 17 11 31 12
REMARK SMILES IDX 14 13 18 14 30 15 32 16 19 17 29 18 21 19 20 20 28 21 22 22
REMARK SMILES IDX 25 23 23 24 26 25 27 26 8 27 9 28 10 29 2 30 3 31 1 32 24 33
REMARK H PARENT 24 34
REMARK Flexibility Score: inf
ROOT
ATOM      1  C   UNL     1      37.012  28.421   7.658  1.00  0.00     0.014 C 
ATOM      2  C   UNL     1      35.712  27.624   7.441  1.00  0.00     0.014 C 
ATOM      3  C   UNL     1      37.233  28.998   6.253  1.00  0.00     0.012 C 
ATOM      4  C   UNL     1      38.248  27.562   8.005  1.00  0.00     0.014 C 
ATOM      5  C   UNL     1      34.892  28.439   6.409  1.00  0.00     0.009 C 
ATOM      6  C   UNL     1      38.519  29.852   6.028  1.00  0.00     0.000 C 
ATOM      7  C   UNL     1      35.854  29.485   5.796  1.00  0.00     0.018 C 
ATOM      8  C   UNL     1      39.529  28.435   7.973  1.00  0.00     0.008 C 
ATOM      9  C   UNL     1      38.403  31.323   6.446  1.00  0.00     0.005 C 
ATOM     10  C   UNL     1      39.836  29.145   6.593  1.00  0.00    -0.024 C 
ATOM     11  C   UNL     1      39.592  32.168   5.940  1.00  0.00     0.005 C 
ATOM     12  C   UNL     1      41.083  30.216   6.714  1.00  0.00    -0.024 C 
ATOM     13  C   UNL     1      40.192  27.999   5.580  1.00  0.00     0.012 C 
ATOM     14  C   UNL     1      40.884  31.340   5.616  1.00  0.00     0.002 C 
ATOM     15  C   UNL     1      42.460  29.533   6.469  1.00  0.00     0.008 C 
ATOM     16  C   UNL     1      41.165  30.840   8.153  1.00  0.00     0.012 C 
ATOM     17  C   UNL     1      42.133  32.243   5.132  1.00  0.00    -0.026 C 
ATOM     18  C   UNL     1      43.624  30.514   6.371  1.00  0.00     0.005 C 
ATOM     19  C   UNL     1      42.272  33.545   5.993  1.00  0.00     0.010 C 
ATOM     20  C   UNL     1      41.799  32.678   3.662  1.00  0.00     0.012 C 
ATOM     21  C   UNL     1      43.505  31.424   5.120  1.00  0.00     0.003 C 
ATOM     22  C   UNL     1      43.531  34.377   5.724  1.00  0.00     0.033 C 
ATOM     23  C   UNL     1      44.824  32.300   4.891  1.00  0.00    -0.006 C 
ATOM     24  C   UNL     1      44.814  33.535   5.842  1.00  0.00     0.120 C 
ATOM     25  C   UNL     1      44.966  32.736   3.395  1.00  0.00     0.014 C 
ATOM     26  C   UNL     1      46.113  31.483   5.203  1.00  0.00     0.014 C 
ENDROOT
BRANCH   1  27
ATOM     27  C   UNL     1      36.740  29.421   8.785  1.00  0.00     0.048 C 
ATOM     28  O   UNL     1      36.221  30.551   8.574  1.00  0.00    -0.550 OA
ATOM     29  O   UNL     1      36.991  29.045  10.101  1.00  0.00    -0.550 OA
ENDBRANCH   1  27
BRANCH   7  30
ATOM     30  C   UNL     1      35.718  29.648   4.286  1.00  0.00    -0.077 C 
ATOM     31  C   UNL     1      36.122  30.948   3.637  1.00  0.00     0.039 C 
ATOM     32  C   UNL     1      35.304  28.641   3.494  1.00  0.00     0.008 C 
ENDBRANCH   7  30
BRANCH  24  33
ATOM     33  O   UNL     1      45.962  34.334   5.660  1.00  0.00    -0.393 OA
ATOM     34  H   UNL     1      45.693  35.284   5.675  1.00  0.00     0.210 HD
ENDBRANCH  24  33
TORSDOF 3
ENDMDL
MODEL 5
REMARK VINA RESULT:    -7.253      7.614     10.819
REMARK INTER + INTRA:          -8.418
REMARK INTER:                  -8.312
REMARK INTRA:                  -0.105
REMARK UNBOUND:                -0.104
REMARK SMILES C=C(C)[C@H]1CC[C@@]2(C(=O)[O-])CC[C@@]3(C)[C@H](CC[C@H]4[C@@]5(C)CC[C@H](O)C(C)(C)[C@H]5CC[C@@]43C)[C@H]12
REMARK SMILES IDX 7 1 6 2 33 3 11 4 5 5 15 6 4 7 12 8 16 9 13 10 17 11 31 12
REMARK SMILES IDX 14 13 18 14 30 15 32 16 19 17 29 18 21 19 20 20 28 21 22 22
REMARK SMILES IDX 25 23 23 24 26 25 27 26 8 27 9 28 10 29 2 30 3 31 1 32 24 33
REMARK H PARENT 24 34
REMARK Flexibility Score: inf
ROOT
ATOM      1  C   UNL     1      40.540  36.349   1.817  1.00  0.00     0.014 C 
ATOM      2  C   UNL     1      41.553  36.916   0.804  1.00  0.00     0.014 C 
ATOM      3  C   UNL     1      41.120  34.946   2.048  1.00  0.00     0.012 C 
ATOM      4  C   UNL     1      39.107  36.173   1.268  1.00  0.00     0.014 C 
ATOM      5  C   UNL     1      42.922  36.306   1.201  1.00  0.00     0.009 C 
ATOM      6  C   UNL     1      40.329  33.997   3.001  1.00  0.00     0.000 C 
ATOM      7  C   UNL     1      42.631  35.153   2.191  1.00  0.00     0.018 C 
ATOM      8  C   UNL     1      38.240  35.390   2.288  1.00  0.00     0.008 C 
ATOM      9  C   UNL     1      40.614  34.193   4.495  1.00  0.00     0.005 C 
ATOM     10  C   UNL     1      38.767  33.947   2.666  1.00  0.00    -0.024 C 
ATOM     11  C   UNL     1      40.029  33.051   5.355  1.00  0.00     0.005 C 
ATOM     12  C   UNL     1      37.912  33.282   3.907  1.00  0.00    -0.024 C 
ATOM     13  C   UNL     1      38.622  33.074   1.368  1.00  0.00     0.012 C 
ATOM     14  C   UNL     1      38.853  32.267   4.675  1.00  0.00     0.002 C 
ATOM     15  C   UNL     1      36.664  32.503   3.399  1.00  0.00     0.008 C 
ATOM     16  C   UNL     1      37.359  34.386   4.878  1.00  0.00     0.012 C 
ATOM     17  C   UNL     1      38.221  31.106   5.604  1.00  0.00    -0.026 C 
ATOM     18  C   UNL     1      35.954  31.703   4.488  1.00  0.00     0.005 C 
ATOM     19  C   UNL     1      38.048  31.583   7.087  1.00  0.00     0.010 C 
ATOM     20  C   UNL     1      39.271  29.939   5.600  1.00  0.00     0.012 C 
ATOM     21  C   UNL     1      36.840  30.549   5.025  1.00  0.00     0.003 C 
ATOM     22  C   UNL     1      37.294  30.613   8.004  1.00  0.00     0.033 C 
ATOM     23  C   UNL     1      36.029  29.577   6.003  1.00  0.00    -0.006 C 
ATOM     24  C   UNL     1      35.927  30.215   7.422  1.00  0.00     0.120 C 
ATOM     25  C   UNL     1      36.681  28.156   6.064  1.00  0.00     0.014 C 
ATOM     26  C   UNL     1      34.576  29.339   5.494  1.00  0.00     0.014 C 
ENDROOT
BRANCH   1  27
ATOM     27  C   UNL     1      40.526  37.301   3.016  1.00  0.00     0.048 C 
ATOM     28  O   UNL     1      41.239  37.109   4.038  1.00  0.00    -0.550 OA
ATOM     29  O   UNL     1      39.768  38.466   2.948  1.00  0.00    -0.550 OA
ENDBRANCH   1  27
BRANCH   7  30
ATOM     30  C   UNL     1      43.460  33.896   1.947  1.00  0.00    -0.077 C 
ATOM     31  C   UNL     1      43.102  32.977   0.806  1.00  0.00     0.039 C 
ATOM     32  C   UNL     1      44.550  33.607   2.682  1.00  0.00     0.008 C 
ENDBRANCH   7  30
BRANCH  24  33
ATOM     33  O   UNL     1      35.222  29.379   8.312  1.00  0.00    -0.393 OA
ATOM     34  H   UNL     1      34.432  29.012   7.846  1.00  0.00     0.210 HD
ENDBRANCH  24  33
TORSDOF 3
ENDMDL
MODEL 6
REMARK VINA RESULT:    -7.240      7.029     10.927
REMARK INTER + INTRA:          -8.402
REMARK INTER:                  -8.293
REMARK INTRA:                  -0.109
REMARK UNBOUND:                -0.104
REMARK SMILES C=C(C)[C@H]1CC[C@@]2(C(=O)[O-])CC[C@@]3(C)[C@H](CC[C@H]4[C@@]5(C)CC[C@H](O)C(C)(C)[C@H]5CC[C@@]43C)[C@H]12
REMARK SMILES IDX 7 1 6 2 33 3 11 4 5 5 15 6 4 7 12 8 16 9 13 10 17 11 31 12
REMARK SMILES IDX 14 13 18 14 30 15 32 16 19 17 29 18 21 19 20 20 28 21 22 22
REMARK SMILES IDX 25 23 23 24 26 25 27 26 8 27 9 28 10 29 2 30 3 31 1 32 24 33
REMARK H PARENT 24 34
REMARK Flexibility Score: inf
ROOT
ATOM      1  C   UNL     1      36.859  31.530   6.922  1.00  0.00     0.014 C 
ATOM      2  C   UNL     1      35.556  31.439   7.738  1.00  0.00     0.014 C 
ATOM      3  C   UNL     1      37.745  30.536   7.685  1.00  0.00     0.012 C 
ATOM      4  C   UNL     1      37.559  32.906   6.972  1.00  0.00     0.014 C 
ATOM      5  C   UNL     1      35.461  29.965   8.207  1.00  0.00     0.009 C 
ATOM      6  C   UNL     1      39.217  30.370   7.193  1.00  0.00     0.000 C 
ATOM      7  C   UNL     1      36.848  29.325   7.960  1.00  0.00     0.018 C 
ATOM      8  C   UNL     1      38.960  32.814   6.314  1.00  0.00     0.008 C 
ATOM      9  C   UNL     1      39.403  29.400   6.020  1.00  0.00     0.005 C 
ATOM     10  C   UNL     1      39.953  31.770   6.967  1.00  0.00    -0.024 C 
ATOM     11  C   UNL     1      40.891  29.065   5.772  1.00  0.00     0.005 C 
ATOM     12  C   UNL     1      41.327  31.585   6.078  1.00  0.00    -0.024 C 
ATOM     13  C   UNL     1      40.294  32.325   8.396  1.00  0.00     0.012 C 
ATOM     14  C   UNL     1      41.896  30.129   6.334  1.00  0.00     0.002 C 
ATOM     15  C   UNL     1      42.422  32.615   6.480  1.00  0.00     0.008 C 
ATOM     16  C   UNL     1      41.057  31.824   4.548  1.00  0.00     0.012 C 
ATOM     17  C   UNL     1      43.445  29.789   6.027  1.00  0.00    -0.026 C 
ATOM     18  C   UNL     1      43.779  32.357   5.829  1.00  0.00     0.005 C 
ATOM     19  C   UNL     1      43.642  29.270   4.561  1.00  0.00     0.010 C 
ATOM     20  C   UNL     1      43.825  28.619   7.001  1.00  0.00     0.012 C 
ATOM     21  C   UNL     1      44.409  31.028   6.322  1.00  0.00     0.003 C 
ATOM     22  C   UNL     1      45.100  29.088   4.121  1.00  0.00     0.033 C 
ATOM     23  C   UNL     1      45.918  30.859   5.816  1.00  0.00    -0.006 C 
ATOM     24  C   UNL     1      45.930  30.365   4.337  1.00  0.00     0.120 C 
ATOM     25  C   UNL     1      46.726  29.893   6.745  1.00  0.00     0.014 C 
ATOM     26  C   UNL     1      46.690  32.211   5.861  1.00  0.00     0.014 C 
ENDROOT
BRANCH   1  27
ATOM     27  C   UNL     1      36.506  31.178   5.475  1.00  0.00     0.048 C 
ATOM     28  O   UNL     1      36.533  29.992   5.044  1.00  0.00    -0.550 OA
ATOM     29  O   UNL     1      36.054  32.181   4.623  1.00  0.00    -0.550 OA
ENDBRANCH   1  27
BRANCH   7  30
ATOM     30  C   UNL     1      37.335  28.431   9.096  1.00  0.00    -0.077 C 
ATOM     31  C   UNL     1      38.178  27.222   8.784  1.00  0.00     0.039 C 
ATOM     32  C   UNL     1      37.088  28.723  10.388  1.00  0.00     0.008 C 
ENDBRANCH   7  30
BRANCH  24  33
ATOM     33  O   UNL     1      47.247  30.199   3.862  1.00  0.00    -0.393 OA
ATOM     34  H   UNL     1      47.558  29.292   4.101  1.00  0.00     0.210 HD
ENDBRANCH  24  33
TORSDOF 3
ENDMDL
MODEL 7
REMARK VINA RESULT:    -7.199      4.530      8.249
REMARK INTER + INTRA:          -8.355
REMARK INTER:                  -8.226
REMARK INTRA:                  -0.129
REMARK UNBOUND:                -0.104
REMARK SMILES C=C(C)[C@H]1CC[C@@]2(C(=O)[O-])CC[C@@]3(C)[C@H](CC[C@H]4[C@@]5(C)CC[C@H](O)C(C)(C)[C@H]5CC[C@@]43C)[C@H]12
REMARK SMILES IDX 7 1 6 2 33 3 11 4 5 5 15 6 4 7 12 8 16 9 13 10 17 11 31 12
REMARK SMILES IDX 14 13 18 14 30 15 32 16 19 17 29 18 21 19 20 20 28 21 22 22
REMARK SMILES IDX 25 23 23 24 26 25 27 26 8 27 9 28 10 29 2 30 3 31 1 32 24 33
REMARK H PARENT 24 34
REMARK Flexibility Score: inf
ROOT
ATOM      1  C   UNL     1      50.024  31.330   5.229  1.00  0.00     0.014 C 
ATOM      2  C   UNL     1      50.912  30.726   4.124  1.00  0.00     0.014 C 
ATOM      3  C   UNL     1      50.047  32.814   4.836  1.00  0.00     0.012 C 
ATOM      4  C   UNL     1      50.604  31.221   6.657  1.00  0.00     0.014 C 
ATOM      5  C   UNL     1      50.624  31.566   2.855  1.00  0.00     0.009 C 
ATOM      6  C   UNL     1      49.285  33.809   5.766  1.00  0.00     0.000 C 
ATOM      7  C   UNL     1      49.860  32.831   3.315  1.00  0.00     0.018 C 
ATOM      8  C   UNL     1      49.748  32.056   7.643  1.00  0.00     0.008 C 
ATOM      9  C   UNL     1      47.778  33.920   5.502  1.00  0.00     0.005 C 
ATOM     10  C   UNL     1      49.634  33.599   7.311  1.00  0.00    -0.024 C 
ATOM     11  C   UNL     1      47.143  35.113   6.250  1.00  0.00     0.005 C 
ATOM     12  C   UNL     1      48.538  34.359   8.278  1.00  0.00    -0.024 C 
ATOM     13  C   UNL     1      51.068  34.201   7.527  1.00  0.00     0.012 C 
ATOM     14  C   UNL     1      47.959  35.607   7.493  1.00  0.00     0.002 C 
ATOM     15  C   UNL     1      49.185  34.870   9.599  1.00  0.00     0.008 C 
ATOM     16  C   UNL     1      47.386  33.384   8.717  1.00  0.00     0.012 C 
ATOM     17  C   UNL     1      47.259  36.824   8.292  1.00  0.00    -0.026 C 
ATOM     18  C   UNL     1      48.263  35.754  10.434  1.00  0.00     0.005 C 
ATOM     19  C   UNL     1      45.716  36.601   8.447  1.00  0.00     0.010 C 
ATOM     20  C   UNL     1      47.468  38.096   7.396  1.00  0.00     0.012 C 
ATOM     21  C   UNL     1      47.938  37.088   9.714  1.00  0.00     0.003 C 
ATOM     22  C   UNL     1      44.993  37.615   9.341  1.00  0.00     0.033 C 
ATOM     23  C   UNL     1      47.156  38.108  10.668  1.00  0.00    -0.006 C 
ATOM     24  C   UNL     1      45.646  37.725  10.731  1.00  0.00     0.120 C 
ATOM     25  C   UNL     1      47.348  39.588  10.200  1.00  0.00     0.014 C 
ATOM     26  C   UNL     1      47.708  38.063  12.124  1.00  0.00     0.014 C 
ENDROOT
BRANCH   1  27
ATOM     27  C   UNL     1      48.673  30.613   5.160  1.00  0.00     0.048 C 
ATOM     28  O   UNL     1      47.717  31.044   4.459  1.00  0.00    -0.550 OA
ATOM     29  O   UNL     1      48.515  29.399   5.819  1.00  0.00    -0.550 OA
ENDBRANCH   1  27
BRANCH   7  30
ATOM     30  C   UNL     1      50.322  34.119   2.643  1.00  0.00    -0.077 C 
ATOM     31  C   UNL     1      51.726  34.618   2.874  1.00  0.00     0.039 C 
ATOM     32  C   UNL     1      49.533  34.801   1.791  1.00  0.00     0.008 C 
ENDBRANCH   7  30
BRANCH  24  33
ATOM     33  O   UNL     1      44.925  38.609  11.559  1.00  0.00    -0.393 OA
ATOM     34  H   UNL     1      44.600  38.111  12.348  1.00  0.00     0.210 HD
ENDBRANCH  24  33
TORSDOF 3
ENDMDL
MODEL 8
REMARK VINA RESULT:    -7.023      2.746      3.743
REMARK INTER + INTRA:          -8.154
REMARK INTER:                  -8.260
REMARK INTRA:                   0.106
REMARK UNBOUND:                -0.104
REMARK SMILES C=C(C)[C@H]1CC[C@@]2(C(=O)[O-])CC[C@@]3(C)[C@H](CC[C@H]4[C@@]5(C)CC[C@H](O)C(C)(C)[C@H]5CC[C@@]43C)[C@H]12
REMARK SMILES IDX 7 1 6 2 33 3 11 4 5 5 15 6 4 7 12 8 16 9 13 10 17 11 31 12
REMARK SMILES IDX 14 13 18 14 30 15 32 16 19 17 29 18 21 19 20 20 28 21 22 22
REMARK SMILES IDX 25 23 23 24 26 25 27 26 8 27 9 28 10 29 2 30 3 31 1 32 24 33
REMARK H PARENT 24 34
REMARK Flexibility Score: inf
ROOT
ATOM      1  C   UNL     1      50.341  36.727  10.794  1.00  0.00     0.014 C 
ATOM      2  C   UNL     1      50.781  37.619  11.971  1.00  0.00     0.014 C 
ATOM      3  C   UNL     1      48.833  37.012  10.767  1.00  0.00     0.012 C 
ATOM      4  C   UNL     1      50.521  35.211  11.029  1.00  0.00     0.014 C 
ATOM      5  C   UNL     1      49.864  38.866  11.912  1.00  0.00     0.009 C 
ATOM      6  C   UNL     1      47.981  36.235   9.715  1.00  0.00     0.000 C 
ATOM      7  C   UNL     1      48.706  38.528  10.943  1.00  0.00     0.018 C 
ATOM      8  C   UNL     1      49.841  34.412   9.888  1.00  0.00     0.008 C 
ATOM      9  C   UNL     1      47.967  36.849   8.310  1.00  0.00     0.005 C 
ATOM     10  C   UNL     1      48.290  34.667   9.708  1.00  0.00    -0.024 C 
ATOM     11  C   UNL     1      46.893  36.206   7.404  1.00  0.00     0.005 C 
ATOM     12  C   UNL     1      47.700  33.949   8.347  1.00  0.00    -0.024 C 
ATOM     13  C   UNL     1      47.597  34.074  10.986  1.00  0.00     0.012 C 
ATOM     14  C   UNL     1      46.441  34.773   7.853  1.00  0.00     0.002 C 
ATOM     15  C   UNL     1      47.251  32.483   8.613  1.00  0.00     0.008 C 
ATOM     16  C   UNL     1      48.795  33.863   7.223  1.00  0.00     0.012 C 
ATOM     17  C   UNL     1      45.352  34.095   6.871  1.00  0.00    -0.026 C 
ATOM     18  C   UNL     1      46.514  31.843   7.439  1.00  0.00     0.005 C 
ATOM     19  C   UNL     1      45.708  34.333   5.363  1.00  0.00     0.010 C 
ATOM     20  C   UNL     1      43.998  34.834   7.162  1.00  0.00     0.012 C 
ATOM     21  C   UNL     1      45.154  32.538   7.166  1.00  0.00     0.003 C 
ATOM     22  C   UNL     1      44.831  33.579   4.356  1.00  0.00     0.033 C 
ATOM     23  C   UNL     1      44.281  31.741   6.087  1.00  0.00    -0.006 C 
ATOM     24  C   UNL     1      44.786  32.069   4.649  1.00  0.00     0.120 C 
ATOM     25  C   UNL     1      42.757  32.057   6.242  1.00  0.00     0.014 C 
ATOM     26  C   UNL     1      44.402  30.200   6.282  1.00  0.00     0.014 C 
ENDROOT
BRANCH   1  27
ATOM     27  C   UNL     1      51.154  37.165   9.573  1.00  0.00     0.048 C 
ATOM     28  O   UNL     1      51.699  38.301   9.498  1.00  0.00    -0.550 OA
ATOM     29  O   UNL     1      51.377  36.256   8.545  1.00  0.00    -0.550 OA
ENDBRANCH   1  27
BRANCH   7  30
ATOM     30  C   UNL     1      47.334  38.988  11.425  1.00  0.00    -0.077 C 
ATOM     31  C   UNL     1      46.335  39.524  10.430  1.00  0.00     0.039 C 
ATOM     32  C   UNL     1      46.955  38.873  12.712  1.00  0.00     0.008 C 
ENDBRANCH   7  30
BRANCH  24  33
ATOM     33  O   UNL     1      44.032  31.387   3.672  1.00  0.00    -0.393 OA
ATOM     34  H   UNL     1      44.324  30.444   3.646  1.00  0.00     0.210 HD
ENDBRANCH  24  33
TORSDOF 3
ENDMDL
MODEL 9
REMARK VINA RESULT:    -6.861      2.745      4.659
REMARK INTER + INTRA:          -7.968
REMARK INTER:                  -8.216
REMARK INTRA:                   0.247
REMARK UNBOUND:                -0.104
REMARK SMILES C=C(C)[C@H]1CC[C@@]2(C(=O)[O-])CC[C@@]3(C)[C@H](CC[C@H]4[C@@]5(C)CC[C@H](O)C(C)(C)[C@H]5CC[C@@]43C)[C@H]12
REMARK SMILES IDX 7 1 6 2 33 3 11 4 5 5 15 6 4 7 12 8 16 9 13 10 17 11 31 12
REMARK SMILES IDX 14 13 18 14 30 15 32 16 19 17 29 18 21 19 20 20 28 21 22 22
REMARK SMILES IDX 25 23 23 24 26 25 27 26 8 27 9 28 10 29 2 30 3 31 1 32 24 33
REMARK H PARENT 24 34
REMARK Flexibility Score: inf
ROOT
ATOM      1  C   UNL     1      46.316  38.996  10.394  1.00  0.00     0.014 C 
ATOM      2  C   UNL     1      46.886  40.016  11.398  1.00  0.00     0.014 C 
ATOM      3  C   UNL     1      47.610  38.389   9.834  1.00  0.00     0.012 C 
ATOM      4  C   UNL     1      45.546  39.618   9.207  1.00  0.00     0.014 C 
ATOM      5  C   UNL     1      48.170  39.362  11.969  1.00  0.00     0.009 C 
ATOM      6  C   UNL     1      47.466  37.317   8.710  1.00  0.00     0.000 C 
ATOM      7  C   UNL     1      48.508  38.160  11.055  1.00  0.00     0.018 C 
ATOM      8  C   UNL     1      45.222  38.528   8.154  1.00  0.00     0.008 C 
ATOM      9  C   UNL     1      47.192  35.891   9.205  1.00  0.00     0.005 C 
ATOM     10  C   UNL     1      46.473  37.774   7.545  1.00  0.00    -0.024 C 
ATOM     11  C   UNL     1      47.344  34.845   8.079  1.00  0.00     0.005 C 
ATOM     12  C   UNL     1      46.026  36.496   6.606  1.00  0.00    -0.024 C 
ATOM     13  C   UNL     1      47.252  38.837   6.692  1.00  0.00     0.012 C 
ATOM     14  C   UNL     1      47.194  35.426   6.630  1.00  0.00     0.002 C 
ATOM     15  C   UNL     1      45.782  36.919   5.128  1.00  0.00     0.008 C 
ATOM     16  C   UNL     1      44.674  35.866   7.100  1.00  0.00     0.012 C 
ATOM     17  C   UNL     1      47.309  34.313   5.465  1.00  0.00    -0.026 C 
ATOM     18  C   UNL     1      45.564  35.743   4.180  1.00  0.00     0.005 C 
ATOM     19  C   UNL     1      46.526  33.007   5.836  1.00  0.00     0.010 C 
ATOM     20  C   UNL     1      48.833  33.946   5.377  1.00  0.00     0.012 C 
ATOM     21  C   UNL     1      46.838  34.870   4.044  1.00  0.00     0.003 C 
ATOM     22  C   UNL     1      46.431  31.961   4.719  1.00  0.00     0.033 C 
ATOM     23  C   UNL     1      46.689  33.770   2.892  1.00  0.00    -0.006 C 
ATOM     24  C   UNL     1      45.864  32.557   3.419  1.00  0.00     0.120 C 
ATOM     25  C   UNL     1      48.086  33.316   2.353  1.00  0.00     0.014 C 
ATOM     26  C   UNL     1      45.938  34.341   1.652  1.00  0.00     0.014 C 
ENDROOT
BRANCH   1  27
ATOM     27  C   UNL     1      45.393  38.062  11.181  1.00  0.00     0.048 C 
ATOM     28  O   UNL     1      45.016  36.947  10.726  1.00  0.00    -0.550 OA
ATOM     29  O   UNL     1      45.024  38.406  12.477  1.00  0.00    -0.550 OA
ENDBRANCH   1  27
BRANCH   7  30
ATOM     30  C   UNL     1      49.990  38.024  10.723  1.00  0.00    -0.077 C 
ATOM     31  C   UNL     1      50.880  37.193  11.613  1.00  0.00     0.039 C 
ATOM     32  C   UNL     1      50.526  38.573   9.617  1.00  0.00     0.008 C 
ENDBRANCH   7  30
BRANCH  24  33
ATOM     33  O   UNL     1      45.720  31.564   2.428  1.00  0.00    -0.393 OA
ATOM     34  H   UNL     1      45.498  32.001   1.570  1.00  0.00     0.210 HD
ENDBRANCH  24  33
TORSDOF 3
ENDMDL
