MODEL 1
REMARK VINA RESULT:    -4.136      0.000      0.000
REMARK INTER + INTRA:          -4.834
REMARK INTER:                  -5.104
REMARK INTRA:                   0.270
REMARK UNBOUND:                 0.270
REMARK SMILES C=C1[C@H]2CC[C@@H]3[C@@H]2C(C)(C)CCC[C@]13C
REMARK SMILES IDX 14 1 6 2 7 3 3 4 2 5 1 6 4 7 5 8 15 9 8 10 9 11 10 12 11 13
REMARK SMILES IDX 13 15 12 16
REMARK H PARENT
REMARK Flexibility Score: 80.00
ROOT
ATOM      1  C   UNL     1      -0.809   5.905  12.411  1.00  0.00    -0.008 C 
ATOM      2  C   UNL     1      -0.731   4.396  12.199  1.00  0.00     0.003 C 
ATOM      3  C   UNL     1      -1.954   4.004  13.045  1.00  0.00     0.006 C 
ATOM      4  C   UNL     1      -2.951   4.662  12.102  1.00  0.00     0.019 C 
ATOM      5  C   UNL     1      -2.308   6.070  12.094  1.00  0.00    -0.068 C 
ATOM      6  C   UNL     1      -2.964   7.221  11.918  1.00  0.00     0.009 C 
ATOM      7  C   UNL     1      -2.647   4.023  10.757  1.00  0.00     0.008 C 
ATOM      8  C   UNL     1      -1.124   3.897  10.784  1.00  0.00     0.005 C 
ATOM      9  C   UNL     1       0.093   6.701  11.449  1.00  0.00     0.016 C 
ENDROOT
BRANCH   3  10
ATOM     10  C   UNL     1      -1.592   2.968  14.130  1.00  0.00    -0.032 C 
ATOM     11  C   UNL     1      -0.821   1.750  13.563  1.00  0.00     0.011 C 
ATOM     12  C   UNL     1      -2.891   2.424  14.777  1.00  0.00     0.011 C 
BRANCH  10  13
ATOM     13  C   UNL     1      -0.713   3.741  15.225  1.00  0.00     0.007 CG0
ATOM     14  G   UNL     1       0.186   4.980  14.784  1.00  0.00     0.000 G0
ENDBRANCH  10  13
ENDBRANCH   3  10
BRANCH   1  15
ATOM     15  C   UNL     1      -0.433   6.186  13.944  1.00  0.00     0.011 C 
BRANCH  15  16
ATOM     16  C   UNL     1       0.190   4.981  14.788  1.00  0.00     0.001 CG0
ATOM     17  G   UNL     1      -0.710   3.744  15.233  1.00  0.00     0.000 G0
ENDBRANCH  15  16
ENDBRANCH   1  15
TORSDOF 0
ENDMDL
MODEL 2
REMARK VINA RESULT:    -4.069      1.489      3.181
REMARK INTER + INTRA:          -4.750
REMARK INTER:                  -5.011
REMARK INTRA:                   0.261
REMARK UNBOUND:                 0.270
REMARK SMILES C=C1[C@H]2CC[C@@H]3[C@@H]2C(C)(C)CCC[C@]13C
REMARK SMILES IDX 14 1 6 2 7 3 3 4 2 5 1 6 4 7 5 8 15 9 8 10 9 11 10 12 11 13
REMARK SMILES IDX 13 15 12 16
REMARK H PARENT
REMARK Flexibility Score: 80.00
ROOT
ATOM      1  C   UNL     1      -1.974   4.511  11.101  1.00  0.00    -0.008 C 
ATOM      2  C   UNL     1      -2.126   4.767  12.597  1.00  0.00     0.003 C 
ATOM      3  C   UNL     1      -0.653   5.081  12.904  1.00  0.00     0.006 C 
ATOM      4  C   UNL     1      -0.650   6.374  12.102  1.00  0.00     0.019 C 
ATOM      5  C   UNL     1      -1.157   5.774  10.769  1.00  0.00    -0.068 C 
ATOM      6  C   UNL     1      -0.864   6.237   9.550  1.00  0.00     0.009 C 
ATOM      7  C   UNL     1      -1.799   7.169  12.701  1.00  0.00     0.008 C 
ATOM      8  C   UNL     1      -2.842   6.087  12.982  1.00  0.00     0.005 C 
ATOM      9  C   UNL     1      -3.320   4.460  10.354  1.00  0.00     0.016 C 
ENDROOT
BRANCH   3  10
ATOM     10  C   UNL     1      -0.095   4.179  14.025  1.00  0.00    -0.032 C 
ATOM     11  C   UNL     1      -0.994   4.163  15.287  1.00  0.00     0.011 C 
ATOM     12  C   UNL     1       1.297   4.700  14.463  1.00  0.00     0.011 C 
BRANCH  10  13
ATOM     13  C   UNL     1       0.040   2.707  13.402  1.00  0.00     0.007 CG0
ATOM     14  G   UNL     1      -0.952   2.247  12.243  1.00  0.00     0.000 G0
ENDBRANCH  10  13
ENDBRANCH   3  10
BRANCH   1  15
ATOM     15  C   UNL     1      -1.154   3.142  10.937  1.00  0.00     0.011 C 
BRANCH  15  16
ATOM     16  C   UNL     1      -0.948   2.241  12.239  1.00  0.00     0.001 CG0
ATOM     17  G   UNL     1       0.038   2.700  13.403  1.00  0.00     0.000 G0
ENDBRANCH  15  16
ENDBRANCH   1  15
TORSDOF 0
ENDMDL
MODEL 3
REMARK VINA RESULT:    -4.063      2.380      4.216
REMARK INTER + INTRA:          -4.743
REMARK INTER:                  -5.014
REMARK INTRA:                   0.271
REMARK UNBOUND:                 0.270
REMARK SMILES C=C1[C@H]2CC[C@@H]3[C@@H]2C(C)(C)CCC[C@]13C
REMARK SMILES IDX 14 1 6 2 7 3 3 4 2 5 1 6 4 7 5 8 15 9 8 10 9 11 10 12 11 13
REMARK SMILES IDX 13 15 12 16
REMARK H PARENT
REMARK Flexibility Score: 80.00
ROOT
ATOM      1  C   UNL     1      -1.076   3.399  12.781  1.00  0.00    -0.008 C 
ATOM      2  C   UNL     1      -2.177   2.570  13.434  1.00  0.00     0.003 C 
ATOM      3  C   UNL     1      -1.286   1.455  14.006  1.00  0.00     0.006 C 
ATOM      4  C   UNL     1      -0.595   2.373  15.004  1.00  0.00     0.019 C 
ATOM      5  C   UNL     1      -0.119   3.439  13.988  1.00  0.00    -0.068 C 
ATOM      6  C   UNL     1       0.974   4.197  14.114  1.00  0.00     0.009 C 
ATOM      7  C   UNL     1      -1.747   2.983  15.786  1.00  0.00     0.008 C 
ATOM      8  C   UNL     1      -2.812   3.184  14.709  1.00  0.00     0.005 C 
ATOM      9  C   UNL     1      -1.547   4.800  12.348  1.00  0.00     0.016 C 
ENDROOT
BRANCH   3  10
ATOM     10  C   UNL     1      -1.745   0.057  13.541  1.00  0.00    -0.032 C 
ATOM     11  C   UNL     1      -3.258  -0.184  13.768  1.00  0.00     0.011 C 
ATOM     12  C   UNL     1      -0.985  -1.029  14.344  1.00  0.00     0.011 C 
BRANCH  10  13
ATOM     13  C   UNL     1      -1.376  -0.051  11.985  1.00  0.00     0.007 CG0
ATOM     14  G   UNL     1      -1.345   1.267  11.089  1.00  0.00     0.000 G0
ENDBRANCH  10  13
ENDBRANCH   3  10
BRANCH   1  15
ATOM     15  C   UNL     1      -0.522   2.551  11.537  1.00  0.00     0.011 C 
BRANCH  15  16
ATOM     16  C   UNL     1      -1.355   1.266  11.085  1.00  0.00     0.001 CG0
ATOM     17  G   UNL     1      -1.371  -0.054  11.978  1.00  0.00     0.000 G0
ENDBRANCH  15  16
ENDBRANCH   1  15
TORSDOF 0
ENDMDL
MODEL 4
REMARK VINA RESULT:    -4.027      1.218      3.758
REMARK INTER + INTRA:          -4.699
REMARK INTER:                  -4.969
REMARK INTRA:                   0.270
REMARK UNBOUND:                 0.270
REMARK SMILES C=C1[C@H]2CC[C@@H]3[C@@H]2C(C)(C)CCC[C@]13C
REMARK SMILES IDX 14 1 6 2 7 3 3 4 2 5 1 6 4 7 5 8 15 9 8 10 9 11 10 12 11 13
REMARK SMILES IDX 13 15 12 16
REMARK H PARENT
REMARK Flexibility Score: 80.00
ROOT
ATOM      1  C   UNL     1      -1.275   3.484  13.229  1.00  0.00    -0.008 C 
ATOM      2  C   UNL     1      -1.861   4.851  12.891  1.00  0.00     0.003 C 
ATOM      3  C   UNL     1      -0.916   5.201  11.730  1.00  0.00     0.006 C 
ATOM      4  C   UNL     1      -1.456   4.108  10.820  1.00  0.00     0.019 C 
ATOM      5  C   UNL     1      -1.245   2.924  11.793  1.00  0.00    -0.068 C 
ATOM      6  C   UNL     1      -1.003   1.660  11.436  1.00  0.00     0.009 C 
ATOM      7  C   UNL     1      -2.949   4.388  10.772  1.00  0.00     0.008 C 
ATOM      8  C   UNL     1      -3.251   4.833  12.203  1.00  0.00     0.005 C 
ATOM      9  C   UNL     1      -2.169   2.656  14.171  1.00  0.00     0.016 C 
ENDROOT
BRANCH   3  10
ATOM     10  C   UNL     1      -0.209   6.555  11.953  1.00  0.00    -0.032 C 
ATOM     11  C   UNL     1      -1.195   7.695  12.310  1.00  0.00     0.011 C 
ATOM     12  C   UNL     1       0.523   6.975  10.654  1.00  0.00     0.011 C 
BRANCH  10  13
ATOM     13  C   UNL     1       0.852   6.327  13.134  1.00  0.00     0.007 CG0
ATOM     14  G   UNL     1       0.561   5.233  14.255  1.00  0.00     0.000 G0
ENDBRANCH  10  13
ENDBRANCH   3  10
BRANCH   1  15
ATOM     15  C   UNL     1       0.177   3.736  13.861  1.00  0.00     0.011 C 
BRANCH  15  16
ATOM     16  C   UNL     1       0.563   5.234  14.258  1.00  0.00     0.001 CG0
ATOM     17  G   UNL     1       0.852   6.329  13.137  1.00  0.00     0.000 G0
ENDBRANCH  15  16
ENDBRANCH   1  15
TORSDOF 0
ENDMDL
MODEL 5
REMARK VINA RESULT:    -3.662      1.972      4.404
REMARK INTER + INTRA:          -4.248
REMARK INTER:                  -4.518
REMARK INTRA:                   0.270
REMARK UNBOUND:                 0.270
REMARK SMILES C=C1[C@H]2CC[C@@H]3[C@@H]2C(C)(C)CCC[C@]13C
REMARK SMILES IDX 14 1 6 2 7 3 3 4 2 5 1 6 4 7 5 8 15 9 8 10 9 11 10 12 11 13
REMARK SMILES IDX 13 15 12 16
REMARK H PARENT
REMARK Flexibility Score: 80.00
ROOT
ATOM      1  C   UNL     1      -0.861   3.451  12.756  1.00  0.00    -0.008 C 
ATOM      2  C   UNL     1       0.062   4.661  12.863  1.00  0.00     0.003 C 
ATOM      3  C   UNL     1      -1.017   5.723  13.129  1.00  0.00     0.006 C 
ATOM      4  C   UNL     1      -1.384   5.163  14.495  1.00  0.00     0.019 C 
ATOM      5  C   UNL     1      -1.677   3.714  14.037  1.00  0.00    -0.068 C 
ATOM      6  C   UNL     1      -2.544   2.878  14.615  1.00  0.00     0.009 C 
ATOM      7  C   UNL     1      -0.059   5.138  15.239  1.00  0.00     0.008 C 
ATOM      8  C   UNL     1       0.929   4.730  14.147  1.00  0.00     0.005 C 
ATOM      9  C   UNL     1      -0.109   2.108  12.795  1.00  0.00     0.016 C 
ENDROOT
BRANCH   3  10
ATOM     10  C   UNL     1      -0.943   6.883  12.113  1.00  0.00    -0.032 C 
ATOM     11  C   UNL     1       0.483   7.473  11.978  1.00  0.00     0.011 C 
ATOM     12  C   UNL     1      -1.871   8.034  12.575  1.00  0.00     0.011 C 
BRANCH  10  13
ATOM     13  C   UNL     1      -1.453   6.295  10.711  1.00  0.00     0.007 CG0
ATOM     14  G   UNL     1      -1.230   4.754  10.374  1.00  0.00     0.000 G0
ENDBRANCH  10  13
ENDBRANCH   3  10
BRANCH   1  15
ATOM     15  C   UNL     1      -1.703   3.619  11.402  1.00  0.00     0.011 C 
BRANCH  15  16
ATOM     16  C   UNL     1      -1.237   4.749  10.374  1.00  0.00     0.001 CG0
ATOM     17  G   UNL     1      -1.454   6.293  10.702  1.00  0.00     0.000 G0
ENDBRANCH  15  16
ENDBRANCH   1  15
TORSDOF 0
ENDMDL
MODEL 6
REMARK VINA RESULT:    -3.589      1.878      4.346
REMARK INTER + INTRA:          -4.158
REMARK INTER:                  -4.426
REMARK INTRA:                   0.268
REMARK UNBOUND:                 0.270
REMARK SMILES C=C1[C@H]2CC[C@@H]3[C@@H]2C(C)(C)CCC[C@]13C
REMARK SMILES IDX 14 1 6 2 7 3 3 4 2 5 1 6 4 7 5 8 15 9 8 10 9 11 10 12 11 13
REMARK SMILES IDX 13 15 12 16
REMARK H PARENT
REMARK Flexibility Score: 80.00
ROOT
ATOM      1  C   UNL     1      -1.186   2.118  12.984  1.00  0.00    -0.008 C 
ATOM      2  C   UNL     1      -0.118   3.129  13.391  1.00  0.00     0.003 C 
ATOM      3  C   UNL     1      -1.052   4.320  13.662  1.00  0.00     0.006 C 
ATOM      4  C   UNL     1      -1.709   3.668  14.869  1.00  0.00     0.019 C 
ATOM      5  C   UNL     1      -2.143   2.358  14.168  1.00  0.00    -0.068 C 
ATOM      6  C   UNL     1      -3.207   1.618  14.495  1.00  0.00     0.009 C 
ATOM      7  C   UNL     1      -0.537   3.325  15.773  1.00  0.00     0.008 C 
ATOM      8  C   UNL     1       0.537   2.891  14.776  1.00  0.00     0.005 C 
ATOM      9  C   UNL     1      -0.662   0.671  12.926  1.00  0.00     0.016 C 
ENDROOT
BRANCH   3  10
ATOM     10  C   UNL     1      -0.645   5.565  12.846  1.00  0.00    -0.032 C 
ATOM     11  C   UNL     1       0.856   5.917  12.997  1.00  0.00     0.011 C 
ATOM     12  C   UNL     1      -1.453   6.792  13.340  1.00  0.00     0.011 C 
BRANCH  10  13
ATOM     13  C   UNL     1      -1.007   5.248  11.317  1.00  0.00     0.007 CG0
ATOM     14  G   UNL     1      -0.987   3.742  10.797  1.00  0.00     0.000 G0
ENDBRANCH  10  13
ENDBRANCH   3  10
BRANCH   1  15
ATOM     15  C   UNL     1      -1.770   2.593  11.568  1.00  0.00     0.011 C 
BRANCH  15  16
ATOM     16  C   UNL     1      -0.984   3.746  10.790  1.00  0.00     0.001 CG0
ATOM     17  G   UNL     1      -0.990   5.246  11.329  1.00  0.00     0.000 G0
ENDBRANCH  15  16
ENDBRANCH   1  15
TORSDOF 0
ENDMDL
MODEL 7
REMARK VINA RESULT:    -3.543      1.944      3.592
REMARK INTER + INTRA:          -4.102
REMARK INTER:                  -4.362
REMARK INTRA:                   0.260
REMARK UNBOUND:                 0.270
REMARK SMILES C=C1[C@H]2CC[C@@H]3[C@@H]2C(C)(C)CCC[C@]13C
REMARK SMILES IDX 14 1 6 2 7 3 3 4 2 5 1 6 4 7 5 8 15 9 8 10 9 11 10 12 11 13
REMARK SMILES IDX 13 15 12 16
REMARK H PARENT
REMARK Flexibility Score: 80.00
ROOT
ATOM      1  C   UNL     1      -0.794   6.706  12.659  1.00  0.00    -0.008 C 
ATOM      2  C   UNL     1      -1.180   5.554  13.581  1.00  0.00     0.003 C 
ATOM      3  C   UNL     1      -0.287   4.474  12.949  1.00  0.00     0.006 C 
ATOM      4  C   UNL     1       1.010   5.141  13.382  1.00  0.00     0.019 C 
ATOM      5  C   UNL     1       0.734   6.527  12.751  1.00  0.00    -0.068 C 
ATOM      6  C   UNL     1       1.665   7.373  12.300  1.00  0.00     0.009 C 
ATOM      7  C   UNL     1       0.849   5.293  14.885  1.00  0.00     0.008 C 
ATOM      8  C   UNL     1      -0.632   5.642  15.029  1.00  0.00     0.005 C 
ATOM      9  C   UNL     1      -1.264   8.080  13.173  1.00  0.00     0.016 C 
ENDROOT
BRANCH   3  10
ATOM     10  C   UNL     1      -1.100   3.230  12.531  1.00  0.00    -0.032 C 
ATOM     11  C   UNL     1      -1.999   2.690  13.671  1.00  0.00     0.011 C 
ATOM     12  C   UNL     1      -0.130   2.089  12.135  1.00  0.00     0.011 C 
BRANCH  10  13
ATOM     13  C   UNL     1      -1.982   3.665  11.265  1.00  0.00     0.007 CG0
ATOM     14  G   UNL     1      -2.454   5.180  11.115  1.00  0.00     0.000 G0
ENDBRANCH  10  13
ENDBRANCH   3  10
BRANCH   1  15
ATOM     15  C   UNL     1      -1.402   6.377  11.212  1.00  0.00     0.011 C 
BRANCH  15  16
ATOM     16  C   UNL     1      -2.457   5.183  11.105  1.00  0.00     0.001 CG0
ATOM     17  G   UNL     1      -1.992   3.665  11.253  1.00  0.00     0.000 G0
ENDBRANCH  15  16
ENDBRANCH   1  15
TORSDOF 0
ENDMDL
MODEL 8
REMARK VINA RESULT:    -3.522      1.650      2.629
REMARK INTER + INTRA:          -4.076
REMARK INTER:                  -4.337
REMARK INTRA:                   0.261
REMARK UNBOUND:                 0.270
REMARK SMILES C=C1[C@H]2CC[C@@H]3[C@@H]2C(C)(C)CCC[C@]13C
REMARK SMILES IDX 14 1 6 2 7 3 3 4 2 5 1 6 4 7 5 8 15 9 8 10 9 11 10 12 11 13
REMARK SMILES IDX 13 15 12 16
REMARK H PARENT
REMARK Flexibility Score: 80.00
ROOT
ATOM      1  C   UNL     1      -2.878   5.140  12.512  1.00  0.00    -0.008 C 
ATOM      2  C   UNL     1      -1.403   4.774  12.645  1.00  0.00     0.003 C 
ATOM      3  C   UNL     1      -1.460   3.419  11.920  1.00  0.00     0.006 C 
ATOM      4  C   UNL     1      -1.774   4.035  10.565  1.00  0.00     0.019 C 
ATOM      5  C   UNL     1      -3.018   4.844  11.005  1.00  0.00    -0.068 C 
ATOM      6  C   UNL     1      -4.057   5.156  10.225  1.00  0.00     0.009 C 
ATOM      7  C   UNL     1      -0.645   5.030  10.354  1.00  0.00     0.008 C 
ATOM      8  C   UNL     1      -0.428   5.591  11.759  1.00  0.00     0.005 C 
ATOM      9  C   UNL     1      -3.173   6.612  12.858  1.00  0.00     0.016 C 
ENDROOT
BRANCH   3  10
ATOM     10  C   UNL     1      -0.899   2.277  12.794  1.00  0.00    -0.032 C 
ATOM     11  C   UNL     1       0.497   2.602  13.382  1.00  0.00     0.011 C 
ATOM     12  C   UNL     1      -0.745   0.997  11.935  1.00  0.00     0.011 C 
BRANCH  10  13
ATOM     13  C   UNL     1      -1.968   2.029  13.963  1.00  0.00     0.007 CG0
ATOM     14  G   UNL     1      -2.863   3.241  14.484  1.00  0.00     0.000 G0
ENDBRANCH  10  13
ENDBRANCH   3  10
BRANCH   1  15
ATOM     15  C   UNL     1      -3.701   4.135  13.452  1.00  0.00     0.011 C 
BRANCH  15  16
ATOM     16  C   UNL     1      -2.873   3.239  14.483  1.00  0.00     0.001 CG0
ATOM     17  G   UNL     1      -1.959   2.038  13.973  1.00  0.00     0.000 G0
ENDBRANCH  15  16
ENDBRANCH   1  15
TORSDOF 0
ENDMDL
MODEL 9
REMARK VINA RESULT:    -3.431     14.209     15.761
REMARK INTER + INTRA:          -3.964
REMARK INTER:                  -4.236
REMARK INTRA:                   0.272
REMARK UNBOUND:                 0.270
REMARK SMILES C=C1[C@H]2CC[C@@H]3[C@@H]2C(C)(C)CCC[C@]13C
REMARK SMILES IDX 14 1 6 2 7 3 3 4 2 5 1 6 4 7 5 8 15 9 8 10 9 11 10 12 11 13
REMARK SMILES IDX 13 15 12 16
REMARK H PARENT
REMARK Flexibility Score: 80.00
ROOT
ATOM      1  C   UNL     1       4.780  -9.659  16.066  1.00  0.00    -0.008 C 
ATOM      2  C   UNL     1       5.485 -10.073  14.778  1.00  0.00     0.003 C 
ATOM      3  C   UNL     1       4.917  -8.971  13.868  1.00  0.00     0.006 C 
ATOM      4  C   UNL     1       5.652  -7.849  14.586  1.00  0.00     0.019 C 
ATOM      5  C   UNL     1       5.134  -8.160  16.011  1.00  0.00    -0.068 C 
ATOM      6  C   UNL     1       4.957  -7.263  16.985  1.00  0.00     0.009 C 
ATOM      7  C   UNL     1       7.107  -8.285  14.534  1.00  0.00     0.008 C 
ATOM      8  C   UNL     1       7.010  -9.797  14.731  1.00  0.00     0.005 C 
ATOM      9  C   UNL     1       5.343 -10.358  17.318  1.00  0.00     0.016 C 
ENDROOT
BRANCH   3  10
ATOM     10  C   UNL     1       4.224  -9.559  12.620  1.00  0.00    -0.032 C 
ATOM     11  C   UNL     1       5.105 -10.593  11.876  1.00  0.00     0.011 C 
ATOM     12  C   UNL     1       3.913  -8.420  11.618  1.00  0.00     0.011 C 
BRANCH  10  13
ATOM     13  C   UNL     1       2.860 -10.231  13.129  1.00  0.00     0.007 CG0
ATOM     14  G   UNL     1       2.778 -10.831  14.603  1.00  0.00     0.000 G0
ENDBRANCH  10  13
ENDBRANCH   3  10
BRANCH   1  15
ATOM     15  C   UNL     1       3.218  -9.968  15.869  1.00  0.00     0.011 C 
BRANCH  15  16
ATOM     16  C   UNL     1       2.789 -10.842  14.604  1.00  0.00     0.001 CG0
ATOM     17  G   UNL     1       2.863 -10.239  13.130  1.00  0.00     0.000 G0
ENDBRANCH  15  16
ENDBRANCH   1  15
TORSDOF 0
ENDMDL
