MODEL 1
REMARK VINA RESULT:    77.318      0.000      0.000
REMARK INTER + INTRA:          84.975
REMARK INTER:                  84.098
REMARK INTRA:                   0.877
REMARK UNBOUND:                 0.877
REMARK SMILES C=C(C)[C@@H]1CC[C@]2(C)CC[C@@]3(C)[C@H](CC[C@@H]4[C@]5(C)CC[C@H](O)C(C)(C)[C@H]5CC[C@]43C)[C@H]12
REMARK SMILES IDX 4 1 5 2 6 3 7 4 31 5 13 6 14 7 15 8 16 9 17 10 19 11 20 12
REMARK SMILES IDX 21 13 23 14 26 15 27 16 28 17 29 18 11 19 10 20 9 21 12 22
REMARK SMILES IDX 30 23 24 24 25 25 18 26 8 27 2 28 3 29 1 30 22 31
REMARK H PARENT 22 32
REMARK Flexibility Score: inf
ROOT
ATOM      1  C   UNL     1       0.492  46.775  48.164  1.00  0.00     0.018 C 
ATOM      2  C   UNL     1       1.701  47.428  47.491  1.00  0.00     0.009 C 
ATOM      3  C   UNL     1       2.626  47.863  48.626  1.00  0.00     0.008 C 
ATOM      4  C   UNL     1       2.193  47.100  49.912  1.00  0.00    -0.029 C 
ATOM      5  C   UNL     1       1.036  46.150  49.468  1.00  0.00     0.006 C 
ATOM      6  C   UNL     1       1.438  44.628  49.439  1.00  0.00    -0.000 C 
ATOM      7  C   UNL     1       2.368  44.257  48.230  1.00  0.00     0.005 C 
ATOM      8  C   UNL     1       3.106  42.904  48.301  1.00  0.00     0.005 C 
ATOM      9  C   UNL     1       3.720  42.676  49.698  1.00  0.00     0.002 C 
ATOM     10  C   UNL     1       4.914  41.596  49.855  1.00  0.00    -0.026 C 
ATOM     11  C   UNL     1       5.405  41.095  48.456  1.00  0.00     0.010 C 
ATOM     12  C   UNL     1       6.408  39.922  48.488  1.00  0.00     0.033 C 
ATOM     13  C   UNL     1       5.926  38.722  49.334  1.00  0.00     0.120 C 
ATOM     14  C   UNL     1       5.442  39.131  50.769  1.00  0.00    -0.006 C 
ATOM     15  C   UNL     1       4.428  40.345  50.673  1.00  0.00     0.003 C 
ATOM     16  C   UNL     1       3.731  40.695  52.024  1.00  0.00     0.005 C 
ATOM     17  C   UNL     1       3.152  42.123  52.120  1.00  0.00     0.008 C 
ATOM     18  C   UNL     1       2.561  42.651  50.772  1.00  0.00    -0.024 C 
ATOM     19  C   UNL     1       1.955  44.147  50.872  1.00  0.00    -0.024 C 
ATOM     20  C   UNL     1       2.993  45.193  51.465  1.00  0.00     0.008 C 
ATOM     21  C   UNL     1       3.402  46.341  50.528  1.00  0.00     0.007 C 
ATOM     22  C   UNL     1       0.725  44.150  51.848  1.00  0.00     0.012 C 
ATOM     23  C   UNL     1       1.395  41.664  50.382  1.00  0.00     0.012 C 
ATOM     24  C   UNL     1       4.716  37.913  51.399  1.00  0.00     0.014 C 
ATOM     25  C   UNL     1       6.690  39.428  51.658  1.00  0.00     0.014 C 
ATOM     26  C   UNL     1       6.123  42.296  50.572  1.00  0.00     0.012 C 
ATOM     27  C   UNL     1       1.654  48.122  50.949  1.00  0.00     0.011 C 
ENDROOT
BRANCH   1  28
ATOM     28  C   UNL     1      -0.394  45.874  47.302  1.00  0.00    -0.077 C 
ATOM     29  C   UNL     1      -0.671  44.467  47.762  1.00  0.00     0.039 C 
ATOM     30  C   UNL     1      -1.076  46.325  46.228  1.00  0.00     0.008 C 
ENDBRANCH   1  28
BRANCH  13  31
ATOM     31  O   UNL     1       4.966  37.962  48.635  1.00  0.00    -0.393 OA
ATOM     32  H   UNL     1       4.468  37.405  49.283  1.00  0.00     0.210 HD
ENDBRANCH  13  31
TORSDOF 2
ENDMDL
