MODEL 1
REMARK VINA RESULT:    -2.777      0.000      0.000
REMARK INTER + INTRA:          -4.843
REMARK INTER:                  -4.238
REMARK INTRA:                  -0.605
REMARK UNBOUND:                -0.605
REMARK SMILES CC1=CCC[C@@H](C)C(=O)C[C@@H](C(C)C)C(=O)C1
REMARK SMILES IDX 8 1 9 2 6 3 7 4 5 5 4 6 3 7 2 8 1 9 10 11 11 12 15 13 16 14
REMARK SMILES IDX 17 15 12 17 13 18 14 19
REMARK H PARENT
REMARK Flexibility Score: 70.00
ROOT
ATOM      1  C   UNL     1       8.414  11.642  -5.454  1.00  0.00     0.136 C 
ATOM      2  O   UNL     1       7.483  11.775  -4.673  1.00  0.00    -0.299 OA
ENDROOT
BRANCH   1   3
ATOM      3  C   UNL     1       8.984  12.878  -6.129  1.00  0.00     0.053 C 
ATOM      4  C   UNL     1       9.465  13.883  -5.076  1.00  0.00     0.016 C 
BRANCH   3   5
ATOM      5  C   UNL     1       7.983  13.537  -7.101  1.00  0.00     0.015 C 
BRANCH   5   6
ATOM      6  C   UNL     1       7.644  12.621  -8.289  1.00  0.00     0.028 C 
BRANCH   6   7
ATOM      7  C   UNL     1       8.762  12.527  -9.296  1.00  0.00    -0.028 C 
ATOM      8  C   UNL     1       9.559  11.447  -9.502  1.00  0.00    -0.070 CG0
ATOM      9  C   UNL     1      10.694  11.604 -10.483  1.00  0.00     0.039 C 
ATOM     10  G   UNL     1       9.339  10.080  -8.859  1.00  0.00     0.000 G0
ENDBRANCH   6   7
ENDBRANCH   5   6
ENDBRANCH   3   5
ENDBRANCH   1   3
BRANCH   1  11
ATOM     11  C   UNL     1       8.910  10.246  -5.766  1.00  0.00     0.087 C 
BRANCH  11  12
ATOM     12  C   UNL     1      10.332  10.239  -6.395  1.00  0.00     0.066 C 
BRANCH  12  13
ATOM     13  C   UNL     1      10.371   9.702  -7.823  1.00  0.00     0.140 C 
ATOM     14  O   UNL     1      11.192   8.838  -8.098  1.00  0.00    -0.299 OA
BRANCH  13  15
ATOM     15  C   UNL     1       9.344  10.078  -8.865  1.00  0.00     0.106 CG0
ATOM     16  G   UNL     1       9.576  11.440  -9.515  1.00  0.00     0.000 G0
ENDBRANCH  13  15
ENDBRANCH  12  13
BRANCH  12  17
ATOM     17  C   UNL     1      11.409   9.540  -5.501  1.00  0.00    -0.006 C 
ATOM     18  C   UNL     1      10.858   8.404  -4.621  1.00  0.00     0.008 C 
ATOM     19  C   UNL     1      12.156  10.557  -4.622  1.00  0.00     0.008 C 
ENDBRANCH  12  17
ENDBRANCH  11  12
ENDBRANCH   1  11
TORSDOF 1
ENDMDL
MODEL 2
REMARK VINA RESULT:    -2.692      1.863      3.985
REMARK INTER + INTRA:          -4.714
REMARK INTER:                  -4.609
REMARK INTRA:                  -0.105
REMARK UNBOUND:                -0.605
REMARK SMILES CC1=CCC[C@@H](C)C(=O)C[C@@H](C(C)C)C(=O)C1
REMARK SMILES IDX 8 1 9 2 6 3 7 4 5 5 4 6 3 7 2 8 1 9 10 11 11 12 15 13 16 14
REMARK SMILES IDX 17 15 12 17 13 18 14 19
REMARK H PARENT
REMARK Flexibility Score: 70.00
ROOT
ATOM      1  C   UNL     1      11.341  10.933  -5.000  1.00  0.00     0.136 C 
ATOM      2  O   UNL     1      12.110  10.982  -4.051  1.00  0.00    -0.299 OA
ENDROOT
BRANCH   1   3
ATOM      3  C   UNL     1      11.142   9.605  -5.711  1.00  0.00     0.053 C 
ATOM      4  C   UNL     1      10.853   8.495  -4.694  1.00  0.00     0.016 C 
BRANCH   3   5
ATOM      5  C   UNL     1      12.339   9.230  -6.609  1.00  0.00     0.015 C 
BRANCH   5   6
ATOM      6  C   UNL     1      12.584  10.275  -7.712  1.00  0.00     0.028 C 
BRANCH   6   7
ATOM      7  C   UNL     1      11.670  10.103  -8.897  1.00  0.00    -0.028 C 
ATOM      8  C   UNL     1      10.567  10.847  -9.166  1.00  0.00    -0.070 CG0
ATOM      9  C   UNL     1       9.726  10.433 -10.348  1.00  0.00     0.039 C 
ATOM     10  G   UNL     1      10.166  12.101  -8.393  1.00  0.00     0.000 G0
ENDBRANCH   6   7
ENDBRANCH   5   6
ENDBRANCH   3   5
ENDBRANCH   1   3
BRANCH   1  11
ATOM     11  C   UNL     1      10.674  12.210  -5.465  1.00  0.00     0.087 C 
BRANCH  11  12
ATOM     12  C   UNL     1       9.201  11.994  -5.907  1.00  0.00     0.066 C 
BRANCH  12  13
ATOM     13  C   UNL     1       9.014  11.942  -7.422  1.00  0.00     0.140 C 
ATOM     14  O   UNL     1       7.876  11.884  -7.867  1.00  0.00    -0.299 OA
BRANCH  13  15
ATOM     15  C   UNL     1      10.159  12.115  -8.392  1.00  0.00     0.106 CG0
ATOM     16  G   UNL     1      10.543  10.843  -9.145  1.00  0.00     0.000 G0
ENDBRANCH  13  15
ENDBRANCH  12  13
BRANCH  12  17
ATOM     17  C   UNL     1       8.195  12.996  -5.250  1.00  0.00    -0.006 C 
ATOM     18  C   UNL     1       8.736  13.700  -3.994  1.00  0.00     0.008 C 
ATOM     19  C   UNL     1       6.855  12.314  -4.922  1.00  0.00     0.008 C 
ENDBRANCH  12  17
ENDBRANCH  11  12
ENDBRANCH   1  11
TORSDOF 1
ENDMDL
MODEL 3
REMARK VINA RESULT:    -2.687      1.960      4.606
REMARK INTER + INTRA:          -4.706
REMARK INTER:                  -4.848
REMARK INTRA:                   0.142
REMARK UNBOUND:                -0.605
REMARK SMILES CC1=CCC[C@@H](C)C(=O)C[C@@H](C(C)C)C(=O)C1
REMARK SMILES IDX 8 1 9 2 6 3 7 4 5 5 4 6 3 7 2 8 1 9 10 11 11 12 15 13 16 14
REMARK SMILES IDX 17 15 12 17 13 18 14 19
REMARK H PARENT
REMARK Flexibility Score: 70.00
ROOT
ATOM      1  C   UNL     1       9.456  10.282  -8.516  1.00  0.00     0.136 C 
ATOM      2  O   UNL     1       8.705   9.353  -8.774  1.00  0.00    -0.299 OA
ENDROOT
BRANCH   1   3
ATOM      3  C   UNL     1      10.890  10.223  -9.015  1.00  0.00     0.053 C 
ATOM      4  C   UNL     1      11.029  11.005 -10.326  1.00  0.00     0.016 C 
BRANCH   3   5
ATOM      5  C   UNL     1      11.399   8.776  -9.181  1.00  0.00     0.015 C 
BRANCH   5   6
ATOM      6  C   UNL     1      11.895   8.182  -7.852  1.00  0.00     0.028 C 
BRANCH   6   7
ATOM      7  C   UNL     1      12.565   9.200  -6.966  1.00  0.00    -0.028 C 
ATOM      8  C   UNL     1      12.036   9.749  -5.843  1.00  0.00    -0.070 CG0
ATOM      9  C   UNL     1      12.832  10.838  -5.166  1.00  0.00     0.039 C 
ATOM     10  G   UNL     1      10.731   9.293  -5.195  1.00  0.00     0.000 G0
ENDBRANCH   6   7
ENDBRANCH   5   6
ENDBRANCH   3   5
ENDBRANCH   1   3
BRANCH   1  11
ATOM     11  C   UNL     1       8.944  11.417  -7.654  1.00  0.00     0.087 C 
BRANCH  11  12
ATOM     12  C   UNL     1       9.597  11.444  -6.245  1.00  0.00     0.066 C 
BRANCH  12  13
ATOM     13  C   UNL     1       9.521  10.111  -5.505  1.00  0.00     0.140 C 
ATOM     14  O   UNL     1       8.419   9.627  -5.288  1.00  0.00    -0.299 OA
BRANCH  13  15
ATOM     15  C   UNL     1      10.746   9.293  -5.168  1.00  0.00     0.106 CG0
ATOM     16  G   UNL     1      12.027   9.770  -5.848  1.00  0.00     0.000 G0
ENDBRANCH  13  15
ENDBRANCH  12  13
BRANCH  12  17
ATOM     17  C   UNL     1       9.090  12.617  -5.342  1.00  0.00    -0.006 C 
ATOM     18  C   UNL     1       8.722  13.895  -6.116  1.00  0.00     0.008 C 
ATOM     19  C   UNL     1      10.108  12.958  -4.239  1.00  0.00     0.008 C 
ENDBRANCH  12  17
ENDBRANCH  11  12
ENDBRANCH   1  11
TORSDOF 1
ENDMDL
MODEL 4
REMARK VINA RESULT:    -2.569      2.086      4.139
REMARK INTER + INTRA:          -4.526
REMARK INTER:                  -4.043
REMARK INTRA:                  -0.483
REMARK UNBOUND:                -0.605
REMARK SMILES CC1=CCC[C@@H](C)C(=O)C[C@@H](C(C)C)C(=O)C1
REMARK SMILES IDX 8 1 9 2 6 3 7 4 5 5 4 6 3 7 2 8 1 9 10 11 11 12 15 13 16 14
REMARK SMILES IDX 17 15 12 17 13 18 14 19
REMARK H PARENT
REMARK Flexibility Score: 70.00
ROOT
ATOM      1  C   UNL     1      11.377  13.297  -5.313  1.00  0.00     0.136 C 
ATOM      2  O   UNL     1      12.264  14.118  -5.497  1.00  0.00    -0.299 OA
ENDROOT
BRANCH   1   3
ATOM      3  C   UNL     1      11.642  12.134  -4.372  1.00  0.00     0.053 C 
ATOM      4  C   UNL     1      12.245  12.641  -3.058  1.00  0.00     0.016 C 
BRANCH   3   5
ATOM      5  C   UNL     1      12.539  11.051  -5.008  1.00  0.00     0.015 C 
BRANCH   5   6
ATOM      6  C   UNL     1      11.757   9.764  -5.322  1.00  0.00     0.028 C 
BRANCH   6   7
ATOM      7  C   UNL     1      11.533   9.558  -6.798  1.00  0.00    -0.028 C 
ATOM      8  C   UNL     1      10.330   9.560  -7.428  1.00  0.00    -0.070 CG0
ATOM      9  C   UNL     1      10.321   9.219  -8.898  1.00  0.00     0.039 C 
ATOM     10  G   UNL     1       9.011   9.944  -6.763  1.00  0.00     0.000 G0
ENDBRANCH   6   7
ENDBRANCH   5   6
ENDBRANCH   3   5
ENDBRANCH   1   3
BRANCH   1  11
ATOM     11  C   UNL     1      10.081  13.438  -6.083  1.00  0.00     0.087 C 
BRANCH  11  12
ATOM     12  C   UNL     1       9.023  12.373  -5.683  1.00  0.00     0.066 C 
BRANCH  12  13
ATOM     13  C   UNL     1       8.658  11.413  -6.812  1.00  0.00     0.140 C 
ATOM     14  O   UNL     1       8.180  11.875  -7.838  1.00  0.00    -0.299 OA
BRANCH  13  15
ATOM     15  C   UNL     1       9.002   9.942  -6.776  1.00  0.00     0.106 CG0
ATOM     16  G   UNL     1      10.333   9.591  -7.437  1.00  0.00     0.000 G0
ENDBRANCH  13  15
ENDBRANCH  12  13
BRANCH  12  17
ATOM     17  C   UNL     1       7.741  12.980  -5.024  1.00  0.00    -0.006 C 
ATOM     18  C   UNL     1       8.017  13.834  -3.774  1.00  0.00     0.008 C 
ATOM     19  C   UNL     1       6.712  11.888  -4.684  1.00  0.00     0.008 C 
ENDBRANCH  12  17
ENDBRANCH  11  12
ENDBRANCH   1  11
TORSDOF 1
ENDMDL
MODEL 5
REMARK VINA RESULT:    -2.503      1.719      4.051
REMARK INTER + INTRA:          -4.425
REMARK INTER:                  -4.624
REMARK INTRA:                   0.200
REMARK UNBOUND:                -0.605
REMARK SMILES CC1=CCC[C@@H](C)C(=O)C[C@@H](C(C)C)C(=O)C1
REMARK SMILES IDX 8 1 9 2 6 3 7 4 5 5 4 6 3 7 2 8 1 9 10 11 11 12 15 13 16 14
REMARK SMILES IDX 17 15 12 17 13 18 14 19
REMARK H PARENT
REMARK Flexibility Score: 70.00
ROOT
ATOM      1  C   UNL     1       9.723  10.181  -5.550  1.00  0.00     0.136 C 
ATOM      2  O   UNL     1       8.766   9.635  -5.022  1.00  0.00    -0.299 OA
ENDROOT
BRANCH   1   3
ATOM      3  C   UNL     1      11.031   9.415  -5.661  1.00  0.00     0.053 C 
ATOM      4  C   UNL     1      11.044   8.241  -4.676  1.00  0.00     0.016 C 
BRANCH   3   5
ATOM      5  C   UNL     1      12.265  10.318  -5.455  1.00  0.00     0.015 C 
BRANCH   5   6
ATOM      6  C   UNL     1      12.638  11.086  -6.735  1.00  0.00     0.028 C 
BRANCH   6   7
ATOM      7  C   UNL     1      12.463  10.264  -7.986  1.00  0.00    -0.028 C 
ATOM      8  C   UNL     1      11.506  10.449  -8.932  1.00  0.00    -0.070 CG0
ATOM      9  C   UNL     1      11.438   9.440 -10.051  1.00  0.00     0.039 C 
ATOM     10  G   UNL     1      10.549  11.638  -8.967  1.00  0.00     0.000 G0
ENDBRANCH   6   7
ENDBRANCH   5   6
ENDBRANCH   3   5
ENDBRANCH   1   3
BRANCH   1  11
ATOM     11  C   UNL     1       9.584  11.617  -6.008  1.00  0.00     0.087 C 
BRANCH  11  12
ATOM     12  C   UNL     1       8.577  11.781  -7.181  1.00  0.00     0.066 C 
BRANCH  12  13
ATOM     13  C   UNL     1       9.139  11.363  -8.537  1.00  0.00     0.140 C 
ATOM     14  O   UNL     1       8.375  10.879  -9.360  1.00  0.00    -0.299 OA
BRANCH  13  15
ATOM     15  C   UNL     1      10.559  11.662  -8.960  1.00  0.00     0.106 CG0
ATOM     16  G   UNL     1      11.490  10.453  -8.934  1.00  0.00     0.000 G0
ENDBRANCH  13  15
ENDBRANCH  12  13
BRANCH  12  17
ATOM     17  C   UNL     1       7.926  13.202  -7.255  1.00  0.00    -0.006 C 
ATOM     18  C   UNL     1       7.929  13.967  -5.920  1.00  0.00     0.008 C 
ATOM     19  C   UNL     1       6.493  13.135  -7.809  1.00  0.00     0.008 C 
ENDBRANCH  12  17
ENDBRANCH  11  12
ENDBRANCH   1  11
TORSDOF 1
ENDMDL
MODEL 6
REMARK VINA RESULT:    -2.436      1.743      4.144
REMARK INTER + INTRA:          -4.323
REMARK INTER:                  -4.295
REMARK INTRA:                  -0.028
REMARK UNBOUND:                -0.605
REMARK SMILES CC1=CCC[C@@H](C)C(=O)C[C@@H](C(C)C)C(=O)C1
REMARK SMILES IDX 8 1 9 2 6 3 7 4 5 5 4 6 3 7 2 8 1 9 10 11 11 12 15 13 16 14
REMARK SMILES IDX 17 15 12 17 13 18 14 19
REMARK H PARENT
REMARK Flexibility Score: 70.00
ROOT
ATOM      1  C   UNL     1      11.853   9.863  -6.814  1.00  0.00     0.136 C 
ATOM      2  O   UNL     1      12.891  10.486  -6.979  1.00  0.00    -0.299 OA
ENDROOT
BRANCH   1   3
ATOM      3  C   UNL     1      11.264   9.781  -5.416  1.00  0.00     0.053 C 
ATOM      4  C   UNL     1      11.141   8.318  -4.976  1.00  0.00     0.016 C 
BRANCH   3   5
ATOM      5  C   UNL     1       9.907  10.506  -5.302  1.00  0.00     0.015 C 
BRANCH   5   6
ATOM      6  C   UNL     1       9.952  11.916  -5.914  1.00  0.00     0.028 C 
BRANCH   6   7
ATOM      7  C   UNL     1       8.631  12.344  -6.502  1.00  0.00    -0.028 C 
ATOM      8  C   UNL     1       8.378  12.556  -7.819  1.00  0.00    -0.070 CG0
ATOM      9  C   UNL     1       7.015  13.092  -8.182  1.00  0.00     0.039 C 
ATOM     10  G   UNL     1       9.354  12.227  -8.946  1.00  0.00     0.000 G0
ENDBRANCH   6   7
ENDBRANCH   5   6
ENDBRANCH   3   5
ENDBRANCH   1   3
BRANCH   1  11
ATOM     11  C   UNL     1      11.237   9.145  -7.996  1.00  0.00     0.087 C 
BRANCH  11  12
ATOM     12  C   UNL     1      10.962  10.090  -9.198  1.00  0.00     0.066 C 
BRANCH  12  13
ATOM     13  C   UNL     1       9.578  10.735  -9.171  1.00  0.00     0.140 C 
ATOM     14  O   UNL     1       8.596  10.007  -9.200  1.00  0.00    -0.299 OA
BRANCH  13  15
ATOM     15  C   UNL     1       9.372  12.216  -8.955  1.00  0.00     0.106 CG0
ATOM     16  G   UNL     1       8.394  12.558  -7.834  1.00  0.00     0.000 G0
ENDBRANCH  13  15
ENDBRANCH  12  13
BRANCH  12  17
ATOM     17  C   UNL     1      11.249   9.436 -10.590  1.00  0.00    -0.006 C 
ATOM     18  C   UNL     1      12.465   8.492 -10.604  1.00  0.00     0.008 C 
ATOM     19  C   UNL     1      11.409  10.499 -11.690  1.00  0.00     0.008 C 
ENDBRANCH  12  17
ENDBRANCH  11  12
ENDBRANCH   1  11
TORSDOF 1
ENDMDL
MODEL 7
REMARK VINA RESULT:    -2.415      2.328      3.941
REMARK INTER + INTRA:          -4.290
REMARK INTER:                  -4.333
REMARK INTRA:                   0.043
REMARK UNBOUND:                -0.605
REMARK SMILES CC1=CCC[C@@H](C)C(=O)C[C@@H](C(C)C)C(=O)C1
REMARK SMILES IDX 8 1 9 2 6 3 7 4 5 5 4 6 3 7 2 8 1 9 10 11 11 12 15 13 16 14
REMARK SMILES IDX 17 15 12 17 13 18 14 19
REMARK H PARENT
REMARK Flexibility Score: 70.00
ROOT
ATOM      1  C   UNL     1       8.973  10.553  -5.998  1.00  0.00     0.136 C 
ATOM      2  O   UNL     1       8.436   9.628  -5.407  1.00  0.00    -0.299 OA
ENDROOT
BRANCH   1   3
ATOM      3  C   UNL     1       8.881  11.949  -5.405  1.00  0.00     0.053 C 
ATOM      4  C   UNL     1       7.448  12.237  -4.944  1.00  0.00     0.016 C 
BRANCH   3   5
ATOM      5  C   UNL     1       9.374  13.039  -6.379  1.00  0.00     0.015 C 
BRANCH   5   6
ATOM      6  C   UNL     1      10.909  13.147  -6.396  1.00  0.00     0.028 C 
BRANCH   6   7
ATOM      7  C   UNL     1      11.535  12.844  -5.059  1.00  0.00    -0.028 C 
ATOM      8  C   UNL     1      12.237  11.725  -4.743  1.00  0.00    -0.070 CG0
ATOM      9  C   UNL     1      12.681  11.570  -3.310  1.00  0.00     0.039 C 
ATOM     10  G   UNL     1      12.656  10.660  -5.753  1.00  0.00     0.000 G0
ENDBRANCH   6   7
ENDBRANCH   5   6
ENDBRANCH   3   5
ENDBRANCH   1   3
BRANCH   1  11
ATOM     11  C   UNL     1       9.647  10.279  -7.325  1.00  0.00     0.087 C 
BRANCH  11  12
ATOM     12  C   UNL     1      10.858   9.314  -7.199  1.00  0.00     0.066 C 
BRANCH  12  13
ATOM     13  C   UNL     1      11.677   9.518  -5.927  1.00  0.00     0.140 C 
ATOM     14  O   UNL     1      11.636   8.655  -5.062  1.00  0.00    -0.299 OA
BRANCH  13  15
ATOM     15  C   UNL     1      12.652  10.660  -5.758  1.00  0.00     0.106 CG0
ATOM     16  G   UNL     1      12.213  11.718  -4.750  1.00  0.00     0.000 G0
ENDBRANCH  13  15
ENDBRANCH  12  13
BRANCH  12  17
ATOM     17  C   UNL     1      11.778   9.293  -8.464  1.00  0.00    -0.006 C 
ATOM     18  C   UNL     1      11.040   9.570  -9.786  1.00  0.00     0.008 C 
ATOM     19  C   UNL     1      12.553   7.969  -8.574  1.00  0.00     0.008 C 
ENDBRANCH  12  17
ENDBRANCH  11  12
ENDBRANCH   1  11
TORSDOF 1
ENDMDL
MODEL 8
REMARK VINA RESULT:    -2.381     17.619     19.433
REMARK INTER + INTRA:          -4.240
REMARK INTER:                  -4.167
REMARK INTRA:                  -0.072
REMARK UNBOUND:                -0.605
REMARK SMILES CC1=CCC[C@@H](C)C(=O)C[C@@H](C(C)C)C(=O)C1
REMARK SMILES IDX 8 1 9 2 6 3 7 4 5 5 4 6 3 7 2 8 1 9 10 11 11 12 15 13 16 14
REMARK SMILES IDX 17 15 12 17 13 18 14 19
REMARK H PARENT
REMARK Flexibility Score: 70.00
ROOT
ATOM      1  C   UNL     1      -2.727   9.867   6.219  1.00  0.00     0.136 C 
ATOM      2  O   UNL     1      -1.808   9.093   6.440  1.00  0.00    -0.299 OA
ENDROOT
BRANCH   1   3
ATOM      3  C   UNL     1      -2.436  11.148   5.455  1.00  0.00     0.053 C 
ATOM      4  C   UNL     1      -1.006  11.125   4.905  1.00  0.00     0.016 C 
BRANCH   3   5
ATOM      5  C   UNL     1      -2.678  12.412   6.306  1.00  0.00     0.015 C 
BRANCH   5   6
ATOM      6  C   UNL     1      -4.165  12.804   6.347  1.00  0.00     0.028 C 
BRANCH   6   7
ATOM      7  C   UNL     1      -4.806  12.826   4.983  1.00  0.00    -0.028 C 
ATOM      8  C   UNL     1      -5.723  11.938   4.521  1.00  0.00    -0.070 CG0
ATOM      9  C   UNL     1      -6.152  12.075   3.081  1.00  0.00     0.039 C 
ATOM     10  G   UNL     1      -6.387  10.862   5.377  1.00  0.00     0.000 G0
ENDBRANCH   6   7
ENDBRANCH   5   6
ENDBRANCH   3   5
ENDBRANCH   1   3
BRANCH   1  11
ATOM     11  C   UNL     1      -4.099   9.548   6.774  1.00  0.00     0.087 C 
BRANCH  11  12
ATOM     12  C   UNL     1      -4.944   8.660   5.819  1.00  0.00     0.066 C 
BRANCH  12  13
ATOM     13  C   UNL     1      -5.984   9.436   5.015  1.00  0.00     0.140 C 
ATOM     14  O   UNL     1      -6.592   8.850   4.131  1.00  0.00    -0.299 OA
BRANCH  13  15
ATOM     15  C   UNL     1      -6.400  10.846   5.364  1.00  0.00     0.106 CG0
ATOM     16  G   UNL     1      -5.722  11.928   4.527  1.00  0.00     0.000 G0
ENDBRANCH  13  15
ENDBRANCH  12  13
BRANCH  12  17
ATOM     17  C   UNL     1      -5.589   7.420   6.523  1.00  0.00    -0.006 C 
ATOM     18  C   UNL     1      -6.783   7.760   7.431  1.00  0.00     0.008 C 
ATOM     19  C   UNL     1      -4.545   6.620   7.321  1.00  0.00     0.008 C 
ENDBRANCH  12  17
ENDBRANCH  11  12
ENDBRANCH   1  11
TORSDOF 1
ENDMDL
MODEL 9
REMARK VINA RESULT:    -2.229      1.834      3.142
REMARK INTER + INTRA:          -4.006
REMARK INTER:                  -3.857
REMARK INTRA:                  -0.149
REMARK UNBOUND:                -0.605
REMARK SMILES CC1=CCC[C@@H](C)C(=O)C[C@@H](C(C)C)C(=O)C1
REMARK SMILES IDX 8 1 9 2 6 3 7 4 5 5 4 6 3 7 2 8 1 9 10 11 11 12 15 13 16 14
REMARK SMILES IDX 17 15 12 17 13 18 14 19
REMARK H PARENT
REMARK Flexibility Score: 70.00
ROOT
ATOM      1  C   UNL     1      10.826  10.018  -5.857  1.00  0.00     0.136 C 
ATOM      2  O   UNL     1       9.776   9.892  -5.244  1.00  0.00    -0.299 OA
ENDROOT
BRANCH   1   3
ATOM      3  C   UNL     1      11.633  11.292  -5.671  1.00  0.00     0.053 C 
ATOM      4  C   UNL     1      12.343  11.278  -4.313  1.00  0.00     0.016 C 
BRANCH   3   5
ATOM      5  C   UNL     1      10.775  12.564  -5.829  1.00  0.00     0.015 C 
BRANCH   5   6
ATOM      6  C   UNL     1      10.806  13.107  -7.268  1.00  0.00     0.028 C 
BRANCH   6   7
ATOM      7  C   UNL     1       9.471  13.011  -7.961  1.00  0.00    -0.028 C 
ATOM      8  C   UNL     1       9.196  12.260  -9.059  1.00  0.00    -0.070 CG0
ATOM      9  C   UNL     1       7.820  12.398  -9.662  1.00  0.00     0.039 C 
ATOM     10  G   UNL     1      10.161  11.249  -9.673  1.00  0.00     0.000 G0
ENDBRANCH   6   7
ENDBRANCH   5   6
ENDBRANCH   3   5
ENDBRANCH   1   3
BRANCH   1  11
ATOM     11  C   UNL     1      11.241   8.930  -6.824  1.00  0.00     0.087 C 
BRANCH  11  12
ATOM     12  C   UNL     1      11.504   9.467  -8.258  1.00  0.00     0.066 C 
BRANCH  12  13
ATOM     13  C   UNL     1      10.243   9.928  -8.984  1.00  0.00     0.140 C 
ATOM     14  O   UNL     1       9.229   9.253  -8.877  1.00  0.00    -0.299 OA
BRANCH  13  15
ATOM     15  C   UNL     1      10.152  11.257  -9.698  1.00  0.00     0.106 CG0
ATOM     16  G   UNL     1       9.190  12.252  -9.056  1.00  0.00     0.000 G0
ENDBRANCH  13  15
ENDBRANCH  12  13
BRANCH  12  17
ATOM     17  C   UNL     1      12.341   8.490  -9.150  1.00  0.00    -0.006 C 
ATOM     18  C   UNL     1      12.157   8.705 -10.663  1.00  0.00     0.008 C 
ATOM     19  C   UNL     1      12.052   7.021  -8.799  1.00  0.00     0.008 C 
ENDBRANCH  12  17
ENDBRANCH  11  12
ENDBRANCH   1  11
TORSDOF 1
ENDMDL
