MODEL 1
REMARK VINA RESULT:    -4.153      0.000      0.000
REMARK INTER + INTRA:          -6.556
REMARK INTER:                  -5.609
REMARK INTRA:                  -0.947
REMARK UNBOUND:                -0.947
REMARK SMILES CC(=O)CCC=C(C)CCC=C(C)C
REMARK SMILES IDX 7 1 6 2 8 3 9 4 10 5 11 6 13 7 12 8 14 9 5 10 4 11 2 12 3 13
REMARK SMILES IDX 1 14
REMARK H PARENT
REMARK Flexibility Score: inf
ROOT
ATOM      1  C   UNL     1       8.470  30.318  15.430  1.00  0.00    -0.077 C 
ATOM      2  C   UNL     1       9.509  29.464  15.577  1.00  0.00    -0.028 C 
ATOM      3  C   UNL     1       7.776  30.508  14.102  1.00  0.00     0.039 C 
ENDROOT
BRANCH   1   4
ATOM      4  C   UNL     1       8.004  31.124  16.625  1.00  0.00     0.034 C 
BRANCH   4   5
ATOM      5  C   UNL     1       7.367  30.235  17.703  1.00  0.00     0.032 C 
BRANCH   5   6
ATOM      6  C   UNL     1       5.947  29.857  17.350  1.00  0.00    -0.028 C 
ATOM      7  C   UNL     1       6.503  27.444  16.969  1.00  0.00     0.039 C 
ATOM      8  C   UNL     1       5.554  28.618  16.980  1.00  0.00    -0.080 C 
ATOM      9  C   UNL     1       4.113  28.367  16.621  1.00  0.00     0.039 C 
ENDBRANCH   5   6
ENDBRANCH   4   5
ENDBRANCH   1   4
BRANCH   2  10
ATOM     10  C   UNL     1      10.049  28.580  14.481  1.00  0.00     0.035 C 
BRANCH  10  11
ATOM     11  C   UNL     1      11.573  28.468  14.574  1.00  0.00     0.079 C 
BRANCH  11  12
ATOM     12  C   UNL     1      11.978  27.109  15.076  1.00  0.00     0.130 C 
ATOM     13  O   UNL     1      11.259  26.145  14.863  1.00  0.00    -0.300 OA
ATOM     14  C   UNL     1      13.268  26.927  15.816  1.00  0.00     0.087 C 
ENDBRANCH  11  12
ENDBRANCH  10  11
ENDBRANCH   2  10
TORSDOF 6
ENDMDL
MODEL 2
REMARK VINA RESULT:    -4.098      2.274      6.148
REMARK INTER + INTRA:          -6.482
REMARK INTER:                  -5.884
REMARK INTRA:                  -0.599
REMARK UNBOUND:                -0.947
REMARK SMILES CC(=O)CCC=C(C)CCC=C(C)C
REMARK SMILES IDX 7 1 6 2 8 3 9 4 10 5 11 6 13 7 12 8 14 9 5 10 4 11 2 12 3 13
REMARK SMILES IDX 1 14
REMARK H PARENT
REMARK Flexibility Score: inf
ROOT
ATOM      1  C   UNL     1       9.742  29.373  14.860  1.00  0.00    -0.077 C 
ATOM      2  C   UNL     1       9.361  30.263  15.805  1.00  0.00    -0.028 C 
ATOM      3  C   UNL     1       8.746  28.718  13.932  1.00  0.00     0.039 C 
ENDROOT
BRANCH   1   4
ATOM      4  C   UNL     1      11.207  29.005  14.744  1.00  0.00     0.034 C 
BRANCH   4   5
ATOM      5  C   UNL     1      11.429  27.489  14.852  1.00  0.00     0.032 C 
BRANCH   5   6
ATOM      6  C   UNL     1      12.868  27.153  15.164  1.00  0.00    -0.028 C 
ATOM      7  C   UNL     1      12.319  24.893  16.094  1.00  0.00     0.039 C 
ATOM      8  C   UNL     1      13.277  26.010  15.758  1.00  0.00    -0.080 C 
ATOM      9  C   UNL     1      14.741  25.800  16.047  1.00  0.00     0.039 C 
ENDBRANCH   5   6
ENDBRANCH   4   5
ENDBRANCH   1   4
BRANCH   2  10
ATOM     10  C   UNL     1       7.944  30.741  16.005  1.00  0.00     0.035 C 
BRANCH  10  11
ATOM     11  C   UNL     1       7.441  30.377  17.405  1.00  0.00     0.079 C 
BRANCH  11  12
ATOM     12  C   UNL     1       6.379  29.314  17.329  1.00  0.00     0.130 C 
ATOM     13  O   UNL     1       5.210  29.608  17.526  1.00  0.00    -0.300 OA
ATOM     14  C   UNL     1       6.744  27.900  16.993  1.00  0.00     0.087 C 
ENDBRANCH  11  12
ENDBRANCH  10  11
ENDBRANCH   2  10
TORSDOF 6
ENDMDL
MODEL 3
REMARK VINA RESULT:    -4.095      2.009      4.460
REMARK INTER + INTRA:          -6.478
REMARK INTER:                  -5.380
REMARK INTRA:                  -1.098
REMARK UNBOUND:                -0.947
REMARK SMILES CC(=O)CCC=C(C)CCC=C(C)C
REMARK SMILES IDX 7 1 6 2 8 3 9 4 10 5 11 6 13 7 12 8 14 9 5 10 4 11 2 12 3 13
REMARK SMILES IDX 1 14
REMARK H PARENT
REMARK Flexibility Score: inf
ROOT
ATOM      1  C   UNL     1       6.356  29.272  17.197  1.00  0.00    -0.077 C 
ATOM      2  C   UNL     1       6.901  28.044  17.037  1.00  0.00    -0.028 C 
ATOM      3  C   UNL     1       4.879  29.520  16.999  1.00  0.00     0.039 C 
ENDROOT
BRANCH   1   4
ATOM      4  C   UNL     1       7.255  30.435  17.563  1.00  0.00     0.034 C 
BRANCH   4   5
ATOM      5  C   UNL     1       7.921  31.057  16.326  1.00  0.00     0.032 C 
BRANCH   5   6
ATOM      6  C   UNL     1       9.242  30.394  16.009  1.00  0.00    -0.028 C 
ATOM      7  C   UNL     1       8.403  29.352  13.891  1.00  0.00     0.039 C 
ATOM      8  C   UNL     1       9.459  29.594  14.941  1.00  0.00    -0.080 C 
ATOM      9  C   UNL     1      10.813  28.962  14.745  1.00  0.00     0.039 C 
ENDBRANCH   5   6
ENDBRANCH   4   5
ENDBRANCH   1   4
BRANCH   2  10
ATOM     10  C   UNL     1       6.117  26.798  16.707  1.00  0.00     0.035 C 
BRANCH  10  11
ATOM     11  C   UNL     1       6.036  26.593  15.192  1.00  0.00     0.079 C 
BRANCH  11  12
ATOM     12  C   UNL     1       6.969  25.499  14.752  1.00  0.00     0.130 C 
ATOM     13  O   UNL     1       6.517  24.420  14.401  1.00  0.00    -0.300 OA
ATOM     14  C   UNL     1       8.450  25.732  14.721  1.00  0.00     0.087 C 
ENDBRANCH  11  12
ENDBRANCH  10  11
ENDBRANCH   2  10
TORSDOF 6
ENDMDL
MODEL 4
REMARK VINA RESULT:    -3.983      4.804     10.226
REMARK INTER + INTRA:          -6.327
REMARK INTER:                  -5.771
REMARK INTRA:                  -0.556
REMARK UNBOUND:                -0.947
REMARK SMILES CC(=O)CCC=C(C)CCC=C(C)C
REMARK SMILES IDX 7 1 6 2 8 3 9 4 10 5 11 6 13 7 12 8 14 9 5 10 4 11 2 12 3 13
REMARK SMILES IDX 1 14
REMARK H PARENT
REMARK Flexibility Score: inf
ROOT
ATOM      1  C   UNL     1      15.676  25.923  15.450  1.00  0.00    -0.077 C 
ATOM      2  C   UNL     1      14.444  25.590  15.898  1.00  0.00    -0.028 C 
ATOM      3  C   UNL     1      16.069  27.359  15.193  1.00  0.00     0.039 C 
ENDROOT
BRANCH   1   4
ATOM      4  C   UNL     1      16.684  24.825  15.178  1.00  0.00     0.034 C 
BRANCH   4   5
ATOM      5  C   UNL     1      18.127  25.347  15.220  1.00  0.00     0.032 C 
BRANCH   5   6
ATOM      6  C   UNL     1      19.002  24.504  16.118  1.00  0.00    -0.028 C 
ATOM      7  C   UNL     1      21.124  25.179  14.970  1.00  0.00     0.039 C 
ATOM      8  C   UNL     1      20.343  24.388  15.991  1.00  0.00    -0.080 C 
ATOM      9  C   UNL     1      21.108  23.491  16.929  1.00  0.00     0.039 C 
ENDBRANCH   5   6
ENDBRANCH   4   5
ENDBRANCH   1   4
BRANCH   2  10
ATOM     10  C   UNL     1      13.362  26.583  16.239  1.00  0.00     0.035 C 
BRANCH  10  11
ATOM     11  C   UNL     1      12.283  26.606  15.152  1.00  0.00     0.079 C 
BRANCH  11  12
ATOM     12  C   UNL     1      11.999  28.017  14.713  1.00  0.00     0.130 C 
ATOM     13  O   UNL     1      10.978  28.575  15.085  1.00  0.00    -0.300 OA
ATOM     14  C   UNL     1      12.972  28.750  13.840  1.00  0.00     0.087 C 
ENDBRANCH  11  12
ENDBRANCH  10  11
ENDBRANCH   2  10
TORSDOF 6
ENDMDL
MODEL 5
REMARK VINA RESULT:    -3.944      6.122      7.990
REMARK INTER + INTRA:          -6.274
REMARK INTER:                  -5.550
REMARK INTRA:                  -0.725
REMARK UNBOUND:                -0.947
REMARK SMILES CC(=O)CCC=C(C)CCC=C(C)C
REMARK SMILES IDX 7 1 6 2 8 3 9 4 10 5 11 6 13 7 12 8 14 9 5 10 4 11 2 12 3 13
REMARK SMILES IDX 1 14
REMARK H PARENT
REMARK Flexibility Score: inf
ROOT
ATOM      1  C   UNL     1      15.730  27.680  15.010  1.00  0.00    -0.077 C 
ATOM      2  C   UNL     1      16.242  26.460  15.293  1.00  0.00    -0.028 C 
ATOM      3  C   UNL     1      16.579  28.784  14.424  1.00  0.00     0.039 C 
ENDROOT
BRANCH   1   4
ATOM      4  C   UNL     1      14.270  27.953  15.307  1.00  0.00     0.034 C 
BRANCH   4   5
ATOM      5  C   UNL     1      13.340  26.997  14.545  1.00  0.00     0.032 C 
BRANCH   5   6
ATOM      6  C   UNL     1      12.494  26.170  15.485  1.00  0.00    -0.028 C 
ATOM      7  C   UNL     1      13.592  24.011  14.845  1.00  0.00     0.039 C 
ATOM      8  C   UNL     1      12.569  24.825  15.599  1.00  0.00    -0.080 C 
ATOM      9  C   UNL     1      11.650  24.104  16.550  1.00  0.00     0.039 C 
ENDBRANCH   5   6
ENDBRANCH   4   5
ENDBRANCH   1   4
BRANCH   2  10
ATOM     10  C   UNL     1      17.666  26.047  15.016  1.00  0.00     0.035 C 
BRANCH  10  11
ATOM     11  C   UNL     1      18.021  24.770  15.784  1.00  0.00     0.079 C 
BRANCH  11  12
ATOM     12  C   UNL     1      19.512  24.569  15.824  1.00  0.00     0.130 C 
ATOM     13  O   UNL     1      19.997  23.789  16.628  1.00  0.00    -0.300 OA
ATOM     14  C   UNL     1      20.401  25.304  14.868  1.00  0.00     0.087 C 
ENDBRANCH  11  12
ENDBRANCH  10  11
ENDBRANCH   2  10
TORSDOF 6
ENDMDL
MODEL 6
REMARK VINA RESULT:    -3.913      2.235      7.130
REMARK INTER + INTRA:          -6.232
REMARK INTER:                  -5.664
REMARK INTRA:                  -0.568
REMARK UNBOUND:                -0.947
REMARK SMILES CC(=O)CCC=C(C)CCC=C(C)C
REMARK SMILES IDX 7 1 6 2 8 3 9 4 10 5 11 6 13 7 12 8 14 9 5 10 4 11 2 12 3 13
REMARK SMILES IDX 1 14
REMARK H PARENT
REMARK Flexibility Score: inf
ROOT
ATOM      1  C   UNL     1      10.938  26.663  14.805  1.00  0.00    -0.077 C 
ATOM      2  C   UNL     1      11.058  28.009  14.765  1.00  0.00    -0.028 C 
ATOM      3  C   UNL     1       9.618  25.972  14.553  1.00  0.00     0.039 C 
ENDROOT
BRANCH   1   4
ATOM      4  C   UNL     1      12.157  25.824  15.132  1.00  0.00     0.034 C 
BRANCH   4   5
ATOM      5  C   UNL     1      13.241  26.642  15.848  1.00  0.00     0.032 C 
BRANCH   5   6
ATOM      6  C   UNL     1      14.482  25.820  16.111  1.00  0.00    -0.028 C 
ATOM      7  C   UNL     1      16.017  27.479  15.031  1.00  0.00     0.039 C 
ATOM      8  C   UNL     1      15.727  26.165  15.714  1.00  0.00    -0.080 C 
ATOM      9  C   UNL     1      16.885  25.247  16.007  1.00  0.00     0.039 C 
ENDBRANCH   5   6
ENDBRANCH   4   5
ENDBRANCH   1   4
BRANCH   2  10
ATOM     10  C   UNL     1       9.936  28.957  14.420  1.00  0.00     0.035 C 
BRANCH  10  11
ATOM     11  C   UNL     1       9.677  29.934  15.570  1.00  0.00     0.079 C 
BRANCH  11  12
ATOM     12  C   UNL     1       8.330  29.683  16.189  1.00  0.00     0.130 C 
ATOM     13  O   UNL     1       7.757  28.623  15.988  1.00  0.00    -0.300 OA
ATOM     14  C   UNL     1       7.695  30.717  17.069  1.00  0.00     0.087 C 
ENDBRANCH  11  12
ENDBRANCH  10  11
ENDBRANCH   2  10
TORSDOF 6
ENDMDL
MODEL 7
REMARK VINA RESULT:    -3.911      6.107      9.843
REMARK INTER + INTRA:          -6.230
REMARK INTER:                  -5.695
REMARK INTRA:                  -0.534
REMARK UNBOUND:                -0.947
REMARK SMILES CC(=O)CCC=C(C)CCC=C(C)C
REMARK SMILES IDX 7 1 6 2 8 3 9 4 10 5 11 6 13 7 12 8 14 9 5 10 4 11 2 12 3 13
REMARK SMILES IDX 1 14
REMARK H PARENT
REMARK Flexibility Score: inf
ROOT
ATOM      1  C   UNL     1      15.506  26.880  15.430  1.00  0.00    -0.077 C 
ATOM      2  C   UNL     1      14.691  25.911  15.906  1.00  0.00    -0.028 C 
ATOM      3  C   UNL     1      14.962  28.158  14.836  1.00  0.00     0.039 C 
ENDROOT
BRANCH   1   4
ATOM      4  C   UNL     1      17.006  26.668  15.473  1.00  0.00     0.034 C 
BRANCH   4   5
ATOM      5  C   UNL     1      17.409  25.300  14.904  1.00  0.00     0.032 C 
BRANCH   5   6
ATOM      6  C   UNL     1      18.434  24.611  15.775  1.00  0.00    -0.028 C 
ATOM      7  C   UNL     1      20.385  25.529  14.501  1.00  0.00     0.039 C 
ATOM      8  C   UNL     1      19.770  24.673  15.580  1.00  0.00    -0.080 C 
ATOM      9  C   UNL     1      20.695  23.916  16.498  1.00  0.00     0.039 C 
ENDBRANCH   5   6
ENDBRANCH   4   5
ENDBRANCH   1   4
BRANCH   2  10
ATOM     10  C   UNL     1      13.187  26.007  15.953  1.00  0.00     0.035 C 
BRANCH  10  11
ATOM     11  C   UNL     1      12.563  25.404  14.691  1.00  0.00     0.079 C 
BRANCH  11  12
ATOM     12  C   UNL     1      11.901  24.088  15.001  1.00  0.00     0.130 C 
ATOM     13  O   UNL     1      11.455  23.405  14.092  1.00  0.00    -0.300 OA
ATOM     14  C   UNL     1      11.805  23.603  16.415  1.00  0.00     0.087 C 
ENDBRANCH  11  12
ENDBRANCH  10  11
ENDBRANCH   2  10
TORSDOF 6
ENDMDL
MODEL 8
REMARK VINA RESULT:    -3.874     12.922     15.857
REMARK INTER + INTRA:          -6.179
REMARK INTER:                  -5.500
REMARK INTRA:                  -0.679
REMARK UNBOUND:                -0.947
REMARK SMILES CC(=O)CCC=C(C)CCC=C(C)C
REMARK SMILES IDX 7 1 6 2 8 3 9 4 10 5 11 6 13 7 12 8 14 9 5 10 4 11 2 12 3 13
REMARK SMILES IDX 1 14
REMARK H PARENT
REMARK Flexibility Score: inf
ROOT
ATOM      1  C   UNL     1      11.518  14.243  13.639  1.00  0.00    -0.077 C 
ATOM      2  C   UNL     1      10.180  14.043  13.616  1.00  0.00    -0.028 C 
ATOM      3  C   UNL     1      12.126  15.599  13.370  1.00  0.00     0.039 C 
ENDROOT
BRANCH   1   4
ATOM      4  C   UNL     1      12.433  13.069  13.920  1.00  0.00     0.034 C 
BRANCH   4   5
ATOM      5  C   UNL     1      12.958  13.084  15.364  1.00  0.00     0.032 C 
BRANCH   5   6
ATOM      6  C   UNL     1      14.468  13.061  15.411  1.00  0.00    -0.028 C 
ATOM      7  C   UNL     1      14.657  15.488  16.000  1.00  0.00     0.039 C 
ATOM      8  C   UNL     1      15.243  14.141  15.656  1.00  0.00    -0.080 C 
ATOM      9  C   UNL     1      16.743  14.001  15.647  1.00  0.00     0.039 C 
ENDBRANCH   5   6
ENDBRANCH   4   5
ENDBRANCH   1   4
BRANCH   2  10
ATOM     10  C   UNL     1       9.159  15.128  13.381  1.00  0.00     0.035 C 
BRANCH  10  11
ATOM     11  C   UNL     1       7.738  14.579  13.534  1.00  0.00     0.079 C 
BRANCH  11  12
ATOM     12  C   UNL     1       6.894  15.508  14.364  1.00  0.00     0.130 C 
ATOM     13  O   UNL     1       5.681  15.515  14.223  1.00  0.00    -0.300 OA
ATOM     14  C   UNL     1       7.532  16.410  15.377  1.00  0.00     0.087 C 
ENDBRANCH  11  12
ENDBRANCH  10  11
ENDBRANCH   2  10
TORSDOF 6
ENDMDL
MODEL 9
REMARK VINA RESULT:    -3.793     12.340     13.837
REMARK INTER + INTRA:          -6.070
REMARK INTER:                  -5.343
REMARK INTRA:                  -0.727
REMARK UNBOUND:                -0.947
REMARK SMILES CC(=O)CCC=C(C)CCC=C(C)C
REMARK SMILES IDX 7 1 6 2 8 3 9 4 10 5 11 6 13 7 12 8 14 9 5 10 4 11 2 12 3 13
REMARK SMILES IDX 1 14
REMARK H PARENT
REMARK Flexibility Score: inf
ROOT
ATOM      1  C   UNL     1       9.950  15.973  13.576  1.00  0.00    -0.077 C 
ATOM      2  C   UNL     1       9.822  14.626  13.541  1.00  0.00    -0.028 C 
ATOM      3  C   UNL     1      11.256  16.658  13.247  1.00  0.00     0.039 C 
ENDROOT
BRANCH   1   4
ATOM      4  C   UNL     1       8.758  16.816  13.977  1.00  0.00     0.034 C 
BRANCH   4   5
ATOM      5  C   UNL     1       7.940  16.158  15.099  1.00  0.00     0.032 C 
BRANCH   5   6
ATOM      6  C   UNL     1       6.658  16.908  15.372  1.00  0.00    -0.028 C 
ATOM      7  C   UNL     1       5.257  15.361  13.986  1.00  0.00     0.039 C 
ATOM      8  C   UNL     1       5.455  16.585  14.846  1.00  0.00    -0.080 C 
ATOM      9  C   UNL     1       4.248  17.428  15.167  1.00  0.00     0.039 C 
ENDBRANCH   5   6
ENDBRANCH   4   5
ENDBRANCH   1   4
BRANCH   2  10
ATOM     10  C   UNL     1      10.917  13.675  13.128  1.00  0.00     0.035 C 
BRANCH  10  11
ATOM     11  C   UNL     1      11.364  12.813  14.312  1.00  0.00     0.079 C 
BRANCH  11  12
ATOM     12  C   UNL     1      12.775  13.148  14.712  1.00  0.00     0.130 C 
ATOM     13  O   UNL     1      13.203  12.779  15.795  1.00  0.00    -0.300 OA
ATOM     14  C   UNL     1      13.666  13.912  13.780  1.00  0.00     0.087 C 
ENDBRANCH  11  12
ENDBRANCH  10  11
ENDBRANCH   2  10
TORSDOF 6
ENDMDL
