MODEL 1
REMARK VINA RESULT:    -4.514      0.000      0.000
REMARK INTER + INTRA:          -7.292
REMARK INTER:                  -6.625
REMARK INTRA:                  -0.667
REMARK UNBOUND:                -0.667
REMARK SMILES O=C([O-])CCCCCCCC(=O)[O-]
REMARK SMILES IDX 7 1 6 2 5 3 4 4 2 5 1 6 3 7 8 8 9 9 10 10 11 11 12 12 13 13
REMARK H PARENT
REMARK Flexibility Score: inf
ROOT
ATOM      1  C   UNL     1      34.559   0.715   3.073  1.00  0.00     0.000 C 
ENDROOT
BRANCH   1   2
ATOM      2  C   UNL     1      34.547  -0.284   4.240  1.00  0.00     0.000 C 
BRANCH   2   3
ATOM      3  C   UNL     1      35.928  -0.911   4.504  1.00  0.00     0.006 C 
BRANCH   3   4
ATOM      4  C   UNL     1      36.468  -0.677   5.924  1.00  0.00     0.053 C 
BRANCH   4   5
ATOM      5  C   UNL     1      36.987   0.716   6.105  1.00  0.00     0.041 C 
ATOM      6  O   UNL     1      36.865   1.299   7.214  1.00  0.00    -0.550 OA
ATOM      7  O   UNL     1      37.634   1.358   5.057  1.00  0.00    -0.550 OA
ENDBRANCH   4   5
ENDBRANCH   3   4
ENDBRANCH   2   3
ENDBRANCH   1   2
BRANCH   1   8
ATOM      8  C   UNL     1      34.451   2.157   3.583  1.00  0.00     0.000 C 
BRANCH   8   9
ATOM      9  C   UNL     1      33.780   2.205   4.961  1.00  0.00     0.006 C 
BRANCH   9  10
ATOM     10  C   UNL     1      33.361   3.634   5.319  1.00  0.00     0.053 C 
BRANCH  10  11
ATOM     11  C   UNL     1      33.755   3.959   6.724  1.00  0.00     0.041 C 
ATOM     12  O   UNL     1      33.952   5.155   7.067  1.00  0.00    -0.550 OA
ATOM     13  O   UNL     1      33.858   2.947   7.670  1.00  0.00    -0.550 OA
ENDBRANCH  10  11
ENDBRANCH   9  10
ENDBRANCH   8   9
ENDBRANCH   1   8
TORSDOF 8
ENDMDL
MODEL 2
REMARK VINA RESULT:    -4.513     19.618     20.938
REMARK INTER + INTRA:          -7.290
REMARK INTER:                  -6.693
REMARK INTRA:                  -0.597
REMARK UNBOUND:                -0.667
REMARK SMILES O=C([O-])CCCCCCCC(=O)[O-]
REMARK SMILES IDX 7 1 6 2 5 3 4 4 2 5 1 6 3 7 8 8 9 9 10 10 11 11 12 12 13 13
REMARK H PARENT
REMARK Flexibility Score: inf
ROOT
ATOM      1  C   UNL     1      48.495  11.960  -4.745  1.00  0.00     0.000 C 
ENDROOT
BRANCH   1   2
ATOM      2  C   UNL     1      47.209  12.306  -5.511  1.00  0.00     0.000 C 
BRANCH   2   3
ATOM      3  C   UNL     1      47.426  12.394  -7.033  1.00  0.00     0.006 C 
BRANCH   3   4
ATOM      4  C   UNL     1      46.187  12.842  -7.822  1.00  0.00     0.053 C 
BRANCH   4   5
ATOM      5  C   UNL     1      45.957  11.994  -9.036  1.00  0.00     0.041 C 
ATOM      6  O   UNL     1      44.836  12.000  -9.611  1.00  0.00    -0.550 OA
ATOM      7  O   UNL     1      46.991  11.222  -9.550  1.00  0.00    -0.550 OA
ENDBRANCH   4   5
ENDBRANCH   3   4
ENDBRANCH   2   3
ENDBRANCH   1   2
BRANCH   1   8
ATOM      8  C   UNL     1      49.675  11.779  -5.707  1.00  0.00     0.000 C 
BRANCH   8   9
ATOM      9  C   UNL     1      50.100  10.308  -5.787  1.00  0.00     0.006 C 
BRANCH   9  10
ATOM     10  C   UNL     1      50.076   9.808  -7.235  1.00  0.00     0.053 C 
BRANCH  10  11
ATOM     11  C   UNL     1      49.037   8.746  -7.405  1.00  0.00     0.041 C 
ATOM     12  O   UNL     1      49.277   7.731  -8.111  1.00  0.00    -0.550 OA
ATOM     13  O   UNL     1      47.819   8.851  -6.744  1.00  0.00    -0.550 OA
ENDBRANCH  10  11
ENDBRANCH   9  10
ENDBRANCH   8   9
ENDBRANCH   1   8
TORSDOF 8
ENDMDL
MODEL 3
REMARK VINA RESULT:    -4.472     19.897     21.176
REMARK INTER + INTRA:          -7.231
REMARK INTER:                  -6.533
REMARK INTRA:                  -0.698
REMARK UNBOUND:                -0.667
REMARK SMILES O=C([O-])CCCCCCCC(=O)[O-]
REMARK SMILES IDX 7 1 6 2 5 3 4 4 2 5 1 6 3 7 8 8 9 9 10 10 11 11 12 12 13 13
REMARK H PARENT
REMARK Flexibility Score: inf
ROOT
ATOM      1  C   UNL     1      46.866  11.776  -5.687  1.00  0.00     0.000 C 
ENDROOT
BRANCH   1   2
ATOM      2  C   UNL     1      48.053  12.278  -4.852  1.00  0.00     0.000 C 
BRANCH   2   3
ATOM      3  C   UNL     1      49.261  11.323  -4.895  1.00  0.00     0.006 C 
BRANCH   3   4
ATOM      4  C   UNL     1      50.369  11.750  -5.870  1.00  0.00     0.053 C 
BRANCH   4   5
ATOM      5  C   UNL     1      49.996  11.483  -7.296  1.00  0.00     0.041 C 
ATOM      6  O   UNL     1      49.694  10.318  -7.665  1.00  0.00    -0.550 OA
ATOM      7  O   UNL     1      49.950  12.529  -8.209  1.00  0.00    -0.550 OA
ENDBRANCH   4   5
ENDBRANCH   3   4
ENDBRANCH   2   3
ENDBRANCH   1   2
BRANCH   1   8
ATOM      8  C   UNL     1      46.495  12.787  -6.778  1.00  0.00     0.000 C 
BRANCH   8   9
ATOM      9  C   UNL     1      45.644  12.131  -7.871  1.00  0.00     0.006 C 
BRANCH   9  10
ATOM     10  C   UNL     1      46.227  12.404  -9.261  1.00  0.00     0.053 C 
BRANCH  10  11
ATOM     11  C   UNL     1      46.984  11.212  -9.755  1.00  0.00     0.041 C 
ATOM     12  O   UNL     1      47.900  11.352 -10.609  1.00  0.00    -0.550 OA
ATOM     13  O   UNL     1      46.714   9.952  -9.236  1.00  0.00    -0.550 OA
ENDBRANCH  10  11
ENDBRANCH   9  10
ENDBRANCH   8   9
ENDBRANCH   1   8
TORSDOF 8
ENDMDL
MODEL 4
REMARK VINA RESULT:    -4.470     20.182     21.644
REMARK INTER + INTRA:          -7.228
REMARK INTER:                  -6.570
REMARK INTRA:                  -0.658
REMARK UNBOUND:                -0.667
REMARK SMILES O=C([O-])CCCCCCCC(=O)[O-]
REMARK SMILES IDX 7 1 6 2 5 3 4 4 2 5 1 6 3 7 8 8 9 9 10 10 11 11 12 12 13 13
REMARK H PARENT
REMARK Flexibility Score: inf
ROOT
ATOM      1  C   UNL     1      49.782  12.312  -8.914  1.00  0.00     0.000 C 
ENDROOT
BRANCH   1   2
ATOM      2  C   UNL     1      48.875  11.940 -10.096  1.00  0.00     0.000 C 
BRANCH   2   3
ATOM      3  C   UNL     1      47.758  10.955  -9.705  1.00  0.00     0.006 C 
BRANCH   3   4
ATOM      4  C   UNL     1      46.411  11.222 -10.395  1.00  0.00     0.053 C 
BRANCH   4   5
ATOM      5  C   UNL     1      45.442  11.916  -9.487  1.00  0.00     0.041 C 
ATOM      6  O   UNL     1      45.843  12.812  -8.699  1.00  0.00    -0.550 OA
ATOM      7  O   UNL     1      44.092  11.594  -9.535  1.00  0.00    -0.550 OA
ENDBRANCH   4   5
ENDBRANCH   3   4
ENDBRANCH   2   3
ENDBRANCH   1   2
BRANCH   1   8
ATOM      8  C   UNL     1      49.071  12.066  -7.578  1.00  0.00     0.000 C 
BRANCH   8   9
ATOM      9  C   UNL     1      49.984  11.320  -6.598  1.00  0.00     0.006 C 
BRANCH   9  10
ATOM     10  C   UNL     1      50.445   9.982  -7.185  1.00  0.00     0.053 C 
BRANCH  10  11
ATOM     11  C   UNL     1      49.378   8.946  -7.027  1.00  0.00     0.041 C 
ATOM     12  O   UNL     1      49.172   8.103  -7.940  1.00  0.00    -0.550 OA
ATOM     13  O   UNL     1      48.642   8.879  -5.850  1.00  0.00    -0.550 OA
ENDBRANCH  10  11
ENDBRANCH   9  10
ENDBRANCH   8   9
ENDBRANCH   1   8
TORSDOF 8
ENDMDL
MODEL 5
REMARK VINA RESULT:    -4.457      2.235      3.357
REMARK INTER + INTRA:          -7.209
REMARK INTER:                  -6.423
REMARK INTRA:                  -0.786
REMARK UNBOUND:                -0.667
REMARK SMILES O=C([O-])CCCCCCCC(=O)[O-]
REMARK SMILES IDX 7 1 6 2 5 3 4 4 2 5 1 6 3 7 8 8 9 9 10 10 11 11 12 12 13 13
REMARK H PARENT
REMARK Flexibility Score: inf
ROOT
ATOM      1  C   UNL     1      38.399   2.039   6.594  1.00  0.00     0.000 C 
ENDROOT
BRANCH   1   2
ATOM      2  C   UNL     1      37.821   0.666   6.968  1.00  0.00     0.000 C 
BRANCH   2   3
ATOM      3  C   UNL     1      36.814   0.139   5.930  1.00  0.00     0.006 C 
BRANCH   3   4
ATOM      4  C   UNL     1      35.546  -0.482   6.538  1.00  0.00     0.053 C 
BRANCH   4   5
ATOM      5  C   UNL     1      34.308   0.255   6.128  1.00  0.00     0.041 C 
ATOM      6  O   UNL     1      34.350   1.092   5.188  1.00  0.00    -0.550 OA
ATOM      7  O   UNL     1      33.101  -0.007   6.763  1.00  0.00    -0.550 OA
ENDBRANCH   4   5
ENDBRANCH   3   4
ENDBRANCH   2   3
ENDBRANCH   1   2
BRANCH   1   8
ATOM      8  C   UNL     1      37.280   3.055   6.338  1.00  0.00     0.000 C 
BRANCH   8   9
ATOM      9  C   UNL     1      36.831   3.720   7.645  1.00  0.00     0.006 C 
BRANCH   9  10
ATOM     10  C   UNL     1      35.372   3.377   7.964  1.00  0.00     0.053 C 
BRANCH  10  11
ATOM     11  C   UNL     1      34.448   4.333   7.279  1.00  0.00     0.041 C 
ATOM     12  O   UNL     1      34.747   5.554   7.195  1.00  0.00    -0.550 OA
ATOM     13  O   UNL     1      33.279   3.869   6.689  1.00  0.00    -0.550 OA
ENDBRANCH  10  11
ENDBRANCH   9  10
ENDBRANCH   8   9
ENDBRANCH   1   8
TORSDOF 8
ENDMDL
MODEL 6
REMARK VINA RESULT:    -4.452      1.598      4.486
REMARK INTER + INTRA:          -7.201
REMARK INTER:                  -6.713
REMARK INTRA:                  -0.488
REMARK UNBOUND:                -0.667
REMARK SMILES O=C([O-])CCCCCCCC(=O)[O-]
REMARK SMILES IDX 7 1 6 2 5 3 4 4 2 5 1 6 3 7 8 8 9 9 10 10 11 11 12 12 13 13
REMARK H PARENT
REMARK Flexibility Score: inf
ROOT
ATOM      1  C   UNL     1      33.899   2.714   3.551  1.00  0.00     0.000 C 
ENDROOT
BRANCH   1   2
ATOM      2  C   UNL     1      33.140   3.476   4.648  1.00  0.00     0.000 C 
BRANCH   2   3
ATOM      3  C   UNL     1      34.054   3.936   5.799  1.00  0.00     0.006 C 
BRANCH   3   4
ATOM      4  C   UNL     1      33.570   3.518   7.196  1.00  0.00     0.053 C 
BRANCH   4   5
ATOM      5  C   UNL     1      34.572   2.660   7.905  1.00  0.00     0.041 C 
ATOM      6  O   UNL     1      35.742   2.546   7.453  1.00  0.00    -0.550 OA
ATOM      7  O   UNL     1      34.223   2.013   9.083  1.00  0.00    -0.550 OA
ENDBRANCH   4   5
ENDBRANCH   3   4
ENDBRANCH   2   3
ENDBRANCH   1   2
BRANCH   1   8
ATOM      8  C   UNL     1      34.792   1.624   4.157  1.00  0.00     0.000 C 
BRANCH   8   9
ATOM      9  C   UNL     1      34.587   0.285   3.440  1.00  0.00     0.006 C 
BRANCH   9  10
ATOM     10  C   UNL     1      34.681  -0.886   4.424  1.00  0.00     0.053 C 
BRANCH  10  11
ATOM     11  C   UNL     1      36.018  -0.901   5.094  1.00  0.00     0.041 C 
ATOM     12  O   UNL     1      36.105  -0.740   6.340  1.00  0.00    -0.550 OA
ATOM     13  O   UNL     1      37.167  -1.141   4.350  1.00  0.00    -0.550 OA
ENDBRANCH  10  11
ENDBRANCH   9  10
ENDBRANCH   8   9
ENDBRANCH   1   8
TORSDOF 8
ENDMDL
MODEL 7
REMARK VINA RESULT:    -4.418      1.739      2.557
REMARK INTER + INTRA:          -7.152
REMARK INTER:                  -6.586
REMARK INTRA:                  -0.566
REMARK UNBOUND:                -0.667
REMARK SMILES O=C([O-])CCCCCCCC(=O)[O-]
REMARK SMILES IDX 7 1 6 2 5 3 4 4 2 5 1 6 3 7 8 8 9 9 10 10 11 11 12 12 13 13
REMARK H PARENT
REMARK Flexibility Score: inf
ROOT
ATOM      1  C   UNL     1      33.881   2.867   3.527  1.00  0.00     0.000 C 
ENDROOT
BRANCH   1   2
ATOM      2  C   UNL     1      34.926   1.803   3.893  1.00  0.00     0.000 C 
BRANCH   2   3
ATOM      3  C   UNL     1      34.693   0.463   3.170  1.00  0.00     0.006 C 
BRANCH   3   4
ATOM      4  C   UNL     1      34.572  -0.748   4.107  1.00  0.00     0.053 C 
BRANCH   4   5
ATOM      5  C   UNL     1      34.644  -0.351   5.550  1.00  0.00     0.041 C 
ATOM      6  O   UNL     1      33.595  -0.043   6.176  1.00  0.00    -0.550 OA
ATOM      7  O   UNL     1      35.865  -0.353   6.211  1.00  0.00    -0.550 OA
ENDBRANCH   4   5
ENDBRANCH   3   4
ENDBRANCH   2   3
ENDBRANCH   1   2
BRANCH   1   8
ATOM      8  C   UNL     1      33.177   3.399   4.781  1.00  0.00     0.000 C 
BRANCH   8   9
ATOM      9  C   UNL     1      34.194   3.914   5.807  1.00  0.00     0.006 C 
BRANCH   9  10
ATOM     10  C   UNL     1      33.748   3.586   7.235  1.00  0.00     0.053 C 
BRANCH  10  11
ATOM     11  C   UNL     1      34.753   2.705   7.907  1.00  0.00     0.041 C 
ATOM     12  O   UNL     1      34.390   1.894   8.800  1.00  0.00    -0.550 OA
ATOM     13  O   UNL     1      36.086   2.744   7.515  1.00  0.00    -0.550 OA
ENDBRANCH  10  11
ENDBRANCH   9  10
ENDBRANCH   8   9
ENDBRANCH   1   8
TORSDOF 8
ENDMDL
MODEL 8
REMARK VINA RESULT:    -4.403      2.183      4.727
REMARK INTER + INTRA:          -7.129
REMARK INTER:                  -6.414
REMARK INTRA:                  -0.715
REMARK UNBOUND:                -0.667
REMARK SMILES O=C([O-])CCCCCCCC(=O)[O-]
REMARK SMILES IDX 7 1 6 2 5 3 4 4 2 5 1 6 3 7 8 8 9 9 10 10 11 11 12 12 13 13
REMARK H PARENT
REMARK Flexibility Score: inf
ROOT
ATOM      1  C   UNL     1      38.414   1.854   6.873  1.00  0.00     0.000 C 
ENDROOT
BRANCH   1   2
ATOM      2  C   UNL     1      37.507   3.014   6.439  1.00  0.00     0.000 C 
BRANCH   2   3
ATOM      3  C   UNL     1      36.870   3.753   7.631  1.00  0.00     0.006 C 
BRANCH   3   4
ATOM      4  C   UNL     1      35.422   3.336   7.933  1.00  0.00     0.053 C 
BRANCH   4   5
ATOM      5  C   UNL     1      34.428   4.221   7.245  1.00  0.00     0.041 C 
ATOM      6  O   UNL     1      33.302   3.768   6.909  1.00  0.00    -0.550 OA
ATOM      7  O   UNL     1      34.734   5.554   7.005  1.00  0.00    -0.550 OA
ENDBRANCH   4   5
ENDBRANCH   3   4
ENDBRANCH   2   3
ENDBRANCH   1   2
BRANCH   1   8
ATOM      8  C   UNL     1      37.629   0.538   6.940  1.00  0.00     0.000 C 
BRANCH   8   9
ATOM      9  C   UNL     1      37.170   0.100   5.544  1.00  0.00     0.006 C 
BRANCH   9  10
ATOM     10  C   UNL     1      35.899  -0.752   5.626  1.00  0.00     0.053 C 
BRANCH  10  11
ATOM     11  C   UNL     1      34.737   0.081   6.063  1.00  0.00     0.041 C 
ATOM     12  O   UNL     1      34.305   1.005   5.323  1.00  0.00    -0.550 OA
ATOM     13  O   UNL     1      34.098  -0.192   7.266  1.00  0.00    -0.550 OA
ENDBRANCH  10  11
ENDBRANCH   9  10
ENDBRANCH   8   9
ENDBRANCH   1   8
TORSDOF 8
ENDMDL
MODEL 9
REMARK VINA RESULT:    -4.402      1.020      3.898
REMARK INTER + INTRA:          -7.128
REMARK INTER:                  -6.368
REMARK INTRA:                  -0.759
REMARK UNBOUND:                -0.667
REMARK SMILES O=C([O-])CCCCCCCC(=O)[O-]
REMARK SMILES IDX 7 1 6 2 5 3 4 4 2 5 1 6 3 7 8 8 9 9 10 10 11 11 12 12 13 13
REMARK H PARENT
REMARK Flexibility Score: inf
ROOT
ATOM      1  C   UNL     1      35.392  -0.045   3.113  1.00  0.00     0.000 C 
ENDROOT
BRANCH   1   2
ATOM      2  C   UNL     1      34.258   0.987   3.033  1.00  0.00     0.000 C 
BRANCH   2   3
ATOM      3  C   UNL     1      34.646   2.349   3.638  1.00  0.00     0.006 C 
BRANCH   3   4
ATOM      4  C   UNL     1      33.481   3.100   4.302  1.00  0.00     0.053 C 
BRANCH   4   5
ATOM      5  C   UNL     1      33.922   3.862   5.514  1.00  0.00     0.041 C 
ATOM      6  O   UNL     1      33.452   3.578   6.647  1.00  0.00    -0.550 OA
ATOM      7  O   UNL     1      34.877   4.863   5.395  1.00  0.00    -0.550 OA
ENDBRANCH   4   5
ENDBRANCH   3   4
ENDBRANCH   2   3
ENDBRANCH   1   2
BRANCH   1   8
ATOM      8  C   UNL     1      35.101  -1.098   4.189  1.00  0.00     0.000 C 
BRANCH   8   9
ATOM      9  C   UNL     1      36.099  -0.992   5.348  1.00  0.00     0.006 C 
BRANCH   9  10
ATOM     10  C   UNL     1      35.567  -0.070   6.450  1.00  0.00     0.053 C 
BRANCH  10  11
ATOM     11  C   UNL     1      36.437   1.138   6.587  1.00  0.00     0.041 C 
ATOM     12  O   UNL     1      36.237   1.961   7.520  1.00  0.00    -0.550 OA
ATOM     13  O   UNL     1      37.501   1.333   5.716  1.00  0.00    -0.550 OA
ENDBRANCH  10  11
ENDBRANCH   9  10
ENDBRANCH   8   9
ENDBRANCH   1   8
TORSDOF 8
ENDMDL
