MODEL 1
REMARK VINA RESULT:    -4.501      0.000      0.000
REMARK INTER + INTRA:          -6.608
REMARK INTER:                  -6.343
REMARK INTRA:                  -0.266
REMARK UNBOUND:                -0.266
REMARK SMILES C=CCCCCCCC(=O)[O-]
REMARK SMILES IDX 6 1 7 2 8 3 9 4 10 5 11 6 5 7 4 8 3 9 2 10 1 11
REMARK H PARENT
REMARK Flexibility Score: inf
ROOT
ATOM      1  C   UNL     1      25.851  53.456  37.968  1.00  0.00     0.000 C 
ENDROOT
BRANCH   1   2
ATOM      2  C   UNL     1      25.955  52.065  37.307  1.00  0.00     0.006 C 
BRANCH   2   3
ATOM      3  C   UNL     1      24.606  51.336  37.203  1.00  0.00     0.053 C 
BRANCH   3   4
ATOM      4  C   UNL     1      24.740  49.985  36.573  1.00  0.00     0.041 C 
ATOM      5  O   UNL     1      23.732  49.411  36.084  1.00  0.00    -0.550 OA
ATOM      6  O   UNL     1      25.986  49.375  36.493  1.00  0.00    -0.550 OA
ENDBRANCH   3   4
ENDBRANCH   2   3
ENDBRANCH   1   2
BRANCH   1   7
ATOM      7  C   UNL     1      27.202  54.202  38.044  1.00  0.00     0.000 C 
BRANCH   7   8
ATOM      8  C   UNL     1      28.359  53.325  38.552  1.00  0.00     0.004 C 
BRANCH   8   9
ATOM      9  C   UNL     1      29.628  54.134  38.854  1.00  0.00     0.027 C 
BRANCH   9  10
ATOM     10  C   UNL     1      29.295  55.557  39.209  1.00  0.00    -0.035 C 
ATOM     11  C   UNL     1      30.065  56.276  40.031  1.00  0.00     0.004 C 
ENDBRANCH   9  10
ENDBRANCH   8   9
ENDBRANCH   7   8
ENDBRANCH   1   7
TORSDOF 7
ENDMDL
MODEL 2
REMARK VINA RESULT:    -4.442      2.973      6.495
REMARK INTER + INTRA:          -6.526
REMARK INTER:                  -6.259
REMARK INTRA:                  -0.267
REMARK UNBOUND:                -0.266
REMARK SMILES C=CCCCCCCC(=O)[O-]
REMARK SMILES IDX 6 1 7 2 8 3 9 4 10 5 11 6 5 7 4 8 3 9 2 10 1 11
REMARK H PARENT
REMARK Flexibility Score: inf
ROOT
ATOM      1  C   UNL     1      25.376  52.912  37.200  1.00  0.00     0.000 C 
ENDROOT
BRANCH   1   2
ATOM      2  C   UNL     1      26.501  53.089  38.244  1.00  0.00     0.006 C 
BRANCH   2   3
ATOM      3  C   UNL     1      27.359  54.342  38.010  1.00  0.00     0.053 C 
BRANCH   3   4
ATOM      4  C   UNL     1      28.672  54.270  38.724  1.00  0.00     0.041 C 
ATOM      5  O   UNL     1      29.188  55.311  39.209  1.00  0.00    -0.550 OA
ATOM      6  O   UNL     1      29.310  53.046  38.886  1.00  0.00    -0.550 OA
ENDBRANCH   3   4
ENDBRANCH   2   3
ENDBRANCH   1   2
BRANCH   1   7
ATOM      7  C   UNL     1      24.757  51.497  37.200  1.00  0.00     0.000 C 
BRANCH   7   8
ATOM      8  C   UNL     1      25.753  50.392  36.809  1.00  0.00     0.004 C 
BRANCH   8   9
ATOM      9  C   UNL     1      25.060  49.079  36.420  1.00  0.00     0.027 C 
BRANCH   9  10
ATOM     10  C   UNL     1      23.621  49.311  36.051  1.00  0.00    -0.035 C 
ATOM     11  C   UNL     1      22.948  48.461  35.269  1.00  0.00     0.004 C 
ENDBRANCH   9  10
ENDBRANCH   8   9
ENDBRANCH   7   8
ENDBRANCH   1   7
TORSDOF 7
ENDMDL
MODEL 3
REMARK VINA RESULT:    -4.284      1.703      2.892
REMARK INTER + INTRA:          -6.303
REMARK INTER:                  -6.081
REMARK INTRA:                  -0.222
REMARK UNBOUND:                -0.266
REMARK SMILES C=CCCCCCCC(=O)[O-]
REMARK SMILES IDX 6 1 7 2 8 3 9 4 10 5 11 6 5 7 4 8 3 9 2 10 1 11
REMARK H PARENT
REMARK Flexibility Score: inf
ROOT
ATOM      1  C   UNL     1      25.793  50.627  36.819  1.00  0.00     0.000 C 
ENDROOT
BRANCH   1   2
ATOM      2  C   UNL     1      24.976  49.348  36.535  1.00  0.00     0.006 C 
BRANCH   2   3
ATOM      3  C   UNL     1      23.511  49.628  36.163  1.00  0.00     0.053 C 
BRANCH   3   4
ATOM      4  C   UNL     1      22.910  48.519  35.358  1.00  0.00     0.041 C 
ATOM      5  O   UNL     1      21.708  48.584  34.989  1.00  0.00    -0.550 OA
ATOM      6  O   UNL     1      23.687  47.429  34.985  1.00  0.00    -0.550 OA
ENDBRANCH   3   4
ENDBRANCH   2   3
ENDBRANCH   1   2
BRANCH   1   7
ATOM      7  C   UNL     1      24.924  51.819  37.279  1.00  0.00     0.000 C 
BRANCH   7   8
ATOM      8  C   UNL     1      25.676  52.818  38.175  1.00  0.00     0.004 C 
BRANCH   8   9
ATOM      9  C   UNL     1      26.572  53.774  37.376  1.00  0.00     0.027 C 
BRANCH   9  10
ATOM     10  C   UNL     1      27.459  54.576  38.287  1.00  0.00    -0.035 C 
ATOM     11  C   UNL     1      28.695  54.175  38.598  1.00  0.00     0.004 C 
ENDBRANCH   9  10
ENDBRANCH   8   9
ENDBRANCH   7   8
ENDBRANCH   1   7
TORSDOF 7
ENDMDL
MODEL 4
REMARK VINA RESULT:    -4.154      4.227      6.754
REMARK INTER + INTRA:          -6.119
REMARK INTER:                  -5.887
REMARK INTRA:                  -0.232
REMARK UNBOUND:                -0.266
REMARK SMILES C=CCCCCCCC(=O)[O-]
REMARK SMILES IDX 6 1 7 2 8 3 9 4 10 5 11 6 5 7 4 8 3 9 2 10 1 11
REMARK H PARENT
REMARK Flexibility Score: inf
ROOT
ATOM      1  C   UNL     1      28.143  53.324  38.389  1.00  0.00     0.000 C 
ENDROOT
BRANCH   1   2
ATOM      2  C   UNL     1      29.302  54.257  38.804  1.00  0.00     0.006 C 
BRANCH   2   3
ATOM      3  C   UNL     1      28.841  55.675  39.177  1.00  0.00     0.053 C 
BRANCH   3   4
ATOM      4  C   UNL     1      29.888  56.430  39.934  1.00  0.00     0.041 C 
ATOM      5  O   UNL     1      29.691  57.629  40.263  1.00  0.00    -0.550 OA
ATOM      6  O   UNL     1      31.068  55.798  40.307  1.00  0.00    -0.550 OA
ENDBRANCH   3   4
ENDBRANCH   2   3
ENDBRANCH   1   2
BRANCH   1   7
ATOM      7  C   UNL     1      26.864  54.084  37.973  1.00  0.00     0.000 C 
BRANCH   7   8
ATOM      8  C   UNL     1      25.904  53.245  37.112  1.00  0.00     0.004 C 
BRANCH   8   9
ATOM      9  C   UNL     1      25.236  52.111  37.901  1.00  0.00     0.027 C 
BRANCH   9  10
ATOM     10  C   UNL     1      24.561  51.132  36.981  1.00  0.00    -0.035 C 
ATOM     11  C   UNL     1      25.029  49.893  36.805  1.00  0.00     0.004 C 
ENDBRANCH   9  10
ENDBRANCH   8   9
ENDBRANCH   7   8
ENDBRANCH   1   7
TORSDOF 7
ENDMDL
MODEL 5
REMARK VINA RESULT:    -4.003     11.581     12.823
REMARK INTER + INTRA:          -5.906
REMARK INTER:                  -5.496
REMARK INTRA:                  -0.410
REMARK UNBOUND:                -0.266
REMARK SMILES C=CCCCCCCC(=O)[O-]
REMARK SMILES IDX 6 1 7 2 8 3 9 4 10 5 11 6 5 7 4 8 3 9 2 10 1 11
REMARK H PARENT
REMARK Flexibility Score: inf
ROOT
ATOM      1  C   UNL     1      34.849  44.475  40.676  1.00  0.00     0.000 C 
ENDROOT
BRANCH   1   2
ATOM      2  C   UNL     1      35.278  43.496  39.561  1.00  0.00     0.006 C 
BRANCH   2   3
ATOM      3  C   UNL     1      36.339  44.077  38.612  1.00  0.00     0.053 C 
BRANCH   3   4
ATOM      4  C   UNL     1      36.274  43.466  37.248  1.00  0.00     0.041 C 
ATOM      5  O   UNL     1      36.153  42.219  37.118  1.00  0.00    -0.550 OA
ATOM      6  O   UNL     1      36.310  44.276  36.120  1.00  0.00    -0.550 OA
ENDBRANCH   3   4
ENDBRANCH   2   3
ENDBRANCH   1   2
BRANCH   1   7
ATOM      7  C   UNL     1      34.486  43.771  42.002  1.00  0.00     0.000 C 
BRANCH   7   8
ATOM      8  C   UNL     1      33.192  44.301  42.644  1.00  0.00     0.004 C 
BRANCH   8   9
ATOM      9  C   UNL     1      32.126  43.211  42.819  1.00  0.00     0.027 C 
BRANCH   9  10
ATOM     10  C   UNL     1      31.452  42.895  41.512  1.00  0.00    -0.035 C 
ATOM     11  C   UNL     1      31.104  43.854  40.650  1.00  0.00     0.004 C 
ENDBRANCH   9  10
ENDBRANCH   8   9
ENDBRANCH   7   8
ENDBRANCH   1   7
TORSDOF 7
ENDMDL
MODEL 6
REMARK VINA RESULT:    -3.976     12.244     13.301
REMARK INTER + INTRA:          -5.869
REMARK INTER:                  -5.423
REMARK INTRA:                  -0.446
REMARK UNBOUND:                -0.266
REMARK SMILES C=CCCCCCCC(=O)[O-]
REMARK SMILES IDX 6 1 7 2 8 3 9 4 10 5 11 6 5 7 4 8 3 9 2 10 1 11
REMARK H PARENT
REMARK Flexibility Score: inf
ROOT
ATOM      1  C   UNL     1      34.822  43.246  41.079  1.00  0.00     0.000 C 
ENDROOT
BRANCH   1   2
ATOM      2  C   UNL     1      34.822  42.174  39.967  1.00  0.00     0.006 C 
BRANCH   2   3
ATOM      3  C   UNL     1      36.138  42.116  39.174  1.00  0.00     0.053 C 
BRANCH   3   4
ATOM      4  C   UNL     1      36.208  43.173  38.117  1.00  0.00     0.041 C 
ATOM      5  O   UNL     1      36.601  44.334  38.407  1.00  0.00    -0.550 OA
ATOM      6  O   UNL     1      35.873  42.867  36.804  1.00  0.00    -0.550 OA
ENDBRANCH   3   4
ENDBRANCH   2   3
ENDBRANCH   1   2
BRANCH   1   7
ATOM      7  C   UNL     1      33.580  44.164  41.046  1.00  0.00     0.000 C 
BRANCH   7   8
ATOM      8  C   UNL     1      32.248  43.396  41.089  1.00  0.00     0.004 C 
BRANCH   8   9
ATOM      9  C   UNL     1      31.624  43.368  42.490  1.00  0.00     0.027 C 
BRANCH   9  10
ATOM     10  C   UNL     1      32.106  42.180  43.277  1.00  0.00    -0.035 C 
ATOM     11  C   UNL     1      33.080  42.286  44.186  1.00  0.00     0.004 C 
ENDBRANCH   9  10
ENDBRANCH   8   9
ENDBRANCH   7   8
ENDBRANCH   1   7
TORSDOF 7
ENDMDL
MODEL 7
REMARK VINA RESULT:    -3.970     11.781     12.732
REMARK INTER + INTRA:          -5.860
REMARK INTER:                  -5.569
REMARK INTRA:                  -0.291
REMARK UNBOUND:                -0.266
REMARK SMILES C=CCCCCCCC(=O)[O-]
REMARK SMILES IDX 6 1 7 2 8 3 9 4 10 5 11 6 5 7 4 8 3 9 2 10 1 11
REMARK H PARENT
REMARK Flexibility Score: inf
ROOT
ATOM      1  C   UNL     1      36.297  43.590  38.334  1.00  0.00     0.000 C 
ENDROOT
BRANCH   1   2
ATOM      2  C   UNL     1      36.015  43.552  36.816  1.00  0.00     0.006 C 
BRANCH   2   3
ATOM      3  C   UNL     1      36.456  44.828  36.081  1.00  0.00     0.053 C 
BRANCH   3   4
ATOM      4  C   UNL     1      35.774  44.983  34.758  1.00  0.00     0.041 C 
ATOM      5  O   UNL     1      34.585  44.596  34.609  1.00  0.00    -0.550 OA
ATOM      6  O   UNL     1      36.439  45.588  33.699  1.00  0.00    -0.550 OA
ENDBRANCH   3   4
ENDBRANCH   2   3
ENDBRANCH   1   2
BRANCH   1   7
ATOM      7  C   UNL     1      35.576  42.472  39.120  1.00  0.00     0.000 C 
BRANCH   7   8
ATOM      8  C   UNL     1      34.741  42.993  40.302  1.00  0.00     0.004 C 
BRANCH   8   9
ATOM      9  C   UNL     1      34.981  44.482  40.588  1.00  0.00     0.027 C 
BRANCH   9  10
ATOM     10  C   UNL     1      34.312  44.904  41.867  1.00  0.00    -0.035 C 
ATOM     11  C   UNL     1      33.385  44.147  42.461  1.00  0.00     0.004 C 
ENDBRANCH   9  10
ENDBRANCH   8   9
ENDBRANCH   7   8
ENDBRANCH   1   7
TORSDOF 7
ENDMDL
MODEL 8
REMARK VINA RESULT:    -3.933     12.112     13.059
REMARK INTER + INTRA:          -5.808
REMARK INTER:                  -5.558
REMARK INTRA:                  -0.250
REMARK UNBOUND:                -0.266
REMARK SMILES C=CCCCCCCC(=O)[O-]
REMARK SMILES IDX 6 1 7 2 8 3 9 4 10 5 11 6 5 7 4 8 3 9 2 10 1 11
REMARK H PARENT
REMARK Flexibility Score: inf
ROOT
ATOM      1  C   UNL     1      34.816  43.822  40.321  1.00  0.00     0.000 C 
ENDROOT
BRANCH   1   2
ATOM      2  C   UNL     1      33.432  43.851  41.006  1.00  0.00     0.006 C 
BRANCH   2   3
ATOM      3  C   UNL     1      33.507  44.079  42.524  1.00  0.00     0.053 C 
BRANCH   3   4
ATOM      4  C   UNL     1      32.768  43.027  43.290  1.00  0.00     0.041 C 
ATOM      5  O   UNL     1      31.601  42.699  42.951  1.00  0.00    -0.550 OA
ATOM      6  O   UNL     1      33.381  42.384  44.358  1.00  0.00    -0.550 OA
ENDBRANCH   3   4
ENDBRANCH   2   3
ENDBRANCH   1   2
BRANCH   1   7
ATOM      7  C   UNL     1      35.267  42.403  39.909  1.00  0.00     0.000 C 
BRANCH   7   8
ATOM      8  C   UNL     1      35.989  42.358  38.552  1.00  0.00     0.004 C 
BRANCH   8   9
ATOM      9  C   UNL     1      36.361  43.753  38.030  1.00  0.00     0.027 C 
BRANCH   9  10
ATOM     10  C   UNL     1      36.441  43.769  36.528  1.00  0.00    -0.035 C 
ATOM     11  C   UNL     1      36.176  44.870  35.820  1.00  0.00     0.004 C 
ENDBRANCH   9  10
ENDBRANCH   8   9
ENDBRANCH   7   8
ENDBRANCH   1   7
TORSDOF 7
ENDMDL
