MODEL 1
REMARK VINA RESULT:    -4.577      0.000      0.000
REMARK INTER + INTRA:          -8.670
REMARK INTER:                  -6.985
REMARK INTRA:                  -1.684
REMARK UNBOUND:                -1.684
REMARK SMILES CC(=O)CCC=C(C)CCC=C(C)CCC=C(C)C
REMARK SMILES IDX 10 1 11 2 12 3 13 4 14 5 15 6 16 7 18 8 17 9 19 10 9 11 7 12
REMARK SMILES IDX 6 13 8 14 5 15 4 16 2 17 3 18 1 19
REMARK H PARENT
REMARK Flexibility Score: inf
ROOT
ATOM      1  C   UNL     1      55.136 -16.322  -4.553  1.00  0.00     0.032 C 
ENDROOT
BRANCH   1   2
ATOM      2  C   UNL     1      56.313 -15.957  -3.684  1.00  0.00    -0.028 C 
ATOM      3  C   UNL     1      57.569 -15.757  -4.144  1.00  0.00    -0.077 C 
ATOM      4  C   UNL     1      57.931 -15.961  -5.596  1.00  0.00     0.039 C 
BRANCH   3   5
ATOM      5  C   UNL     1      58.665 -15.386  -3.167  1.00  0.00     0.034 C 
BRANCH   5   6
ATOM      6  C   UNL     1      58.720 -16.358  -1.979  1.00  0.00     0.032 C 
BRANCH   6   7
ATOM      7  C   UNL     1      59.856 -17.345  -2.108  1.00  0.00    -0.028 C 
ATOM      8  C   UNL     1      61.836 -18.621  -1.416  1.00  0.00     0.039 C 
ATOM      9  C   UNL     1      60.792 -17.565  -1.160  1.00  0.00    -0.080 C 
ATOM     10  C   UNL     1      60.830 -16.778   0.128  1.00  0.00     0.039 C 
ENDBRANCH   6   7
ENDBRANCH   5   6
ENDBRANCH   3   5
ENDBRANCH   1   2
BRANCH   1  11
ATOM     11  C   UNL     1      54.857 -17.828  -4.489  1.00  0.00     0.034 C 
BRANCH  11  12
ATOM     12  C   UNL     1      54.650 -18.276  -3.059  1.00  0.00    -0.077 C 
ATOM     13  C   UNL     1      55.633 -18.969  -2.439  1.00  0.00    -0.028 C 
ATOM     14  C   UNL     1      53.344 -17.955  -2.372  1.00  0.00     0.039 C 
BRANCH  13  15
ATOM     15  C   UNL     1      55.572 -19.443  -1.009  1.00  0.00     0.035 C 
BRANCH  15  16
ATOM     16  C   UNL     1      56.727 -18.855  -0.192  1.00  0.00     0.079 C 
BRANCH  16  17
ATOM     17  C   UNL     1      57.411 -19.928   0.611  1.00  0.00     0.130 C 
ATOM     18  O   UNL     1      56.741 -20.803   1.139  1.00  0.00    -0.300 OA
ATOM     19  C   UNL     1      58.902 -19.953   0.773  1.00  0.00     0.087 C 
ENDBRANCH  16  17
ENDBRANCH  15  16
ENDBRANCH  13  15
ENDBRANCH  11  12
ENDBRANCH   1  11
TORSDOF 9
ENDMDL
MODEL 2
REMARK VINA RESULT:    -4.566      2.983      5.120
REMARK INTER + INTRA:          -8.653
REMARK INTER:                  -6.780
REMARK INTRA:                  -1.873
REMARK UNBOUND:                -1.684
REMARK SMILES CC(=O)CCC=C(C)CCC=C(C)CCC=C(C)C
REMARK SMILES IDX 10 1 11 2 12 3 13 4 14 5 15 6 16 7 18 8 17 9 19 10 9 11 7 12
REMARK SMILES IDX 6 13 8 14 5 15 4 16 2 17 3 18 1 19
REMARK H PARENT
REMARK Flexibility Score: inf
ROOT
ATOM      1  C   UNL     1      56.750 -19.655   0.469  1.00  0.00     0.032 C 
ENDROOT
BRANCH   1   2
ATOM      2  C   UNL     1      56.938 -19.026  -0.888  1.00  0.00    -0.028 C 
ATOM      3  C   UNL     1      57.337 -17.750  -1.091  1.00  0.00    -0.077 C 
ATOM      4  C   UNL     1      57.562 -16.792   0.055  1.00  0.00     0.039 C 
BRANCH   3   5
ATOM      5  C   UNL     1      57.496 -17.240  -2.507  1.00  0.00     0.034 C 
BRANCH   5   6
ATOM      6  C   UNL     1      58.945 -16.823  -2.803  1.00  0.00     0.032 C 
BRANCH   6   7
ATOM      7  C   UNL     1      59.933 -17.892  -2.402  1.00  0.00    -0.028 C 
ATOM      8  C   UNL     1      61.885 -18.862  -1.272  1.00  0.00     0.039 C 
ATOM      9  C   UNL     1      61.019 -17.681  -1.628  1.00  0.00    -0.080 C 
ATOM     10  C   UNL     1      61.394 -16.306  -1.129  1.00  0.00     0.039 C 
ENDBRANCH   6   7
ENDBRANCH   5   6
ENDBRANCH   3   5
ENDBRANCH   1   2
BRANCH   1  11
ATOM     11  C   UNL     1      57.990 -20.460   0.873  1.00  0.00     0.034 C 
BRANCH  11  12
ATOM     12  C   UNL     1      58.645 -19.861   2.099  1.00  0.00    -0.077 C 
ATOM     13  C   UNL     1      57.952 -19.821   3.260  1.00  0.00    -0.028 C 
ATOM     14  C   UNL     1      60.045 -19.307   1.985  1.00  0.00     0.039 C 
BRANCH  13  15
ATOM     15  C   UNL     1      58.495 -19.286   4.561  1.00  0.00     0.035 C 
BRANCH  15  16
ATOM     16  C   UNL     1      58.899 -20.433   5.493  1.00  0.00     0.079 C 
BRANCH  16  17
ATOM     17  C   UNL     1      60.341 -20.301   5.905  1.00  0.00     0.130 C 
ATOM     18  O   UNL     1      60.617 -19.759   6.964  1.00  0.00    -0.300 OA
ATOM     19  C   UNL     1      61.451 -20.829   5.045  1.00  0.00     0.087 C 
ENDBRANCH  16  17
ENDBRANCH  15  16
ENDBRANCH  13  15
ENDBRANCH  11  12
ENDBRANCH   1  11
TORSDOF 9
ENDMDL
MODEL 3
REMARK VINA RESULT:    -4.476      3.049      5.898
REMARK INTER + INTRA:          -8.516
REMARK INTER:                  -7.127
REMARK INTRA:                  -1.389
REMARK UNBOUND:                -1.684
REMARK SMILES CC(=O)CCC=C(C)CCC=C(C)CCC=C(C)C
REMARK SMILES IDX 10 1 11 2 12 3 13 4 14 5 15 6 16 7 18 8 17 9 19 10 9 11 7 12
REMARK SMILES IDX 6 13 8 14 5 15 4 16 2 17 3 18 1 19
REMARK H PARENT
REMARK Flexibility Score: inf
ROOT
ATOM      1  C   UNL     1      55.091 -18.630  -3.277  1.00  0.00     0.032 C 
ENDROOT
BRANCH   1   2
ATOM      2  C   UNL     1      55.368 -18.925  -1.824  1.00  0.00    -0.028 C 
ATOM      3  C   UNL     1      56.555 -18.708  -1.213  1.00  0.00    -0.077 C 
ATOM      4  C   UNL     1      57.763 -18.210  -1.970  1.00  0.00     0.039 C 
BRANCH   3   5
ATOM      5  C   UNL     1      56.703 -19.039   0.256  1.00  0.00     0.034 C 
BRANCH   5   6
ATOM      6  C   UNL     1      57.648 -20.229   0.479  1.00  0.00     0.032 C 
BRANCH   6   7
ATOM      7  C   UNL     1      58.556 -20.015   1.667  1.00  0.00    -0.028 C 
ATOM      8  C   UNL     1      60.604 -19.387   2.866  1.00  0.00     0.039 C 
ATOM      9  C   UNL     1      59.840 -19.605   1.586  1.00  0.00    -0.080 C 
ATOM     10  C   UNL     1      60.527 -19.377   0.260  1.00  0.00     0.039 C 
ENDBRANCH   6   7
ENDBRANCH   5   6
ENDBRANCH   3   5
ENDBRANCH   1   2
BRANCH   1  11
ATOM     11  C   UNL     1      54.300 -17.326  -3.427  1.00  0.00     0.034 C 
BRANCH  11  12
ATOM     12  C   UNL     1      55.217 -16.180  -3.792  1.00  0.00    -0.077 C 
ATOM     13  C   UNL     1      55.983 -16.281  -4.902  1.00  0.00    -0.028 C 
ATOM     14  C   UNL     1      55.266 -14.965  -2.896  1.00  0.00     0.039 C 
BRANCH  13  15
ATOM     15  C   UNL     1      56.911 -15.201  -5.401  1.00  0.00     0.035 C 
BRANCH  15  16
ATOM     16  C   UNL     1      56.194 -14.286  -6.398  1.00  0.00     0.079 C 
BRANCH  16  17
ATOM     17  C   UNL     1      56.866 -14.335  -7.744  1.00  0.00     0.130 C 
ATOM     18  O   UNL     1      57.741 -15.162  -7.949  1.00  0.00    -0.300 OA
ATOM     19  C   UNL     1      56.478 -13.395  -8.846  1.00  0.00     0.087 C 
ENDBRANCH  16  17
ENDBRANCH  15  16
ENDBRANCH  13  15
ENDBRANCH  11  12
ENDBRANCH   1  11
TORSDOF 9
ENDMDL
MODEL 4
REMARK VINA RESULT:    -4.435      2.247      3.950
REMARK INTER + INTRA:          -8.453
REMARK INTER:                  -6.158
REMARK INTRA:                  -2.295
REMARK UNBOUND:                -1.684
REMARK SMILES CC(=O)CCC=C(C)CCC=C(C)CCC=C(C)C
REMARK SMILES IDX 10 1 11 2 12 3 13 4 14 5 15 6 16 7 18 8 17 9 19 10 9 11 7 12
REMARK SMILES IDX 6 13 8 14 5 15 4 16 2 17 3 18 1 19
REMARK H PARENT
REMARK Flexibility Score: inf
ROOT
ATOM      1  C   UNL     1      59.012 -17.015  -3.021  1.00  0.00     0.032 C 
ENDROOT
BRANCH   1   2
ATOM      2  C   UNL     1      59.938 -18.018  -2.379  1.00  0.00    -0.028 C 
ATOM      3  C   UNL     1      61.045 -17.693  -1.674  1.00  0.00    -0.077 C 
ATOM      4  C   UNL     1      61.509 -16.263  -1.528  1.00  0.00     0.039 C 
BRANCH   3   5
ATOM      5  C   UNL     1      61.889 -18.795  -1.070  1.00  0.00     0.034 C 
BRANCH   5   6
ATOM      6  C   UNL     1      61.093 -19.631  -0.057  1.00  0.00     0.032 C 
BRANCH   6   7
ATOM      7  C   UNL     1      60.445 -18.770   1.001  1.00  0.00    -0.028 C 
ATOM      8  C   UNL     1      59.895 -17.995   3.265  1.00  0.00     0.039 C 
ATOM      9  C   UNL     1      60.560 -18.972   2.331  1.00  0.00    -0.080 C 
ATOM     10  C   UNL     1      61.316 -20.150   2.900  1.00  0.00     0.039 C 
ENDBRANCH   6   7
ENDBRANCH   5   6
ENDBRANCH   3   5
ENDBRANCH   1   2
BRANCH   1  11
ATOM     11  C   UNL     1      57.571 -17.218  -2.539  1.00  0.00     0.034 C 
BRANCH  11  12
ATOM     12  C   UNL     1      57.471 -17.018  -1.043  1.00  0.00    -0.077 C 
ATOM     13  C   UNL     1      56.938 -18.002  -0.283  1.00  0.00    -0.028 C 
ATOM     14  C   UNL     1      57.950 -15.716  -0.443  1.00  0.00     0.039 C 
BRANCH  13  15
ATOM     15  C   UNL     1      56.813 -17.948   1.219  1.00  0.00     0.035 C 
BRANCH  15  16
ATOM     16  C   UNL     1      56.057 -19.173   1.745  1.00  0.00     0.079 C 
BRANCH  16  17
ATOM     17  C   UNL     1      57.018 -20.266   2.130  1.00  0.00     0.130 C 
ATOM     18  O   UNL     1      57.667 -20.829   1.261  1.00  0.00    -0.300 OA
ATOM     19  C   UNL     1      57.203 -20.676   3.560  1.00  0.00     0.087 C 
ENDBRANCH  16  17
ENDBRANCH  15  16
ENDBRANCH  13  15
ENDBRANCH  11  12
ENDBRANCH   1  11
TORSDOF 9
ENDMDL
MODEL 5
REMARK VINA RESULT:    -4.432      2.382      6.162
REMARK INTER + INTRA:          -8.449
REMARK INTER:                  -6.016
REMARK INTRA:                  -2.433
REMARK UNBOUND:                -1.684
REMARK SMILES CC(=O)CCC=C(C)CCC=C(C)CCC=C(C)C
REMARK SMILES IDX 10 1 11 2 12 3 13 4 14 5 15 6 16 7 18 8 17 9 19 10 9 11 7 12
REMARK SMILES IDX 6 13 8 14 5 15 4 16 2 17 3 18 1 19
REMARK H PARENT
REMARK Flexibility Score: inf
ROOT
ATOM      1  C   UNL     1      61.425 -18.072  -0.952  1.00  0.00     0.032 C 
ENDROOT
BRANCH   1   2
ATOM      2  C   UNL     1      60.760 -19.135  -0.115  1.00  0.00    -0.028 C 
ATOM      3  C   UNL     1      59.891 -18.885   0.891  1.00  0.00    -0.077 C 
ATOM      4  C   UNL     1      59.559 -17.478   1.327  1.00  0.00     0.039 C 
BRANCH   3   5
ATOM      5  C   UNL     1      59.285 -20.045   1.652  1.00  0.00     0.034 C 
BRANCH   5   6
ATOM      6  C   UNL     1      57.776 -19.858   1.866  1.00  0.00     0.032 C 
BRANCH   6   7
ATOM      7  C   UNL     1      56.994 -20.065   0.591  1.00  0.00    -0.028 C 
ATOM      8  C   UNL     1      55.460 -19.500  -1.241  1.00  0.00     0.039 C 
ATOM      9  C   UNL     1      56.128 -19.170   0.068  1.00  0.00    -0.080 C 
ATOM     10  C   UNL     1      55.803 -17.869   0.763  1.00  0.00     0.039 C 
ENDBRANCH   6   7
ENDBRANCH   5   6
ENDBRANCH   3   5
ENDBRANCH   1   2
BRANCH   1  11
ATOM     11  C   UNL     1      60.755 -17.963  -2.327  1.00  0.00     0.034 C 
BRANCH  11  12
ATOM     12  C   UNL     1      59.597 -16.991  -2.286  1.00  0.00    -0.077 C 
ATOM     13  C   UNL     1      58.347 -17.448  -2.524  1.00  0.00    -0.028 C 
ATOM     14  C   UNL     1      59.874 -15.533  -2.003  1.00  0.00     0.039 C 
BRANCH  13  15
ATOM     15  C   UNL     1      57.103 -16.597  -2.480  1.00  0.00     0.035 C 
BRANCH  15  16
ATOM     16  C   UNL     1      56.437 -16.536  -3.858  1.00  0.00     0.079 C 
BRANCH  16  17
ATOM     17  C   UNL     1      57.097 -15.496  -4.723  1.00  0.00     0.130 C 
ATOM     18  O   UNL     1      56.893 -14.312  -4.501  1.00  0.00    -0.300 OA
ATOM     19  C   UNL     1      58.008 -15.881  -5.850  1.00  0.00     0.087 C 
ENDBRANCH  16  17
ENDBRANCH  15  16
ENDBRANCH  13  15
ENDBRANCH  11  12
ENDBRANCH   1  11
TORSDOF 9
ENDMDL
MODEL 6
REMARK VINA RESULT:    -4.405      1.981      4.151
REMARK INTER + INTRA:          -8.408
REMARK INTER:                  -6.461
REMARK INTRA:                  -1.946
REMARK UNBOUND:                -1.684
REMARK SMILES CC(=O)CCC=C(C)CCC=C(C)CCC=C(C)C
REMARK SMILES IDX 10 1 11 2 12 3 13 4 14 5 15 6 16 7 18 8 17 9 19 10 9 11 7 12
REMARK SMILES IDX 6 13 8 14 5 15 4 16 2 17 3 18 1 19
REMARK H PARENT
REMARK Flexibility Score: inf
ROOT
ATOM      1  C   UNL     1      54.248 -18.157  -3.019  1.00  0.00     0.032 C 
ENDROOT
BRANCH   1   2
ATOM      2  C   UNL     1      54.985 -17.436  -4.119  1.00  0.00    -0.028 C 
ATOM      3  C   UNL     1      55.103 -16.091  -4.207  1.00  0.00    -0.077 C 
ATOM      4  C   UNL     1      54.425 -15.164  -3.226  1.00  0.00     0.039 C 
BRANCH   3   5
ATOM      5  C   UNL     1      55.877 -15.490  -5.360  1.00  0.00     0.034 C 
BRANCH   5   6
ATOM      6  C   UNL     1      57.326 -15.998  -5.400  1.00  0.00     0.032 C 
BRANCH   6   7
ATOM      7  C   UNL     1      58.156 -15.426  -4.275  1.00  0.00    -0.028 C 
ATOM      8  C   UNL     1      59.371 -13.713  -3.002  1.00  0.00     0.039 C 
ATOM      9  C   UNL     1      58.594 -14.150  -4.217  1.00  0.00    -0.080 C 
ATOM     10  C   UNL     1      58.342 -13.164  -5.334  1.00  0.00     0.039 C 
ENDBRANCH   6   7
ENDBRANCH   5   6
ENDBRANCH   3   5
ENDBRANCH   1   2
BRANCH   1  11
ATOM     11  C   UNL     1      55.190 -19.099  -2.260  1.00  0.00     0.034 C 
BRANCH  11  12
ATOM     12  C   UNL     1      56.302 -18.324  -1.590  1.00  0.00    -0.077 C 
ATOM     13  C   UNL     1      57.583 -18.573  -1.947  1.00  0.00    -0.028 C 
ATOM     14  C   UNL     1      55.953 -17.310  -0.527  1.00  0.00     0.039 C 
BRANCH  13  15
ATOM     15  C   UNL     1      58.782 -17.850  -1.386  1.00  0.00     0.035 C 
BRANCH  15  16
ATOM     16  C   UNL     1      59.933 -17.841  -2.397  1.00  0.00     0.079 C 
BRANCH  16  17
ATOM     17  C   UNL     1      61.244 -17.567  -1.709  1.00  0.00     0.130 C 
ATOM     18  O   UNL     1      61.879 -18.496  -1.234  1.00  0.00    -0.300 OA
ATOM     19  C   UNL     1      61.792 -16.176  -1.599  1.00  0.00     0.087 C 
ENDBRANCH  16  17
ENDBRANCH  15  16
ENDBRANCH  13  15
ENDBRANCH  11  12
ENDBRANCH   1  11
TORSDOF 9
ENDMDL
MODEL 7
REMARK VINA RESULT:    -4.403      2.070      5.102
REMARK INTER + INTRA:          -8.404
REMARK INTER:                  -6.483
REMARK INTRA:                  -1.921
REMARK UNBOUND:                -1.684
REMARK SMILES CC(=O)CCC=C(C)CCC=C(C)CCC=C(C)C
REMARK SMILES IDX 10 1 11 2 12 3 13 4 14 5 15 6 16 7 18 8 17 9 19 10 9 11 7 12
REMARK SMILES IDX 6 13 8 14 5 15 4 16 2 17 3 18 1 19
REMARK H PARENT
REMARK Flexibility Score: inf
ROOT
ATOM      1  C   UNL     1      57.850 -19.860   1.156  1.00  0.00     0.032 C 
ENDROOT
BRANCH   1   2
ATOM      2  C   UNL     1      59.058 -19.791   0.257  1.00  0.00    -0.028 C 
ATOM      3  C   UNL     1      60.313 -19.519   0.682  1.00  0.00    -0.077 C 
ATOM      4  C   UNL     1      60.611 -19.174   2.122  1.00  0.00     0.039 C 
BRANCH   3   5
ATOM      5  C   UNL     1      61.445 -19.487  -0.322  1.00  0.00     0.034 C 
BRANCH   5   6
ATOM      6  C   UNL     1      61.576 -18.109  -0.988  1.00  0.00     0.032 C 
BRANCH   6   7
ATOM      7  C   UNL     1      60.531 -17.896  -2.057  1.00  0.00    -0.028 C 
ATOM      8  C   UNL     1      58.587 -16.869  -3.150  1.00  0.00     0.039 C 
ATOM      9  C   UNL     1      59.523 -17.001  -1.976  1.00  0.00    -0.080 C 
ATOM     10  C   UNL     1      59.301 -16.151  -0.748  1.00  0.00     0.039 C 
ENDBRANCH   6   7
ENDBRANCH   5   6
ENDBRANCH   3   5
ENDBRANCH   1   2
BRANCH   1  11
ATOM     11  C   UNL     1      57.186 -18.484   1.283  1.00  0.00     0.034 C 
BRANCH  11  12
ATOM     12  C   UNL     1      56.186 -18.264   0.169  1.00  0.00    -0.077 C 
ATOM     13  C   UNL     1      55.800 -19.319  -0.585  1.00  0.00    -0.028 C 
ATOM     14  C   UNL     1      55.664 -16.869  -0.083  1.00  0.00     0.039 C 
BRANCH  13  15
ATOM     15  C   UNL     1      54.788 -19.247  -1.700  1.00  0.00     0.035 C 
BRANCH  15  16
ATOM     16  C   UNL     1      55.469 -18.921  -3.033  1.00  0.00     0.079 C 
BRANCH  16  17
ATOM     17  C   UNL     1      54.690 -17.877  -3.788  1.00  0.00     0.130 C 
ATOM     18  O   UNL     1      55.284 -17.086  -4.504  1.00  0.00    -0.300 OA
ATOM     19  C   UNL     1      53.197 -17.791  -3.686  1.00  0.00     0.087 C 
ENDBRANCH  16  17
ENDBRANCH  15  16
ENDBRANCH  13  15
ENDBRANCH  11  12
ENDBRANCH   1  11
TORSDOF 9
ENDMDL
MODEL 8
REMARK VINA RESULT:    -4.379      2.722      5.428
REMARK INTER + INTRA:          -8.367
REMARK INTER:                  -6.703
REMARK INTRA:                  -1.664
REMARK UNBOUND:                -1.684
REMARK SMILES CC(=O)CCC=C(C)CCC=C(C)CCC=C(C)C
REMARK SMILES IDX 10 1 11 2 12 3 13 4 14 5 15 6 16 7 18 8 17 9 19 10 9 11 7 12
REMARK SMILES IDX 6 13 8 14 5 15 4 16 2 17 3 18 1 19
REMARK H PARENT
REMARK Flexibility Score: inf
ROOT
ATOM      1  C   UNL     1      61.171 -17.641  -1.880  1.00  0.00     0.032 C 
ENDROOT
BRANCH   1   2
ATOM      2  C   UNL     1      61.367 -18.770  -0.900  1.00  0.00    -0.028 C 
ATOM      3  C   UNL     1      61.011 -18.720   0.404  1.00  0.00    -0.077 C 
ATOM      4  C   UNL     1      60.443 -17.469   1.030  1.00  0.00     0.039 C 
BRANCH   3   5
ATOM      5  C   UNL     1      61.254 -19.928   1.284  1.00  0.00     0.034 C 
BRANCH   5   6
ATOM      6  C   UNL     1      60.636 -19.749   2.679  1.00  0.00     0.032 C 
BRANCH   6   7
ATOM      7  C   UNL     1      61.605 -20.113   3.778  1.00  0.00    -0.028 C 
ATOM      8  C   UNL     1      62.331 -20.902   5.987  1.00  0.00     0.039 C 
ATOM      9  C   UNL     1      61.245 -20.526   5.012  1.00  0.00    -0.080 C 
ATOM     10  C   UNL     1      59.800 -20.603   5.442  1.00  0.00     0.039 C 
ENDBRANCH   6   7
ENDBRANCH   5   6
ENDBRANCH   3   5
ENDBRANCH   1   2
BRANCH   1  11
ATOM     11  C   UNL     1      59.986 -17.926  -2.810  1.00  0.00     0.034 C 
BRANCH  11  12
ATOM     12  C   UNL     1      58.687 -17.473  -2.179  1.00  0.00    -0.077 C 
ATOM     13  C   UNL     1      57.883 -18.394  -1.601  1.00  0.00    -0.028 C 
ATOM     14  C   UNL     1      58.316 -16.010  -2.233  1.00  0.00     0.039 C 
BRANCH  13  15
ATOM     15  C   UNL     1      56.582 -18.076  -0.907  1.00  0.00     0.035 C 
BRANCH  15  16
ATOM     16  C   UNL     1      56.807 -17.849   0.591  1.00  0.00     0.079 C 
BRANCH  16  17
ATOM     17  C   UNL     1      56.307 -19.024   1.389  1.00  0.00     0.130 C 
ATOM     18  O   UNL     1      55.232 -18.946   1.965  1.00  0.00    -0.300 OA
ATOM     19  C   UNL     1      57.096 -20.296   1.485  1.00  0.00     0.087 C 
ENDBRANCH  16  17
ENDBRANCH  15  16
ENDBRANCH  13  15
ENDBRANCH  11  12
ENDBRANCH   1  11
TORSDOF 9
ENDMDL
MODEL 9
REMARK VINA RESULT:    -4.292      2.720      5.722
REMARK INTER + INTRA:          -8.234
REMARK INTER:                  -6.653
REMARK INTRA:                  -1.581
REMARK UNBOUND:                -1.684
REMARK SMILES CC(=O)CCC=C(C)CCC=C(C)CCC=C(C)C
REMARK SMILES IDX 10 1 11 2 12 3 13 4 14 5 15 6 16 7 18 8 17 9 19 10 9 11 7 12
REMARK SMILES IDX 6 13 8 14 5 15 4 16 2 17 3 18 1 19
REMARK H PARENT
REMARK Flexibility Score: inf
ROOT
ATOM      1  C   UNL     1      55.839 -18.844  -0.834  1.00  0.00     0.032 C 
ENDROOT
BRANCH   1   2
ATOM      2  C   UNL     1      56.902 -19.628  -0.109  1.00  0.00    -0.028 C 
ATOM      3  C   UNL     1      57.562 -19.189   0.987  1.00  0.00    -0.077 C 
ATOM      4  C   UNL     1      57.342 -17.806   1.551  1.00  0.00     0.039 C 
BRANCH   3   5
ATOM      5  C   UNL     1      58.605 -20.079   1.629  1.00  0.00     0.034 C 
BRANCH   5   6
ATOM      6  C   UNL     1      59.992 -19.420   1.631  1.00  0.00     0.032 C 
BRANCH   6   7
ATOM      7  C   UNL     1      60.565 -19.306   0.238  1.00  0.00    -0.028 C 
ATOM      8  C   UNL     1      61.536 -18.200  -1.727  1.00  0.00     0.039 C 
ATOM      9  C   UNL     1      60.932 -18.146  -0.348  1.00  0.00    -0.080 C 
ATOM     10  C   UNL     1      60.738 -16.810   0.328  1.00  0.00     0.039 C 
ENDBRANCH   6   7
ENDBRANCH   5   6
ENDBRANCH   3   5
ENDBRANCH   1   2
BRANCH   1  11
ATOM     11  C   UNL     1      56.121 -18.807  -2.341  1.00  0.00     0.034 C 
BRANCH  11  12
ATOM     12  C   UNL     1      56.621 -17.443  -2.762  1.00  0.00    -0.077 C 
ATOM     13  C   UNL     1      56.023 -16.816  -3.801  1.00  0.00    -0.028 C 
ATOM     14  C   UNL     1      57.787 -16.829  -2.024  1.00  0.00     0.039 C 
BRANCH  13  15
ATOM     15  C   UNL     1      56.396 -15.443  -4.300  1.00  0.00     0.035 C 
BRANCH  15  16
ATOM     16  C   UNL     1      57.373 -15.539  -5.475  1.00  0.00     0.079 C 
BRANCH  16  17
ATOM     17  C   UNL     1      57.089 -14.467  -6.493  1.00  0.00     0.130 C 
ATOM     18  O   UNL     1      56.806 -13.340  -6.116  1.00  0.00    -0.300 OA
ATOM     19  C   UNL     1      57.153 -14.749  -7.964  1.00  0.00     0.087 C 
ENDBRANCH  16  17
ENDBRANCH  15  16
ENDBRANCH  13  15
ENDBRANCH  11  12
ENDBRANCH   1  11
TORSDOF 9
ENDMDL
