MODEL 1
REMARK VINA RESULT:    -5.530      0.000      0.000
REMARK INTER + INTRA:         -13.283
REMARK INTER:                 -10.703
REMARK INTRA:                  -2.579
REMARK UNBOUND:                -2.579
REMARK SMILES CCCCCCCCCCCCCCCCCC(=O)[O-]
REMARK SMILES IDX 10 1 11 2 12 3 13 4 14 5 15 6 16 7 17 8 18 9 19 10 20 11
REMARK SMILES IDX 9 12 8 13 7 14 6 15 5 16 4 17 3 18 2 19 1 20
REMARK H PARENT
REMARK Flexibility Score: inf
ROOT
ATOM      1  C   UNL     1      16.381  -3.095  16.304  1.00  0.00     0.000 C 
ENDROOT
BRANCH   1   2
ATOM      2  C   UNL     1      17.394  -4.181  16.710  1.00  0.00     0.000 C 
BRANCH   2   3
ATOM      3  C   UNL     1      17.563  -5.322  15.691  1.00  0.00     0.000 C 
BRANCH   3   4
ATOM      4  C   UNL     1      16.291  -6.155  15.422  1.00  0.00     0.000 C 
BRANCH   4   5
ATOM      5  C   UNL     1      15.990  -6.419  13.936  1.00  0.00     0.000 C 
BRANCH   5   6
ATOM      6  C   UNL     1      16.810  -5.523  12.993  1.00  0.00     0.000 C 
BRANCH   6   7
ATOM      7  C   UNL     1      16.106  -5.276  11.646  1.00  0.00     0.006 C 
BRANCH   7   8
ATOM      8  C   UNL     1      14.598  -5.573  11.660  1.00  0.00     0.053 C 
BRANCH   8   9
ATOM      9  C   UNL     1      13.964  -5.332  10.325  1.00  0.00     0.041 C 
ATOM     10  O   UNL     1      12.838  -4.775  10.249  1.00  0.00    -0.550 OA
ATOM     11  O   UNL     1      14.604  -5.750   9.165  1.00  0.00    -0.550 OA
ENDBRANCH   8   9
ENDBRANCH   7   8
ENDBRANCH   6   7
ENDBRANCH   5   6
ENDBRANCH   4   5
ENDBRANCH   3   4
ENDBRANCH   2   3
ENDBRANCH   1   2
BRANCH   1  12
ATOM     12  C   UNL     1      15.141  -3.023  17.227  1.00  0.00     0.000 C 
BRANCH  12  13
ATOM     13  C   UNL     1      13.842  -3.565  16.598  1.00  0.00    -0.000 C 
BRANCH  13  14
ATOM     14  C   UNL     1      13.804  -3.559  15.054  1.00  0.00    -0.000 C 
BRANCH  14  15
ATOM     15  C   UNL     1      12.504  -3.017  14.427  1.00  0.00    -0.000 C 
BRANCH  15  16
ATOM     16  C   UNL     1      12.666  -1.732  13.596  1.00  0.00    -0.000 C 
BRANCH  16  17
ATOM     17  C   UNL     1      13.510  -1.943  12.328  1.00  0.00    -0.000 C 
BRANCH  17  18
ATOM     18  C   UNL     1      14.761  -1.050  12.297  1.00  0.00    -0.000 C 
BRANCH  18  19
ATOM     19  C   UNL     1      16.012  -1.764  12.831  1.00  0.00    -0.003 C 
ATOM     20  C   UNL     1      17.083  -0.758  13.243  1.00  0.00     0.004 C 
ENDBRANCH  18  19
ENDBRANCH  17  18
ENDBRANCH  16  17
ENDBRANCH  15  16
ENDBRANCH  14  15
ENDBRANCH  13  14
ENDBRANCH  12  13
ENDBRANCH   1  12
TORSDOF 16
ENDMDL
MODEL 2
REMARK VINA RESULT:    -5.487      2.104      5.223
REMARK INTER + INTRA:         -13.198
REMARK INTER:                 -10.484
REMARK INTRA:                  -2.714
REMARK UNBOUND:                -2.579
REMARK SMILES CCCCCCCCCCCCCCCCCC(=O)[O-]
REMARK SMILES IDX 10 1 11 2 12 3 13 4 14 5 15 6 16 7 17 8 18 9 19 10 20 11
REMARK SMILES IDX 9 12 8 13 7 14 6 15 5 16 4 17 3 18 2 19 1 20
REMARK H PARENT
REMARK Flexibility Score: inf
ROOT
ATOM      1  C   UNL     1      16.669  -5.955  10.729  1.00  0.00     0.000 C 
ENDROOT
BRANCH   1   2
ATOM      2  C   UNL     1      15.598  -5.044  10.103  1.00  0.00     0.000 C 
BRANCH   2   3
ATOM      3  C   UNL     1      14.164  -5.602  10.151  1.00  0.00     0.000 C 
BRANCH   3   4
ATOM      4  C   UNL     1      13.114  -4.660  10.778  1.00  0.00     0.000 C 
BRANCH   4   5
ATOM      5  C   UNL     1      13.211  -4.503  12.306  1.00  0.00     0.000 C 
BRANCH   5   6
ATOM      6  C   UNL     1      12.514  -3.233  12.821  1.00  0.00     0.000 C 
BRANCH   6   7
ATOM      7  C   UNL     1      13.500  -2.222  13.435  1.00  0.00     0.006 C 
BRANCH   7   8
ATOM      8  C   UNL     1      14.948  -2.375  12.942  1.00  0.00     0.053 C 
BRANCH   8   9
ATOM      9  C   UNL     1      15.526  -1.073  12.482  1.00  0.00     0.041 C 
ATOM     10  O   UNL     1      16.651  -0.695  12.902  1.00  0.00    -0.550 OA
ATOM     11  O   UNL     1      14.809  -0.261  11.612  1.00  0.00    -0.550 OA
ENDBRANCH   8   9
ENDBRANCH   7   8
ENDBRANCH   6   7
ENDBRANCH   5   6
ENDBRANCH   4   5
ENDBRANCH   3   4
ENDBRANCH   2   3
ENDBRANCH   1   2
BRANCH   1  12
ATOM     12  C   UNL     1      17.451  -5.292  11.887  1.00  0.00     0.000 C 
BRANCH  12  13
ATOM     13  C   UNL     1      16.796  -5.447  13.274  1.00  0.00    -0.000 C 
BRANCH  13  14
ATOM     14  C   UNL     1      15.973  -6.738  13.474  1.00  0.00    -0.000 C 
BRANCH  14  15
ATOM     15  C   UNL     1      15.017  -6.732  14.684  1.00  0.00    -0.000 C 
BRANCH  15  16
ATOM     16  C   UNL     1      15.427  -5.796  15.835  1.00  0.00    -0.000 C 
BRANCH  16  17
ATOM     17  C   UNL     1      14.463  -4.609  16.010  1.00  0.00    -0.000 C 
BRANCH  17  18
ATOM     18  C   UNL     1      15.119  -3.418  16.727  1.00  0.00    -0.000 C 
BRANCH  18  19
ATOM     19  C   UNL     1      16.567  -3.178  16.274  1.00  0.00    -0.003 C 
ATOM     20  C   UNL     1      17.511  -3.104  17.470  1.00  0.00     0.004 C 
ENDBRANCH  18  19
ENDBRANCH  17  18
ENDBRANCH  16  17
ENDBRANCH  15  16
ENDBRANCH  14  15
ENDBRANCH  13  14
ENDBRANCH  12  13
ENDBRANCH   1  12
TORSDOF 16
ENDMDL
MODEL 3
REMARK VINA RESULT:    -5.446      2.194      5.538
REMARK INTER + INTRA:         -13.119
REMARK INTER:                 -10.862
REMARK INTRA:                  -2.257
REMARK UNBOUND:                -2.579
REMARK SMILES CCCCCCCCCCCCCCCCCC(=O)[O-]
REMARK SMILES IDX 10 1 11 2 12 3 13 4 14 5 15 6 16 7 17 8 18 9 19 10 20 11
REMARK SMILES IDX 9 12 8 13 7 14 6 15 5 16 4 17 3 18 2 19 1 20
REMARK H PARENT
REMARK Flexibility Score: inf
ROOT
ATOM      1  C   UNL     1      16.493  -5.601  11.406  1.00  0.00     0.000 C 
ENDROOT
BRANCH   1   2
ATOM      2  C   UNL     1      16.238  -5.595   9.887  1.00  0.00     0.000 C 
BRANCH   2   3
ATOM      3  C   UNL     1      14.753  -5.601   9.480  1.00  0.00     0.000 C 
BRANCH   3   4
ATOM      4  C   UNL     1      13.752  -5.687  10.652  1.00  0.00     0.000 C 
BRANCH   4   5
ATOM      5  C   UNL     1      12.916  -4.417  10.887  1.00  0.00     0.000 C 
BRANCH   5   6
ATOM      6  C   UNL     1      12.835  -4.022  12.371  1.00  0.00     0.000 C 
BRANCH   6   7
ATOM      7  C   UNL     1      13.440  -2.634  12.650  1.00  0.00     0.006 C 
BRANCH   7   8
ATOM      8  C   UNL     1      14.862  -2.444  12.096  1.00  0.00     0.053 C 
BRANCH   8   9
ATOM      9  C   UNL     1      15.321  -1.022  12.201  1.00  0.00     0.041 C 
ATOM     10  O   UNL     1      16.270  -0.717  12.969  1.00  0.00    -0.550 OA
ATOM     11  O   UNL     1      14.679  -0.028  11.473  1.00  0.00    -0.550 OA
ENDBRANCH   8   9
ENDBRANCH   7   8
ENDBRANCH   6   7
ENDBRANCH   5   6
ENDBRANCH   4   5
ENDBRANCH   3   4
ENDBRANCH   2   3
ENDBRANCH   1   2
BRANCH   1  12
ATOM     12  C   UNL     1      17.968  -5.870  11.789  1.00  0.00     0.000 C 
BRANCH  12  13
ATOM     13  C   UNL     1      18.678  -4.685  12.473  1.00  0.00    -0.000 C 
BRANCH  13  14
ATOM     14  C   UNL     1      17.931  -4.075  13.678  1.00  0.00    -0.000 C 
BRANCH  14  15
ATOM     15  C   UNL     1      18.411  -4.551  15.064  1.00  0.00    -0.000 C 
BRANCH  15  16
ATOM     16  C   UNL     1      17.296  -5.011  16.020  1.00  0.00    -0.000 C 
BRANCH  16  17
ATOM     17  C   UNL     1      16.296  -5.970  15.351  1.00  0.00    -0.000 C 
BRANCH  17  18
ATOM     18  C   UNL     1      14.886  -5.369  15.244  1.00  0.00    -0.000 C 
BRANCH  18  19
ATOM     19  C   UNL     1      14.524  -4.487  16.448  1.00  0.00    -0.003 C 
ATOM     20  C   UNL     1      13.507  -3.418  16.059  1.00  0.00     0.004 C 
ENDBRANCH  18  19
ENDBRANCH  17  18
ENDBRANCH  16  17
ENDBRANCH  15  16
ENDBRANCH  14  15
ENDBRANCH  13  14
ENDBRANCH  12  13
ENDBRANCH   1  12
TORSDOF 16
ENDMDL
MODEL 4
REMARK VINA RESULT:    -5.442      1.449      2.535
REMARK INTER + INTRA:         -13.112
REMARK INTER:                 -10.848
REMARK INTRA:                  -2.264
REMARK UNBOUND:                -2.579
REMARK SMILES CCCCCCCCCCCCCCCCCC(=O)[O-]
REMARK SMILES IDX 10 1 11 2 12 3 13 4 14 5 15 6 16 7 17 8 18 9 19 10 20 11
REMARK SMILES IDX 9 12 8 13 7 14 6 15 5 16 4 17 3 18 2 19 1 20
REMARK H PARENT
REMARK Flexibility Score: inf
ROOT
ATOM      1  C   UNL     1      19.084  -3.448  15.479  1.00  0.00     0.000 C 
ENDROOT
BRANCH   1   2
ATOM      2  C   UNL     1      18.745  -2.457  14.351  1.00  0.00     0.000 C 
BRANCH   2   3
ATOM      3  C   UNL     1      18.908  -3.018  12.926  1.00  0.00     0.000 C 
BRANCH   3   4
ATOM      4  C   UNL     1      18.940  -4.558  12.827  1.00  0.00     0.000 C 
BRANCH   4   5
ATOM      5  C   UNL     1      17.563  -5.228  12.674  1.00  0.00     0.000 C 
BRANCH   5   6
ATOM      6  C   UNL     1      17.413  -5.987  11.345  1.00  0.00     0.000 C 
BRANCH   6   7
ATOM      7  C   UNL     1      16.231  -5.477  10.500  1.00  0.00     0.006 C 
BRANCH   7   8
ATOM      8  C   UNL     1      14.864  -5.599  11.191  1.00  0.00     0.053 C 
BRANCH   8   9
ATOM      9  C   UNL     1      13.732  -5.306  10.256  1.00  0.00     0.041 C 
ATOM     10  O   UNL     1      12.847  -4.469  10.574  1.00  0.00    -0.550 OA
ATOM     11  O   UNL     1      13.636  -5.981   9.045  1.00  0.00    -0.550 OA
ENDBRANCH   8   9
ENDBRANCH   7   8
ENDBRANCH   6   7
ENDBRANCH   5   6
ENDBRANCH   4   5
ENDBRANCH   3   4
ENDBRANCH   2   3
ENDBRANCH   1   2
BRANCH   1  12
ATOM     12  C   UNL     1      17.845  -3.966  16.246  1.00  0.00     0.000 C 
BRANCH  12  13
ATOM     13  C   UNL     1      17.290  -2.990  17.303  1.00  0.00    -0.000 C 
BRANCH  13  14
ATOM     14  C   UNL     1      15.751  -2.942  17.413  1.00  0.00    -0.000 C 
BRANCH  14  15
ATOM     15  C   UNL     1      14.989  -3.842  16.419  1.00  0.00    -0.000 C 
BRANCH  15  16
ATOM     16  C   UNL     1      13.604  -3.321  15.996  1.00  0.00    -0.000 C 
BRANCH  16  17
ATOM     17  C   UNL     1      13.499  -3.068  14.481  1.00  0.00    -0.000 C 
BRANCH  17  18
ATOM     18  C   UNL     1      14.875  -2.957  13.806  1.00  0.00    -0.000 C 
BRANCH  18  19
ATOM     19  C   UNL     1      14.827  -2.168  12.489  1.00  0.00    -0.003 C 
ATOM     20  C   UNL     1      15.815  -1.005  12.511  1.00  0.00     0.004 C 
ENDBRANCH  18  19
ENDBRANCH  17  18
ENDBRANCH  16  17
ENDBRANCH  15  16
ENDBRANCH  14  15
ENDBRANCH  13  14
ENDBRANCH  12  13
ENDBRANCH   1  12
TORSDOF 16
ENDMDL
MODEL 5
REMARK VINA RESULT:    -5.435      1.263      2.371
REMARK INTER + INTRA:         -13.098
REMARK INTER:                 -10.129
REMARK INTRA:                  -2.969
REMARK UNBOUND:                -2.579
REMARK SMILES CCCCCCCCCCCCCCCCCC(=O)[O-]
REMARK SMILES IDX 10 1 11 2 12 3 13 4 14 5 15 6 16 7 17 8 18 9 19 10 20 11
REMARK SMILES IDX 9 12 8 13 7 14 6 15 5 16 4 17 3 18 2 19 1 20
REMARK H PARENT
REMARK Flexibility Score: inf
ROOT
ATOM      1  C   UNL     1      13.746  -3.737  16.369  1.00  0.00     0.000 C 
ENDROOT
BRANCH   1   2
ATOM      2  C   UNL     1      15.263  -3.612  16.136  1.00  0.00     0.000 C 
BRANCH   2   3
ATOM      3  C   UNL     1      15.994  -4.946  15.897  1.00  0.00     0.000 C 
BRANCH   3   4
ATOM      4  C   UNL     1      15.075  -6.169  15.690  1.00  0.00     0.000 C 
BRANCH   4   5
ATOM      5  C   UNL     1      14.921  -6.626  14.229  1.00  0.00     0.000 C 
BRANCH   5   6
ATOM      6  C   UNL     1      16.092  -6.178  13.338  1.00  0.00     0.000 C 
BRANCH   6   7
ATOM      7  C   UNL     1      15.631  -5.684  11.954  1.00  0.00     0.006 C 
BRANCH   7   8
ATOM      8  C   UNL     1      14.155  -5.980  11.639  1.00  0.00     0.053 C 
BRANCH   8   9
ATOM      9  C   UNL     1      13.716  -5.348  10.354  1.00  0.00     0.041 C 
ATOM     10  O   UNL     1      12.769  -4.519  10.347  1.00  0.00    -0.550 OA
ATOM     11  O   UNL     1      14.332  -5.699   9.160  1.00  0.00    -0.550 OA
ENDBRANCH   8   9
ENDBRANCH   7   8
ENDBRANCH   6   7
ENDBRANCH   5   6
ENDBRANCH   4   5
ENDBRANCH   3   4
ENDBRANCH   2   3
ENDBRANCH   1   2
BRANCH   1  12
ATOM     12  C   UNL     1      12.891  -3.001  15.311  1.00  0.00     0.000 C 
BRANCH  12  13
ATOM     13  C   UNL     1      13.246  -3.343  13.850  1.00  0.00    -0.000 C 
BRANCH  13  14
ATOM     14  C   UNL     1      13.448  -2.127  12.919  1.00  0.00    -0.000 C 
BRANCH  14  15
ATOM     15  C   UNL     1      14.787  -2.095  12.155  1.00  0.00    -0.000 C 
BRANCH  15  16
ATOM     16  C   UNL     1      15.651  -0.846  12.401  1.00  0.00    -0.000 C 
BRANCH  16  17
ATOM     17  C   UNL     1      16.884  -1.136  13.274  1.00  0.00    -0.000 C 
BRANCH  17  18
ATOM     18  C   UNL     1      17.235  -2.631  13.320  1.00  0.00    -0.000 C 
BRANCH  18  19
ATOM     19  C   UNL     1      18.708  -2.884  13.675  1.00  0.00    -0.003 C 
ATOM     20  C   UNL     1      19.386  -3.753  12.619  1.00  0.00     0.004 C 
ENDBRANCH  18  19
ENDBRANCH  17  18
ENDBRANCH  16  17
ENDBRANCH  15  16
ENDBRANCH  14  15
ENDBRANCH  13  14
ENDBRANCH  12  13
ENDBRANCH   1  12
TORSDOF 16
ENDMDL
MODEL 6
REMARK VINA RESULT:    -5.435      1.924      4.664
REMARK INTER + INTRA:         -13.097
REMARK INTER:                 -10.743
REMARK INTRA:                  -2.354
REMARK UNBOUND:                -2.579
REMARK SMILES CCCCCCCCCCCCCCCCCC(=O)[O-]
REMARK SMILES IDX 10 1 11 2 12 3 13 4 14 5 15 6 16 7 17 8 18 9 19 10 20 11
REMARK SMILES IDX 9 12 8 13 7 14 6 15 5 16 4 17 3 18 2 19 1 20
REMARK H PARENT
REMARK Flexibility Score: inf
ROOT
ATOM      1  C   UNL     1      15.271  -4.948  10.914  1.00  0.00     0.000 C 
ENDROOT
BRANCH   1   2
ATOM      2  C   UNL     1      16.605  -5.656  10.618  1.00  0.00     0.000 C 
BRANCH   2   3
ATOM      3  C   UNL     1      17.462  -5.969  11.858  1.00  0.00     0.000 C 
BRANCH   3   4
ATOM      4  C   UNL     1      18.435  -4.847  12.282  1.00  0.00     0.000 C 
BRANCH   4   5
ATOM      5  C   UNL     1      17.892  -3.887  13.354  1.00  0.00     0.000 C 
BRANCH   5   6
ATOM      6  C   UNL     1      18.353  -2.435  13.142  1.00  0.00     0.000 C 
BRANCH   6   7
ATOM      7  C   UNL     1      17.179  -1.466  12.909  1.00  0.00     0.006 C 
BRANCH   7   8
ATOM      8  C   UNL     1      15.800  -2.054  13.254  1.00  0.00     0.053 C 
BRANCH   8   9
ATOM      9  C   UNL     1      14.717  -1.497  12.382  1.00  0.00     0.041 C 
ATOM     10  O   UNL     1      13.615  -2.097  12.279  1.00  0.00    -0.550 OA
ATOM     11  O   UNL     1      14.936  -0.332  11.657  1.00  0.00    -0.550 OA
ENDBRANCH   8   9
ENDBRANCH   7   8
ENDBRANCH   6   7
ENDBRANCH   5   6
ENDBRANCH   4   5
ENDBRANCH   3   4
ENDBRANCH   2   3
ENDBRANCH   1   2
BRANCH   1  12
ATOM     12  C   UNL     1      14.277  -5.808  11.730  1.00  0.00     0.000 C 
BRANCH  12  13
ATOM     13  C   UNL     1      14.192  -5.443  13.226  1.00  0.00    -0.000 C 
BRANCH  13  14
ATOM     14  C   UNL     1      14.502  -6.597  14.204  1.00  0.00    -0.000 C 
BRANCH  14  15
ATOM     15  C   UNL     1      15.012  -6.166  15.594  1.00  0.00    -0.000 C 
BRANCH  15  16
ATOM     16  C   UNL     1      15.550  -4.727  15.675  1.00  0.00    -0.000 C 
BRANCH  16  17
ATOM     17  C   UNL     1      14.554  -3.754  16.330  1.00  0.00    -0.000 C 
BRANCH  17  18
ATOM     18  C   UNL     1      15.188  -2.937  17.466  1.00  0.00    -0.000 C 
BRANCH  18  19
ATOM     19  C   UNL     1      16.677  -2.646  17.228  1.00  0.00    -0.003 C 
ATOM     20  C   UNL     1      17.505  -2.971  18.469  1.00  0.00     0.004 C 
ENDBRANCH  18  19
ENDBRANCH  17  18
ENDBRANCH  16  17
ENDBRANCH  15  16
ENDBRANCH  14  15
ENDBRANCH  13  14
ENDBRANCH  12  13
ENDBRANCH   1  12
TORSDOF 16
ENDMDL
MODEL 7
REMARK VINA RESULT:    -5.428      3.260      5.273
REMARK INTER + INTRA:         -13.084
REMARK INTER:                 -10.326
REMARK INTRA:                  -2.758
REMARK UNBOUND:                -2.579
REMARK SMILES CCCCCCCCCCCCCCCCCC(=O)[O-]
REMARK SMILES IDX 10 1 11 2 12 3 13 4 14 5 15 6 16 7 17 8 18 9 19 10 20 11
REMARK SMILES IDX 9 12 8 13 7 14 6 15 5 16 4 17 3 18 2 19 1 20
REMARK H PARENT
REMARK Flexibility Score: inf
ROOT
ATOM      1  C   UNL     1      17.293  -5.170  11.776  1.00  0.00     0.000 C 
ENDROOT
BRANCH   1   2
ATOM      2  C   UNL     1      16.883  -5.595  13.198  1.00  0.00     0.000 C 
BRANCH   2   3
ATOM      3  C   UNL     1      15.870  -6.753  13.261  1.00  0.00     0.000 C 
BRANCH   3   4
ATOM      4  C   UNL     1      14.736  -6.577  14.294  1.00  0.00     0.000 C 
BRANCH   4   5
ATOM      5  C   UNL     1      15.176  -5.993  15.648  1.00  0.00     0.000 C 
BRANCH   5   6
ATOM      6  C   UNL     1      14.489  -4.657  15.973  1.00  0.00     0.000 C 
BRANCH   6   7
ATOM      7  C   UNL     1      15.492  -3.537  16.305  1.00  0.00     0.006 C 
BRANCH   7   8
ATOM      8  C   UNL     1      16.933  -4.028  16.524  1.00  0.00     0.053 C 
BRANCH   8   9
ATOM      9  C   UNL     1      17.654  -3.213  17.553  1.00  0.00     0.041 C 
ATOM     10  O   UNL     1      17.031  -2.744  18.541  1.00  0.00    -0.550 OA
ATOM     11  O   UNL     1      19.010  -2.946  17.405  1.00  0.00    -0.550 OA
ENDBRANCH   8   9
ENDBRANCH   7   8
ENDBRANCH   6   7
ENDBRANCH   5   6
ENDBRANCH   4   5
ENDBRANCH   3   4
ENDBRANCH   2   3
ENDBRANCH   1   2
BRANCH   1  12
ATOM     12  C   UNL     1      16.549  -5.936  10.658  1.00  0.00     0.000 C 
BRANCH  12  13
ATOM     13  C   UNL     1      15.563  -5.079   9.840  1.00  0.00    -0.000 C 
BRANCH  13  14
ATOM     14  C   UNL     1      14.111  -5.602   9.799  1.00  0.00    -0.000 C 
BRANCH  14  15
ATOM     15  C   UNL     1      13.077  -4.744  10.556  1.00  0.00    -0.000 C 
BRANCH  15  16
ATOM     16  C   UNL     1      13.538  -4.225  11.929  1.00  0.00    -0.000 C 
BRANCH  16  17
ATOM     17  C   UNL     1      12.996  -2.821  12.249  1.00  0.00    -0.000 C 
BRANCH  17  18
ATOM     18  C   UNL     1      13.994  -1.974  13.054  1.00  0.00    -0.000 C 
BRANCH  18  19
ATOM     19  C   UNL     1      15.288  -1.686  12.278  1.00  0.00    -0.003 C 
ATOM     20  C   UNL     1      16.508  -1.784  13.190  1.00  0.00     0.004 C 
ENDBRANCH  18  19
ENDBRANCH  17  18
ENDBRANCH  16  17
ENDBRANCH  15  16
ENDBRANCH  14  15
ENDBRANCH  13  14
ENDBRANCH  12  13
ENDBRANCH   1  12
TORSDOF 16
ENDMDL
MODEL 8
REMARK VINA RESULT:    -5.424      2.791      5.044
REMARK INTER + INTRA:         -13.076
REMARK INTER:                 -10.008
REMARK INTRA:                  -3.068
REMARK UNBOUND:                -2.579
REMARK SMILES CCCCCCCCCCCCCCCCCC(=O)[O-]
REMARK SMILES IDX 10 1 11 2 12 3 13 4 14 5 15 6 16 7 17 8 18 9 19 10 20 11
REMARK SMILES IDX 9 12 8 13 7 14 6 15 5 16 4 17 3 18 2 19 1 20
REMARK H PARENT
REMARK Flexibility Score: inf
ROOT
ATOM      1  C   UNL     1      16.944  -5.778  13.361  1.00  0.00     0.000 C 
ENDROOT
BRANCH   1   2
ATOM      2  C   UNL     1      15.809  -6.818  13.385  1.00  0.00     0.000 C 
BRANCH   2   3
ATOM      3  C   UNL     1      14.997  -6.861  14.693  1.00  0.00     0.000 C 
BRANCH   3   4
ATOM      4  C   UNL     1      15.467  -5.881  15.789  1.00  0.00     0.000 C 
BRANCH   4   5
ATOM      5  C   UNL     1      14.431  -4.821  16.201  1.00  0.00     0.000 C 
BRANCH   5   6
ATOM      6  C   UNL     1      15.037  -3.414  16.334  1.00  0.00     0.000 C 
BRANCH   6   7
ATOM      7  C   UNL     1      16.577  -3.425  16.303  1.00  0.00     0.006 C 
BRANCH   7   8
ATOM      8  C   UNL     1      17.190  -2.581  15.173  1.00  0.00     0.053 C 
BRANCH   8   9
ATOM      9  C   UNL     1      18.653  -2.849  15.001  1.00  0.00     0.041 C 
ATOM     10  O   UNL     1      19.361  -3.161  15.994  1.00  0.00    -0.550 OA
ATOM     11  O   UNL     1      19.242  -2.723  13.749  1.00  0.00    -0.550 OA
ENDBRANCH   8   9
ENDBRANCH   7   8
ENDBRANCH   6   7
ENDBRANCH   5   6
ENDBRANCH   4   5
ENDBRANCH   3   4
ENDBRANCH   2   3
ENDBRANCH   1   2
BRANCH   1  12
ATOM     12  C   UNL     1      17.038  -4.990  12.034  1.00  0.00     0.000 C 
BRANCH  12  13
ATOM     13  C   UNL     1      16.638  -5.794  10.781  1.00  0.00    -0.000 C 
BRANCH  13  14
ATOM     14  C   UNL     1      15.487  -5.190   9.949  1.00  0.00    -0.000 C 
BRANCH  14  15
ATOM     15  C   UNL     1      14.068  -5.623  10.370  1.00  0.00    -0.000 C 
BRANCH  15  16
ATOM     16  C   UNL     1      13.176  -4.497  10.921  1.00  0.00    -0.000 C 
BRANCH  16  17
ATOM     17  C   UNL     1      13.338  -4.296  12.438  1.00  0.00    -0.000 C 
BRANCH  17  18
ATOM     18  C   UNL     1      14.113  -3.016  12.784  1.00  0.00    -0.000 C 
BRANCH  18  19
ATOM     19  C   UNL     1      13.201  -1.890  13.293  1.00  0.00    -0.003 C 
ATOM     20  C   UNL     1      12.206  -2.413  14.325  1.00  0.00     0.004 C 
ENDBRANCH  18  19
ENDBRANCH  17  18
ENDBRANCH  16  17
ENDBRANCH  15  16
ENDBRANCH  14  15
ENDBRANCH  13  14
ENDBRANCH  12  13
ENDBRANCH   1  12
TORSDOF 16
ENDMDL
MODEL 9
REMARK VINA RESULT:    -5.421      2.989      5.968
REMARK INTER + INTRA:         -13.071
REMARK INTER:                 -10.715
REMARK INTRA:                  -2.356
REMARK UNBOUND:                -2.579
REMARK SMILES CCCCCCCCCCCCCCCCCC(=O)[O-]
REMARK SMILES IDX 10 1 11 2 12 3 13 4 14 5 15 6 16 7 17 8 18 9 19 10 20 11
REMARK SMILES IDX 9 12 8 13 7 14 6 15 5 16 4 17 3 18 2 19 1 20
REMARK H PARENT
REMARK Flexibility Score: inf
ROOT
ATOM      1  C   UNL     1      13.296  -2.802  12.541  1.00  0.00     0.000 C 
ENDROOT
BRANCH   1   2
ATOM      2  C   UNL     1      13.873  -2.631  13.958  1.00  0.00     0.000 C 
BRANCH   2   3
ATOM      3  C   UNL     1      13.089  -3.353  15.069  1.00  0.00     0.000 C 
BRANCH   3   4
ATOM      4  C   UNL     1      13.789  -3.398  16.444  1.00  0.00     0.000 C 
BRANCH   4   5
ATOM      5  C   UNL     1      15.327  -3.429  16.389  1.00  0.00     0.000 C 
BRANCH   5   6
ATOM      6  C   UNL     1      15.980  -2.712  17.582  1.00  0.00     0.000 C 
BRANCH   6   7
ATOM      7  C   UNL     1      17.478  -3.042  17.726  1.00  0.00     0.006 C 
BRANCH   7   8
ATOM      8  C   UNL     1      18.057  -3.862  16.561  1.00  0.00     0.053 C 
BRANCH   8   9
ATOM      9  C   UNL     1      19.214  -3.173  15.908  1.00  0.00     0.041 C 
ATOM     10  O   UNL     1      20.105  -2.627  16.610  1.00  0.00    -0.550 OA
ATOM     11  O   UNL     1      19.293  -3.105  14.523  1.00  0.00    -0.550 OA
ENDBRANCH   8   9
ENDBRANCH   7   8
ENDBRANCH   6   7
ENDBRANCH   5   6
ENDBRANCH   4   5
ENDBRANCH   3   4
ENDBRANCH   2   3
ENDBRANCH   1   2
BRANCH   1  12
ATOM     12  C   UNL     1      12.988  -4.271  12.167  1.00  0.00     0.000 C 
BRANCH  12  13
ATOM     13  C   UNL     1      12.985  -4.559  10.653  1.00  0.00    -0.000 C 
BRANCH  13  14
ATOM     14  C   UNL     1      13.955  -5.668  10.191  1.00  0.00    -0.000 C 
BRANCH  14  15
ATOM     15  C   UNL     1      15.395  -5.205   9.891  1.00  0.00    -0.000 C 
BRANCH  15  16
ATOM     16  C   UNL     1      16.450  -5.640  10.923  1.00  0.00    -0.000 C 
BRANCH  16  17
ATOM     17  C   UNL     1      16.536  -4.685  12.127  1.00  0.00    -0.000 C 
BRANCH  17  18
ATOM     18  C   UNL     1      16.769  -5.426  13.452  1.00  0.00    -0.000 C 
BRANCH  18  19
ATOM     19  C   UNL     1      15.532  -6.209  13.919  1.00  0.00    -0.003 C 
ATOM     20  C   UNL     1      15.823  -7.705  13.988  1.00  0.00     0.004 C 
ENDBRANCH  18  19
ENDBRANCH  17  18
ENDBRANCH  16  17
ENDBRANCH  15  16
ENDBRANCH  14  15
ENDBRANCH  13  14
ENDBRANCH  12  13
ENDBRANCH   1  12
TORSDOF 16
ENDMDL
