MODEL 1
REMARK VINA RESULT:    -4.840      0.000      0.000
REMARK INTER + INTRA:         -13.171
REMARK INTER:                 -11.065
REMARK INTRA:                  -2.106
REMARK UNBOUND:                -2.106
REMARK SMILES CCCCCCCCCCCCCCCCCCCCCCCC(=O)[O-]
REMARK SMILES IDX 13 1 14 2 15 3 16 4 17 5 18 6 19 7 20 8 21 9 22 10 23 11
REMARK SMILES IDX 24 12 25 13 26 14 12 15 11 16 10 17 9 18 8 19 7 20 6 21 5 22
REMARK SMILES IDX 4 23 3 24 2 25 1 26
REMARK H PARENT
REMARK Flexibility Score: inf
ROOT
ATOM      1  C   UNL     1      -2.508  -0.437   4.899  1.00  0.00     0.000 C 
ENDROOT
BRANCH   1   2
ATOM      2  C   UNL     1      -3.659  -0.248   5.905  1.00  0.00     0.000 C 
BRANCH   2   3
ATOM      3  C   UNL     1      -4.863  -1.155   5.609  1.00  0.00     0.000 C 
BRANCH   3   4
ATOM      4  C   UNL     1      -4.462  -2.320   4.692  1.00  0.00     0.000 C 
BRANCH   4   5
ATOM      5  C   UNL     1      -4.753  -3.695   5.314  1.00  0.00     0.000 C 
BRANCH   5   6
ATOM      6  C   UNL     1      -5.954  -4.403   4.662  1.00  0.00     0.000 C 
BRANCH   6   7
ATOM      7  C   UNL     1      -5.523  -5.355   3.525  1.00  0.00     0.000 C 
BRANCH   7   8
ATOM      8  C   UNL     1      -6.013  -4.913   2.133  1.00  0.00     0.000 C 
BRANCH   8   9
ATOM      9  C   UNL     1      -4.923  -4.891   1.048  1.00  0.00     0.000 C 
BRANCH   9  10
ATOM     10  C   UNL     1      -4.811  -3.526   0.348  1.00  0.00     0.006 C 
BRANCH  10  11
ATOM     11  C   UNL     1      -5.409  -2.414   1.217  1.00  0.00     0.053 C 
BRANCH  11  12
ATOM     12  C   UNL     1      -6.390  -1.602   0.431  1.00  0.00     0.041 C 
ATOM     13  O   UNL     1      -7.507  -2.089   0.113  1.00  0.00    -0.550 OA
ATOM     14  O   UNL     1      -6.051  -0.323   0.006  1.00  0.00    -0.550 OA
ENDBRANCH  11  12
ENDBRANCH  10  11
ENDBRANCH   9  10
ENDBRANCH   8   9
ENDBRANCH   7   8
ENDBRANCH   6   7
ENDBRANCH   5   6
ENDBRANCH   4   5
ENDBRANCH   3   4
ENDBRANCH   2   3
ENDBRANCH   1   2
BRANCH   1  15
ATOM     15  C   UNL     1      -1.258   0.421   5.174  1.00  0.00     0.000 C 
BRANCH  15  16
ATOM     16  C   UNL     1      -0.734   0.369   6.624  1.00  0.00     0.000 C 
BRANCH  16  17
ATOM     17  C   UNL     1      -0.323  -1.031   7.112  1.00  0.00     0.000 C 
BRANCH  17  18
ATOM     18  C   UNL     1       1.177  -1.127   7.445  1.00  0.00    -0.000 C 
BRANCH  18  19
ATOM     19  C   UNL     1       1.915  -2.145   6.560  1.00  0.00    -0.000 C 
BRANCH  19  20
ATOM     20  C   UNL     1       2.622  -1.480   5.367  1.00  0.00    -0.000 C 
BRANCH  20  21
ATOM     21  C   UNL     1       1.778  -1.514   4.083  1.00  0.00    -0.000 C 
BRANCH  21  22
ATOM     22  C   UNL     1       2.592  -1.940   2.848  1.00  0.00    -0.000 C 
BRANCH  22  23
ATOM     23  C   UNL     1       4.091  -1.635   2.995  1.00  0.00    -0.000 C 
BRANCH  23  24
ATOM     24  C   UNL     1       4.961  -2.471   2.046  1.00  0.00    -0.000 C 
BRANCH  24  25
ATOM     25  C   UNL     1       5.662  -3.605   2.803  1.00  0.00    -0.003 C 
ATOM     26  C   UNL     1       5.654  -3.355   4.309  1.00  0.00     0.004 C 
ENDBRANCH  24  25
ENDBRANCH  23  24
ENDBRANCH  22  23
ENDBRANCH  21  22
ENDBRANCH  20  21
ENDBRANCH  19  20
ENDBRANCH  18  19
ENDBRANCH  17  18
ENDBRANCH  16  17
ENDBRANCH  15  16
ENDBRANCH   1  15
TORSDOF 22
ENDMDL
MODEL 2
REMARK VINA RESULT:    -4.810      4.438      6.893
REMARK INTER + INTRA:         -13.102
REMARK INTER:                 -11.478
REMARK INTRA:                  -1.624
REMARK UNBOUND:                -2.106
REMARK SMILES CCCCCCCCCCCCCCCCCCCCCCCC(=O)[O-]
REMARK SMILES IDX 13 1 14 2 15 3 16 4 17 5 18 6 19 7 20 8 21 9 22 10 23 11
REMARK SMILES IDX 24 12 25 13 26 14 12 15 11 16 10 17 9 18 8 19 7 20 6 21 5 22
REMARK SMILES IDX 4 23 3 24 2 25 1 26
REMARK H PARENT
REMARK Flexibility Score: inf
ROOT
ATOM      1  C   UNL     1      -5.745  -4.918   2.005  1.00  0.00     0.000 C 
ENDROOT
BRANCH   1   2
ATOM      2  C   UNL     1      -4.694  -4.950   0.881  1.00  0.00     0.000 C 
BRANCH   2   3
ATOM      3  C   UNL     1      -5.318  -4.864  -0.520  1.00  0.00     0.000 C 
BRANCH   3   4
ATOM      4  C   UNL     1      -6.646  -5.635  -0.580  1.00  0.00     0.000 C 
BRANCH   4   5
ATOM      5  C   UNL     1      -7.510  -5.241  -1.788  1.00  0.00     0.000 C 
BRANCH   5   6
ATOM      6  C   UNL     1      -7.758  -6.415  -2.752  1.00  0.00     0.000 C 
BRANCH   6   7
ATOM      7  C   UNL     1      -6.810  -6.380  -3.971  1.00  0.00     0.000 C 
BRANCH   7   8
ATOM      8  C   UNL     1      -5.455  -7.067  -3.716  1.00  0.00     0.000 C 
BRANCH   8   9
ATOM      9  C   UNL     1      -5.264  -8.400  -4.459  1.00  0.00     0.000 C 
BRANCH   9  10
ATOM     10  C   UNL     1      -3.890  -8.507  -5.141  1.00  0.00     0.006 C 
BRANCH  10  11
ATOM     11  C   UNL     1      -3.954  -7.994  -6.584  1.00  0.00     0.053 C 
BRANCH  11  12
ATOM     12  C   UNL     1      -3.427  -6.595  -6.669  1.00  0.00     0.041 C 
ATOM     13  O   UNL     1      -4.199  -5.643  -6.960  1.00  0.00    -0.550 OA
ATOM     14  O   UNL     1      -2.074  -6.349  -6.473  1.00  0.00    -0.550 OA
ENDBRANCH  11  12
ENDBRANCH  10  11
ENDBRANCH   9  10
ENDBRANCH   8   9
ENDBRANCH   7   8
ENDBRANCH   6   7
ENDBRANCH   5   6
ENDBRANCH   4   5
ENDBRANCH   3   4
ENDBRANCH   2   3
ENDBRANCH   1   2
BRANCH   1  15
ATOM     15  C   UNL     1      -5.421  -3.961   3.169  1.00  0.00     0.000 C 
BRANCH  15  16
ATOM     16  C   UNL     1      -4.822  -2.602   2.753  1.00  0.00     0.000 C 
BRANCH  16  17
ATOM     17  C   UNL     1      -4.377  -1.706   3.923  1.00  0.00     0.000 C 
BRANCH  17  18
ATOM     18  C   UNL     1      -4.756  -2.292   5.295  1.00  0.00    -0.000 C 
BRANCH  18  19
ATOM     19  C   UNL     1      -3.701  -1.999   6.374  1.00  0.00    -0.000 C 
BRANCH  19  20
ATOM     20  C   UNL     1      -3.585  -0.498   6.688  1.00  0.00    -0.000 C 
BRANCH  20  21
ATOM     21  C   UNL     1      -2.127  -0.036   6.842  1.00  0.00    -0.000 C 
BRANCH  21  22
ATOM     22  C   UNL     1      -1.524   0.476   5.521  1.00  0.00    -0.000 C 
BRANCH  22  23
ATOM     23  C   UNL     1      -0.284  -0.321   5.090  1.00  0.00    -0.000 C 
BRANCH  23  24
ATOM     24  C   UNL     1       0.565  -0.788   6.281  1.00  0.00    -0.000 C 
BRANCH  24  25
ATOM     25  C   UNL     1       1.848  -1.478   5.804  1.00  0.00    -0.003 C 
ATOM     26  C   UNL     1       1.959  -1.447   4.281  1.00  0.00     0.004 C 
ENDBRANCH  24  25
ENDBRANCH  23  24
ENDBRANCH  22  23
ENDBRANCH  21  22
ENDBRANCH  20  21
ENDBRANCH  19  20
ENDBRANCH  18  19
ENDBRANCH  17  18
ENDBRANCH  16  17
ENDBRANCH  15  16
ENDBRANCH   1  15
TORSDOF 22
ENDMDL
MODEL 3
REMARK VINA RESULT:    -4.749      3.382      6.158
REMARK INTER + INTRA:         -12.962
REMARK INTER:                  -9.344
REMARK INTRA:                  -3.618
REMARK UNBOUND:                -2.106
REMARK SMILES CCCCCCCCCCCCCCCCCCCCCCCC(=O)[O-]
REMARK SMILES IDX 13 1 14 2 15 3 16 4 17 5 18 6 19 7 20 8 21 9 22 10 23 11
REMARK SMILES IDX 24 12 25 13 26 14 12 15 11 16 10 17 9 18 8 19 7 20 6 21 5 22
REMARK SMILES IDX 4 23 3 24 2 25 1 26
REMARK H PARENT
REMARK Flexibility Score: inf
ROOT
ATOM      1  C   UNL     1      -4.910  -4.889   0.852  1.00  0.00     0.000 C 
ENDROOT
BRANCH   1   2
ATOM      2  C   UNL     1      -5.448  -5.291  -0.533  1.00  0.00     0.000 C 
BRANCH   2   3
ATOM      3  C   UNL     1      -6.936  -5.670  -0.507  1.00  0.00     0.000 C 
BRANCH   3   4
ATOM      4  C   UNL     1      -7.583  -5.272   0.829  1.00  0.00     0.000 C 
BRANCH   4   5
ATOM      5  C   UNL     1      -8.609  -4.139   0.680  1.00  0.00     0.000 C 
BRANCH   5   6
ATOM      6  C   UNL     1      -8.562  -3.134   1.845  1.00  0.00     0.000 C 
BRANCH   6   7
ATOM      7  C   UNL     1      -8.334  -1.687   1.358  1.00  0.00     0.000 C 
BRANCH   7   8
ATOM      8  C   UNL     1      -7.760  -1.600  -0.068  1.00  0.00     0.000 C 
BRANCH   8   9
ATOM      9  C   UNL     1      -6.608  -0.595  -0.236  1.00  0.00     0.000 C 
BRANCH   9  10
ATOM     10  C   UNL     1      -5.743  -0.886  -1.473  1.00  0.00     0.006 C 
BRANCH  10  11
ATOM     11  C   UNL     1      -6.218  -2.155  -2.188  1.00  0.00     0.053 C 
BRANCH  11  12
ATOM     12  C   UNL     1      -6.414  -1.895  -3.649  1.00  0.00     0.041 C 
ATOM     13  O   UNL     1      -7.469  -2.272  -4.225  1.00  0.00    -0.550 OA
ATOM     14  O   UNL     1      -5.411  -1.278  -4.386  1.00  0.00    -0.550 OA
ENDBRANCH  11  12
ENDBRANCH  10  11
ENDBRANCH   9  10
ENDBRANCH   8   9
ENDBRANCH   7   8
ENDBRANCH   6   7
ENDBRANCH   5   6
ENDBRANCH   4   5
ENDBRANCH   3   4
ENDBRANCH   2   3
ENDBRANCH   1   2
BRANCH   1  15
ATOM     15  C   UNL     1      -4.540  -3.400   0.999  1.00  0.00     0.000 C 
BRANCH  15  16
ATOM     16  C   UNL     1      -4.897  -2.767   2.359  1.00  0.00     0.000 C 
BRANCH  16  17
ATOM     17  C   UNL     1      -5.281  -3.773   3.459  1.00  0.00     0.000 C 
BRANCH  17  18
ATOM     18  C   UNL     1      -5.607  -3.091   4.799  1.00  0.00    -0.000 C 
BRANCH  18  19
ATOM     19  C   UNL     1      -4.347  -2.649   5.560  1.00  0.00    -0.000 C 
BRANCH  19  20
ATOM     20  C   UNL     1      -4.164  -1.122   5.555  1.00  0.00    -0.000 C 
BRANCH  20  21
ATOM     21  C   UNL     1      -2.950  -0.673   4.727  1.00  0.00    -0.000 C 
BRANCH  21  22
ATOM     22  C   UNL     1      -2.159   0.463   5.400  1.00  0.00    -0.000 C 
BRANCH  22  23
ATOM     23  C   UNL     1      -0.646   0.194   5.426  1.00  0.00    -0.000 C 
BRANCH  23  24
ATOM     24  C   UNL     1      -0.200  -0.557   6.688  1.00  0.00    -0.000 C 
BRANCH  24  25
ATOM     25  C   UNL     1      -1.094  -0.202   7.882  1.00  0.00    -0.003 C 
ATOM     26  C   UNL     1      -1.759  -1.446   8.466  1.00  0.00     0.004 C 
ENDBRANCH  24  25
ENDBRANCH  23  24
ENDBRANCH  22  23
ENDBRANCH  21  22
ENDBRANCH  20  21
ENDBRANCH  19  20
ENDBRANCH  18  19
ENDBRANCH  17  18
ENDBRANCH  16  17
ENDBRANCH  15  16
ENDBRANCH   1  15
TORSDOF 22
ENDMDL
MODEL 4
REMARK VINA RESULT:    -4.748      1.513      4.010
REMARK INTER + INTRA:         -12.960
REMARK INTER:                 -10.808
REMARK INTRA:                  -2.151
REMARK UNBOUND:                -2.106
REMARK SMILES CCCCCCCCCCCCCCCCCCCCCCCC(=O)[O-]
REMARK SMILES IDX 13 1 14 2 15 3 16 4 17 5 18 6 19 7 20 8 21 9 22 10 23 11
REMARK SMILES IDX 24 12 25 13 26 14 12 15 11 16 10 17 9 18 8 19 7 20 6 21 5 22
REMARK SMILES IDX 4 23 3 24 2 25 1 26
REMARK H PARENT
REMARK Flexibility Score: inf
ROOT
ATOM      1  C   UNL     1      -5.656  -2.835   3.499  1.00  0.00     0.000 C 
ENDROOT
BRANCH   1   2
ATOM      2  C   UNL     1      -5.346  -4.338   3.386  1.00  0.00     0.000 C 
BRANCH   2   3
ATOM      3  C   UNL     1      -5.830  -4.947   2.061  1.00  0.00     0.000 C 
BRANCH   3   4
ATOM      4  C   UNL     1      -4.748  -4.834   0.976  1.00  0.00     0.000 C 
BRANCH   4   5
ATOM      5  C   UNL     1      -5.219  -5.356  -0.391  1.00  0.00     0.000 C 
BRANCH   5   6
ATOM      6  C   UNL     1      -6.753  -5.419  -0.509  1.00  0.00     0.000 C 
BRANCH   6   7
ATOM      7  C   UNL     1      -7.295  -4.446  -1.579  1.00  0.00     0.000 C 
BRANCH   7   8
ATOM      8  C   UNL     1      -7.593  -3.036  -1.035  1.00  0.00     0.000 C 
BRANCH   8   9
ATOM      9  C   UNL     1      -6.451  -2.023  -1.221  1.00  0.00     0.000 C 
BRANCH   9  10
ATOM     10  C   UNL     1      -5.971  -1.421   0.109  1.00  0.00     0.006 C 
BRANCH  10  11
ATOM     11  C   UNL     1      -7.103  -0.656   0.805  1.00  0.00     0.053 C 
BRANCH  11  12
ATOM     12  C   UNL     1      -7.564   0.487  -0.044  1.00  0.00     0.041 C 
ATOM     13  O   UNL     1      -6.781   1.437  -0.309  1.00  0.00    -0.550 OA
ATOM     14  O   UNL     1      -8.874   0.528  -0.503  1.00  0.00    -0.550 OA
ENDBRANCH  11  12
ENDBRANCH  10  11
ENDBRANCH   9  10
ENDBRANCH   8   9
ENDBRANCH   7   8
ENDBRANCH   6   7
ENDBRANCH   5   6
ENDBRANCH   4   5
ENDBRANCH   3   4
ENDBRANCH   2   3
ENDBRANCH   1   2
BRANCH   1  15
ATOM     15  C   UNL     1      -4.473  -1.961   3.960  1.00  0.00     0.000 C 
BRANCH  15  16
ATOM     16  C   UNL     1      -4.234  -1.933   5.484  1.00  0.00     0.000 C 
BRANCH  16  17
ATOM     17  C   UNL     1      -3.532  -0.666   6.004  1.00  0.00     0.000 C 
BRANCH  17  18
ATOM     18  C   UNL     1      -2.514  -0.097   4.999  1.00  0.00    -0.000 C 
BRANCH  18  19
ATOM     19  C   UNL     1      -1.313   0.571   5.687  1.00  0.00    -0.000 C 
BRANCH  19  20
ATOM     20  C   UNL     1      -0.017  -0.240   5.522  1.00  0.00    -0.000 C 
BRANCH  20  21
ATOM     21  C   UNL     1       0.518  -0.781   6.858  1.00  0.00    -0.000 C 
BRANCH  21  22
ATOM     22  C   UNL     1       1.700  -1.751   6.675  1.00  0.00    -0.000 C 
BRANCH  22  23
ATOM     23  C   UNL     1       2.559  -1.410   5.448  1.00  0.00    -0.000 C 
BRANCH  23  24
ATOM     24  C   UNL     1       2.512  -2.502   4.371  1.00  0.00    -0.000 C 
BRANCH  24  25
ATOM     25  C   UNL     1       2.674  -1.898   2.971  1.00  0.00    -0.003 C 
ATOM     26  C   UNL     1       4.146  -1.682   2.627  1.00  0.00     0.004 C 
ENDBRANCH  24  25
ENDBRANCH  23  24
ENDBRANCH  22  23
ENDBRANCH  21  22
ENDBRANCH  20  21
ENDBRANCH  19  20
ENDBRANCH  18  19
ENDBRANCH  17  18
ENDBRANCH  16  17
ENDBRANCH  15  16
ENDBRANCH   1  15
TORSDOF 22
ENDMDL
MODEL 5
REMARK VINA RESULT:    -4.737      4.029      7.756
REMARK INTER + INTRA:         -12.935
REMARK INTER:                 -10.522
REMARK INTRA:                  -2.413
REMARK UNBOUND:                -2.106
REMARK SMILES CCCCCCCCCCCCCCCCCCCCCCCC(=O)[O-]
REMARK SMILES IDX 13 1 14 2 15 3 16 4 17 5 18 6 19 7 20 8 21 9 22 10 23 11
REMARK SMILES IDX 24 12 25 13 26 14 12 15 11 16 10 17 9 18 8 19 7 20 6 21 5 22
REMARK SMILES IDX 4 23 3 24 2 25 1 26
REMARK H PARENT
REMARK Flexibility Score: inf
ROOT
ATOM      1  C   UNL     1      -7.195  -5.562  -0.208  1.00  0.00     0.000 C 
ENDROOT
BRANCH   1   2
ATOM      2  C   UNL     1      -8.136  -4.390  -0.540  1.00  0.00     0.000 C 
BRANCH   2   3
ATOM      3  C   UNL     1      -8.532  -3.575   0.700  1.00  0.00     0.000 C 
BRANCH   3   4
ATOM      4  C   UNL     1      -8.320  -2.072   0.462  1.00  0.00     0.000 C 
BRANCH   4   5
ATOM      5  C   UNL     1      -7.349  -1.782  -0.693  1.00  0.00     0.000 C 
BRANCH   5   6
ATOM      6  C   UNL     1      -6.509  -0.514  -0.463  1.00  0.00     0.000 C 
BRANCH   6   7
ATOM      7  C   UNL     1      -7.051   0.696  -1.255  1.00  0.00     0.000 C 
BRANCH   7   8
ATOM      8  C   UNL     1      -6.916   2.034  -0.504  1.00  0.00     0.000 C 
BRANCH   8   9
ATOM      9  C   UNL     1      -5.861   2.991  -1.085  1.00  0.00     0.000 C 
BRANCH   9  10
ATOM     10  C   UNL     1      -5.008   2.337  -2.183  1.00  0.00     0.006 C 
BRANCH  10  11
ATOM     11  C   UNL     1      -4.456   3.390  -3.150  1.00  0.00     0.053 C 
BRANCH  11  12
ATOM     12  C   UNL     1      -5.432   3.652  -4.254  1.00  0.00     0.041 C 
ATOM     13  O   UNL     1      -6.297   4.560  -4.135  1.00  0.00    -0.550 OA
ATOM     14  O   UNL     1      -5.419   2.861  -5.396  1.00  0.00    -0.550 OA
ENDBRANCH  11  12
ENDBRANCH  10  11
ENDBRANCH   9  10
ENDBRANCH   8   9
ENDBRANCH   7   8
ENDBRANCH   6   7
ENDBRANCH   5   6
ENDBRANCH   4   5
ENDBRANCH   3   4
ENDBRANCH   2   3
ENDBRANCH   1   2
BRANCH   1  15
ATOM     15  C   UNL     1      -5.701  -5.292  -0.476  1.00  0.00     0.000 C 
BRANCH  15  16
ATOM     16  C   UNL     1      -4.877  -4.882   0.761  1.00  0.00     0.000 C 
BRANCH  16  17
ATOM     17  C   UNL     1      -4.535  -3.384   0.842  1.00  0.00     0.000 C 
BRANCH  17  18
ATOM     18  C   UNL     1      -4.914  -2.762   2.198  1.00  0.00    -0.000 C 
BRANCH  18  19
ATOM     19  C   UNL     1      -5.393  -3.809   3.217  1.00  0.00    -0.000 C 
BRANCH  19  20
ATOM     20  C   UNL     1      -4.809  -3.572   4.619  1.00  0.00    -0.000 C 
BRANCH  20  21
ATOM     21  C   UNL     1      -4.336  -2.124   4.828  1.00  0.00    -0.000 C 
BRANCH  21  22
ATOM     22  C   UNL     1      -4.351  -1.701   6.308  1.00  0.00    -0.000 C 
BRANCH  22  23
ATOM     23  C   UNL     1      -3.569  -0.403   6.560  1.00  0.00    -0.000 C 
BRANCH  23  24
ATOM     24  C   UNL     1      -2.123  -0.660   7.004  1.00  0.00    -0.000 C 
BRANCH  24  25
ATOM     25  C   UNL     1      -1.128  -0.129   5.966  1.00  0.00    -0.003 C 
ATOM     26  C   UNL     1      -1.698   1.074   5.217  1.00  0.00     0.004 C 
ENDBRANCH  24  25
ENDBRANCH  23  24
ENDBRANCH  22  23
ENDBRANCH  21  22
ENDBRANCH  20  21
ENDBRANCH  19  20
ENDBRANCH  18  19
ENDBRANCH  17  18
ENDBRANCH  16  17
ENDBRANCH  15  16
ENDBRANCH   1  15
TORSDOF 22
ENDMDL
MODEL 6
REMARK VINA RESULT:    -4.729      3.825      6.638
REMARK INTER + INTRA:         -12.917
REMARK INTER:                  -9.397
REMARK INTRA:                  -3.520
REMARK UNBOUND:                -2.106
REMARK SMILES CCCCCCCCCCCCCCCCCCCCCCCC(=O)[O-]
REMARK SMILES IDX 13 1 14 2 15 3 16 4 17 5 18 6 19 7 20 8 21 9 22 10 23 11
REMARK SMILES IDX 24 12 25 13 26 14 12 15 11 16 10 17 9 18 8 19 7 20 6 21 5 22
REMARK SMILES IDX 4 23 3 24 2 25 1 26
REMARK H PARENT
REMARK Flexibility Score: inf
ROOT
ATOM      1  C   UNL     1      -5.034  -4.879   0.671  1.00  0.00     0.000 C 
ENDROOT
BRANCH   1   2
ATOM      2  C   UNL     1      -5.587  -5.077  -0.752  1.00  0.00     0.000 C 
BRANCH   2   3
ATOM      3  C   UNL     1      -7.034  -5.592  -0.762  1.00  0.00     0.000 C 
BRANCH   3   4
ATOM      4  C   UNL     1      -7.622  -5.611   0.657  1.00  0.00     0.000 C 
BRANCH   4   5
ATOM      5  C   UNL     1      -9.028  -4.994   0.728  1.00  0.00     0.000 C 
BRANCH   5   6
ATOM      6  C   UNL     1      -9.019  -3.544   1.242  1.00  0.00     0.000 C 
BRANCH   6   7
ATOM      7  C   UNL     1      -9.274  -2.523   0.112  1.00  0.00     0.000 C 
BRANCH   7   8
ATOM      8  C   UNL     1      -8.031  -1.695  -0.263  1.00  0.00     0.000 C 
BRANCH   8   9
ATOM      9  C   UNL     1      -7.448  -2.008  -1.652  1.00  0.00     0.000 C 
BRANCH   9  10
ATOM     10  C   UNL     1      -6.095  -1.319  -1.895  1.00  0.00     0.006 C 
BRANCH  10  11
ATOM     11  C   UNL     1      -5.830  -0.243  -0.837  1.00  0.00     0.053 C 
BRANCH  11  12
ATOM     12  C   UNL     1      -5.876   1.122  -1.450  1.00  0.00     0.041 C 
ATOM     13  O   UNL     1      -6.946   1.785  -1.441  1.00  0.00    -0.550 OA
ATOM     14  O   UNL     1      -4.749   1.641  -2.075  1.00  0.00    -0.550 OA
ENDBRANCH  11  12
ENDBRANCH  10  11
ENDBRANCH   9  10
ENDBRANCH   8   9
ENDBRANCH   7   8
ENDBRANCH   6   7
ENDBRANCH   5   6
ENDBRANCH   4   5
ENDBRANCH   3   4
ENDBRANCH   2   3
ENDBRANCH   1   2
BRANCH   1  15
ATOM     15  C   UNL     1      -4.800  -3.411   1.078  1.00  0.00     0.000 C 
BRANCH  15  16
ATOM     16  C   UNL     1      -5.495  -2.974   2.384  1.00  0.00     0.000 C 
BRANCH  16  17
ATOM     17  C   UNL     1      -5.134  -3.816   3.620  1.00  0.00     0.000 C 
BRANCH  17  18
ATOM     18  C   UNL     1      -4.633  -2.958   4.796  1.00  0.00    -0.000 C 
BRANCH  18  19
ATOM     19  C   UNL     1      -4.733  -1.450   4.513  1.00  0.00    -0.000 C 
BRANCH  19  20
ATOM     20  C   UNL     1      -5.674  -0.731   5.495  1.00  0.00    -0.000 C 
BRANCH  20  21
ATOM     21  C   UNL     1      -4.919   0.153   6.500  1.00  0.00    -0.000 C 
BRANCH  21  22
ATOM     22  C   UNL     1      -4.474  -0.622   7.754  1.00  0.00    -0.000 C 
BRANCH  22  23
ATOM     23  C   UNL     1      -3.005  -0.359   8.120  1.00  0.00    -0.000 C 
BRANCH  23  24
ATOM     24  C   UNL     1      -2.028  -0.878   7.057  1.00  0.00    -0.000 C 
BRANCH  24  25
ATOM     25  C   UNL     1      -1.122   0.249   6.549  1.00  0.00    -0.003 C 
ATOM     26  C   UNL     1      -1.570   0.744   5.176  1.00  0.00     0.004 C 
ENDBRANCH  24  25
ENDBRANCH  23  24
ENDBRANCH  22  23
ENDBRANCH  21  22
ENDBRANCH  20  21
ENDBRANCH  19  20
ENDBRANCH  18  19
ENDBRANCH  17  18
ENDBRANCH  16  17
ENDBRANCH  15  16
ENDBRANCH   1  15
TORSDOF 22
ENDMDL
MODEL 7
REMARK VINA RESULT:    -4.707      2.995      6.278
REMARK INTER + INTRA:         -12.866
REMARK INTER:                  -9.922
REMARK INTRA:                  -2.944
REMARK UNBOUND:                -2.106
REMARK SMILES CCCCCCCCCCCCCCCCCCCCCCCC(=O)[O-]
REMARK SMILES IDX 13 1 14 2 15 3 16 4 17 5 18 6 19 7 20 8 21 9 22 10 23 11
REMARK SMILES IDX 24 12 25 13 26 14 12 15 11 16 10 17 9 18 8 19 7 20 6 21 5 22
REMARK SMILES IDX 4 23 3 24 2 25 1 26
REMARK H PARENT
REMARK Flexibility Score: inf
ROOT
ATOM      1  C   UNL     1      -5.955  -1.514   1.648  1.00  0.00     0.000 C 
ENDROOT
BRANCH   1   2
ATOM      2  C   UNL     1      -4.846  -2.578   1.738  1.00  0.00     0.000 C 
BRANCH   2   3
ATOM      3  C   UNL     1      -4.708  -3.405   0.451  1.00  0.00     0.000 C 
BRANCH   3   4
ATOM      4  C   UNL     1      -4.977  -4.893   0.722  1.00  0.00     0.000 C 
BRANCH   4   5
ATOM      5  C   UNL     1      -6.163  -5.441  -0.088  1.00  0.00     0.000 C 
BRANCH   5   6
ATOM      6  C   UNL     1      -5.890  -5.469  -1.602  1.00  0.00     0.000 C 
BRANCH   6   7
ATOM      7  C   UNL     1      -6.949  -4.677  -2.400  1.00  0.00     0.000 C 
BRANCH   7   8
ATOM      8  C   UNL     1      -6.583  -3.196  -2.608  1.00  0.00     0.000 C 
BRANCH   8   9
ATOM      9  C   UNL     1      -7.313  -2.218  -1.673  1.00  0.00     0.000 C 
BRANCH   9  10
ATOM     10  C   UNL     1      -7.168  -0.753  -2.116  1.00  0.00     0.006 C 
BRANCH  10  11
ATOM     11  C   UNL     1      -5.870  -0.143  -1.576  1.00  0.00     0.053 C 
BRANCH  11  12
ATOM     12  C   UNL     1      -5.787   1.310  -1.926  1.00  0.00     0.041 C 
ATOM     13  O   UNL     1      -6.820   1.938  -2.278  1.00  0.00    -0.550 OA
ATOM     14  O   UNL     1      -4.559   1.960  -1.909  1.00  0.00    -0.550 OA
ENDBRANCH  11  12
ENDBRANCH  10  11
ENDBRANCH   9  10
ENDBRANCH   8   9
ENDBRANCH   7   8
ENDBRANCH   6   7
ENDBRANCH   5   6
ENDBRANCH   4   5
ENDBRANCH   3   4
ENDBRANCH   2   3
ENDBRANCH   1   2
BRANCH   1  15
ATOM     15  C   UNL     1      -7.167  -1.760   2.567  1.00  0.00     0.000 C 
BRANCH  15  16
ATOM     16  C   UNL     1      -7.536  -3.243   2.782  1.00  0.00     0.000 C 
BRANCH  16  17
ATOM     17  C   UNL     1      -7.311  -3.763   4.213  1.00  0.00     0.000 C 
BRANCH  17  18
ATOM     18  C   UNL     1      -6.124  -4.739   4.309  1.00  0.00    -0.000 C 
BRANCH  18  19
ATOM     19  C   UNL     1      -4.957  -4.172   5.133  1.00  0.00    -0.000 C 
BRANCH  19  20
ATOM     20  C   UNL     1      -5.172  -2.698   5.515  1.00  0.00    -0.000 C 
BRANCH  20  21
ATOM     21  C   UNL     1      -4.081  -1.774   4.949  1.00  0.00    -0.000 C 
BRANCH  21  22
ATOM     22  C   UNL     1      -3.244  -1.099   6.050  1.00  0.00    -0.000 C 
BRANCH  22  23
ATOM     23  C   UNL     1      -2.910   0.365   5.725  1.00  0.00    -0.000 C 
BRANCH  23  24
ATOM     24  C   UNL     1      -1.433   0.569   5.363  1.00  0.00    -0.000 C 
BRANCH  24  25
ATOM     25  C   UNL     1      -0.531   0.314   6.577  1.00  0.00    -0.003 C 
ATOM     26  C   UNL     1       0.472  -0.802   6.297  1.00  0.00     0.004 C 
ENDBRANCH  24  25
ENDBRANCH  23  24
ENDBRANCH  22  23
ENDBRANCH  21  22
ENDBRANCH  20  21
ENDBRANCH  19  20
ENDBRANCH  18  19
ENDBRANCH  17  18
ENDBRANCH  16  17
ENDBRANCH  15  16
ENDBRANCH   1  15
TORSDOF 22
ENDMDL
MODEL 8
REMARK VINA RESULT:    -4.707      3.236      6.078
REMARK INTER + INTRA:         -12.865
REMARK INTER:                 -10.258
REMARK INTRA:                  -2.607
REMARK UNBOUND:                -2.106
REMARK SMILES CCCCCCCCCCCCCCCCCCCCCCCC(=O)[O-]
REMARK SMILES IDX 13 1 14 2 15 3 16 4 17 5 18 6 19 7 20 8 21 9 22 10 23 11
REMARK SMILES IDX 24 12 25 13 26 14 12 15 11 16 10 17 9 18 8 19 7 20 6 21 5 22
REMARK SMILES IDX 4 23 3 24 2 25 1 26
REMARK H PARENT
REMARK Flexibility Score: inf
ROOT
ATOM      1  C   UNL     1      -4.488  -3.391   0.961  1.00  0.00     0.000 C 
ENDROOT
BRANCH   1   2
ATOM      2  C   UNL     1      -4.869  -4.869   0.755  1.00  0.00     0.000 C 
BRANCH   2   3
ATOM      3  C   UNL     1      -6.383  -5.111   0.838  1.00  0.00     0.000 C 
BRANCH   3   4
ATOM      4  C   UNL     1      -6.927  -5.658  -0.491  1.00  0.00     0.000 C 
BRANCH   4   5
ATOM      5  C   UNL     1      -5.906  -5.567  -1.635  1.00  0.00     0.000 C 
BRANCH   5   6
ATOM      6  C   UNL     1      -6.439  -6.145  -2.958  1.00  0.00     0.000 C 
BRANCH   6   7
ATOM      7  C   UNL     1      -6.960  -5.044  -3.907  1.00  0.00     0.000 C 
BRANCH   7   8
ATOM      8  C   UNL     1      -6.632  -3.616  -3.433  1.00  0.00     0.000 C 
BRANCH   8   9
ATOM      9  C   UNL     1      -7.803  -2.878  -2.763  1.00  0.00     0.000 C 
BRANCH   9  10
ATOM     10  C   UNL     1      -7.355  -2.016  -1.571  1.00  0.00     0.006 C 
BRANCH  10  11
ATOM     11  C   UNL     1      -5.931  -1.490  -1.779  1.00  0.00     0.053 C 
BRANCH  11  12
ATOM     12  C   UNL     1      -5.804  -0.094  -1.255  1.00  0.00     0.041 C 
ATOM     13  O   UNL     1      -6.368   0.233  -0.177  1.00  0.00    -0.550 OA
ATOM     14  O   UNL     1      -5.104   0.861  -1.982  1.00  0.00    -0.550 OA
ENDBRANCH  11  12
ENDBRANCH  10  11
ENDBRANCH   9  10
ENDBRANCH   8   9
ENDBRANCH   7   8
ENDBRANCH   6   7
ENDBRANCH   5   6
ENDBRANCH   4   5
ENDBRANCH   3   4
ENDBRANCH   2   3
ENDBRANCH   1   2
BRANCH   1  15
ATOM     15  C   UNL     1      -5.513  -2.563   1.760  1.00  0.00     0.000 C 
BRANCH  15  16
ATOM     16  C   UNL     1      -4.988  -1.974   3.086  1.00  0.00     0.000 C 
BRANCH  16  17
ATOM     17  C   UNL     1      -4.751  -3.007   4.202  1.00  0.00     0.000 C 
BRANCH  17  18
ATOM     18  C   UNL     1      -4.217  -2.369   5.497  1.00  0.00    -0.000 C 
BRANCH  18  19
ATOM     19  C   UNL     1      -4.257  -0.833   5.460  1.00  0.00    -0.000 C 
BRANCH  19  20
ATOM     20  C   UNL     1      -3.053  -0.198   6.175  1.00  0.00    -0.000 C 
BRANCH  20  21
ATOM     21  C   UNL     1      -2.077   0.483   5.202  1.00  0.00    -0.000 C 
BRANCH  21  22
ATOM     22  C   UNL     1      -0.621   0.029   5.406  1.00  0.00    -0.000 C 
BRANCH  22  23
ATOM     23  C   UNL     1      -0.398  -0.646   6.768  1.00  0.00    -0.000 C 
BRANCH  23  24
ATOM     24  C   UNL     1      -0.033   0.355   7.872  1.00  0.00    -0.000 C 
BRANCH  24  25
ATOM     25  C   UNL     1      -0.445  -0.175   9.250  1.00  0.00    -0.003 C 
ATOM     26  C   UNL     1      -1.282  -1.446   9.127  1.00  0.00     0.004 C 
ENDBRANCH  24  25
ENDBRANCH  23  24
ENDBRANCH  22  23
ENDBRANCH  21  22
ENDBRANCH  20  21
ENDBRANCH  19  20
ENDBRANCH  18  19
ENDBRANCH  17  18
ENDBRANCH  16  17
ENDBRANCH  15  16
ENDBRANCH   1  15
TORSDOF 22
ENDMDL
MODEL 9
REMARK VINA RESULT:    -4.687      3.500      9.414
REMARK INTER + INTRA:         -12.821
REMARK INTER:                  -9.693
REMARK INTRA:                  -3.128
REMARK UNBOUND:                -2.106
REMARK SMILES CCCCCCCCCCCCCCCCCCCCCCCC(=O)[O-]
REMARK SMILES IDX 13 1 14 2 15 3 16 4 17 5 18 6 19 7 20 8 21 9 22 10 23 11
REMARK SMILES IDX 24 12 25 13 26 14 12 15 11 16 10 17 9 18 8 19 7 20 6 21 5 22
REMARK SMILES IDX 4 23 3 24 2 25 1 26
REMARK H PARENT
REMARK Flexibility Score: inf
ROOT
ATOM      1  C   UNL     1      -4.892  -2.754   2.323  1.00  0.00     0.000 C 
ENDROOT
BRANCH   1   2
ATOM      2  C   UNL     1      -5.196  -3.703   3.496  1.00  0.00     0.000 C 
BRANCH   2   3
ATOM      3  C   UNL     1      -5.640  -2.960   4.764  1.00  0.00     0.000 C 
BRANCH   3   4
ATOM      4  C   UNL     1      -4.449  -2.707   5.701  1.00  0.00     0.000 C 
BRANCH   4   5
ATOM      5  C   UNL     1      -4.104  -1.216   5.837  1.00  0.00     0.000 C 
BRANCH   5   6
ATOM      6  C   UNL     1      -3.010  -0.764   4.854  1.00  0.00     0.000 C 
BRANCH   6   7
ATOM      7  C   UNL     1      -2.227   0.461   5.375  1.00  0.00     0.000 C 
BRANCH   7   8
ATOM      8  C   UNL     1      -0.708   0.228   5.464  1.00  0.00     0.000 C 
BRANCH   8   9
ATOM      9  C   UNL     1      -0.253  -0.572   6.696  1.00  0.00     0.000 C 
BRANCH   9  10
ATOM     10  C   UNL     1       1.163  -1.149   6.539  1.00  0.00     0.006 C 
BRANCH  10  11
ATOM     11  C   UNL     1       1.575  -1.196   5.064  1.00  0.00     0.053 C 
BRANCH  11  12
ATOM     12  C   UNL     1       2.953  -1.764   4.920  1.00  0.00     0.041 C 
ATOM     13  O   UNL     1       3.959  -1.007   4.970  1.00  0.00    -0.550 OA
ATOM     14  O   UNL     1       3.124  -3.121   4.682  1.00  0.00    -0.550 OA
ENDBRANCH  11  12
ENDBRANCH  10  11
ENDBRANCH   9  10
ENDBRANCH   8   9
ENDBRANCH   7   8
ENDBRANCH   6   7
ENDBRANCH   5   6
ENDBRANCH   4   5
ENDBRANCH   3   4
ENDBRANCH   2   3
ENDBRANCH   1   2
BRANCH   1  15
ATOM     15  C   UNL     1      -4.528  -3.453   0.998  1.00  0.00     0.000 C 
BRANCH  15  16
ATOM     16  C   UNL     1      -5.007  -4.914   0.876  1.00  0.00     0.000 C 
BRANCH  16  17
ATOM     17  C   UNL     1      -5.769  -5.238  -0.421  1.00  0.00     0.000 C 
BRANCH  17  18
ATOM     18  C   UNL     1      -7.287  -5.364  -0.202  1.00  0.00    -0.000 C 
BRANCH  18  19
ATOM     19  C   UNL     1      -7.672  -5.364   1.287  1.00  0.00    -0.000 C 
BRANCH  19  20
ATOM     20  C   UNL     1      -8.407  -4.078   1.702  1.00  0.00    -0.000 C 
BRANCH  20  21
ATOM     21  C   UNL     1      -8.679  -3.141   0.514  1.00  0.00    -0.000 C 
BRANCH  21  22
ATOM     22  C   UNL     1      -8.134  -1.720   0.742  1.00  0.00    -0.000 C 
BRANCH  22  23
ATOM     23  C   UNL     1      -7.687  -1.043  -0.562  1.00  0.00    -0.000 C 
BRANCH  23  24
ATOM     24  C   UNL     1      -6.178  -0.764  -0.598  1.00  0.00    -0.000 C 
BRANCH  24  25
ATOM     25  C   UNL     1      -5.587  -1.118  -1.968  1.00  0.00    -0.003 C 
ATOM     26  C   UNL     1      -6.310  -2.310  -2.591  1.00  0.00     0.004 C 
ENDBRANCH  24  25
ENDBRANCH  23  24
ENDBRANCH  22  23
ENDBRANCH  21  22
ENDBRANCH  20  21
ENDBRANCH  19  20
ENDBRANCH  18  19
ENDBRANCH  17  18
ENDBRANCH  16  17
ENDBRANCH  15  16
ENDBRANCH   1  15
TORSDOF 22
ENDMDL
