MODEL 1
REMARK VINA RESULT:    -5.370      0.000      0.000
REMARK INTER + INTRA:          -9.873
REMARK INTER:                  -8.509
REMARK INTRA:                  -1.365
REMARK UNBOUND:                -1.365
REMARK SMILES CCCCCCCCCCCC(=O)[O-]
REMARK SMILES IDX 7 1 8 2 9 3 10 4 11 5 12 6 13 7 14 8 6 9 5 10 4 11 3 12 2 13
REMARK SMILES IDX 1 14
REMARK H PARENT
REMARK Flexibility Score: inf
ROOT
ATOM      1  C   UNL     1     220.117  -7.192  25.458  1.00  0.00     0.000 C 
ENDROOT
BRANCH   1   2
ATOM      2  C   UNL     1     221.197  -7.444  24.392  1.00  0.00     0.000 C 
BRANCH   2   3
ATOM      3  C   UNL     1     220.638  -7.386  22.962  1.00  0.00     0.000 C 
BRANCH   3   4
ATOM      4  C   UNL     1     220.600  -8.766  22.282  1.00  0.00     0.006 C 
BRANCH   4   5
ATOM      5  C   UNL     1     219.173  -9.314  22.164  1.00  0.00     0.053 C 
BRANCH   5   6
ATOM      6  C   UNL     1     218.949 -10.482  23.076  1.00  0.00     0.041 C 
ATOM      7  O   UNL     1     219.829 -10.808  23.916  1.00  0.00    -0.550 OA
ATOM      8  O   UNL     1     217.753 -11.187  23.024  1.00  0.00    -0.550 OA
ENDBRANCH   5   6
ENDBRANCH   4   5
ENDBRANCH   3   4
ENDBRANCH   2   3
ENDBRANCH   1   2
BRANCH   1   9
ATOM      9  C   UNL     1     218.786  -6.720  24.849  1.00  0.00     0.000 C 
BRANCH   9  10
ATOM     10  C   UNL     1     217.613  -7.650  25.192  1.00  0.00    -0.000 C 
BRANCH  10  11
ATOM     11  C   UNL     1     218.060  -8.770  26.141  1.00  0.00    -0.000 C 
BRANCH  11  12
ATOM     12  C   UNL     1     217.169  -8.824  27.388  1.00  0.00    -0.000 C 
BRANCH  12  13
ATOM     13  C   UNL     1     218.005  -8.692  28.666  1.00  0.00    -0.003 C 
ATOM     14  C   UNL     1     218.515  -7.264  28.845  1.00  0.00     0.004 C 
ENDBRANCH  12  13
ENDBRANCH  11  12
ENDBRANCH  10  11
ENDBRANCH   9  10
ENDBRANCH   1   9
TORSDOF 10
ENDMDL
MODEL 2
REMARK VINA RESULT:    -5.337      2.527      5.003
REMARK INTER + INTRA:          -9.821
REMARK INTER:                  -8.418
REMARK INTRA:                  -1.403
REMARK UNBOUND:                -1.365
REMARK SMILES CCCCCCCCCCCC(=O)[O-]
REMARK SMILES IDX 7 1 8 2 9 3 10 4 11 5 12 6 13 7 14 8 6 9 5 10 4 11 3 12 2 13
REMARK SMILES IDX 1 14
REMARK H PARENT
REMARK Flexibility Score: inf
ROOT
ATOM      1  C   UNL     1     219.658  -6.438  24.826  1.00  0.00     0.000 C 
ENDROOT
BRANCH   1   2
ATOM      2  C   UNL     1     218.287  -6.859  24.270  1.00  0.00     0.000 C 
BRANCH   2   3
ATOM      3  C   UNL     1     217.480  -7.702  25.270  1.00  0.00     0.000 C 
BRANCH   3   4
ATOM      4  C   UNL     1     218.056  -7.648  26.695  1.00  0.00     0.006 C 
BRANCH   4   5
ATOM      5  C   UNL     1     217.626  -8.853  27.541  1.00  0.00     0.053 C 
BRANCH   5   6
ATOM      6  C   UNL     1     218.183  -8.786  28.929  1.00  0.00     0.041 C 
ATOM      7  O   UNL     1     218.546  -9.838  29.518  1.00  0.00    -0.550 OA
ATOM      8  O   UNL     1     218.337  -7.557  29.559  1.00  0.00    -0.550 OA
ENDBRANCH   5   6
ENDBRANCH   4   5
ENDBRANCH   3   4
ENDBRANCH   2   3
ENDBRANCH   1   2
BRANCH   1   9
ATOM      9  C   UNL     1     220.820  -6.862  23.913  1.00  0.00     0.000 C 
BRANCH   9  10
ATOM     10  C   UNL     1     221.459  -8.191  24.343  1.00  0.00    -0.000 C 
BRANCH  10  11
ATOM     11  C   UNL     1     220.978  -9.345  23.453  1.00  0.00    -0.000 C 
BRANCH  11  12
ATOM     12  C   UNL     1     220.187 -10.376  24.267  1.00  0.00    -0.000 C 
BRANCH  12  13
ATOM     13  C   UNL     1     218.827 -10.661  23.618  1.00  0.00    -0.003 C 
ATOM     14  C   UNL     1     218.690  -9.931  22.284  1.00  0.00     0.004 C 
ENDBRANCH  12  13
ENDBRANCH  11  12
ENDBRANCH  10  11
ENDBRANCH   9  10
ENDBRANCH   1   9
TORSDOF 10
ENDMDL
MODEL 3
REMARK VINA RESULT:    -5.232      2.326      4.996
REMARK INTER + INTRA:          -9.655
REMARK INTER:                  -8.320
REMARK INTRA:                  -1.336
REMARK UNBOUND:                -1.365
REMARK SMILES CCCCCCCCCCCC(=O)[O-]
REMARK SMILES IDX 7 1 8 2 9 3 10 4 11 5 12 6 13 7 14 8 6 9 5 10 4 11 3 12 2 13
REMARK SMILES IDX 1 14
REMARK H PARENT
REMARK Flexibility Score: inf
ROOT
ATOM      1  C   UNL     1     220.874  -7.155  23.675  1.00  0.00     0.000 C 
ENDROOT
BRANCH   1   2
ATOM      2  C   UNL     1     220.007  -7.439  24.914  1.00  0.00     0.000 C 
BRANCH   2   3
ATOM      3  C   UNL     1     218.596  -6.843  24.794  1.00  0.00     0.000 C 
BRANCH   3   4
ATOM      4  C   UNL     1     217.552  -7.616  25.619  1.00  0.00     0.006 C 
BRANCH   4   5
ATOM      5  C   UNL     1     218.189  -8.720  26.471  1.00  0.00     0.053 C 
BRANCH   5   6
ATOM      6  C   UNL     1     218.154  -8.385  27.931  1.00  0.00     0.041 C 
ATOM      7  O   UNL     1     217.933  -9.286  28.783  1.00  0.00    -0.550 OA
ATOM      8  O   UNL     1     218.402  -7.084  28.354  1.00  0.00    -0.550 OA
ENDBRANCH   5   6
ENDBRANCH   4   5
ENDBRANCH   3   4
ENDBRANCH   2   3
ENDBRANCH   1   2
BRANCH   1   9
ATOM      9  C   UNL     1     221.594  -8.413  23.159  1.00  0.00     0.000 C 
BRANCH   9  10
ATOM     10  C   UNL     1     221.257  -8.731  21.695  1.00  0.00    -0.000 C 
BRANCH  10  11
ATOM     11  C   UNL     1     219.805  -8.356  21.372  1.00  0.00    -0.000 C 
BRANCH  11  12
ATOM     12  C   UNL     1     218.909  -9.600  21.335  1.00  0.00    -0.000 C 
BRANCH  12  13
ATOM     13  C   UNL     1     217.890  -9.578  22.481  1.00  0.00    -0.003 C 
ATOM     14  C   UNL     1     217.885 -10.904  23.238  1.00  0.00     0.004 C 
ENDBRANCH  12  13
ENDBRANCH  11  12
ENDBRANCH  10  11
ENDBRANCH   9  10
ENDBRANCH   1   9
TORSDOF 10
ENDMDL
MODEL 4
REMARK VINA RESULT:    -5.227      1.121      2.465
REMARK INTER + INTRA:          -9.647
REMARK INTER:                  -8.397
REMARK INTRA:                  -1.250
REMARK UNBOUND:                -1.365
REMARK SMILES CCCCCCCCCCCC(=O)[O-]
REMARK SMILES IDX 7 1 8 2 9 3 10 4 11 5 12 6 13 7 14 8 6 9 5 10 4 11 3 12 2 13
REMARK SMILES IDX 1 14
REMARK H PARENT
REMARK Flexibility Score: inf
ROOT
ATOM      1  C   UNL     1     221.865  -8.661  23.226  1.00  0.00     0.000 C 
ENDROOT
BRANCH   1   2
ATOM      2  C   UNL     1     221.258  -8.090  21.933  1.00  0.00     0.000 C 
BRANCH   2   3
ATOM      3  C   UNL     1     220.480  -9.145  21.132  1.00  0.00     0.000 C 
BRANCH   3   4
ATOM      4  C   UNL     1     219.006  -8.759  20.913  1.00  0.00     0.006 C 
BRANCH   4   5
ATOM      5  C   UNL     1     218.152  -9.004  22.163  1.00  0.00     0.053 C 
BRANCH   5   6
ATOM      6  C   UNL     1     218.312 -10.400  22.681  1.00  0.00     0.041 C 
ATOM      7  O   UNL     1     217.881 -11.377  22.012  1.00  0.00    -0.550 OA
ATOM      8  O   UNL     1     218.968 -10.627  23.884  1.00  0.00    -0.550 OA
ENDBRANCH   5   6
ENDBRANCH   4   5
ENDBRANCH   3   4
ENDBRANCH   2   3
ENDBRANCH   1   2
BRANCH   1   9
ATOM      9  C   UNL     1     221.306  -7.985  24.489  1.00  0.00     0.000 C 
BRANCH   9  10
ATOM     10  C   UNL     1     220.565  -6.675  24.183  1.00  0.00    -0.000 C 
BRANCH  10  11
ATOM     11  C   UNL     1     219.554  -6.345  25.289  1.00  0.00    -0.000 C 
BRANCH  11  12
ATOM     12  C   UNL     1     218.216  -7.052  25.040  1.00  0.00    -0.000 C 
BRANCH  12  13
ATOM     13  C   UNL     1     217.794  -7.875  26.264  1.00  0.00    -0.003 C 
ATOM     14  C   UNL     1     218.374  -7.287  27.548  1.00  0.00     0.004 C 
ENDBRANCH  12  13
ENDBRANCH  11  12
ENDBRANCH  10  11
ENDBRANCH   9  10
ENDBRANCH   1   9
TORSDOF 10
ENDMDL
MODEL 5
REMARK VINA RESULT:    -5.194      2.666      4.660
REMARK INTER + INTRA:          -9.595
REMARK INTER:                  -8.255
REMARK INTRA:                  -1.340
REMARK UNBOUND:                -1.365
REMARK SMILES CCCCCCCCCCCC(=O)[O-]
REMARK SMILES IDX 7 1 8 2 9 3 10 4 11 5 12 6 13 7 14 8 6 9 5 10 4 11 3 12 2 13
REMARK SMILES IDX 1 14
REMARK H PARENT
REMARK Flexibility Score: inf
ROOT
ATOM      1  C   UNL     1     219.612  -6.452  24.653  1.00  0.00     0.000 C 
ENDROOT
BRANCH   1   2
ATOM      2  C   UNL     1     218.403  -7.347  24.329  1.00  0.00     0.000 C 
BRANCH   2   3
ATOM      3  C   UNL     1     217.528  -7.626  25.561  1.00  0.00     0.000 C 
BRANCH   3   4
ATOM      4  C   UNL     1     217.810  -9.000  26.192  1.00  0.00     0.006 C 
BRANCH   4   5
ATOM      5  C   UNL     1     217.167  -9.144  27.577  1.00  0.00     0.053 C 
BRANCH   5   6
ATOM      6  C   UNL     1     218.131  -8.813  28.674  1.00  0.00     0.041 C 
ATOM      7  O   UNL     1     218.617  -9.729  29.390  1.00  0.00    -0.550 OA
ATOM      8  O   UNL     1     218.523  -7.496  28.884  1.00  0.00    -0.550 OA
ENDBRANCH   5   6
ENDBRANCH   4   5
ENDBRANCH   3   4
ENDBRANCH   2   3
ENDBRANCH   1   2
BRANCH   1   9
ATOM      9  C   UNL     1     220.875  -6.864  23.880  1.00  0.00     0.000 C 
BRANCH   9  10
ATOM     10  C   UNL     1     220.664  -8.124  23.026  1.00  0.00    -0.000 C 
BRANCH  10  11
ATOM     11  C   UNL     1     221.599  -9.254  23.475  1.00  0.00    -0.000 C 
BRANCH  11  12
ATOM     12  C   UNL     1     220.870 -10.235  24.402  1.00  0.00    -0.000 C 
BRANCH  12  13
ATOM     13  C   UNL     1     221.636 -10.418  25.718  1.00  0.00    -0.003 C 
ATOM     14  C   UNL     1     221.398  -9.241  26.662  1.00  0.00     0.004 C 
ENDBRANCH  12  13
ENDBRANCH  11  12
ENDBRANCH  10  11
ENDBRANCH   9  10
ENDBRANCH   1   9
TORSDOF 10
ENDMDL
MODEL 6
REMARK VINA RESULT:    -5.188      1.604      2.858
REMARK INTER + INTRA:          -9.585
REMARK INTER:                  -8.450
REMARK INTRA:                  -1.135
REMARK UNBOUND:                -1.365
REMARK SMILES CCCCCCCCCCCC(=O)[O-]
REMARK SMILES IDX 7 1 8 2 9 3 10 4 11 5 12 6 13 7 14 8 6 9 5 10 4 11 3 12 2 13
REMARK SMILES IDX 1 14
REMARK H PARENT
REMARK Flexibility Score: inf
ROOT
ATOM      1  C   UNL     1     218.444  -9.536  21.933  1.00  0.00     0.000 C 
ENDROOT
BRANCH   1   2
ATOM      2  C   UNL     1     219.381  -8.405  21.475  1.00  0.00     0.000 C 
BRANCH   2   3
ATOM      3  C   UNL     1     220.761  -8.922  21.042  1.00  0.00     0.000 C 
BRANCH   3   4
ATOM      4  C   UNL     1     221.887  -8.480  21.993  1.00  0.00     0.006 C 
BRANCH   4   5
ATOM      5  C   UNL     1     221.347  -7.766  23.238  1.00  0.00     0.053 C 
BRANCH   5   6
ATOM      6  C   UNL     1     221.461  -8.621  24.462  1.00  0.00     0.041 C 
ATOM      7  O   UNL     1     221.697  -8.096  25.583  1.00  0.00    -0.550 OA
ATOM      8  O   UNL     1     221.271  -9.995  24.373  1.00  0.00    -0.550 OA
ENDBRANCH   5   6
ENDBRANCH   4   5
ENDBRANCH   3   4
ENDBRANCH   2   3
ENDBRANCH   1   2
BRANCH   1   9
ATOM      9  C   UNL     1     217.890  -9.306  23.349  1.00  0.00     0.000 C 
BRANCH   9  10
ATOM     10  C   UNL     1     217.667  -7.820  23.665  1.00  0.00    -0.000 C 
BRANCH  10  11
ATOM     11  C   UNL     1     217.684  -7.572  25.179  1.00  0.00    -0.000 C 
BRANCH  11  12
ATOM     12  C   UNL     1     218.028  -8.856  25.943  1.00  0.00    -0.000 C 
BRANCH  12  13
ATOM     13  C   UNL     1     217.155  -9.001  27.195  1.00  0.00    -0.003 C 
ATOM     14  C   UNL     1     218.006  -9.000  28.462  1.00  0.00     0.004 C 
ENDBRANCH  12  13
ENDBRANCH  11  12
ENDBRANCH  10  11
ENDBRANCH   9  10
ENDBRANCH   1   9
TORSDOF 10
ENDMDL
MODEL 7
REMARK VINA RESULT:    -5.179      2.422      5.002
REMARK INTER + INTRA:          -9.571
REMARK INTER:                  -8.150
REMARK INTRA:                  -1.421
REMARK UNBOUND:                -1.365
REMARK SMILES CCCCCCCCCCCC(=O)[O-]
REMARK SMILES IDX 7 1 8 2 9 3 10 4 11 5 12 6 13 7 14 8 6 9 5 10 4 11 3 12 2 13
REMARK SMILES IDX 1 14
REMARK H PARENT
REMARK Flexibility Score: inf
ROOT
ATOM      1  C   UNL     1     217.692  -9.283  23.108  1.00  0.00     0.000 C 
ENDROOT
BRANCH   1   2
ATOM      2  C   UNL     1     217.624  -7.802  23.520  1.00  0.00     0.000 C 
BRANCH   2   3
ATOM      3  C   UNL     1     217.772  -7.605  25.037  1.00  0.00     0.000 C 
BRANCH   3   4
ATOM      4  C   UNL     1     217.908  -8.936  25.799  1.00  0.00     0.006 C 
BRANCH   4   5
ATOM      5  C   UNL     1     217.226  -8.888  27.172  1.00  0.00     0.053 C 
BRANCH   5   6
ATOM      6  C   UNL     1     218.193  -8.536  28.260  1.00  0.00     0.041 C 
ATOM      7  O   UNL     1     218.490  -7.331  28.479  1.00  0.00    -0.550 OA
ATOM      8  O   UNL     1     218.738  -9.535  29.058  1.00  0.00    -0.550 OA
ENDBRANCH   5   6
ENDBRANCH   4   5
ENDBRANCH   3   4
ENDBRANCH   2   3
ENDBRANCH   1   2
BRANCH   1   9
ATOM      9  C   UNL     1     218.630  -9.519  21.912  1.00  0.00     0.000 C 
BRANCH   9  10
ATOM     10  C   UNL     1     219.544  -8.318  21.628  1.00  0.00    -0.000 C 
BRANCH  10  11
ATOM     11  C   UNL     1     220.946  -8.546  22.209  1.00  0.00    -0.000 C 
BRANCH  11  12
ATOM     12  C   UNL     1     221.228  -7.575  23.363  1.00  0.00    -0.000 C 
BRANCH  12  13
ATOM     13  C   UNL     1     221.508  -8.337  24.664  1.00  0.00    -0.003 C 
ATOM     14  C   UNL     1     221.335  -9.841  24.469  1.00  0.00     0.004 C 
ENDBRANCH  12  13
ENDBRANCH  11  12
ENDBRANCH  10  11
ENDBRANCH   9  10
ENDBRANCH   1   9
TORSDOF 10
ENDMDL
MODEL 8
REMARK VINA RESULT:    -5.134      2.205      5.049
REMARK INTER + INTRA:          -9.500
REMARK INTER:                  -8.313
REMARK INTRA:                  -1.187
REMARK UNBOUND:                -1.365
REMARK SMILES CCCCCCCCCCCC(=O)[O-]
REMARK SMILES IDX 7 1 8 2 9 3 10 4 11 5 12 6 13 7 14 8 6 9 5 10 4 11 3 12 2 13
REMARK SMILES IDX 1 14
REMARK H PARENT
REMARK Flexibility Score: inf
ROOT
ATOM      1  C   UNL     1     218.271  -6.906  24.268  1.00  0.00     0.000 C 
ENDROOT
BRANCH   1   2
ATOM      2  C   UNL     1     217.423  -7.725  25.256  1.00  0.00     0.000 C 
BRANCH   2   3
ATOM      3  C   UNL     1     217.883  -7.552  26.712  1.00  0.00     0.000 C 
BRANCH   3   4
ATOM      4  C   UNL     1     217.562  -8.777  27.587  1.00  0.00     0.006 C 
BRANCH   4   5
ATOM      5  C   UNL     1     218.407  -8.812  28.867  1.00  0.00     0.053 C 
BRANCH   5   6
ATOM      6  C   UNL     1     219.860  -8.589  28.579  1.00  0.00     0.041 C 
ATOM      7  O   UNL     1     220.462  -7.604  29.084  1.00  0.00    -0.550 OA
ATOM      8  O   UNL     1     220.559  -9.489  27.784  1.00  0.00    -0.550 OA
ENDBRANCH   5   6
ENDBRANCH   4   5
ENDBRANCH   3   4
ENDBRANCH   2   3
ENDBRANCH   1   2
BRANCH   1   9
ATOM      9  C   UNL     1     219.562  -6.367  24.906  1.00  0.00     0.000 C 
BRANCH   9  10
ATOM     10  C   UNL     1     220.829  -6.855  24.187  1.00  0.00    -0.000 C 
BRANCH  10  11
ATOM     11  C   UNL     1     220.484  -7.899  23.117  1.00  0.00    -0.000 C 
BRANCH  11  12
ATOM     12  C   UNL     1     221.200  -9.227  23.392  1.00  0.00    -0.000 C 
BRANCH  12  13
ATOM     13  C   UNL     1     220.337 -10.146  24.265  1.00  0.00    -0.003 C 
ATOM     14  C   UNL     1     219.038 -10.518  23.554  1.00  0.00     0.004 C 
ENDBRANCH  12  13
ENDBRANCH  11  12
ENDBRANCH  10  11
ENDBRANCH   9  10
ENDBRANCH   1   9
TORSDOF 10
ENDMDL
MODEL 9
REMARK VINA RESULT:    -5.079      2.826      5.277
REMARK INTER + INTRA:          -9.414
REMARK INTER:                  -8.151
REMARK INTRA:                  -1.263
REMARK UNBOUND:                -1.365
REMARK SMILES CCCCCCCCCCCC(=O)[O-]
REMARK SMILES IDX 7 1 8 2 9 3 10 4 11 5 12 6 13 7 14 8 6 9 5 10 4 11 3 12 2 13
REMARK SMILES IDX 1 14
REMARK H PARENT
REMARK Flexibility Score: inf
ROOT
ATOM      1  C   UNL     1     218.583  -6.856  25.177  1.00  0.00     0.000 C 
ENDROOT
BRANCH   1   2
ATOM      2  C   UNL     1     218.241  -7.207  26.635  1.00  0.00     0.000 C 
BRANCH   2   3
ATOM      3  C   UNL     1     217.484  -8.539  26.758  1.00  0.00     0.000 C 
BRANCH   3   4
ATOM      4  C   UNL     1     217.634  -9.183  28.147  1.00  0.00     0.006 C 
BRANCH   4   5
ATOM      5  C   UNL     1     218.196  -8.200  29.183  1.00  0.00     0.053 C 
BRANCH   5   6
ATOM      6  C   UNL     1     219.417  -8.744  29.860  1.00  0.00     0.041 C 
ATOM      7  O   UNL     1     219.730  -9.957  29.723  1.00  0.00    -0.550 OA
ATOM      8  O   UNL     1     220.229  -7.904  30.612  1.00  0.00    -0.550 OA
ENDBRANCH   5   6
ENDBRANCH   4   5
ENDBRANCH   3   4
ENDBRANCH   2   3
ENDBRANCH   1   2
BRANCH   1   9
ATOM      9  C   UNL     1     217.551  -7.409  24.179  1.00  0.00     0.000 C 
BRANCH   9  10
ATOM     10  C   UNL     1     218.203  -8.029  22.934  1.00  0.00    -0.000 C 
BRANCH  10  11
ATOM     11  C   UNL     1     217.810  -9.505  22.788  1.00  0.00    -0.000 C 
BRANCH  11  12
ATOM     12  C   UNL     1     218.621 -10.388  23.744  1.00  0.00    -0.000 C 
BRANCH  12  13
ATOM     13  C   UNL     1     220.112 -10.037  23.683  1.00  0.00    -0.003 C 
ATOM     14  C   UNL     1     220.708  -9.920  25.084  1.00  0.00     0.004 C 
ENDBRANCH  12  13
ENDBRANCH  11  12
ENDBRANCH  10  11
ENDBRANCH   9  10
ENDBRANCH   1   9
TORSDOF 10
ENDMDL
