MODEL 1
REMARK VINA RESULT:    -4.775      0.000      0.000
REMARK INTER + INTRA:         -11.727
REMARK INTER:                  -8.962
REMARK INTRA:                  -2.765
REMARK UNBOUND:                -2.765
REMARK SMILES CCCCCC=CCC=CCCCCCCCC(=O)OC
REMARK SMILES IDX 11 1 10 2 9 3 8 4 7 5 6 6 5 7 4 8 3 9 2 10 1 11 12 12 13 13
REMARK SMILES IDX 14 14 15 15 16 16 17 17 18 18 19 19 20 20 21 21
REMARK H PARENT
REMARK Flexibility Score: inf
ROOT
ATOM      1  C   UNL     1     135.551   4.032  95.786  1.00  0.00     0.027 C 
ENDROOT
BRANCH   1   2
ATOM      2  C   UNL     1     136.938   3.445  95.720  1.00  0.00    -0.031 C 
ATOM      3  C   UNL     1     137.257   2.307  95.073  1.00  0.00    -0.027 C 
BRANCH   3   4
ATOM      4  C   UNL     1     136.264   1.411  94.377  1.00  0.00     0.054 C 
BRANCH   4   5
ATOM      5  C   UNL     1     135.588   0.482  95.353  1.00  0.00    -0.027 C 
ATOM      6  C   UNL     1     134.260   0.427  95.566  1.00  0.00    -0.031 C 
BRANCH   6   7
ATOM      7  C   UNL     1     133.246   1.332  94.912  1.00  0.00     0.027 C 
BRANCH   7   8
ATOM      8  C   UNL     1     132.974   0.925  93.454  1.00  0.00     0.004 C 
BRANCH   8   9
ATOM      9  C   UNL     1     131.625   1.454  92.918  1.00  0.00     0.000 C 
BRANCH   9  10
ATOM     10  C   UNL     1     131.705   1.988  91.477  1.00  0.00    -0.003 C 
ATOM     11  C   UNL     1     130.435   2.715  91.039  1.00  0.00     0.004 C 
ENDBRANCH   9  10
ENDBRANCH   8   9
ENDBRANCH   7   8
ENDBRANCH   6   7
ENDBRANCH   4   5
ENDBRANCH   3   4
ENDBRANCH   1   2
BRANCH   1  12
ATOM     12  C   UNL     1     135.559   5.496  95.334  1.00  0.00     0.004 C 
BRANCH  12  13
ATOM     13  C   UNL     1     135.111   5.619  93.870  1.00  0.00     0.000 C 
BRANCH  13  14
ATOM     14  C   UNL     1     134.048   4.578  93.486  1.00  0.00     0.000 C 
BRANCH  14  15
ATOM     15  C   UNL     1     132.683   5.216  93.175  1.00  0.00     0.001 C 
BRANCH  15  16
ATOM     16  C   UNL     1     131.635   4.934  94.265  1.00  0.00     0.012 C 
BRANCH  16  17
ATOM     17  C   UNL     1     131.809   5.828  95.502  1.00  0.00     0.123 C 
BRANCH  17  18
ATOM     18  C   UNL     1     131.810   7.274  95.115  1.00  0.00     0.305 C 
ATOM     19  O   UNL     1     132.797   8.002  95.407  1.00  0.00    -0.252 OA
BRANCH  18  20
ATOM     20  O   UNL     1     130.705   7.807  94.443  1.00  0.00    -0.469 OA
ATOM     21  C   UNL     1     130.822   8.498  93.205  1.00  0.00     0.282 C 
ENDBRANCH  18  20
ENDBRANCH  17  18
ENDBRANCH  16  17
ENDBRANCH  15  16
ENDBRANCH  14  15
ENDBRANCH  13  14
ENDBRANCH  12  13
ENDBRANCH   1  12
TORSDOF 15
ENDMDL
MODEL 2
REMARK VINA RESULT:    -4.763      2.646      5.510
REMARK INTER + INTRA:         -11.705
REMARK INTER:                  -9.339
REMARK INTRA:                  -2.366
REMARK UNBOUND:                -2.765
REMARK SMILES CCCCCC=CCC=CCCCCCCCC(=O)OC
REMARK SMILES IDX 11 1 10 2 9 3 8 4 7 5 6 6 5 7 4 8 3 9 2 10 1 11 12 12 13 13
REMARK SMILES IDX 14 14 15 15 16 16 17 17 18 18 19 19 20 20 21 21
REMARK H PARENT
REMARK Flexibility Score: inf
ROOT
ATOM      1  C   UNL     1     136.718   1.360  94.315  1.00  0.00     0.027 C 
ENDROOT
BRANCH   1   2
ATOM      2  C   UNL     1     137.008   2.393  95.373  1.00  0.00    -0.031 C 
ATOM      3  C   UNL     1     136.172   3.393  95.715  1.00  0.00    -0.027 C 
BRANCH   3   4
ATOM      4  C   UNL     1     134.851   3.672  95.043  1.00  0.00     0.054 C 
BRANCH   4   5
ATOM      5  C   UNL     1     135.029   4.558  93.836  1.00  0.00    -0.027 C 
ATOM      6  C   UNL     1     134.729   5.870  93.797  1.00  0.00    -0.031 C 
BRANCH   6   7
ATOM      7  C   UNL     1     134.104   6.644  94.931  1.00  0.00     0.027 C 
BRANCH   7   8
ATOM      8  C   UNL     1     132.628   6.972  94.651  1.00  0.00     0.004 C 
BRANCH   8   9
ATOM      9  C   UNL     1     131.651   5.937  95.253  1.00  0.00     0.000 C 
BRANCH   9  10
ATOM     10  C   UNL     1     131.194   4.867  94.247  1.00  0.00    -0.003 C 
ATOM     11  C   UNL     1     131.173   5.374  92.806  1.00  0.00     0.004 C 
ENDBRANCH   9  10
ENDBRANCH   8   9
ENDBRANCH   7   8
ENDBRANCH   6   7
ENDBRANCH   4   5
ENDBRANCH   3   4
ENDBRANCH   1   2
BRANCH   1  12
ATOM     12  C   UNL     1     136.478  -0.015  94.950  1.00  0.00     0.004 C 
BRANCH  12  13
ATOM     13  C   UNL     1     135.283   0.028  95.914  1.00  0.00     0.000 C 
BRANCH  13  14
ATOM     14  C   UNL     1     134.007  -0.570  95.300  1.00  0.00     0.000 C 
BRANCH  14  15
ATOM     15  C   UNL     1     133.760  -0.083  93.862  1.00  0.00     0.001 C 
BRANCH  15  16
ATOM     16  C   UNL     1     132.624   0.951  93.773  1.00  0.00     0.012 C 
BRANCH  16  17
ATOM     17  C   UNL     1     132.744   1.860  92.542  1.00  0.00     0.123 C 
BRANCH  17  18
ATOM     18  C   UNL     1     131.931   1.323  91.406  1.00  0.00     0.305 C 
ATOM     19  O   UNL     1     130.693   1.136  91.552  1.00  0.00    -0.252 OA
BRANCH  18  20
ATOM     20  O   UNL     1     132.559   1.020  90.193  1.00  0.00    -0.469 OA
ATOM     21  C   UNL     1     132.342  -0.205  89.504  1.00  0.00     0.282 C 
ENDBRANCH  18  20
ENDBRANCH  17  18
ENDBRANCH  16  17
ENDBRANCH  15  16
ENDBRANCH  14  15
ENDBRANCH  13  14
ENDBRANCH  12  13
ENDBRANCH   1  12
TORSDOF 15
ENDMDL
MODEL 3
REMARK VINA RESULT:    -4.694      1.396      2.925
REMARK INTER + INTRA:         -11.575
REMARK INTER:                  -9.093
REMARK INTRA:                  -2.482
REMARK UNBOUND:                -2.765
REMARK SMILES CCCCCC=CCC=CCCCCCCCC(=O)OC
REMARK SMILES IDX 11 1 10 2 9 3 8 4 7 5 6 6 5 7 4 8 3 9 2 10 1 11 12 12 13 13
REMARK SMILES IDX 14 14 15 15 16 16 17 17 18 18 19 19 20 20 21 21
REMARK H PARENT
REMARK Flexibility Score: inf
ROOT
ATOM      1  C   UNL     1     136.752   0.875  94.287  1.00  0.00     0.027 C 
ENDROOT
BRANCH   1   2
ATOM      2  C   UNL     1     136.163  -0.115  95.258  1.00  0.00    -0.031 C 
ATOM      3  C   UNL     1     134.883  -0.534  95.242  1.00  0.00    -0.027 C 
BRANCH   3   4
ATOM      4  C   UNL     1     133.828  -0.024  94.293  1.00  0.00     0.054 C 
BRANCH   4   5
ATOM      5  C   UNL     1     133.041   1.106  94.908  1.00  0.00    -0.027 C 
ATOM      6  C   UNL     1     132.644   2.210  94.249  1.00  0.00    -0.031 C 
BRANCH   6   7
ATOM      7  C   UNL     1     132.981   2.524  92.813  1.00  0.00     0.027 C 
BRANCH   7   8
ATOM      8  C   UNL     1     131.877   2.053  91.852  1.00  0.00     0.004 C 
BRANCH   8   9
ATOM      9  C   UNL     1     132.329   0.902  90.926  1.00  0.00     0.000 C 
BRANCH   9  10
ATOM     10  C   UNL     1     131.683  -0.451  91.268  1.00  0.00    -0.003 C 
ATOM     11  C   UNL     1     130.623  -0.346  92.363  1.00  0.00     0.004 C 
ENDBRANCH   9  10
ENDBRANCH   8   9
ENDBRANCH   7   8
ENDBRANCH   6   7
ENDBRANCH   4   5
ENDBRANCH   3   4
ENDBRANCH   1   2
BRANCH   1  12
ATOM     12  C   UNL     1     137.245   2.128  95.020  1.00  0.00     0.004 C 
BRANCH  12  13
ATOM     13  C   UNL     1     136.094   3.121  95.240  1.00  0.00     0.000 C 
BRANCH  13  14
ATOM     14  C   UNL     1     136.578   4.475  95.783  1.00  0.00     0.000 C 
BRANCH  14  15
ATOM     15  C   UNL     1     135.641   5.633  95.398  1.00  0.00     0.001 C 
BRANCH  15  16
ATOM     16  C   UNL     1     134.156   5.234  95.447  1.00  0.00     0.012 C 
BRANCH  16  17
ATOM     17  C   UNL     1     133.304   5.989  94.415  1.00  0.00     0.123 C 
BRANCH  17  18
ATOM     18  C   UNL     1     131.873   6.044  94.849  1.00  0.00     0.305 C 
ATOM     19  O   UNL     1     131.015   5.316  94.279  1.00  0.00    -0.252 OA
BRANCH  18  20
ATOM     20  O   UNL     1     131.499   6.916  95.876  1.00  0.00    -0.469 OA
ATOM     21  C   UNL     1     130.604   8.002  95.670  1.00  0.00     0.282 C 
ENDBRANCH  18  20
ENDBRANCH  17  18
ENDBRANCH  16  17
ENDBRANCH  15  16
ENDBRANCH  14  15
ENDBRANCH  13  14
ENDBRANCH  12  13
ENDBRANCH   1  12
TORSDOF 15
ENDMDL
MODEL 4
REMARK VINA RESULT:    -4.667      1.268      2.520
REMARK INTER + INTRA:         -11.524
REMARK INTER:                  -9.197
REMARK INTRA:                  -2.327
REMARK UNBOUND:                -2.765
REMARK SMILES CCCCCC=CCC=CCCCCCCCC(=O)OC
REMARK SMILES IDX 11 1 10 2 9 3 8 4 7 5 6 6 5 7 4 8 3 9 2 10 1 11 12 12 13 13
REMARK SMILES IDX 14 14 15 15 16 16 17 17 18 18 19 19 20 20 21 21
REMARK H PARENT
REMARK Flexibility Score: inf
ROOT
ATOM      1  C   UNL     1     136.259   1.682  94.359  1.00  0.00     0.027 C 
ENDROOT
BRANCH   1   2
ATOM      2  C   UNL     1     136.584   0.313  94.900  1.00  0.00    -0.031 C 
ATOM      3  C   UNL     1     135.670  -0.568  95.351  1.00  0.00    -0.027 C 
BRANCH   3   4
ATOM      4  C   UNL     1     134.191  -0.294  95.447  1.00  0.00     0.054 C 
BRANCH   4   5
ATOM      5  C   UNL     1     133.465  -0.772  94.215  1.00  0.00    -0.027 C 
ATOM      6  C   UNL     1     132.931   0.035  93.279  1.00  0.00    -0.031 C 
BRANCH   6   7
ATOM      7  C   UNL     1     132.912   1.541  93.350  1.00  0.00     0.027 C 
BRANCH   7   8
ATOM      8  C   UNL     1     132.036   2.153  92.243  1.00  0.00     0.004 C 
BRANCH   8   9
ATOM      9  C   UNL     1     130.915   3.065  92.791  1.00  0.00     0.000 C 
BRANCH   9  10
ATOM     10  C   UNL     1     130.228   2.504  94.048  1.00  0.00    -0.003 C 
ATOM     11  C   UNL     1     129.176   1.443  93.730  1.00  0.00     0.004 C 
ENDBRANCH   9  10
ENDBRANCH   8   9
ENDBRANCH   7   8
ENDBRANCH   6   7
ENDBRANCH   4   5
ENDBRANCH   3   4
ENDBRANCH   1   2
BRANCH   1  12
ATOM     12  C   UNL     1     136.618   2.768  95.378  1.00  0.00     0.004 C 
BRANCH  12  13
ATOM     13  C   UNL     1     135.363   3.274  96.105  1.00  0.00     0.000 C 
BRANCH  13  14
ATOM     14  C   UNL     1     135.177   4.794  95.978  1.00  0.00     0.000 C 
BRANCH  14  15
ATOM     15  C   UNL     1     135.489   5.309  94.562  1.00  0.00     0.001 C 
BRANCH  15  16
ATOM     16  C   UNL     1     134.240   5.381  93.669  1.00  0.00     0.012 C 
BRANCH  16  17
ATOM     17  C   UNL     1     132.945   5.578  94.472  1.00  0.00     0.123 C 
BRANCH  17  18
ATOM     18  C   UNL     1     132.579   7.027  94.537  1.00  0.00     0.305 C 
ATOM     19  O   UNL     1     133.068   7.759  95.440  1.00  0.00    -0.252 OA
BRANCH  18  20
ATOM     20  O   UNL     1     131.683   7.553  93.601  1.00  0.00    -0.469 OA
ATOM     21  C   UNL     1     130.535   6.841  93.155  1.00  0.00     0.282 C 
ENDBRANCH  18  20
ENDBRANCH  17  18
ENDBRANCH  16  17
ENDBRANCH  15  16
ENDBRANCH  14  15
ENDBRANCH  13  14
ENDBRANCH  12  13
ENDBRANCH   1  12
TORSDOF 15
ENDMDL
MODEL 5
REMARK VINA RESULT:    -4.656      2.132      5.423
REMARK INTER + INTRA:         -11.504
REMARK INTER:                  -9.346
REMARK INTRA:                  -2.158
REMARK UNBOUND:                -2.765
REMARK SMILES CCCCCC=CCC=CCCCCCCCC(=O)OC
REMARK SMILES IDX 11 1 10 2 9 3 8 4 7 5 6 6 5 7 4 8 3 9 2 10 1 11 12 12 13 13
REMARK SMILES IDX 14 14 15 15 16 16 17 17 18 18 19 19 20 20 21 21
REMARK H PARENT
REMARK Flexibility Score: inf
ROOT
ATOM      1  C   UNL     1     136.602   1.753  94.998  1.00  0.00     0.027 C 
ENDROOT
BRANCH   1   2
ATOM      2  C   UNL     1     135.633   2.326  96.000  1.00  0.00    -0.031 C 
ATOM      3  C   UNL     1     135.274   3.623  96.062  1.00  0.00    -0.027 C 
BRANCH   3   4
ATOM      4  C   UNL     1     135.839   4.710  95.183  1.00  0.00     0.054 C 
BRANCH   4   5
ATOM      5  C   UNL     1     134.954   4.961  93.988  1.00  0.00    -0.027 C 
ATOM      6  C   UNL     1     134.025   5.933  93.912  1.00  0.00    -0.031 C 
BRANCH   6   7
ATOM      7  C   UNL     1     133.676   6.879  95.035  1.00  0.00     0.027 C 
BRANCH   7   8
ATOM      8  C   UNL     1     132.352   6.491  95.715  1.00  0.00     0.004 C 
BRANCH   8   9
ATOM      9  C   UNL     1     131.161   7.367  95.266  1.00  0.00     0.000 C 
BRANCH   9  10
ATOM     10  C   UNL     1     131.370   8.868  95.530  1.00  0.00    -0.003 C 
ATOM     11  C   UNL     1     130.870   9.751  94.388  1.00  0.00     0.004 C 
ENDBRANCH   9  10
ENDBRANCH   8   9
ENDBRANCH   7   8
ENDBRANCH   6   7
ENDBRANCH   4   5
ENDBRANCH   3   4
ENDBRANCH   1   2
BRANCH   1  12
ATOM     12  C   UNL     1     136.309   0.270  94.747  1.00  0.00     0.004 C 
BRANCH  12  13
ATOM     13  C   UNL     1     135.377  -0.296  95.829  1.00  0.00     0.000 C 
BRANCH  13  14
ATOM     14  C   UNL     1     134.135  -0.982  95.240  1.00  0.00     0.000 C 
BRANCH  14  15
ATOM     15  C   UNL     1     133.685  -0.348  93.913  1.00  0.00     0.001 C 
BRANCH  15  16
ATOM     16  C   UNL     1     132.751   0.857  94.119  1.00  0.00     0.012 C 
BRANCH  16  17
ATOM     17  C   UNL     1     133.149   2.070  93.265  1.00  0.00     0.123 C 
BRANCH  17  18
ATOM     18  C   UNL     1     132.008   2.506  92.400  1.00  0.00     0.305 C 
ATOM     19  O   UNL     1     131.691   1.824  91.388  1.00  0.00    -0.252 OA
BRANCH  18  20
ATOM     20  O   UNL     1     131.313   3.677  92.717  1.00  0.00    -0.469 OA
ATOM     21  C   UNL     1     130.565   3.823  93.918  1.00  0.00     0.282 C 
ENDBRANCH  18  20
ENDBRANCH  17  18
ENDBRANCH  16  17
ENDBRANCH  15  16
ENDBRANCH  14  15
ENDBRANCH  13  14
ENDBRANCH  12  13
ENDBRANCH   1  12
TORSDOF 15
ENDMDL
MODEL 6
REMARK VINA RESULT:    -4.515      2.458      6.100
REMARK INTER + INTRA:         -11.238
REMARK INTER:                  -9.428
REMARK INTRA:                  -1.810
REMARK UNBOUND:                -2.765
REMARK SMILES CCCCCC=CCC=CCCCCCCCC(=O)OC
REMARK SMILES IDX 11 1 10 2 9 3 8 4 7 5 6 6 5 7 4 8 3 9 2 10 1 11 12 12 13 13
REMARK SMILES IDX 14 14 15 15 16 16 17 17 18 18 19 19 20 20 21 21
REMARK H PARENT
REMARK Flexibility Score: inf
ROOT
ATOM      1  C   UNL     1     136.031   4.049  95.049  1.00  0.00     0.027 C 
ENDROOT
BRANCH   1   2
ATOM      2  C   UNL     1     135.010   4.342  96.118  1.00  0.00    -0.031 C 
ATOM      3  C   UNL     1     134.160   5.387  96.098  1.00  0.00    -0.027 C 
BRANCH   3   4
ATOM      4  C   UNL     1     134.148   6.461  95.040  1.00  0.00     0.054 C 
BRANCH   4   5
ATOM      5  C   UNL     1     133.001   6.270  94.080  1.00  0.00    -0.027 C 
ATOM      6  C   UNL     1     131.755   6.744  94.271  1.00  0.00    -0.031 C 
BRANCH   6   7
ATOM      7  C   UNL     1     131.294   7.481  95.504  1.00  0.00     0.027 C 
BRANCH   7   8
ATOM      8  C   UNL     1     131.655   8.975  95.443  1.00  0.00     0.004 C 
BRANCH   8   9
ATOM      9  C   UNL     1     130.467   9.869  95.021  1.00  0.00     0.000 C 
BRANCH   9  10
ATOM     10  C   UNL     1     130.719  10.649  93.720  1.00  0.00    -0.003 C 
ATOM     11  C   UNL     1     130.498   9.806  92.466  1.00  0.00     0.004 C 
ENDBRANCH   9  10
ENDBRANCH   8   9
ENDBRANCH   7   8
ENDBRANCH   6   7
ENDBRANCH   4   5
ENDBRANCH   3   4
ENDBRANCH   1   2
BRANCH   1  12
ATOM     12  C   UNL     1     136.914   2.863  95.452  1.00  0.00     0.004 C 
BRANCH  12  13
ATOM     13  C   UNL     1     136.540   1.606  94.652  1.00  0.00     0.000 C 
BRANCH  13  14
ATOM     14  C   UNL     1     135.465   0.758  95.351  1.00  0.00     0.000 C 
BRANCH  14  15
ATOM     15  C   UNL     1     134.260   0.469  94.440  1.00  0.00     0.001 C 
BRANCH  15  16
ATOM     16  C   UNL     1     133.147   1.521  94.579  1.00  0.00     0.012 C 
BRANCH  16  17
ATOM     17  C   UNL     1     133.124   2.520  93.412  1.00  0.00     0.123 C 
BRANCH  17  18
ATOM     18  C   UNL     1     132.228   2.035  92.317  1.00  0.00     0.305 C 
ATOM     19  O   UNL     1     131.122   2.606  92.110  1.00  0.00    -0.252 OA
BRANCH  18  20
ATOM     20  O   UNL     1     132.620   0.940  91.540  1.00  0.00    -0.469 OA
ATOM     21  C   UNL     1     132.221   0.781  90.184  1.00  0.00     0.282 C 
ENDBRANCH  18  20
ENDBRANCH  17  18
ENDBRANCH  16  17
ENDBRANCH  15  16
ENDBRANCH  14  15
ENDBRANCH  13  14
ENDBRANCH  12  13
ENDBRANCH   1  12
TORSDOF 15
ENDMDL
MODEL 7
REMARK VINA RESULT:    -4.486      3.042      5.367
REMARK INTER + INTRA:         -11.185
REMARK INTER:                  -8.564
REMARK INTRA:                  -2.621
REMARK UNBOUND:                -2.765
REMARK SMILES CCCCCC=CCC=CCCCCCCCC(=O)OC
REMARK SMILES IDX 11 1 10 2 9 3 8 4 7 5 6 6 5 7 4 8 3 9 2 10 1 11 12 12 13 13
REMARK SMILES IDX 14 14 15 15 16 16 17 17 18 18 19 19 20 20 21 21
REMARK H PARENT
REMARK Flexibility Score: inf
ROOT
ATOM      1  C   UNL     1     135.043   1.898  96.125  1.00  0.00     0.027 C 
ENDROOT
BRANCH   1   2
ATOM      2  C   UNL     1     136.316   2.269  95.410  1.00  0.00    -0.031 C 
ATOM      3  C   UNL     1     136.828   3.514  95.356  1.00  0.00    -0.027 C 
BRANCH   3   4
ATOM      4  C   UNL     1     136.170   4.737  95.944  1.00  0.00     0.054 C 
BRANCH   4   5
ATOM      5  C   UNL     1     135.635   5.642  94.862  1.00  0.00    -0.027 C 
ATOM      6  C   UNL     1     134.379   6.125  94.819  1.00  0.00    -0.031 C 
BRANCH   6   7
ATOM      7  C   UNL     1     133.290   5.782  95.806  1.00  0.00     0.027 C 
BRANCH   7   8
ATOM      8  C   UNL     1     131.932   6.362  95.379  1.00  0.00     0.004 C 
BRANCH   8   9
ATOM      9  C   UNL     1     131.928   6.893  93.927  1.00  0.00     0.000 C 
BRANCH   9  10
ATOM     10  C   UNL     1     130.564   6.761  93.229  1.00  0.00    -0.003 C 
ATOM     11  C   UNL     1     130.554   5.696  92.134  1.00  0.00     0.004 C 
ENDBRANCH   9  10
ENDBRANCH   8   9
ENDBRANCH   7   8
ENDBRANCH   6   7
ENDBRANCH   4   5
ENDBRANCH   3   4
ENDBRANCH   1   2
BRANCH   1  12
ATOM     12  C   UNL     1     133.955   1.495  95.124  1.00  0.00     0.004 C 
BRANCH  12  13
ATOM     13  C   UNL     1     134.082   2.300  93.822  1.00  0.00     0.000 C 
BRANCH  13  14
ATOM     14  C   UNL     1     132.799   3.072  93.476  1.00  0.00     0.000 C 
BRANCH  14  15
ATOM     15  C   UNL     1     131.531   2.369  93.993  1.00  0.00     0.001 C 
BRANCH  15  16
ATOM     16  C   UNL     1     130.565   1.983  92.861  1.00  0.00     0.012 C 
BRANCH  16  17
ATOM     17  C   UNL     1     130.455   0.464  92.666  1.00  0.00     0.123 C 
BRANCH  17  18
ATOM     18  C   UNL     1     131.800  -0.135  92.396  1.00  0.00     0.305 C 
ATOM     19  O   UNL     1     132.273  -0.998  93.185  1.00  0.00    -0.252 OA
BRANCH  18  20
ATOM     20  O   UNL     1     132.526   0.282  91.276  1.00  0.00    -0.469 OA
ATOM     21  C   UNL     1     132.182  -0.107  89.952  1.00  0.00     0.282 C 
ENDBRANCH  18  20
ENDBRANCH  17  18
ENDBRANCH  16  17
ENDBRANCH  15  16
ENDBRANCH  14  15
ENDBRANCH  13  14
ENDBRANCH  12  13
ENDBRANCH   1  12
TORSDOF 15
ENDMDL
MODEL 8
REMARK VINA RESULT:    -4.473      1.732      2.684
REMARK INTER + INTRA:         -11.160
REMARK INTER:                  -8.708
REMARK INTRA:                  -2.452
REMARK UNBOUND:                -2.765
REMARK SMILES CCCCCC=CCC=CCCCCCCCC(=O)OC
REMARK SMILES IDX 11 1 10 2 9 3 8 4 7 5 6 6 5 7 4 8 3 9 2 10 1 11 12 12 13 13
REMARK SMILES IDX 14 14 15 15 16 16 17 17 18 18 19 19 20 20 21 21
REMARK H PARENT
REMARK Flexibility Score: inf
ROOT
ATOM      1  C   UNL     1     135.250   5.461  93.946  1.00  0.00     0.027 C 
ENDROOT
BRANCH   1   2
ATOM      2  C   UNL     1     136.010   5.526  95.245  1.00  0.00    -0.031 C 
ATOM      3  C   UNL     1     136.566   4.463  95.860  1.00  0.00    -0.027 C 
BRANCH   3   4
ATOM      4  C   UNL     1     136.453   3.039  95.377  1.00  0.00     0.054 C 
BRANCH   4   5
ATOM      5  C   UNL     1     135.292   2.333  96.029  1.00  0.00    -0.027 C 
ATOM      6  C   UNL     1     134.299   1.714  95.362  1.00  0.00    -0.031 C 
BRANCH   6   7
ATOM      7  C   UNL     1     134.154   1.691  93.861  1.00  0.00     0.027 C 
BRANCH   7   8
ATOM      8  C   UNL     1     132.986   2.571  93.387  1.00  0.00     0.004 C 
BRANCH   8   9
ATOM      9  C   UNL     1     131.678   2.315  94.171  1.00  0.00     0.000 C 
BRANCH   9  10
ATOM     10  C   UNL     1     130.610   3.400  93.953  1.00  0.00    -0.003 C 
ATOM     11  C   UNL     1     130.577   3.926  92.519  1.00  0.00     0.004 C 
ENDBRANCH   9  10
ENDBRANCH   8   9
ENDBRANCH   7   8
ENDBRANCH   6   7
ENDBRANCH   4   5
ENDBRANCH   3   4
ENDBRANCH   1   2
BRANCH   1  12
ATOM     12  C   UNL     1     133.837   6.031  94.114  1.00  0.00     0.004 C 
BRANCH  12  13
ATOM     13  C   UNL     1     133.244   5.633  95.474  1.00  0.00     0.000 C 
BRANCH  13  14
ATOM     14  C   UNL     1     131.896   6.316  95.755  1.00  0.00     0.000 C 
BRANCH  14  15
ATOM     15  C   UNL     1     131.596   7.455  94.765  1.00  0.00     0.001 C 
BRANCH  15  16
ATOM     16  C   UNL     1     131.331   8.797  95.469  1.00  0.00     0.012 C 
BRANCH  16  17
ATOM     17  C   UNL     1     130.138   9.556  94.872  1.00  0.00     0.123 C 
BRANCH  17  18
ATOM     18  C   UNL     1     130.520  10.214  93.584  1.00  0.00     0.305 C 
ATOM     19  O   UNL     1     131.393  11.125  93.578  1.00  0.00    -0.252 OA
BRANCH  18  20
ATOM     20  O   UNL     1     129.893   9.821  92.397  1.00  0.00    -0.469 OA
ATOM     21  C   UNL     1     129.670   8.456  92.065  1.00  0.00     0.282 C 
ENDBRANCH  18  20
ENDBRANCH  17  18
ENDBRANCH  16  17
ENDBRANCH  15  16
ENDBRANCH  14  15
ENDBRANCH  13  14
ENDBRANCH  12  13
ENDBRANCH   1  12
TORSDOF 15
ENDMDL
MODEL 9
REMARK VINA RESULT:    -4.461      3.110      5.669
REMARK INTER + INTRA:         -11.137
REMARK INTER:                  -8.810
REMARK INTRA:                  -2.327
REMARK UNBOUND:                -2.765
REMARK SMILES CCCCCC=CCC=CCCCCCCCC(=O)OC
REMARK SMILES IDX 11 1 10 2 9 3 8 4 7 5 6 6 5 7 4 8 3 9 2 10 1 11 12 12 13 13
REMARK SMILES IDX 14 14 15 15 16 16 17 17 18 18 19 19 20 20 21 21
REMARK H PARENT
REMARK Flexibility Score: inf
ROOT
ATOM      1  C   UNL     1     134.111   0.061  95.468  1.00  0.00     0.027 C 
ENDROOT
BRANCH   1   2
ATOM      2  C   UNL     1     135.447  -0.636  95.489  1.00  0.00    -0.031 C 
ATOM      3  C   UNL     1     136.584  -0.125  94.977  1.00  0.00    -0.027 C 
BRANCH   3   4
ATOM      4  C   UNL     1     136.678   1.190  94.244  1.00  0.00     0.054 C 
BRANCH   4   5
ATOM      5  C   UNL     1     137.371   2.234  95.083  1.00  0.00    -0.027 C 
ATOM      6  C   UNL     1     136.751   3.257  95.700  1.00  0.00    -0.031 C 
BRANCH   6   7
ATOM      7  C   UNL     1     135.277   3.561  95.593  1.00  0.00     0.027 C 
BRANCH   7   8
ATOM      8  C   UNL     1     135.012   5.073  95.512  1.00  0.00     0.004 C 
BRANCH   8   9
ATOM      9  C   UNL     1     135.090   5.626  94.070  1.00  0.00     0.000 C 
BRANCH   9  10
ATOM     10  C   UNL     1     134.006   5.061  93.137  1.00  0.00    -0.003 C 
ATOM     11  C   UNL     1     132.591   5.451  93.561  1.00  0.00     0.004 C 
ENDBRANCH   9  10
ENDBRANCH   8   9
ENDBRANCH   7   8
ENDBRANCH   6   7
ENDBRANCH   4   5
ENDBRANCH   3   4
ENDBRANCH   1   2
BRANCH   1  12
ATOM     12  C   UNL     1     133.412  -0.145  94.120  1.00  0.00     0.004 C 
BRANCH  12  13
ATOM     13  C   UNL     1     133.127   1.201  93.439  1.00  0.00     0.000 C 
BRANCH  13  14
ATOM     14  C   UNL     1     131.905   1.919  94.035  1.00  0.00     0.000 C 
BRANCH  14  15
ATOM     15  C   UNL     1     130.783   2.127  93.003  1.00  0.00     0.001 C 
BRANCH  15  16
ATOM     16  C   UNL     1     131.319   2.516  91.615  1.00  0.00     0.012 C 
BRANCH  16  17
ATOM     17  C   UNL     1     130.674   1.706  90.481  1.00  0.00     0.123 C 
BRANCH  17  18
ATOM     18  C   UNL     1     131.450   0.455  90.216  1.00  0.00     0.305 C 
ATOM     19  O   UNL     1     132.668   0.527  89.896  1.00  0.00    -0.252 OA
BRANCH  18  20
ATOM     20  O   UNL     1     130.810  -0.785  90.311  1.00  0.00    -0.469 OA
ATOM     21  C   UNL     1     130.509  -1.581  89.171  1.00  0.00     0.282 C 
ENDBRANCH  18  20
ENDBRANCH  17  18
ENDBRANCH  16  17
ENDBRANCH  15  16
ENDBRANCH  14  15
ENDBRANCH  13  14
ENDBRANCH  12  13
ENDBRANCH   1  12
TORSDOF 15
ENDMDL
