MODEL 1
REMARK VINA RESULT:    -4.251      0.000      0.000
REMARK INTER + INTRA:          -6.127
REMARK INTER:                  -5.742
REMARK INTRA:                  -0.385
REMARK UNBOUND:                -0.385
REMARK SMILES CCCCCCC=CC(=O)[O-]
REMARK SMILES IDX 5 1 6 2 7 3 8 4 9 5 10 6 11 7 4 8 3 9 2 10 1 11
REMARK H PARENT
REMARK Flexibility Score: inf
ROOT
ATOM      1  C   UNL     1       5.940  -6.545  21.901  1.00  0.00     0.004 C 
ENDROOT
BRANCH   1   2
ATOM      2  C   UNL     1       7.395  -6.834  21.503  1.00  0.00     0.027 C 
BRANCH   2   3
ATOM      3  C   UNL     1       7.517  -7.310  20.082  1.00  0.00    -0.025 C 
ATOM      4  C   UNL     1       6.543  -7.107  19.190  1.00  0.00     0.020 C 
BRANCH   4   5
ATOM      5  C   UNL     1       6.653  -7.563  17.797  1.00  0.00     0.064 C 
ATOM      6  O   UNL     1       7.371  -6.921  16.987  1.00  0.00    -0.545 OA
ATOM      7  O   UNL     1       5.973  -8.694  17.358  1.00  0.00    -0.545 OA
ENDBRANCH   4   5
ENDBRANCH   2   3
ENDBRANCH   1   2
BRANCH   1   8
ATOM      8  C   UNL     1       5.834  -5.389  22.908  1.00  0.00     0.000 C 
BRANCH   8   9
ATOM      9  C   UNL     1       7.119  -4.547  22.914  1.00  0.00    -0.000 C 
BRANCH   9  10
ATOM     10  C   UNL     1       7.359  -3.846  24.260  1.00  0.00    -0.003 C 
ATOM     11  C   UNL     1       6.555  -4.468  25.402  1.00  0.00     0.004 C 
ENDBRANCH   9  10
ENDBRANCH   8   9
ENDBRANCH   1   8
TORSDOF 6
ENDMDL
MODEL 2
REMARK VINA RESULT:    -4.082      3.190      3.922
REMARK INTER + INTRA:          -5.898
REMARK INTER:                  -5.226
REMARK INTRA:                  -0.672
REMARK UNBOUND:                -0.385
REMARK SMILES CCCCCCC=CC(=O)[O-]
REMARK SMILES IDX 5 1 6 2 7 3 8 4 9 5 10 6 11 7 4 8 3 9 2 10 1 11
REMARK H PARENT
REMARK Flexibility Score: inf
ROOT
ATOM      1  C   UNL     1       6.131  -4.421  21.654  1.00  0.00     0.004 C 
ENDROOT
BRANCH   1   2
ATOM      2  C   UNL     1       6.796  -5.804  21.569  1.00  0.00     0.027 C 
BRANCH   2   3
ATOM      3  C   UNL     1       5.873  -6.912  21.996  1.00  0.00    -0.025 C 
ATOM      4  C   UNL     1       4.714  -6.658  22.610  1.00  0.00     0.020 C 
BRANCH   4   5
ATOM      5  C   UNL     1       3.801  -7.732  23.028  1.00  0.00     0.064 C 
ATOM      6  O   UNL     1       2.983  -7.525  23.962  1.00  0.00    -0.545 OA
ATOM      7  O   UNL     1       3.827  -8.976  22.407  1.00  0.00    -0.545 OA
ENDBRANCH   4   5
ENDBRANCH   2   3
ENDBRANCH   1   2
BRANCH   1   8
ATOM      8  C   UNL     1       7.026  -3.390  22.357  1.00  0.00     0.000 C 
BRANCH   8   9
ATOM      9  C   UNL     1       7.814  -4.040  23.505  1.00  0.00    -0.000 C 
BRANCH   9  10
ATOM     10  C   UNL     1       7.238  -3.692  24.886  1.00  0.00    -0.003 C 
ATOM     11  C   UNL     1       6.271  -4.754  25.409  1.00  0.00     0.004 C 
ENDBRANCH   9  10
ENDBRANCH   8   9
ENDBRANCH   1   8
TORSDOF 6
ENDMDL
MODEL 3
REMARK VINA RESULT:    -3.833     13.310     13.912
REMARK INTER + INTRA:          -5.561
REMARK INTER:                  -4.991
REMARK INTRA:                  -0.570
REMARK UNBOUND:                -0.385
REMARK SMILES CCCCCCC=CC(=O)[O-]
REMARK SMILES IDX 5 1 6 2 7 3 8 4 9 5 10 6 11 7 4 8 3 9 2 10 1 11
REMARK H PARENT
REMARK Flexibility Score: inf
ROOT
ATOM      1  C   UNL     1       0.707   4.302  17.136  1.00  0.00     0.004 C 
ENDROOT
BRANCH   1   2
ATOM      2  C   UNL     1      -0.791   4.284  17.477  1.00  0.00     0.027 C 
BRANCH   2   3
ATOM      3  C   UNL     1      -1.653   4.633  16.295  1.00  0.00    -0.025 C 
ATOM      4  C   UNL     1      -2.687   3.869  15.934  1.00  0.00     0.020 C 
BRANCH   4   5
ATOM      5  C   UNL     1      -3.540   4.202  14.785  1.00  0.00     0.064 C 
ATOM      6  O   UNL     1      -3.592   5.390  14.372  1.00  0.00    -0.545 OA
ATOM      7  O   UNL     1      -4.293   3.224  14.144  1.00  0.00    -0.545 OA
ENDBRANCH   4   5
ENDBRANCH   2   3
ENDBRANCH   1   2
BRANCH   1   8
ATOM      8  C   UNL     1       1.422   3.024  17.600  1.00  0.00     0.000 C 
BRANCH   8   9
ATOM      9  C   UNL     1       1.471   1.983  16.470  1.00  0.00    -0.000 C 
BRANCH   9  10
ATOM     10  C   UNL     1       0.806   0.655  16.864  1.00  0.00    -0.003 C 
ATOM     11  C   UNL     1      -0.689   0.627  16.548  1.00  0.00     0.004 C 
ENDBRANCH   9  10
ENDBRANCH   8   9
ENDBRANCH   1   8
TORSDOF 6
ENDMDL
MODEL 4
REMARK VINA RESULT:    -3.818     13.558     14.635
REMARK INTER + INTRA:          -5.541
REMARK INTER:                  -5.132
REMARK INTRA:                  -0.409
REMARK UNBOUND:                -0.385
REMARK SMILES CCCCCCC=CC(=O)[O-]
REMARK SMILES IDX 5 1 6 2 7 3 8 4 9 5 10 6 11 7 4 8 3 9 2 10 1 11
REMARK H PARENT
REMARK Flexibility Score: inf
ROOT
ATOM      1  C   UNL     1      -2.468   4.404  14.485  1.00  0.00     0.004 C 
ENDROOT
BRANCH   1   2
ATOM      2  C   UNL     1      -2.121   4.563  15.973  1.00  0.00     0.027 C 
BRANCH   2   3
ATOM      3  C   UNL     1      -1.023   3.633  16.408  1.00  0.00    -0.025 C 
ATOM      4  C   UNL     1       0.191   4.087  16.732  1.00  0.00     0.020 C 
BRANCH   4   5
ATOM      5  C   UNL     1       1.272   3.189  17.164  1.00  0.00     0.064 C 
ATOM      6  O   UNL     1       1.639   2.250  16.410  1.00  0.00    -0.545 OA
ATOM      7  O   UNL     1       1.895   3.359  18.395  1.00  0.00    -0.545 OA
ENDBRANCH   4   5
ENDBRANCH   2   3
ENDBRANCH   1   2
BRANCH   1   8
ATOM      8  C   UNL     1      -3.745   3.577  14.273  1.00  0.00     0.000 C 
BRANCH   8   9
ATOM      9  C   UNL     1      -3.495   2.426  13.286  1.00  0.00    -0.000 C 
BRANCH   9  10
ATOM     10  C   UNL     1      -2.002   2.213  12.996  1.00  0.00    -0.003 C 
ATOM     11  C   UNL     1      -1.700   2.093  11.502  1.00  0.00     0.004 C 
ENDBRANCH   9  10
ENDBRANCH   8   9
ENDBRANCH   1   8
TORSDOF 6
ENDMDL
MODEL 5
REMARK VINA RESULT:    -3.790      1.315      1.845
REMARK INTER + INTRA:          -5.504
REMARK INTER:                  -5.160
REMARK INTRA:                  -0.344
REMARK UNBOUND:                -0.385
REMARK SMILES CCCCCCC=CC(=O)[O-]
REMARK SMILES IDX 5 1 6 2 7 3 8 4 9 5 10 6 11 7 4 8 3 9 2 10 1 11
REMARK H PARENT
REMARK Flexibility Score: inf
ROOT
ATOM      1  C   UNL     1       6.139  -6.878  21.607  1.00  0.00     0.004 C 
ENDROOT
BRANCH   1   2
ATOM      2  C   UNL     1       7.498  -7.356  21.075  1.00  0.00     0.027 C 
BRANCH   2   3
ATOM      3  C   UNL     1       7.598  -7.250  19.578  1.00  0.00    -0.025 C 
ATOM      4  C   UNL     1       6.531  -7.420  18.793  1.00  0.00     0.020 C 
BRANCH   4   5
ATOM      5  C   UNL     1       6.614  -7.314  17.329  1.00  0.00     0.064 C 
ATOM      6  O   UNL     1       6.722  -8.358  16.634  1.00  0.00    -0.545 OA
ATOM      7  O   UNL     1       6.576  -6.076  16.697  1.00  0.00    -0.545 OA
ENDBRANCH   4   5
ENDBRANCH   2   3
ENDBRANCH   1   2
BRANCH   1   8
ATOM      8  C   UNL     1       6.280  -5.697  22.581  1.00  0.00     0.000 C 
BRANCH   8   9
ATOM      9  C   UNL     1       6.358  -4.365  21.819  1.00  0.00    -0.000 C 
BRANCH   9  10
ATOM     10  C   UNL     1       7.271  -3.342  22.513  1.00  0.00    -0.003 C 
ATOM     11  C   UNL     1       7.406  -2.040  21.725  1.00  0.00     0.004 C 
ENDBRANCH   9  10
ENDBRANCH   8   9
ENDBRANCH   1   8
TORSDOF 6
ENDMDL
MODEL 6
REMARK VINA RESULT:    -3.758      3.113      6.111
REMARK INTER + INTRA:          -5.461
REMARK INTER:                  -5.185
REMARK INTRA:                  -0.276
REMARK UNBOUND:                -0.385
REMARK SMILES CCCCCCC=CC(=O)[O-]
REMARK SMILES IDX 5 1 6 2 7 3 8 4 9 5 10 6 11 7 4 8 3 9 2 10 1 11
REMARK H PARENT
REMARK Flexibility Score: inf
ROOT
ATOM      1  C   UNL     1       5.872  -7.693  19.734  1.00  0.00     0.004 C 
ENDROOT
BRANCH   1   2
ATOM      2  C   UNL     1       6.318  -7.617  21.202  1.00  0.00     0.027 C 
BRANCH   2   3
ATOM      3  C   UNL     1       7.020  -6.327  21.523  1.00  0.00    -0.025 C 
ATOM      4  C   UNL     1       6.466  -5.408  22.318  1.00  0.00     0.020 C 
BRANCH   4   5
ATOM      5  C   UNL     1       7.144  -4.145  22.644  1.00  0.00     0.064 C 
ATOM      6  O   UNL     1       7.058  -3.171  21.852  1.00  0.00    -0.545 OA
ATOM      7  O   UNL     1       7.881  -4.009  23.815  1.00  0.00    -0.545 OA
ENDBRANCH   4   5
ENDBRANCH   2   3
ENDBRANCH   1   2
BRANCH   1   8
ATOM      8  C   UNL     1       6.986  -7.263  18.767  1.00  0.00     0.000 C 
BRANCH   8   9
ATOM      9  C   UNL     1       6.403  -6.858  17.404  1.00  0.00    -0.000 C 
BRANCH   9  10
ATOM     10  C   UNL     1       7.016  -7.654  16.241  1.00  0.00    -0.003 C 
ATOM     11  C   UNL     1       6.277  -8.963  15.966  1.00  0.00     0.004 C 
ENDBRANCH   9  10
ENDBRANCH   8   9
ENDBRANCH   1   8
TORSDOF 6
ENDMDL
MODEL 7
REMARK VINA RESULT:    -3.733     15.693     16.396
REMARK INTER + INTRA:          -5.428
REMARK INTER:                  -5.103
REMARK INTRA:                  -0.325
REMARK UNBOUND:                -0.385
REMARK SMILES CCCCCCC=CC(=O)[O-]
REMARK SMILES IDX 5 1 6 2 7 3 8 4 9 5 10 6 11 7 4 8 3 9 2 10 1 11
REMARK H PARENT
REMARK Flexibility Score: inf
ROOT
ATOM      1  C   UNL     1      -2.403   1.624  13.063  1.00  0.00     0.004 C 
ENDROOT
BRANCH   1   2
ATOM      2  C   UNL     1      -2.371   1.772  11.534  1.00  0.00     0.027 C 
BRANCH   2   3
ATOM      3  C   UNL     1      -3.391   0.903  10.852  1.00  0.00    -0.025 C 
ATOM      4  C   UNL     1      -4.628   1.342  10.602  1.00  0.00     0.020 C 
BRANCH   4   5
ATOM      5  C   UNL     1      -5.633   0.505   9.931  1.00  0.00     0.064 C 
ATOM      6  O   UNL     1      -6.856   0.754  10.088  1.00  0.00    -0.545 OA
ATOM      7  O   UNL     1      -5.253  -0.561   9.124  1.00  0.00    -0.545 OA
ENDBRANCH   4   5
ENDBRANCH   2   3
ENDBRANCH   1   2
BRANCH   1   8
ATOM      8  C   UNL     1      -2.239   2.973  13.779  1.00  0.00     0.000 C 
BRANCH   8   9
ATOM      9  C   UNL     1      -3.607   3.572  14.140  1.00  0.00    -0.000 C 
BRANCH   9  10
ATOM     10  C   UNL     1      -3.496   4.999  14.699  1.00  0.00    -0.003 C 
ATOM     11  C   UNL     1      -2.523   5.872  13.906  1.00  0.00     0.004 C 
ENDBRANCH   9  10
ENDBRANCH   8   9
ENDBRANCH   1   8
TORSDOF 6
ENDMDL
MODEL 8
REMARK VINA RESULT:    -3.710     13.646     14.118
REMARK INTER + INTRA:          -5.396
REMARK INTER:                  -4.885
REMARK INTRA:                  -0.511
REMARK UNBOUND:                -0.385
REMARK SMILES CCCCCCC=CC(=O)[O-]
REMARK SMILES IDX 5 1 6 2 7 3 8 4 9 5 10 6 11 7 4 8 3 9 2 10 1 11
REMARK H PARENT
REMARK Flexibility Score: inf
ROOT
ATOM      1  C   UNL     1      -2.158   3.844  16.583  1.00  0.00     0.004 C 
ENDROOT
BRANCH   1   2
ATOM      2  C   UNL     1      -2.579   4.695  15.375  1.00  0.00     0.027 C 
BRANCH   2   3
ATOM      3  C   UNL     1      -2.952   3.856  14.184  1.00  0.00    -0.025 C 
ATOM      4  C   UNL     1      -2.123   2.929  13.695  1.00  0.00     0.020 C 
BRANCH   4   5
ATOM      5  C   UNL     1      -2.477   2.099  12.535  1.00  0.00     0.064 C 
ATOM      6  O   UNL     1      -3.574   1.481  12.524  1.00  0.00    -0.545 OA
ATOM      7  O   UNL     1      -1.619   1.983  11.447  1.00  0.00    -0.545 OA
ENDBRANCH   4   5
ENDBRANCH   2   3
ENDBRANCH   1   2
BRANCH   1   8
ATOM      8  C   UNL     1      -0.968   4.457  17.337  1.00  0.00     0.000 C 
BRANCH   8   9
ATOM      9  C   UNL     1       0.315   4.374  16.496  1.00  0.00    -0.000 C 
BRANCH   9  10
ATOM     10  C   UNL     1       0.862   2.942  16.395  1.00  0.00    -0.003 C 
ATOM     11  C   UNL     1       1.412   2.424  17.724  1.00  0.00     0.004 C 
ENDBRANCH   9  10
ENDBRANCH   8   9
ENDBRANCH   1   8
TORSDOF 6
ENDMDL
MODEL 9
REMARK VINA RESULT:    -3.679      5.606      7.711
REMARK INTER + INTRA:          -5.353
REMARK INTER:                  -4.792
REMARK INTRA:                  -0.562
REMARK UNBOUND:                -0.385
REMARK SMILES CCCCCCC=CC(=O)[O-]
REMARK SMILES IDX 5 1 6 2 7 3 8 4 9 5 10 6 11 7 4 8 3 9 2 10 1 11
REMARK H PARENT
REMARK Flexibility Score: inf
ROOT
ATOM      1  C   UNL     1       4.964  -7.124  13.746  1.00  0.00     0.004 C 
ENDROOT
BRANCH   1   2
ATOM      2  C   UNL     1       6.273  -6.453  13.304  1.00  0.00     0.027 C 
BRANCH   2   3
ATOM      3  C   UNL     1       6.125  -4.967  13.130  1.00  0.00    -0.025 C 
ATOM      4  C   UNL     1       5.762  -4.176  14.144  1.00  0.00     0.020 C 
BRANCH   4   5
ATOM      5  C   UNL     1       5.620  -2.722  13.989  1.00  0.00     0.064 C 
ATOM      6  O   UNL     1       6.628  -1.980  14.122  1.00  0.00    -0.545 OA
ATOM      7  O   UNL     1       4.387  -2.150  13.696  1.00  0.00    -0.545 OA
ENDBRANCH   4   5
ENDBRANCH   2   3
ENDBRANCH   1   2
BRANCH   1   8
ATOM      8  C   UNL     1       5.213  -8.341  14.651  1.00  0.00     0.000 C 
BRANCH   8   9
ATOM      9  C   UNL     1       6.618  -8.285  15.269  1.00  0.00    -0.000 C 
BRANCH   9  10
ATOM     10  C   UNL     1       6.583  -8.113  16.796  1.00  0.00    -0.003 C 
ATOM     11  C   UNL     1       7.005  -6.714  17.244  1.00  0.00     0.004 C 
ENDBRANCH   9  10
ENDBRANCH   8   9
ENDBRANCH   1   8
TORSDOF 6
ENDMDL
