MODEL 1
REMARK VINA RESULT:    -4.082      0.000      0.000
REMARK INTER + INTRA:          -5.427
REMARK INTER:                  -5.276
REMARK INTRA:                  -0.151
REMARK UNBOUND:                -0.151
REMARK SMILES C=CC(=O)CCCCC
REMARK SMILES IDX 6 1 7 2 8 3 9 4 5 5 3 6 4 7 2 8 1 9
REMARK H PARENT
REMARK Flexibility Score: inf
ROOT
ATOM      1  C   UNL     1      12.907  31.221  28.580  1.00  0.00     0.008 C 
ENDROOT
BRANCH   1   2
ATOM      2  C   UNL     1      11.556  31.939  28.733  1.00  0.00     0.000 C 
BRANCH   2   3
ATOM      3  C   UNL     1      11.400  33.116  27.758  1.00  0.00    -0.003 C 
ATOM      4  C   UNL     1      12.632  33.258  26.868  1.00  0.00     0.004 C 
ENDBRANCH   2   3
ENDBRANCH   1   2
BRANCH   1   5
ATOM      5  C   UNL     1      13.509  30.800  29.927  1.00  0.00     0.080 C 
BRANCH   5   6
ATOM      6  C   UNL     1      15.006  30.886  29.885  1.00  0.00     0.155 C 
ATOM      7  O   UNL     1      15.566  31.998  30.087  1.00  0.00    -0.295 OA
BRANCH   6   8
ATOM      8  C   UNL     1      15.806  29.689  29.563  1.00  0.00     0.039 C 
ATOM      9  C   UNL     1      16.947  29.403  30.186  1.00  0.00     0.012 C 
ENDBRANCH   6   8
ENDBRANCH   5   6
ENDBRANCH   1   5
TORSDOF 5
ENDMDL
MODEL 2
REMARK VINA RESULT:    -4.000      1.609      4.745
REMARK INTER + INTRA:          -5.320
REMARK INTER:                  -5.121
REMARK INTRA:                  -0.200
REMARK UNBOUND:                -0.151
REMARK SMILES C=CC(=O)CCCCC
REMARK SMILES IDX 6 1 7 2 8 3 9 4 5 5 3 6 4 7 2 8 1 9
REMARK H PARENT
REMARK Flexibility Score: inf
ROOT
ATOM      1  C   UNL     1      13.906  30.837  30.083  1.00  0.00     0.008 C 
ENDROOT
BRANCH   1   2
ATOM      2  C   UNL     1      15.271  31.516  30.277  1.00  0.00     0.000 C 
BRANCH   2   3
ATOM      3  C   UNL     1      16.421  30.723  29.639  1.00  0.00    -0.003 C 
ATOM      4  C   UNL     1      16.234  29.223  29.846  1.00  0.00     0.004 C 
ENDBRANCH   2   3
ENDBRANCH   1   2
BRANCH   1   5
ATOM      5  C   UNL     1      13.293  31.121  28.706  1.00  0.00     0.080 C 
BRANCH   5   6
ATOM      6  C   UNL     1      11.955  31.784  28.852  1.00  0.00     0.155 C 
ATOM      7  O   UNL     1      11.153  31.369  29.733  1.00  0.00    -0.295 OA
BRANCH   6   8
ATOM      8  C   UNL     1      11.569  32.878  27.940  1.00  0.00     0.039 C 
ATOM      9  C   UNL     1      12.350  33.286  26.943  1.00  0.00     0.012 C 
ENDBRANCH   6   8
ENDBRANCH   5   6
ENDBRANCH   1   5
TORSDOF 5
ENDMDL
MODEL 3
REMARK VINA RESULT:    -3.874      1.926      4.610
REMARK INTER + INTRA:          -5.157
REMARK INTER:                  -4.916
REMARK INTRA:                  -0.241
REMARK UNBOUND:                -0.151
REMARK SMILES C=CC(=O)CCCCC
REMARK SMILES IDX 6 1 7 2 8 3 9 4 5 5 3 6 4 7 2 8 1 9
REMARK H PARENT
REMARK Flexibility Score: inf
ROOT
ATOM      1  C   UNL     1      12.235  31.233  29.465  1.00  0.00     0.008 C 
ENDROOT
BRANCH   1   2
ATOM      2  C   UNL     1      13.359  30.631  30.324  1.00  0.00     0.000 C 
BRANCH   2   3
ATOM      3  C   UNL     1      14.757  31.044  29.840  1.00  0.00    -0.003 C 
ATOM      4  C   UNL     1      15.685  29.836  29.747  1.00  0.00     0.004 C 
ENDBRANCH   2   3
ENDBRANCH   1   2
BRANCH   1   5
ATOM      5  C   UNL     1      12.651  31.435  28.002  1.00  0.00     0.080 C 
BRANCH   5   6
ATOM      6  C   UNL     1      12.290  32.815  27.538  1.00  0.00     0.155 C 
ATOM      7  O   UNL     1      11.097  33.210  27.645  1.00  0.00    -0.295 OA
BRANCH   6   8
ATOM      8  C   UNL     1      13.315  33.679  26.921  1.00  0.00     0.039 C 
ATOM      9  C   UNL     1      13.286  34.015  25.633  1.00  0.00     0.012 C 
ENDBRANCH   6   8
ENDBRANCH   5   6
ENDBRANCH   1   5
TORSDOF 5
ENDMDL
MODEL 4
REMARK VINA RESULT:    -3.814      1.286      1.610
REMARK INTER + INTRA:          -5.080
REMARK INTER:                  -4.725
REMARK INTRA:                  -0.355
REMARK UNBOUND:                -0.151
REMARK SMILES C=CC(=O)CCCCC
REMARK SMILES IDX 6 1 7 2 8 3 9 4 5 5 3 6 4 7 2 8 1 9
REMARK H PARENT
REMARK Flexibility Score: inf
ROOT
ATOM      1  C   UNL     1      12.707  31.008  28.901  1.00  0.00     0.008 C 
ENDROOT
BRANCH   1   2
ATOM      2  C   UNL     1      11.518  31.960  29.106  1.00  0.00     0.000 C 
BRANCH   2   3
ATOM      3  C   UNL     1      11.346  32.950  27.944  1.00  0.00    -0.003 C 
ATOM      4  C   UNL     1      12.651  33.121  27.171  1.00  0.00     0.004 C 
ENDBRANCH   2   3
ENDBRANCH   1   2
BRANCH   1   5
ATOM      5  C   UNL     1      13.394  30.627  30.218  1.00  0.00     0.080 C 
BRANCH   5   6
ATOM      6  C   UNL     1      14.881  30.551  30.033  1.00  0.00     0.155 C 
ATOM      7  O   UNL     1      15.421  29.431  29.823  1.00  0.00    -0.295 OA
BRANCH   6   8
ATOM      8  C   UNL     1      15.703  31.772  30.144  1.00  0.00     0.039 C 
ATOM      9  C   UNL     1      16.125  32.448  29.077  1.00  0.00     0.012 C 
ENDBRANCH   6   8
ENDBRANCH   5   6
ENDBRANCH   1   5
TORSDOF 5
ENDMDL
MODEL 5
REMARK VINA RESULT:    -3.806      1.811      2.397
REMARK INTER + INTRA:          -5.069
REMARK INTER:                  -4.827
REMARK INTRA:                  -0.242
REMARK UNBOUND:                -0.151
REMARK SMILES C=CC(=O)CCCCC
REMARK SMILES IDX 6 1 7 2 8 3 9 4 5 5 3 6 4 7 2 8 1 9
REMARK H PARENT
REMARK Flexibility Score: inf
ROOT
ATOM      1  C   UNL     1      11.571  32.436  28.341  1.00  0.00     0.008 C 
ENDROOT
BRANCH   1   2
ATOM      2  C   UNL     1      11.730  33.476  27.221  1.00  0.00     0.000 C 
BRANCH   2   3
ATOM      3  C   UNL     1      12.942  33.192  26.320  1.00  0.00    -0.003 C 
ATOM      4  C   UNL     1      13.196  34.352  25.362  1.00  0.00     0.004 C 
ENDBRANCH   2   3
ENDBRANCH   1   2
BRANCH   1   5
ATOM      5  C   UNL     1      12.683  31.380  28.332  1.00  0.00     0.080 C 
BRANCH   5   6
ATOM      6  C   UNL     1      12.873  30.804  29.704  1.00  0.00     0.155 C 
ATOM      7  O   UNL     1      11.861  30.494  30.389  1.00  0.00    -0.295 OA
BRANCH   6   8
ATOM      8  C   UNL     1      14.232  30.648  30.258  1.00  0.00     0.039 C 
ATOM      9  C   UNL     1      15.224  31.487  29.966  1.00  0.00     0.012 C 
ENDBRANCH   6   8
ENDBRANCH   5   6
ENDBRANCH   1   5
TORSDOF 5
ENDMDL
MODEL 6
REMARK VINA RESULT:    -3.270     14.578     15.767
REMARK INTER + INTRA:          -4.377
REMARK INTER:                  -4.173
REMARK INTRA:                  -0.204
REMARK UNBOUND:                -0.151
REMARK SMILES C=CC(=O)CCCCC
REMARK SMILES IDX 6 1 7 2 8 3 9 4 5 5 3 6 4 7 2 8 1 9
REMARK H PARENT
REMARK Flexibility Score: inf
ROOT
ATOM      1  C   UNL     1      28.236  32.758  23.814  1.00  0.00     0.008 C 
ENDROOT
BRANCH   1   2
ATOM      2  C   UNL     1      28.481  33.804  22.715  1.00  0.00     0.000 C 
BRANCH   2   3
ATOM      3  C   UNL     1      28.915  33.172  21.384  1.00  0.00    -0.003 C 
ATOM      4  C   UNL     1      28.518  34.053  20.202  1.00  0.00     0.004 C 
ENDBRANCH   2   3
ENDBRANCH   1   2
BRANCH   1   5
ATOM      5  C   UNL     1      29.055  31.477  23.605  1.00  0.00     0.080 C 
BRANCH   5   6
ATOM      6  C   UNL     1      28.309  30.285  24.127  1.00  0.00     0.155 C 
ATOM      7  O   UNL     1      28.038  30.216  25.356  1.00  0.00    -0.295 OA
BRANCH   6   8
ATOM      8  C   UNL     1      27.941  29.186  23.213  1.00  0.00     0.039 C 
ATOM      9  C   UNL     1      26.783  28.535  23.308  1.00  0.00     0.012 C 
ENDBRANCH   6   8
ENDBRANCH   5   6
ENDBRANCH   1   5
TORSDOF 5
ENDMDL
MODEL 7
REMARK VINA RESULT:    -3.186     17.493     18.496
REMARK INTER + INTRA:          -4.268
REMARK INTER:                  -3.838
REMARK INTRA:                  -0.431
REMARK UNBOUND:                -0.151
REMARK SMILES C=CC(=O)CCCCC
REMARK SMILES IDX 6 1 7 2 8 3 9 4 5 5 3 6 4 7 2 8 1 9
REMARK H PARENT
REMARK Flexibility Score: inf
ROOT
ATOM      1  C   UNL     1      26.153  41.922  21.616  1.00  0.00     0.008 C 
ENDROOT
BRANCH   1   2
ATOM      2  C   UNL     1      26.848  43.224  21.188  1.00  0.00     0.000 C 
BRANCH   2   3
ATOM      3  C   UNL     1      26.126  43.923  20.026  1.00  0.00    -0.003 C 
ATOM      4  C   UNL     1      26.832  43.654  18.700  1.00  0.00     0.004 C 
ENDBRANCH   2   3
ENDBRANCH   1   2
BRANCH   1   5
ATOM      5  C   UNL     1      26.967  40.671  21.258  1.00  0.00     0.080 C 
BRANCH   5   6
ATOM      6  C   UNL     1      26.142  39.724  20.438  1.00  0.00     0.155 C 
ATOM      7  O   UNL     1      25.069  39.266  20.917  1.00  0.00    -0.295 OA
BRANCH   6   8
ATOM      8  C   UNL     1      26.610  39.301  19.104  1.00  0.00     0.039 C 
ATOM      9  C   UNL     1      27.574  39.944  18.448  1.00  0.00     0.012 C 
ENDBRANCH   6   8
ENDBRANCH   5   6
ENDBRANCH   1   5
TORSDOF 5
ENDMDL
MODEL 8
REMARK VINA RESULT:    -3.184     14.088     15.701
REMARK INTER + INTRA:          -4.266
REMARK INTER:                  -3.978
REMARK INTRA:                  -0.288
REMARK UNBOUND:                -0.151
REMARK SMILES C=CC(=O)CCCCC
REMARK SMILES IDX 6 1 7 2 8 3 9 4 5 5 3 6 4 7 2 8 1 9
REMARK H PARENT
REMARK Flexibility Score: inf
ROOT
ATOM      1  C   UNL     1      28.977  29.422  23.378  1.00  0.00     0.008 C 
ENDROOT
BRANCH   1   2
ATOM      2  C   UNL     1      27.629  28.746  23.080  1.00  0.00     0.000 C 
BRANCH   2   3
ATOM      3  C   UNL     1      26.555  29.085  24.124  1.00  0.00    -0.003 C 
ATOM      4  C   UNL     1      26.986  28.641  25.519  1.00  0.00     0.004 C 
ENDBRANCH   2   3
ENDBRANCH   1   2
BRANCH   1   5
ATOM      5  C   UNL     1      29.124  30.782  22.684  1.00  0.00     0.080 C 
BRANCH   5   6
ATOM      6  C   UNL     1      28.948  31.898  23.670  1.00  0.00     0.155 C 
ATOM      7  O   UNL     1      28.884  31.631  24.901  1.00  0.00    -0.295 OA
BRANCH   6   8
ATOM      8  C   UNL     1      28.807  33.288  23.195  1.00  0.00     0.039 C 
ATOM      9  C   UNL     1      27.874  34.113  23.667  1.00  0.00     0.012 C 
ENDBRANCH   6   8
ENDBRANCH   5   6
ENDBRANCH   1   5
TORSDOF 5
ENDMDL
