MODEL 1
REMARK VINA RESULT:    -4.656      0.000      0.000
REMARK INTER + INTRA:          -5.956
REMARK INTER:                  -5.608
REMARK INTRA:                  -0.348
REMARK UNBOUND:                -0.348
REMARK SMILES [NH3+][C@@H](Cc1c[nH]c2ccccc12)C(=O)[O-]
REMARK SMILES IDX 3 1 2 2 1 3 13 7 14 8 15 9 4 10 12 11 5 12 7 13 11 14 6 15
REMARK SMILES IDX 8 16 10 17 9 19
REMARK H PARENT 1 4 1 5 1 6 6 18
REMARK Flexibility Score: inf
ROOT
ATOM      1  C   UNL     1      15.262   9.469   1.448  1.00  0.00     0.109 C 
ENDROOT
BRANCH   1   2
ATOM      2  C   UNL     1      16.260   8.669   2.309  1.00  0.00     0.232 C 
BRANCH   2   3
ATOM      3  N   UNL     1      17.523   9.403   2.446  1.00  0.00    -0.350 N 
ATOM      4  H   UNL     1      18.305   8.886   1.981  1.00  0.00     0.345 HD
ATOM      5  H   UNL     1      17.750   9.533   3.459  1.00  0.00     0.345 HD
ATOM      6  H   UNL     1      17.432  10.349   2.008  1.00  0.00     0.345 HD
ENDBRANCH   2   3
BRANCH   2   7
ATOM      7  C   UNL     1      16.513   7.308   1.711  1.00  0.00     0.099 C 
ATOM      8  O   UNL     1      15.862   6.309   2.117  1.00  0.00    -0.544 OA
ATOM      9  O   UNL     1      17.441   7.151   0.689  1.00  0.00    -0.544 OA
ENDBRANCH   2   7
ENDBRANCH   1   2
BRANCH   1  10
ATOM     10  C   UNL     1      13.840   9.201   1.856  1.00  0.00    -0.016 A 
ATOM     11  C   UNL     1      12.951   8.306   1.293  1.00  0.00     0.003 A 
ATOM     12  C   UNL     1      13.181   9.749   2.952  1.00  0.00     0.087 A 
ATOM     13  C   UNL     1      11.807   8.356   2.049  1.00  0.00     0.046 A 
ATOM     14  C   UNL     1      13.067   7.453   0.194  1.00  0.00     0.010 A 
ATOM     15  N   UNL     1      11.935   9.232   3.060  1.00  0.00    -0.361 N 
ATOM     16  C   UNL     1      10.701   7.560   1.757  1.00  0.00     0.026 A 
ATOM     17  C   UNL     1      11.965   6.639  -0.125  1.00  0.00     0.001 A 
ATOM     18  H   UNL     1      11.226   9.460   3.792  1.00  0.00     0.166 HD
ATOM     19  C   UNL     1      10.787   6.692   0.652  1.00  0.00     0.002 A 
ENDBRANCH   1  10
TORSDOF 4
ENDMDL
MODEL 2
REMARK VINA RESULT:    -4.522      2.183      3.154
REMARK INTER + INTRA:          -5.796
REMARK INTER:                  -5.556
REMARK INTRA:                  -0.240
REMARK UNBOUND:                -0.348
REMARK SMILES [NH3+][C@@H](Cc1c[nH]c2ccccc12)C(=O)[O-]
REMARK SMILES IDX 3 1 2 2 1 3 13 7 14 8 15 9 4 10 12 11 5 12 7 13 11 14 6 15
REMARK SMILES IDX 8 16 10 17 9 19
REMARK H PARENT 1 4 1 5 1 6 6 18
REMARK Flexibility Score: inf
ROOT
ATOM      1  C   UNL     1      16.805   6.260   1.161  1.00  0.00     0.109 C 
ENDROOT
BRANCH   1   2
ATOM      2  C   UNL     1      17.034   5.271   2.322  1.00  0.00     0.232 C 
BRANCH   2   3
ATOM      3  N   UNL     1      18.367   5.464   2.904  1.00  0.00    -0.350 N 
ATOM      4  H   UNL     1      18.879   4.553   2.969  1.00  0.00     0.345 HD
ATOM      5  H   UNL     1      18.280   5.879   3.861  1.00  0.00     0.345 HD
ATOM      6  H   UNL     1      18.920   6.125   2.311  1.00  0.00     0.345 HD
ENDBRANCH   2   3
BRANCH   2   7
ATOM      7  C   UNL     1      16.872   3.847   1.854  1.00  0.00     0.099 C 
ATOM      8  O   UNL     1      17.530   3.429   0.865  1.00  0.00    -0.544 OA
ATOM      9  O   UNL     1      16.024   2.978   2.529  1.00  0.00    -0.544 OA
ENDBRANCH   2   7
ENDBRANCH   1   2
BRANCH   1  10
ATOM     10  C   UNL     1      15.981   7.441   1.593  1.00  0.00    -0.016 A 
ATOM     11  C   UNL     1      14.608   7.579   1.549  1.00  0.00     0.003 A 
ATOM     12  C   UNL     1      16.456   8.593   2.214  1.00  0.00     0.087 A 
ATOM     13  C   UNL     1      14.313   8.790   2.121  1.00  0.00     0.046 A 
ATOM     14  C   UNL     1      13.608   6.734   1.065  1.00  0.00     0.010 A 
ATOM     15  N   UNL     1      15.430   9.416   2.529  1.00  0.00    -0.361 N 
ATOM     16  C   UNL     1      13.000   9.241   2.247  1.00  0.00     0.026 A 
ATOM     17  C   UNL     1      12.273   7.164   1.177  1.00  0.00     0.001 A 
ATOM     18  H   UNL     1      15.497  10.343   3.004  1.00  0.00     0.166 HD
ATOM     19  C   UNL     1      11.970   8.411   1.765  1.00  0.00     0.002 A 
ENDBRANCH   1  10
TORSDOF 4
ENDMDL
MODEL 3
REMARK VINA RESULT:    -4.230      2.222      3.688
REMARK INTER + INTRA:          -5.444
REMARK INTER:                  -5.182
REMARK INTRA:                  -0.262
REMARK UNBOUND:                -0.348
REMARK SMILES [NH3+][C@@H](Cc1c[nH]c2ccccc12)C(=O)[O-]
REMARK SMILES IDX 3 1 2 2 1 3 13 7 14 8 15 9 4 10 12 11 5 12 7 13 11 14 6 15
REMARK SMILES IDX 8 16 10 17 9 19
REMARK H PARENT 1 4 1 5 1 6 6 18
REMARK Flexibility Score: inf
ROOT
ATOM      1  C   UNL     1      16.386   6.351   0.883  1.00  0.00     0.109 C 
ENDROOT
BRANCH   1   2
ATOM      2  C   UNL     1      17.051   5.580   2.041  1.00  0.00     0.232 C 
BRANCH   2   3
ATOM      3  N   UNL     1      18.327   6.204   2.406  1.00  0.00    -0.350 N 
ATOM      4  H   UNL     1      18.167   7.101   2.923  1.00  0.00     0.345 HD
ATOM      5  H   UNL     1      18.887   6.399   1.544  1.00  0.00     0.345 HD
ATOM      6  H   UNL     1      18.878   5.555   3.013  1.00  0.00     0.345 HD
ENDBRANCH   2   3
BRANCH   2   7
ATOM      7  C   UNL     1      17.267   4.134   1.669  1.00  0.00     0.099 C 
ATOM      8  O   UNL     1      18.243   3.809   0.944  1.00  0.00    -0.544 OA
ATOM      9  O   UNL     1      16.411   3.151   2.149  1.00  0.00    -0.544 OA
ENDBRANCH   2   7
ENDBRANCH   1   2
BRANCH   1  10
ATOM     10  C   UNL     1      15.117   7.026   1.323  1.00  0.00    -0.016 A 
ATOM     11  C   UNL     1      14.975   8.279   1.889  1.00  0.00     0.003 A 
ATOM     12  C   UNL     1      13.823   6.542   1.150  1.00  0.00     0.087 A 
ATOM     13  C   UNL     1      13.629   8.492   2.045  1.00  0.00     0.046 A 
ATOM     14  C   UNL     1      15.917   9.238   2.261  1.00  0.00     0.010 A 
ATOM     15  N   UNL     1      12.918   7.441   1.600  1.00  0.00    -0.361 N 
ATOM     16  C   UNL     1      13.133   9.677   2.586  1.00  0.00     0.026 A 
ATOM     17  C   UNL     1      15.445  10.443   2.812  1.00  0.00     0.001 A 
ATOM     18  H   UNL     1      11.879   7.341   1.588  1.00  0.00     0.166 HD
ATOM     19  C   UNL     1      14.060  10.662   2.974  1.00  0.00     0.002 A 
ENDBRANCH   1  10
TORSDOF 4
ENDMDL
MODEL 4
REMARK VINA RESULT:    -4.137      2.694      5.313
REMARK INTER + INTRA:          -5.332
REMARK INTER:                  -5.133
REMARK INTRA:                  -0.199
REMARK UNBOUND:                -0.348
REMARK SMILES [NH3+][C@@H](Cc1c[nH]c2ccccc12)C(=O)[O-]
REMARK SMILES IDX 3 1 2 2 1 3 13 7 14 8 15 9 4 10 12 11 5 12 7 13 11 14 6 15
REMARK SMILES IDX 8 16 10 17 9 19
REMARK H PARENT 1 4 1 5 1 6 6 18
REMARK Flexibility Score: inf
ROOT
ATOM      1  C   UNL     1      13.299   7.143   1.375  1.00  0.00     0.109 C 
ENDROOT
BRANCH   1   2
ATOM      2  C   UNL     1      12.503   8.457   1.511  1.00  0.00     0.232 C 
BRANCH   2   3
ATOM      3  N   UNL     1      12.329   8.807   2.925  1.00  0.00    -0.350 N 
ATOM      4  H   UNL     1      13.015   8.288   3.522  1.00  0.00     0.345 HD
ATOM      5  H   UNL     1      11.357   8.571   3.232  1.00  0.00     0.345 HD
ATOM      6  H   UNL     1      12.472   9.835   3.055  1.00  0.00     0.345 HD
ENDBRANCH   2   3
BRANCH   2   7
ATOM      7  C   UNL     1      11.160   8.342   0.834  1.00  0.00     0.099 C 
ATOM      8  O   UNL     1      10.870   9.104  -0.125  1.00  0.00    -0.544 OA
ATOM      9  O   UNL     1      10.249   7.376   1.241  1.00  0.00    -0.544 OA
ENDBRANCH   2   7
ENDBRANCH   1   2
BRANCH   1  10
ATOM     10  C   UNL     1      14.782   7.389   1.392  1.00  0.00    -0.016 A 
ATOM     11  C   UNL     1      15.786   6.497   1.717  1.00  0.00     0.003 A 
ATOM     12  C   UNL     1      15.429   8.553   0.986  1.00  0.00     0.087 A 
ATOM     13  C   UNL     1      16.976   7.148   1.511  1.00  0.00     0.046 A 
ATOM     14  C   UNL     1      15.741   5.174   2.160  1.00  0.00     0.010 A 
ATOM     15  N   UNL     1      16.771   8.400   1.068  1.00  0.00    -0.361 N 
ATOM     16  C   UNL     1      18.202   6.524   1.737  1.00  0.00     0.026 A 
ATOM     17  C   UNL     1      16.964   4.520   2.397  1.00  0.00     0.001 A 
ATOM     18  H   UNL     1      17.495   9.110   0.821  1.00  0.00     0.166 HD
ATOM     19  C   UNL     1      18.188   5.191   2.187  1.00  0.00     0.002 A 
ENDBRANCH   1  10
TORSDOF 4
ENDMDL
MODEL 5
REMARK VINA RESULT:    -3.982     18.232     19.427
REMARK INTER + INTRA:          -5.145
REMARK INTER:                  -4.859
REMARK INTRA:                  -0.286
REMARK UNBOUND:                -0.348
REMARK SMILES [NH3+][C@@H](Cc1c[nH]c2ccccc12)C(=O)[O-]
REMARK SMILES IDX 3 1 2 2 1 3 13 7 14 8 15 9 4 10 12 11 5 12 7 13 11 14 6 15
REMARK SMILES IDX 8 16 10 17 9 19
REMARK H PARENT 1 4 1 5 1 6 6 18
REMARK Flexibility Score: inf
ROOT
ATOM      1  C   UNL     1      16.659  -6.693  15.085  1.00  0.00     0.109 C 
ENDROOT
BRANCH   1   2
ATOM      2  C   UNL     1      15.168  -6.873  15.437  1.00  0.00     0.232 C 
BRANCH   2   3
ATOM      3  N   UNL     1      15.018  -7.275  16.840  1.00  0.00    -0.350 N 
ATOM      4  H   UNL     1      15.114  -6.448  17.475  1.00  0.00     0.345 HD
ATOM      5  H   UNL     1      15.746  -7.985  17.086  1.00  0.00     0.345 HD
ATOM      6  H   UNL     1      14.077  -7.709  16.985  1.00  0.00     0.345 HD
ENDBRANCH   2   3
BRANCH   2   7
ATOM      7  C   UNL     1      14.522  -7.891  14.532  1.00  0.00     0.099 C 
ATOM      8  O   UNL     1      14.027  -8.942  15.017  1.00  0.00    -0.544 OA
ATOM      9  O   UNL     1      14.441  -7.664  13.164  1.00  0.00    -0.544 OA
ENDBRANCH   2   7
ENDBRANCH   1   2
BRANCH   1  10
ATOM     10  C   UNL     1      16.910  -5.384  14.390  1.00  0.00    -0.016 A 
ATOM     11  C   UNL     1      17.282  -4.180  14.958  1.00  0.00     0.003 A 
ATOM     12  C   UNL     1      16.908  -5.167  13.015  1.00  0.00     0.087 A 
ATOM     13  C   UNL     1      17.471  -3.297  13.926  1.00  0.00     0.046 A 
ATOM     14  C   UNL     1      17.476  -3.805  16.288  1.00  0.00     0.010 A 
ATOM     15  N   UNL     1      17.245  -3.886  12.739  1.00  0.00    -0.361 N 
ATOM     16  C   UNL     1      17.865  -1.979  14.151  1.00  0.00     0.026 A 
ATOM     17  C   UNL     1      17.872  -2.480  16.546  1.00  0.00     0.001 A 
ATOM     18  H   UNL     1      17.326  -3.453  11.792  1.00  0.00     0.166 HD
ATOM     19  C   UNL     1      18.065  -1.571  15.483  1.00  0.00     0.002 A 
ENDBRANCH   1  10
TORSDOF 4
ENDMDL
MODEL 6
REMARK VINA RESULT:    -3.946     18.076     18.916
REMARK INTER + INTRA:          -5.101
REMARK INTER:                  -4.888
REMARK INTRA:                  -0.213
REMARK UNBOUND:                -0.348
REMARK SMILES [NH3+][C@@H](Cc1c[nH]c2ccccc12)C(=O)[O-]
REMARK SMILES IDX 3 1 2 2 1 3 13 7 14 8 15 9 4 10 12 11 5 12 7 13 11 14 6 15
REMARK SMILES IDX 8 16 10 17 9 19
REMARK H PARENT 1 4 1 5 1 6 6 18
REMARK Flexibility Score: inf
ROOT
ATOM      1  C   UNL     1      17.902  -3.915  15.126  1.00  0.00     0.109 C 
ENDROOT
BRANCH   1   2
ATOM      2  C   UNL     1      17.323  -2.503  15.341  1.00  0.00     0.232 C 
BRANCH   2   3
ATOM      3  N   UNL     1      17.980  -1.538  14.452  1.00  0.00    -0.350 N 
ATOM      4  H   UNL     1      17.932  -0.572  14.853  1.00  0.00     0.345 HD
ATOM      5  H   UNL     1      17.517  -1.546  13.515  1.00  0.00     0.345 HD
ATOM      6  H   UNL     1      18.984  -1.803  14.322  1.00  0.00     0.345 HD
ENDBRANCH   2   3
BRANCH   2   7
ATOM      7  C   UNL     1      17.477  -2.073  16.779  1.00  0.00     0.099 C 
ATOM      8  O   UNL     1      18.354  -2.608  17.507  1.00  0.00    -0.544 OA
ATOM      9  O   UNL     1      16.676  -1.065  17.300  1.00  0.00    -0.544 OA
ENDBRANCH   2   7
ENDBRANCH   1   2
BRANCH   1  10
ATOM     10  C   UNL     1      17.015  -4.750  14.244  1.00  0.00    -0.016 A 
ATOM     11  C   UNL     1      16.228  -5.825  14.609  1.00  0.00     0.003 A 
ATOM     12  C   UNL     1      16.748  -4.527  12.897  1.00  0.00     0.087 A 
ATOM     13  C   UNL     1      15.540  -6.211  13.487  1.00  0.00     0.046 A 
ATOM     14  C   UNL     1      16.059  -6.476  15.832  1.00  0.00     0.010 A 
ATOM     15  N   UNL     1      15.850  -5.429  12.438  1.00  0.00    -0.361 N 
ATOM     16  C   UNL     1      14.639  -7.275  13.508  1.00  0.00     0.026 A 
ATOM     17  C   UNL     1      15.157  -7.554  15.883  1.00  0.00     0.001 A 
ATOM     18  H   UNL     1      15.468  -5.491  11.469  1.00  0.00     0.166 HD
ATOM     19  C   UNL     1      14.451  -7.952  14.727  1.00  0.00     0.002 A 
ENDBRANCH   1  10
TORSDOF 4
ENDMDL
MODEL 7
REMARK VINA RESULT:    -3.943     17.493     18.749
REMARK INTER + INTRA:          -5.098
REMARK INTER:                  -5.130
REMARK INTRA:                   0.032
REMARK UNBOUND:                -0.348
REMARK SMILES [NH3+][C@@H](Cc1c[nH]c2ccccc12)C(=O)[O-]
REMARK SMILES IDX 3 1 2 2 1 3 13 7 14 8 15 9 4 10 12 11 5 12 7 13 11 14 6 15
REMARK SMILES IDX 8 16 10 17 9 19
REMARK H PARENT 1 4 1 5 1 6 6 18
REMARK Flexibility Score: inf
ROOT
ATOM      1  C   UNL     1      16.989  -5.200  14.470  1.00  0.00     0.109 C 
ENDROOT
BRANCH   1   2
ATOM      2  C   UNL     1      16.248  -5.444  13.140  1.00  0.00     0.232 C 
BRANCH   2   3
ATOM      3  N   UNL     1      15.009  -4.659  13.092  1.00  0.00    -0.350 N 
ATOM      4  H   UNL     1      14.981  -4.062  12.232  1.00  0.00     0.345 HD
ATOM      5  H   UNL     1      14.944  -4.046  13.938  1.00  0.00     0.345 HD
ATOM      6  H   UNL     1      14.183  -5.300  13.089  1.00  0.00     0.345 HD
ENDBRANCH   2   3
BRANCH   2   7
ATOM      7  C   UNL     1      15.942  -6.909  12.956  1.00  0.00     0.099 C 
ATOM      8  O   UNL     1      16.866  -7.715  12.671  1.00  0.00    -0.544 OA
ATOM      9  O   UNL     1      14.648  -7.384  13.132  1.00  0.00    -0.544 OA
ENDBRANCH   2   7
ENDBRANCH   1   2
BRANCH   1  10
ATOM     10  C   UNL     1      17.359  -3.754  14.643  1.00  0.00    -0.016 A 
ATOM     11  C   UNL     1      17.654  -3.088  15.817  1.00  0.00     0.003 A 
ATOM     12  C   UNL     1      17.568  -2.830  13.622  1.00  0.00     0.087 A 
ATOM     13  C   UNL     1      18.009  -1.810  15.468  1.00  0.00     0.046 A 
ATOM     14  C   UNL     1      17.648  -3.510  17.147  1.00  0.00     0.010 A 
ATOM     15  N   UNL     1      17.959  -1.641  14.136  1.00  0.00    -0.361 N 
ATOM     16  C   UNL     1      18.379  -0.865  16.424  1.00  0.00     0.026 A 
ATOM     17  C   UNL     1      18.016  -2.578  18.134  1.00  0.00     0.001 A 
ATOM     18  H   UNL     1      18.188  -0.775  13.599  1.00  0.00     0.166 HD
ATOM     19  C   UNL     1      18.380  -1.262  17.775  1.00  0.00     0.002 A 
ENDBRANCH   1  10
TORSDOF 4
ENDMDL
MODEL 8
REMARK VINA RESULT:    -3.889     16.941     18.976
REMARK INTER + INTRA:          -5.033
REMARK INTER:                  -4.856
REMARK INTRA:                  -0.178
REMARK UNBOUND:                -0.348
REMARK SMILES [NH3+][C@@H](Cc1c[nH]c2ccccc12)C(=O)[O-]
REMARK SMILES IDX 3 1 2 2 1 3 13 7 14 8 15 9 4 10 12 11 5 12 7 13 11 14 6 15
REMARK SMILES IDX 8 16 10 17 9 19
REMARK H PARENT 1 4 1 5 1 6 6 18
REMARK Flexibility Score: inf
ROOT
ATOM      1  C   UNL     1       3.225  -5.293   4.365  1.00  0.00     0.109 C 
ENDROOT
BRANCH   1   2
ATOM      2  C   UNL     1       4.407  -5.386   3.379  1.00  0.00     0.232 C 
BRANCH   2   3
ATOM      3  N   UNL     1       5.635  -4.881   4.002  1.00  0.00    -0.350 N 
ATOM      4  H   UNL     1       5.414  -4.321   4.858  1.00  0.00     0.345 HD
ATOM      5  H   UNL     1       6.156  -4.280   3.322  1.00  0.00     0.345 HD
ATOM      6  H   UNL     1       6.252  -5.682   4.269  1.00  0.00     0.345 HD
ENDBRANCH   2   3
BRANCH   2   7
ATOM      7  C   UNL     1       4.112  -4.620   2.114  1.00  0.00     0.099 C 
ATOM      8  O   UNL     1       2.973  -4.695   1.582  1.00  0.00    -0.544 OA
ATOM      9  O   UNL     1       5.080  -3.802   1.547  1.00  0.00    -0.544 OA
ENDBRANCH   2   7
ENDBRANCH   1   2
BRANCH   1  10
ATOM     10  C   UNL     1       2.995  -6.595   5.081  1.00  0.00    -0.016 A 
ATOM     11  C   UNL     1       1.867  -6.996   5.770  1.00  0.00     0.003 A 
ATOM     12  C   UNL     1       3.857  -7.688   5.098  1.00  0.00     0.087 A 
ATOM     13  C   UNL     1       2.092  -8.286   6.180  1.00  0.00     0.046 A 
ATOM     14  C   UNL     1       0.671  -6.335   6.051  1.00  0.00     0.010 A 
ATOM     15  N   UNL     1       3.300  -8.717   5.778  1.00  0.00    -0.361 N 
ATOM     16  C   UNL     1       1.138  -9.002   6.902  1.00  0.00     0.026 A 
ATOM     17  C   UNL     1      -0.310  -7.033   6.780  1.00  0.00     0.001 A 
ATOM     18  H   UNL     1       3.722  -9.657   5.942  1.00  0.00     0.166 HD
ATOM     19  C   UNL     1      -0.077  -8.360   7.204  1.00  0.00     0.002 A 
ENDBRANCH   1  10
TORSDOF 4
ENDMDL
MODEL 9
REMARK VINA RESULT:    -3.858     14.004     14.599
REMARK INTER + INTRA:          -4.995
REMARK INTER:                  -4.881
REMARK INTRA:                  -0.114
REMARK UNBOUND:                -0.348
REMARK SMILES [NH3+][C@@H](Cc1c[nH]c2ccccc12)C(=O)[O-]
REMARK SMILES IDX 3 1 2 2 1 3 13 7 14 8 15 9 4 10 12 11 5 12 7 13 11 14 6 15
REMARK SMILES IDX 8 16 10 17 9 19
REMARK H PARENT 1 4 1 5 1 6 6 18
REMARK Flexibility Score: inf
ROOT
ATOM      1  C   UNL     1      13.369  -7.025   2.202  1.00  0.00     0.109 C 
ENDROOT
BRANCH   1   2
ATOM      2  C   UNL     1      13.713  -6.268   3.501  1.00  0.00     0.232 C 
BRANCH   2   3
ATOM      3  N   UNL     1      14.300  -4.959   3.191  1.00  0.00    -0.350 N 
ATOM      4  H   UNL     1      15.240  -5.072   2.743  1.00  0.00     0.345 HD
ATOM      5  H   UNL     1      14.402  -4.399   4.068  1.00  0.00     0.345 HD
ATOM      6  H   UNL     1      13.673  -4.435   2.539  1.00  0.00     0.345 HD
ENDBRANCH   2   3
BRANCH   2   7
ATOM      7  C   UNL     1      14.658  -7.072   4.357  1.00  0.00     0.099 C 
ATOM      8  O   UNL     1      14.350  -8.240   4.711  1.00  0.00    -0.544 OA
ATOM      9  O   UNL     1      15.887  -6.544   4.733  1.00  0.00    -0.544 OA
ENDBRANCH   2   7
ENDBRANCH   1   2
BRANCH   1  10
ATOM     10  C   UNL     1      12.226  -6.380   1.470  1.00  0.00    -0.016 A 
ATOM     11  C   UNL     1      10.954  -6.121   1.943  1.00  0.00     0.003 A 
ATOM     12  C   UNL     1      12.272  -5.832   0.192  1.00  0.00     0.087 A 
ATOM     13  C   UNL     1      10.290  -5.452   0.947  1.00  0.00     0.046 A 
ATOM     14  C   UNL     1      10.345  -6.410   3.165  1.00  0.00     0.010 A 
ATOM     15  N   UNL     1      11.081  -5.271  -0.124  1.00  0.00    -0.361 N 
ATOM     16  C   UNL     1       8.971  -5.028   1.102  1.00  0.00     0.026 A 
ATOM     17  C   UNL     1       9.013  -5.996   3.349  1.00  0.00     0.001 A 
ATOM     18  H   UNL     1      10.837  -4.786  -1.015  1.00  0.00     0.166 HD
ATOM     19  C   UNL     1       8.329  -5.309   2.323  1.00  0.00     0.002 A 
ENDBRANCH   1  10
TORSDOF 4
ENDMDL
