MODEL 1
REMARK VINA RESULT:    -5.519      0.000      0.000
REMARK INTER + INTRA:          -5.519
REMARK INTER:                  -5.519
REMARK INTRA:                   0.000
REMARK UNBOUND:                 0.000
REMARK SMILES CC(C)=C1CC[C@@H](C)CC1=O
REMARK SMILES IDX 8 1 7 2 6 3 5 4 4 5 2 6 1 7 3 8 10 9 11 10 9 11
REMARK H PARENT
REMARK Flexibility Score: inf
ROOT
ATOM      1  C   UNL     1     256.279 260.784 248.309  1.00  0.00     0.008 C 
ATOM      2  C   UNL     1     255.008 260.418 247.534  1.00  0.00    -0.006 C 
ATOM      3  C   UNL     1     253.805 261.217 248.059  1.00  0.00     0.008 C 
ATOM      4  C   UNL     1     252.545 260.940 247.228  1.00  0.00     0.039 C 
ATOM      5  C   UNL     1     252.247 259.452 247.101  1.00  0.00    -0.006 C 
ATOM      6  C   UNL     1     250.966 258.991 247.004  1.00  0.00    -0.070 C 
ATOM      7  C   UNL     1     250.653 257.513 246.934  1.00  0.00     0.039 C 
ATOM      8  C   UNL     1     249.789 259.941 247.002  1.00  0.00     0.039 C 
ATOM      9  C   UNL     1     253.433 258.553 246.971  1.00  0.00     0.159 C 
ATOM     10  O   UNL     1     253.379 257.491 246.295  1.00  0.00    -0.295 OA
ATOM     11  C   UNL     1     254.725 258.911 247.647  1.00  0.00     0.084 C 
ENDROOT
TORSDOF 0
ENDMDL
MODEL 2
REMARK VINA RESULT:    -5.370      3.340      5.515
REMARK INTER + INTRA:          -5.370
REMARK INTER:                  -5.370
REMARK INTRA:                   0.000
REMARK UNBOUND:                 0.000
REMARK SMILES CC(C)=C1CC[C@@H](C)CC1=O
REMARK SMILES IDX 8 1 7 2 6 3 5 4 4 5 2 6 1 7 3 8 10 9 11 10 9 11
REMARK H PARENT
REMARK Flexibility Score: inf
ROOT
ATOM      1  C   UNL     1     254.500 260.242 245.557  1.00  0.00     0.008 C 
ATOM      2  C   UNL     1     255.183 260.221 246.929  1.00  0.00    -0.006 C 
ATOM      3  C   UNL     1     254.277 260.859 247.995  1.00  0.00     0.008 C 
ATOM      4  C   UNL     1     254.901 260.756 249.393  1.00  0.00     0.039 C 
ATOM      5  C   UNL     1     256.324 261.295 249.437  1.00  0.00    -0.006 C 
ATOM      6  C   UNL     1     256.824 261.886 250.562  1.00  0.00    -0.070 C 
ATOM      7  C   UNL     1     258.216 262.476 250.601  1.00  0.00     0.039 C 
ATOM      8  C   UNL     1     255.990 262.015 251.816  1.00  0.00     0.039 C 
ATOM      9  C   UNL     1     257.164 261.033 248.230  1.00  0.00     0.159 C 
ATOM     10  O   UNL     1     258.409 260.860 248.323  1.00  0.00    -0.295 OA
ATOM     11  C   UNL     1     256.528 260.964 246.872  1.00  0.00     0.084 C 
ENDROOT
TORSDOF 0
ENDMDL
MODEL 3
REMARK VINA RESULT:    -5.323      2.092      4.092
REMARK INTER + INTRA:          -5.323
REMARK INTER:                  -5.323
REMARK INTRA:                   0.000
REMARK UNBOUND:                 0.000
REMARK SMILES CC(C)=C1CC[C@@H](C)CC1=O
REMARK SMILES IDX 8 1 7 2 6 3 5 4 4 5 2 6 1 7 3 8 10 9 11 10 9 11
REMARK H PARENT
REMARK Flexibility Score: inf
ROOT
ATOM      1  C   UNL     1     249.347 263.335 246.236  1.00  0.00     0.008 C 
ATOM      2  C   UNL     1     250.008 262.119 246.894  1.00  0.00    -0.006 C 
ATOM      3  C   UNL     1     251.490 262.026 246.496  1.00  0.00     0.008 C 
ATOM      4  C   UNL     1     252.193 260.874 247.226  1.00  0.00     0.039 C 
ATOM      5  C   UNL     1     251.461 259.549 247.065  1.00  0.00    -0.006 C 
ATOM      6  C   UNL     1     252.137 258.363 247.039  1.00  0.00    -0.070 C 
ATOM      7  C   UNL     1     251.428 257.045 246.824  1.00  0.00     0.039 C 
ATOM      8  C   UNL     1     253.641 258.316 247.187  1.00  0.00     0.039 C 
ATOM      9  C   UNL     1     249.969 259.619 247.057  1.00  0.00     0.159 C 
ATOM     10  O   UNL     1     249.266 258.682 247.521  1.00  0.00    -0.295 OA
ATOM     11  C   UNL     1     249.276 260.827 246.495  1.00  0.00     0.084 C 
ENDROOT
TORSDOF 0
ENDMDL
MODEL 4
REMARK VINA RESULT:    -5.240      1.986      3.464
REMARK INTER + INTRA:          -5.240
REMARK INTER:                  -5.240
REMARK INTRA:                   0.000
REMARK UNBOUND:                 0.000
REMARK SMILES CC(C)=C1CC[C@@H](C)CC1=O
REMARK SMILES IDX 8 1 7 2 6 3 5 4 4 5 2 6 1 7 3 8 10 9 11 10 9 11
REMARK H PARENT
REMARK Flexibility Score: inf
ROOT
ATOM      1  C   UNL     1     253.120 261.248 247.094  1.00  0.00     0.008 C 
ATOM      2  C   UNL     1     252.545 259.844 247.313  1.00  0.00    -0.006 C 
ATOM      3  C   UNL     1     253.292 258.813 246.451  1.00  0.00     0.008 C 
ATOM      4  C   UNL     1     252.799 257.387 246.732  1.00  0.00     0.039 C 
ATOM      5  C   UNL     1     251.286 257.260 246.616  1.00  0.00    -0.006 C 
ATOM      6  C   UNL     1     250.702 256.100 246.194  1.00  0.00    -0.070 C 
ATOM      7  C   UNL     1     249.205 255.979 246.020  1.00  0.00     0.039 C 
ATOM      8  C   UNL     1     251.533 254.887 245.843  1.00  0.00     0.039 C 
ATOM      9  C   UNL     1     250.490 258.428 247.097  1.00  0.00     0.159 C 
ATOM     10  O   UNL     1     249.350 258.276 247.614  1.00  0.00    -0.295 OA
ATOM     11  C   UNL     1     251.046 259.818 246.978  1.00  0.00     0.084 C 
ENDROOT
TORSDOF 0
ENDMDL
MODEL 5
REMARK VINA RESULT:    -5.239      1.572      4.751
REMARK INTER + INTRA:          -5.239
REMARK INTER:                  -5.239
REMARK INTRA:                   0.000
REMARK UNBOUND:                 0.000
REMARK SMILES CC(C)=C1CC[C@@H](C)CC1=O
REMARK SMILES IDX 8 1 7 2 6 3 5 4 4 5 2 6 1 7 3 8 10 9 11 10 9 11
REMARK H PARENT
REMARK Flexibility Score: inf
ROOT
ATOM      1  C   UNL     1     247.362 257.238 246.121  1.00  0.00     0.008 C 
ATOM      2  C   UNL     1     248.660 257.732 246.770  1.00  0.00    -0.006 C 
ATOM      3  C   UNL     1     248.884 259.222 246.466  1.00  0.00     0.008 C 
ATOM      4  C   UNL     1     250.125 259.760 247.191  1.00  0.00     0.039 C 
ATOM      5  C   UNL     1     251.365 258.917 246.927  1.00  0.00    -0.006 C 
ATOM      6  C   UNL     1     252.610 259.476 246.895  1.00  0.00    -0.070 C 
ATOM      7  C   UNL     1     253.843 258.661 246.579  1.00  0.00     0.039 C 
ATOM      8  C   UNL     1     252.811 260.955 247.139  1.00  0.00     0.039 C 
ATOM      9  C   UNL     1     251.148 257.443 246.824  1.00  0.00     0.159 C 
ATOM     10  O   UNL     1     252.027 256.622 247.201  1.00  0.00    -0.295 OA
ATOM     11  C   UNL     1     249.858 256.910 246.270  1.00  0.00     0.084 C 
ENDROOT
TORSDOF 0
ENDMDL
MODEL 6
REMARK VINA RESULT:    -5.229      2.682      5.648
REMARK INTER + INTRA:          -5.229
REMARK INTER:                  -5.229
REMARK INTRA:                   0.000
REMARK UNBOUND:                 0.000
REMARK SMILES CC(C)=C1CC[C@@H](C)CC1=O
REMARK SMILES IDX 8 1 7 2 6 3 5 4 4 5 2 6 1 7 3 8 10 9 11 10 9 11
REMARK H PARENT
REMARK Flexibility Score: inf
ROOT
ATOM      1  C   UNL     1     252.678 260.257 247.210  1.00  0.00     0.008 C 
ATOM      2  C   UNL     1     254.074 260.890 247.197  1.00  0.00    -0.006 C 
ATOM      3  C   UNL     1     254.795 260.586 245.874  1.00  0.00     0.008 C 
ATOM      4  C   UNL     1     256.153 261.297 245.802  1.00  0.00     0.039 C 
ATOM      5  C   UNL     1     257.024 261.016 247.019  1.00  0.00    -0.006 C 
ATOM      6  C   UNL     1     258.385 260.970 246.923  1.00  0.00    -0.070 C 
ATOM      7  C   UNL     1     259.257 260.637 248.112  1.00  0.00     0.039 C 
ATOM      8  C   UNL     1     259.086 261.214 245.606  1.00  0.00     0.039 C 
ATOM      9  C   UNL     1     256.310 260.913 248.327  1.00  0.00     0.159 C 
ATOM     10  O   UNL     1     256.857 261.278 249.403  1.00  0.00    -0.295 OA
ATOM     11  C   UNL     1     254.910 260.374 248.379  1.00  0.00     0.084 C 
ENDROOT
TORSDOF 0
ENDMDL
MODEL 7
REMARK VINA RESULT:    -5.162      4.643      5.931
REMARK INTER + INTRA:          -5.162
REMARK INTER:                  -5.162
REMARK INTRA:                   0.000
REMARK UNBOUND:                 0.000
REMARK SMILES CC(C)=C1CC[C@@H](C)CC1=O
REMARK SMILES IDX 8 1 7 2 6 3 5 4 4 5 2 6 1 7 3 8 10 9 11 10 9 11
REMARK H PARENT
REMARK Flexibility Score: inf
ROOT
ATOM      1  C   UNL     1     257.984 261.666 244.597  1.00  0.00     0.008 C 
ATOM      2  C   UNL     1     257.854 261.249 246.066  1.00  0.00    -0.006 C 
ATOM      3  C   UNL     1     256.377 261.056 246.446  1.00  0.00     0.008 C 
ATOM      4  C   UNL     1     256.233 260.540 247.884  1.00  0.00     0.039 C 
ATOM      5  C   UNL     1     256.987 261.398 248.890  1.00  0.00    -0.006 C 
ATOM      6  C   UNL     1     256.536 261.555 250.169  1.00  0.00    -0.070 C 
ATOM      7  C   UNL     1     257.245 262.449 251.160  1.00  0.00     0.039 C 
ATOM      8  C   UNL     1     255.276 260.868 250.644  1.00  0.00     0.039 C 
ATOM      9  C   UNL     1     258.296 261.953 248.429  1.00  0.00     0.159 C 
ATOM     10  O   UNL     1     259.250 262.133 249.233  1.00  0.00    -0.295 OA
ATOM     11  C   UNL     1     258.498 262.301 246.983  1.00  0.00     0.084 C 
ENDROOT
TORSDOF 0
ENDMDL
MODEL 8
REMARK VINA RESULT:    -5.019      3.540      5.430
REMARK INTER + INTRA:          -5.019
REMARK INTER:                  -5.019
REMARK INTRA:                   0.000
REMARK UNBOUND:                 0.000
REMARK SMILES CC(C)=C1CC[C@@H](C)CC1=O
REMARK SMILES IDX 8 1 7 2 6 3 5 4 4 5 2 6 1 7 3 8 10 9 11 10 9 11
REMARK H PARENT
REMARK Flexibility Score: inf
ROOT
ATOM      1  C   UNL     1     254.901 261.210 251.509  1.00  0.00     0.008 C 
ATOM      2  C   UNL     1     255.754 260.818 250.297  1.00  0.00    -0.006 C 
ATOM      3  C   UNL     1     256.986 261.731 250.183  1.00  0.00     0.008 C 
ATOM      4  C   UNL     1     257.904 261.289 249.037  1.00  0.00     0.039 C 
ATOM      5  C   UNL     1     257.160 261.145 247.716  1.00  0.00    -0.006 C 
ATOM      6  C   UNL     1     257.776 261.395 246.524  1.00  0.00    -0.070 C 
ATOM      7  C   UNL     1     257.033 261.310 245.210  1.00  0.00     0.039 C 
ATOM      8  C   UNL     1     259.229 261.808 246.464  1.00  0.00     0.039 C 
ATOM      9  C   UNL     1     255.770 260.606 247.801  1.00  0.00     0.159 C 
ATOM     10  O   UNL     1     255.283 259.899 246.878  1.00  0.00    -0.295 OA
ATOM     11  C   UNL     1     254.923 260.896 249.007  1.00  0.00     0.084 C 
ENDROOT
TORSDOF 0
ENDMDL
MODEL 9
REMARK VINA RESULT:    -5.017      2.746      5.946
REMARK INTER + INTRA:          -5.017
REMARK INTER:                  -5.017
REMARK INTRA:                   0.000
REMARK UNBOUND:                 0.000
REMARK SMILES CC(C)=C1CC[C@@H](C)CC1=O
REMARK SMILES IDX 8 1 7 2 6 3 5 4 4 5 2 6 1 7 3 8 10 9 11 10 9 11
REMARK H PARENT
REMARK Flexibility Score: inf
ROOT
ATOM      1  C   UNL     1     253.080 260.487 247.009  1.00  0.00     0.008 C 
ATOM      2  C   UNL     1     254.604 260.344 246.928  1.00  0.00    -0.006 C 
ATOM      3  C   UNL     1     255.258 260.756 248.256  1.00  0.00     0.008 C 
ATOM      4  C   UNL     1     256.775 260.523 248.229  1.00  0.00     0.039 C 
ATOM      5  C   UNL     1     257.442 261.171 247.024  1.00  0.00    -0.006 C 
ATOM      6  C   UNL     1     258.719 261.650 247.092  1.00  0.00    -0.070 C 
ATOM      7  C   UNL     1     259.373 262.346 245.920  1.00  0.00     0.039 C 
ATOM      8  C   UNL     1     259.530 261.540 248.363  1.00  0.00     0.039 C 
ATOM      9  C   UNL     1     256.665 261.144 245.749  1.00  0.00     0.159 C 
ATOM     10  O   UNL     1     257.242 261.067 244.631  1.00  0.00    -0.295 OA
ATOM     11  C   UNL     1     255.165 261.200 245.781  1.00  0.00     0.084 C 
ENDROOT
TORSDOF 0
ENDMDL
