MODEL 1
REMARK VINA RESULT:    -5.563      0.000      0.000
REMARK INTER + INTRA:          -6.097
REMARK INTER:                  -6.051
REMARK INTRA:                  -0.046
REMARK UNBOUND:                -0.046
REMARK SMILES CC1(C)[C@@H]2CC=C(CO)[C@H]1C2
REMARK SMILES IDX 8 1 7 2 1 3 2 4 4 5 3 6 10 7 5 8 11 9 6 10 9 11
REMARK H PARENT 9 12
REMARK Flexibility Score: inf
ROOT
ATOM      1  C   UNL     1      16.590  -6.705 -27.308  1.00  0.00     0.187 C 
ENDROOT
BRANCH   1   2
ATOM      2  C   UNL     1      17.306  -5.477 -26.819  1.00  0.00    -0.045 C 
ATOM      3  C   UNL     1      20.140  -3.346 -28.442  1.00  0.00     0.012 C 
ATOM      4  C   UNL     1      19.352  -4.111 -27.347  1.00  0.00    -0.026 C 
ATOM      5  C   UNL     1      18.687  -3.151 -26.323  1.00  0.00    -0.000 C 
ATOM      6  C   UNL     1      20.253  -5.262 -26.814  1.00  0.00     0.012 C 
ATOM      7  C   UNL     1      17.907  -4.454 -27.792  1.00  0.00     0.023 C 
ATOM      8  C   UNL     1      18.213  -3.946 -25.057  1.00  0.00     0.031 C 
ATOM      9  C   UNL     1      17.460  -3.080 -27.255  1.00  0.00     0.013 C 
ATOM     10  C   UNL     1      17.437  -5.208 -25.486  1.00  0.00    -0.025 C 
ENDBRANCH   1   2
BRANCH   1  11
ATOM     11  O   UNL     1      16.563  -6.726 -28.709  1.00  0.00    -0.392 OA
ATOM     12  H   UNL     1      16.236  -7.627 -28.971  1.00  0.00     0.211 HD
ENDBRANCH   1  11
TORSDOF 2
ENDMDL
MODEL 2
REMARK VINA RESULT:    -5.379     13.718     15.628
REMARK INTER + INTRA:          -5.897
REMARK INTER:                  -5.851
REMARK INTRA:                  -0.046
REMARK UNBOUND:                -0.046
REMARK SMILES CC1(C)[C@@H]2CC=C(CO)[C@H]1C2
REMARK SMILES IDX 8 1 7 2 1 3 2 4 4 5 3 6 10 7 5 8 11 9 6 10 9 11
REMARK H PARENT 9 12
REMARK Flexibility Score: inf
ROOT
ATOM      1  C   UNL     1      31.688   6.866 -27.211  1.00  0.00     0.187 C 
ENDROOT
BRANCH   1   2
ATOM      2  C   UNL     1      30.880   5.709 -26.693  1.00  0.00    -0.045 C 
ATOM      3  C   UNL     1      27.747   3.912 -28.163  1.00  0.00     0.012 C 
ATOM      4  C   UNL     1      28.674   4.571 -27.110  1.00  0.00    -0.026 C 
ATOM      5  C   UNL     1      29.297   3.529 -26.141  1.00  0.00    -0.000 C 
ATOM      6  C   UNL     1      27.933   5.798 -26.507  1.00  0.00     0.012 C 
ATOM      7  C   UNL     1      30.118   4.772 -27.640  1.00  0.00     0.023 C 
ATOM      8  C   UNL     1      29.928   4.246 -24.898  1.00  0.00     0.031 C 
ATOM      9  C   UNL     1      30.451   3.349 -27.149  1.00  0.00     0.013 C 
ATOM     10  C   UNL     1      30.803   5.430 -25.358  1.00  0.00    -0.025 C 
ENDBRANCH   1   2
BRANCH   1  11
ATOM     11  O   UNL     1      31.618   6.921 -28.609  1.00  0.00    -0.392 OA
ATOM     12  H   UNL     1      30.919   6.270 -28.882  1.00  0.00     0.211 HD
ENDBRANCH   1  11
TORSDOF 2
ENDMDL
MODEL 3
REMARK VINA RESULT:    -5.336     15.826     16.993
REMARK INTER + INTRA:          -5.850
REMARK INTER:                  -5.827
REMARK INTRA:                  -0.023
REMARK UNBOUND:                -0.046
REMARK SMILES CC1(C)[C@@H]2CC=C(CO)[C@H]1C2
REMARK SMILES IDX 8 1 7 2 1 3 2 4 4 5 3 6 10 7 5 8 11 9 6 10 9 11
REMARK H PARENT 9 12
REMARK Flexibility Score: inf
ROOT
ATOM      1  C   UNL     1      33.232  -0.545 -16.693  1.00  0.00     0.187 C 
ENDROOT
BRANCH   1   2
ATOM      2  C   UNL     1      31.737  -0.446 -16.564  1.00  0.00    -0.045 C 
ATOM      3  C   UNL     1      28.920  -0.551 -19.258  1.00  0.00     0.012 C 
ATOM      4  C   UNL     1      29.707  -0.085 -18.006  1.00  0.00    -0.026 C 
ATOM      5  C   UNL     1      28.990  -0.474 -16.684  1.00  0.00    -0.000 C 
ATOM      6  C   UNL     1      30.127   1.398 -18.218  1.00  0.00     0.012 C 
ATOM      7  C   UNL     1      30.796  -1.104 -17.582  1.00  0.00     0.023 C 
ATOM      8  C   UNL     1      29.612   0.307 -15.475  1.00  0.00     0.031 C 
ATOM      9  C   UNL     1      29.730  -1.826 -16.733  1.00  0.00     0.013 C 
ATOM     10  C   UNL     1      31.151   0.219 -15.525  1.00  0.00    -0.025 C 
ENDBRANCH   1   2
BRANCH   1  11
ATOM     11  O   UNL     1      33.806  -0.874 -15.458  1.00  0.00    -0.392 OA
ATOM     12  H   UNL     1      34.502  -1.558 -15.644  1.00  0.00     0.211 HD
ENDBRANCH   1  11
TORSDOF 2
ENDMDL
MODEL 4
REMARK VINA RESULT:    -5.084      1.048      2.578
REMARK INTER + INTRA:          -5.576
REMARK INTER:                  -5.553
REMARK INTRA:                  -0.023
REMARK UNBOUND:                -0.046
REMARK SMILES CC1(C)[C@@H]2CC=C(CO)[C@H]1C2
REMARK SMILES IDX 8 1 7 2 1 3 2 4 4 5 3 6 10 7 5 8 11 9 6 10 9 11
REMARK H PARENT 9 12
REMARK Flexibility Score: inf
ROOT
ATOM      1  C   UNL     1      17.020  -6.381 -27.292  1.00  0.00     0.187 C 
ENDROOT
BRANCH   1   2
ATOM      2  C   UNL     1      18.057  -5.296 -27.381  1.00  0.00    -0.045 C 
ATOM      3  C   UNL     1      20.000  -3.374 -24.600  1.00  0.00     0.012 C 
ATOM      4  C   UNL     1      19.197  -3.606 -25.906  1.00  0.00    -0.026 C 
ATOM      5  C   UNL     1      20.080  -3.444 -27.174  1.00  0.00    -0.000 C 
ATOM      6  C   UNL     1      17.871  -2.800 -25.813  1.00  0.00     0.012 C 
ATOM      7  C   UNL     1      19.120  -5.107 -26.291  1.00  0.00     0.023 C 
ATOM      8  C   UNL     1      19.181  -3.333 -28.454  1.00  0.00     0.031 C 
ATOM      9  C   UNL     1      20.449  -4.937 -27.052  1.00  0.00     0.013 C 
ATOM     10  C   UNL     1      18.110  -4.442 -28.447  1.00  0.00    -0.025 C 
ENDBRANCH   1   2
BRANCH   1  11
ATOM     11  O   UNL     1      16.542  -6.703 -28.570  1.00  0.00    -0.392 OA
ATOM     12  H   UNL     1      15.596  -6.402 -28.601  1.00  0.00     0.211 HD
ENDBRANCH   1  11
TORSDOF 2
ENDMDL
MODEL 5
REMARK VINA RESULT:    -4.747     13.719     15.105
REMARK INTER + INTRA:          -5.210
REMARK INTER:                  -5.182
REMARK INTRA:                  -0.028
REMARK UNBOUND:                -0.046
REMARK SMILES CC1(C)[C@@H]2CC=C(CO)[C@H]1C2
REMARK SMILES IDX 8 1 7 2 1 3 2 4 4 5 3 6 10 7 5 8 11 9 6 10 9 11
REMARK H PARENT 9 12
REMARK Flexibility Score: inf
ROOT
ATOM      1  C   UNL     1      31.506   6.065 -26.334  1.00  0.00     0.187 C 
ENDROOT
BRANCH   1   2
ATOM      2  C   UNL     1      30.217   5.321 -26.546  1.00  0.00    -0.045 C 
ATOM      3  C   UNL     1      27.564   4.016 -24.004  1.00  0.00     0.012 C 
ATOM      4  C   UNL     1      28.515   4.017 -25.228  1.00  0.00    -0.026 C 
ATOM      5  C   UNL     1      27.743   4.120 -26.572  1.00  0.00    -0.000 C 
ATOM      6  C   UNL     1      29.545   2.866 -25.046  1.00  0.00     0.012 C 
ATOM      7  C   UNL     1      29.049   5.436 -25.558  1.00  0.00     0.023 C 
ATOM      8  C   UNL     1      28.687   3.765 -27.773  1.00  0.00     0.031 C 
ATOM      9  C   UNL     1      27.802   5.655 -26.436  1.00  0.00     0.013 C 
ATOM     10  C   UNL     1      30.022   4.523 -27.638  1.00  0.00    -0.025 C 
ENDBRANCH   1   2
BRANCH   1  11
ATOM     11  O   UNL     1      31.590   7.152 -27.214  1.00  0.00    -0.392 OA
ATOM     12  H   UNL     1      30.708   7.608 -27.184  1.00  0.00     0.211 HD
ENDBRANCH   1  11
TORSDOF 2
ENDMDL
MODEL 6
REMARK VINA RESULT:    -4.633     15.156     16.446
REMARK INTER + INTRA:          -5.086
REMARK INTER:                  -5.042
REMARK INTRA:                  -0.044
REMARK UNBOUND:                -0.046
REMARK SMILES CC1(C)[C@@H]2CC=C(CO)[C@H]1C2
REMARK SMILES IDX 8 1 7 2 1 3 2 4 4 5 3 6 10 7 5 8 11 9 6 10 9 11
REMARK H PARENT 9 12
REMARK Flexibility Score: inf
ROOT
ATOM      1  C   UNL     1      30.313   2.144 -18.281  1.00  0.00     0.187 C 
ENDROOT
BRANCH   1   2
ATOM      2  C   UNL     1      30.456   0.805 -17.612  1.00  0.00    -0.045 C 
ATOM      3  C   UNL     1      27.794  -1.568 -16.036  1.00  0.00     0.012 C 
ATOM      4  C   UNL     1      29.119  -0.778 -16.184  1.00  0.00    -0.026 C 
ATOM      5  C   UNL     1      30.324  -1.707 -16.501  1.00  0.00    -0.000 C 
ATOM      6  C   UNL     1      29.234   0.210 -14.989  1.00  0.00     0.012 C 
ATOM      7  C   UNL     1      29.317  -0.223 -17.619  1.00  0.00     0.023 C 
ATOM      8  C   UNL     1      31.675  -0.939 -16.293  1.00  0.00     0.031 C 
ATOM      9  C   UNL     1      29.986  -1.559 -17.998  1.00  0.00     0.013 C 
ATOM     10  C   UNL     1      31.612   0.438 -16.985  1.00  0.00    -0.025 C 
ENDBRANCH   1   2
BRANCH   1  11
ATOM     11  O   UNL     1      29.228   2.132 -19.167  1.00  0.00    -0.392 OA
ATOM     12  H   UNL     1      29.341   2.920 -19.762  1.00  0.00     0.211 HD
ENDBRANCH   1  11
TORSDOF 2
ENDMDL
MODEL 7
REMARK VINA RESULT:    -4.569     14.988     16.166
REMARK INTER + INTRA:          -5.016
REMARK INTER:                  -4.980
REMARK INTRA:                  -0.036
REMARK UNBOUND:                -0.046
REMARK SMILES CC1(C)[C@@H]2CC=C(CO)[C@H]1C2
REMARK SMILES IDX 8 1 7 2 1 3 2 4 4 5 3 6 10 7 5 8 11 9 6 10 9 11
REMARK H PARENT 9 12
REMARK Flexibility Score: inf
ROOT
ATOM      1  C   UNL     1      29.108  -2.041 -19.201  1.00  0.00     0.187 C 
ENDROOT
BRANCH   1   2
ATOM      2  C   UNL     1      29.808  -0.916 -18.491  1.00  0.00    -0.045 C 
ATOM      3  C   UNL     1      31.376  -0.715 -14.927  1.00  0.00     0.012 C 
ATOM      4  C   UNL     1      30.566  -0.284 -16.176  1.00  0.00    -0.026 C 
ATOM      5  C   UNL     1      31.273   0.848 -16.972  1.00  0.00    -0.000 C 
ATOM      6  C   UNL     1      29.084  -0.083 -15.750  1.00  0.00     0.012 C 
ATOM      7  C   UNL     1      30.863  -1.178 -17.408  1.00  0.00     0.023 C 
ATOM      8  C   UNL     1      30.281   1.494 -18.000  1.00  0.00     0.031 C 
ATOM      9  C   UNL     1      32.035  -0.240 -17.755  1.00  0.00     0.013 C 
ATOM     10  C   UNL     1      29.549   0.392 -18.792  1.00  0.00    -0.025 C 
ENDBRANCH   1   2
BRANCH   1  11
ATOM     11  O   UNL     1      29.948  -2.599 -20.174  1.00  0.00    -0.392 OA
ATOM     12  H   UNL     1      30.443  -3.337 -19.730  1.00  0.00     0.211 HD
ENDBRANCH   1  11
TORSDOF 2
ENDMDL
MODEL 8
REMARK VINA RESULT:    -4.562     15.114     16.128
REMARK INTER + INTRA:          -5.008
REMARK INTER:                  -4.985
REMARK INTRA:                  -0.023
REMARK UNBOUND:                -0.046
REMARK SMILES CC1(C)[C@@H]2CC=C(CO)[C@H]1C2
REMARK SMILES IDX 8 1 7 2 1 3 2 4 4 5 3 6 10 7 5 8 11 9 6 10 9 11
REMARK H PARENT 9 12
REMARK Flexibility Score: inf
ROOT
ATOM      1  C   UNL     1      27.822  -1.925 -17.247  1.00  0.00     0.187 C 
ENDROOT
BRANCH   1   2
ATOM      2  C   UNL     1      28.917  -0.954 -16.900  1.00  0.00    -0.045 C 
ATOM      3  C   UNL     1      32.490  -0.481 -18.388  1.00  0.00     0.012 C 
ATOM      4  C   UNL     1      31.373  -0.601 -17.320  1.00  0.00    -0.026 C 
ATOM      5  C   UNL     1      31.050   0.763 -16.652  1.00  0.00    -0.000 C 
ATOM      6  C   UNL     1      31.699  -1.819 -16.408  1.00  0.00     0.012 C 
ATOM      7  C   UNL     1      29.954  -0.505 -17.938  1.00  0.00     0.023 C 
ATOM      8  C   UNL     1      30.193   0.549 -15.356  1.00  0.00     0.031 C 
ATOM      9  C   UNL     1      30.036   1.027 -17.784  1.00  0.00     0.013 C 
ATOM     10  C   UNL     1      29.026  -0.415 -15.649  1.00  0.00    -0.025 C 
ENDBRANCH   1   2
BRANCH   1  11
ATOM     11  O   UNL     1      27.156  -2.342 -16.086  1.00  0.00    -0.392 OA
ATOM     12  H   UNL     1      26.495  -1.633 -15.871  1.00  0.00     0.211 HD
ENDBRANCH   1  11
TORSDOF 2
ENDMDL
MODEL 9
REMARK VINA RESULT:    -4.540     13.026     14.572
REMARK INTER + INTRA:          -4.985
REMARK INTER:                  -4.920
REMARK INTRA:                  -0.065
REMARK UNBOUND:                -0.046
REMARK SMILES CC1(C)[C@@H]2CC=C(CO)[C@H]1C2
REMARK SMILES IDX 8 1 7 2 1 3 2 4 4 5 3 6 10 7 5 8 11 9 6 10 9 11
REMARK H PARENT 9 12
REMARK Flexibility Score: inf
ROOT
ATOM      1  C   UNL     1      27.401   4.488 -23.895  1.00  0.00     0.187 C 
ENDROOT
BRANCH   1   2
ATOM      2  C   UNL     1      28.013   4.336 -25.260  1.00  0.00    -0.045 C 
ATOM      3  C   UNL     1      31.252   5.867 -26.800  1.00  0.00     0.012 C 
ATOM      4  C   UNL     1      29.774   5.409 -26.703  1.00  0.00    -0.026 C 
ATOM      5  C   UNL     1      29.491   4.153 -27.572  1.00  0.00    -0.000 C 
ATOM      6  C   UNL     1      28.863   6.658 -26.878  1.00  0.00     0.012 C 
ATOM      7  C   UNL     1      29.524   4.481 -25.485  1.00  0.00     0.023 C 
ATOM      8  C   UNL     1      27.946   3.935 -27.731  1.00  0.00     0.031 C 
ATOM      9  C   UNL     1      29.914   3.282 -26.372  1.00  0.00     0.013 C 
ATOM     10  C   UNL     1      27.253   4.044 -26.357  1.00  0.00    -0.025 C 
ENDBRANCH   1   2
BRANCH   1  11
ATOM     11  O   UNL     1      27.624   5.781 -23.404  1.00  0.00    -0.392 OA
ATOM     12  H   UNL     1      26.818   6.025 -22.876  1.00  0.00     0.211 HD
ENDBRANCH   1  11
TORSDOF 2
ENDMDL
