MODEL 1
REMARK VINA RESULT:    -2.053      0.000      0.000
REMARK INTER + INTRA:          -3.648
REMARK INTER:                  -3.134
REMARK INTRA:                  -0.514
REMARK UNBOUND:                -0.514
REMARK SMILES O=C([O-])CCCCCCCCC(=O)[O-]
REMARK SMILES IDX 7 1 6 2 5 3 4 4 2 5 1 6 3 7 8 8 9 9 10 10 11 11 12 12 13 13
REMARK SMILES IDX 14 14
REMARK H PARENT
REMARK Flexibility Score: inf
ROOT
ATOM      1  C   UNL     1      17.151   2.815  24.914  1.00  0.00     0.000 C 
ENDROOT
BRANCH   1   2
ATOM      2  C   UNL     1      15.852   3.140  25.662  1.00  0.00     0.000 C 
BRANCH   2   3
ATOM      3  C   UNL     1      14.768   2.093  25.364  1.00  0.00     0.006 C 
BRANCH   3   4
ATOM      4  C   UNL     1      13.440   2.736  24.944  1.00  0.00     0.053 C 
BRANCH   4   5
ATOM      5  C   UNL     1      13.530   3.363  23.586  1.00  0.00     0.041 C 
ATOM      6  O   UNL     1      13.945   2.692  22.605  1.00  0.00    -0.550 OA
ATOM      7  O   UNL     1      13.187   4.698  23.412  1.00  0.00    -0.550 OA
ENDBRANCH   4   5
ENDBRANCH   3   4
ENDBRANCH   2   3
ENDBRANCH   1   2
BRANCH   1   8
ATOM      8  C   UNL     1      17.695   1.443  25.327  1.00  0.00     0.000 C 
BRANCH   8   9
ATOM      9  C   UNL     1      19.129   1.557  25.859  1.00  0.00     0.000 C 
BRANCH   9  10
ATOM     10  C   UNL     1      19.160   1.426  27.389  1.00  0.00     0.006 C 
BRANCH  10  11
ATOM     11  C   UNL     1      18.726   2.719  28.091  1.00  0.00     0.053 C 
BRANCH  11  12
ATOM     12  C   UNL     1      19.235   2.786  29.499  1.00  0.00     0.041 C 
ATOM     13  O   UNL     1      20.202   2.064  29.857  1.00  0.00    -0.550 OA
ATOM     14  O   UNL     1      18.664   3.671  30.405  1.00  0.00    -0.550 OA
ENDBRANCH  11  12
ENDBRANCH  10  11
ENDBRANCH   9  10
ENDBRANCH   8   9
ENDBRANCH   1   8
TORSDOF 9
ENDMDL
MODEL 2
REMARK VINA RESULT:    -2.030      0.041      6.739
REMARK INTER + INTRA:          -3.613
REMARK INTER:                  -3.111
REMARK INTRA:                  -0.501
REMARK UNBOUND:                -0.514
REMARK SMILES O=C([O-])CCCCCCCCC(=O)[O-]
REMARK SMILES IDX 7 1 6 2 5 3 4 4 2 5 1 6 3 7 8 8 9 9 10 10 11 11 12 12 13 13
REMARK SMILES IDX 14 14
REMARK H PARENT
REMARK Flexibility Score: inf
ROOT
ATOM      1  C   UNL     1      17.707   1.437  25.342  1.00  0.00     0.000 C 
ENDROOT
BRANCH   1   2
ATOM      2  C   UNL     1      19.128   1.538  25.910  1.00  0.00     0.000 C 
BRANCH   2   3
ATOM      3  C   UNL     1      19.120   1.405  27.440  1.00  0.00     0.006 C 
BRANCH   3   4
ATOM      4  C   UNL     1      18.710   2.709  28.135  1.00  0.00     0.053 C 
BRANCH   4   5
ATOM      5  C   UNL     1      19.244   2.787  29.533  1.00  0.00     0.041 C 
ATOM      6  O   UNL     1      20.189   2.036  29.892  1.00  0.00    -0.550 OA
ATOM      7  O   UNL     1      18.677   3.665  30.447  1.00  0.00    -0.550 OA
ENDBRANCH   4   5
ENDBRANCH   3   4
ENDBRANCH   2   3
ENDBRANCH   1   2
BRANCH   1   8
ATOM      8  C   UNL     1      17.166   2.820  24.961  1.00  0.00     0.000 C 
BRANCH   8   9
ATOM      9  C   UNL     1      15.863   3.127  25.708  1.00  0.00     0.000 C 
BRANCH   9  10
ATOM     10  C   UNL     1      14.778   2.093  25.370  1.00  0.00     0.006 C 
BRANCH  10  11
ATOM     11  C   UNL     1      13.455   2.753  24.959  1.00  0.00     0.053 C 
BRANCH  11  12
ATOM     12  C   UNL     1      13.540   3.372  23.598  1.00  0.00     0.041 C 
ATOM     13  O   UNL     1      13.910   2.682  22.611  1.00  0.00    -0.550 OA
ATOM     14  O   UNL     1      13.180   4.701  23.413  1.00  0.00    -0.550 OA
ENDBRANCH  11  12
ENDBRANCH  10  11
ENDBRANCH   9  10
ENDBRANCH   8   9
ENDBRANCH   1   8
TORSDOF 9
ENDMDL
MODEL 3
REMARK VINA RESULT:    -1.986      1.085      6.670
REMARK INTER + INTRA:          -3.544
REMARK INTER:                  -3.090
REMARK INTRA:                  -0.454
REMARK UNBOUND:                -0.514
REMARK SMILES O=C([O-])CCCCCCCCC(=O)[O-]
REMARK SMILES IDX 7 1 6 2 5 3 4 4 2 5 1 6 3 7 8 8 9 9 10 10 11 11 12 12 13 13
REMARK SMILES IDX 14 14
REMARK H PARENT
REMARK Flexibility Score: inf
ROOT
ATOM      1  C   UNL     1      19.153   2.043  26.394  1.00  0.00     0.000 C 
ENDROOT
BRANCH   1   2
ATOM      2  C   UNL     1      19.371   0.984  27.482  1.00  0.00     0.000 C 
BRANCH   2   3
ATOM      3  C   UNL     1      19.449   1.632  28.873  1.00  0.00     0.006 C 
BRANCH   3   4
ATOM      4  C   UNL     1      18.805   3.024  28.903  1.00  0.00     0.053 C 
BRANCH   4   5
ATOM      5  C   UNL     1      18.776   3.594  30.288  1.00  0.00     0.041 C 
ATOM      6  O   UNL     1      19.758   3.435  31.058  1.00  0.00    -0.550 OA
ATOM      7  O   UNL     1      17.650   4.272  30.738  1.00  0.00    -0.550 OA
ENDBRANCH   4   5
ENDBRANCH   3   4
ENDBRANCH   2   3
ENDBRANCH   1   2
BRANCH   1   8
ATOM      8  C   UNL     1      18.071   1.599  25.403  1.00  0.00     0.000 C 
BRANCH   8   9
ATOM      9  C   UNL     1      17.072   2.731  25.136  1.00  0.00     0.000 C 
BRANCH   9  10
ATOM     10  C   UNL     1      15.681   2.378  25.684  1.00  0.00     0.006 C 
BRANCH  10  11
ATOM     11  C   UNL     1      14.642   3.464  25.375  1.00  0.00     0.053 C 
BRANCH  11  12
ATOM     12  C   UNL     1      13.704   3.042  24.286  1.00  0.00     0.041 C 
ATOM     13  O   UNL     1      13.016   1.995  24.414  1.00  0.00    -0.550 OA
ATOM     14  O   UNL     1      13.563   3.824  23.146  1.00  0.00    -0.550 OA
ENDBRANCH  11  12
ENDBRANCH  10  11
ENDBRANCH   9  10
ENDBRANCH   8   9
ENDBRANCH   1   8
TORSDOF 9
ENDMDL
MODEL 4
REMARK VINA RESULT:    -1.981      1.081      1.467
REMARK INTER + INTRA:          -3.537
REMARK INTER:                  -3.085
REMARK INTRA:                  -0.452
REMARK UNBOUND:                -0.514
REMARK SMILES O=C([O-])CCCCCCCCC(=O)[O-]
REMARK SMILES IDX 7 1 6 2 5 3 4 4 2 5 1 6 3 7 8 8 9 9 10 10 11 11 12 12 13 13
REMARK SMILES IDX 14 14
REMARK H PARENT
REMARK Flexibility Score: inf
ROOT
ATOM      1  C   UNL     1      18.074   1.571  25.400  1.00  0.00     0.000 C 
ENDROOT
BRANCH   1   2
ATOM      2  C   UNL     1      17.108   2.750  25.232  1.00  0.00     0.000 C 
BRANCH   2   3
ATOM      3  C   UNL     1      15.677   2.347  25.618  1.00  0.00     0.006 C 
BRANCH   3   4
ATOM      4  C   UNL     1      14.662   3.461  25.331  1.00  0.00     0.053 C 
BRANCH   4   5
ATOM      5  C   UNL     1      13.663   3.050  24.293  1.00  0.00     0.041 C 
ATOM      6  O   UNL     1      13.024   1.972  24.421  1.00  0.00    -0.550 OA
ATOM      7  O   UNL     1      13.461   3.840  23.169  1.00  0.00    -0.550 OA
ENDBRANCH   4   5
ENDBRANCH   3   4
ENDBRANCH   2   3
ENDBRANCH   1   2
BRANCH   1   8
ATOM      8  C   UNL     1      19.227   1.934  26.344  1.00  0.00     0.000 C 
BRANCH   8   9
ATOM      9  C   UNL     1      19.321   0.937  27.506  1.00  0.00     0.000 C 
BRANCH   9  10
ATOM     10  C   UNL     1      19.502   1.668  28.845  1.00  0.00     0.006 C 
BRANCH  10  11
ATOM     11  C   UNL     1      18.755   3.008  28.881  1.00  0.00     0.053 C 
BRANCH  11  12
ATOM     12  C   UNL     1      18.748   3.604  30.255  1.00  0.00     0.041 C 
ATOM     13  O   UNL     1      19.755   3.485  31.002  1.00  0.00    -0.550 OA
ATOM     14  O   UNL     1      17.643   4.320  30.698  1.00  0.00    -0.550 OA
ENDBRANCH  11  12
ENDBRANCH  10  11
ENDBRANCH   9  10
ENDBRANCH   8   9
ENDBRANCH   1   8
TORSDOF 9
ENDMDL
MODEL 5
REMARK VINA RESULT:    -0.986     14.077     15.169
REMARK INTER + INTRA:          -2.019
REMARK INTER:                  -1.730
REMARK INTRA:                  -0.288
REMARK UNBOUND:                -0.514
REMARK SMILES O=C([O-])CCCCCCCCC(=O)[O-]
REMARK SMILES IDX 7 1 6 2 5 3 4 4 2 5 1 6 3 7 8 8 9 9 10 10 11 11 12 12 13 13
REMARK SMILES IDX 14 14
REMARK H PARENT
REMARK Flexibility Score: inf
ROOT
ATOM      1  C   UNL     1      11.462  13.733  22.307  1.00  0.00     0.000 C 
ENDROOT
BRANCH   1   2
ATOM      2  C   UNL     1      10.880  13.615  20.893  1.00  0.00     0.000 C 
BRANCH   2   3
ATOM      3  C   UNL     1      10.897  14.973  20.176  1.00  0.00     0.006 C 
BRANCH   3   4
ATOM      4  C   UNL     1      12.305  15.580  20.116  1.00  0.00     0.053 C 
BRANCH   4   5
ATOM      5  C   UNL     1      12.277  17.067  20.299  1.00  0.00     0.041 C 
ATOM      6  O   UNL     1      11.181  17.664  20.466  1.00  0.00    -0.550 OA
ATOM      7  O   UNL     1      13.458  17.796  20.251  1.00  0.00    -0.550 OA
ENDBRANCH   4   5
ENDBRANCH   3   4
ENDBRANCH   2   3
ENDBRANCH   1   2
BRANCH   1   8
ATOM      8  C   UNL     1      10.939  14.988  23.015  1.00  0.00     0.000 C 
BRANCH   8   9
ATOM      9  C   UNL     1      11.027  14.838  24.538  1.00  0.00     0.000 C 
BRANCH   9  10
ATOM     10  C   UNL     1      10.875  16.198  25.235  1.00  0.00     0.006 C 
BRANCH  10  11
ATOM     11  C   UNL     1      12.179  16.661  25.898  1.00  0.00     0.053 C 
BRANCH  11  12
ATOM     12  C   UNL     1      12.949  17.597  25.017  1.00  0.00     0.041 C 
ATOM     13  O   UNL     1      14.038  18.090  25.415  1.00  0.00    -0.550 OA
ATOM     14  O   UNL     1      12.482  17.899  23.744  1.00  0.00    -0.550 OA
ENDBRANCH  11  12
ENDBRANCH  10  11
ENDBRANCH   9  10
ENDBRANCH   8   9
ENDBRANCH   1   8
TORSDOF 9
ENDMDL
MODEL 6
REMARK VINA RESULT:    -0.689      1.236      1.949
REMARK INTER + INTRA:          -1.566
REMARK INTER:                  -1.091
REMARK INTRA:                  -0.475
REMARK UNBOUND:                -0.514
REMARK SMILES O=C([O-])CCCCCCCCC(=O)[O-]
REMARK SMILES IDX 7 1 6 2 5 3 4 4 2 5 1 6 3 7 8 8 9 9 10 10 11 11 12 12 13 13
REMARK SMILES IDX 14 14
REMARK H PARENT
REMARK Flexibility Score: inf
ROOT
ATOM      1  C   UNL     1      15.222   3.592  25.627  1.00  0.00     0.000 C 
ENDROOT
BRANCH   1   2
ATOM      2  C   UNL     1      14.220   2.431  25.634  1.00  0.00     0.000 C 
BRANCH   2   3
ATOM      3  C   UNL     1      13.275   2.512  24.426  1.00  0.00     0.006 C 
BRANCH   3   4
ATOM      4  C   UNL     1      13.881   3.313  23.267  1.00  0.00     0.053 C 
BRANCH   4   5
ATOM      5  C   UNL     1      13.005   4.459  22.864  1.00  0.00     0.041 C 
ATOM      6  O   UNL     1      11.940   4.248  22.226  1.00  0.00    -0.550 OA
ATOM      7  O   UNL     1      13.381   5.762  23.164  1.00  0.00    -0.550 OA
ENDBRANCH   4   5
ENDBRANCH   3   4
ENDBRANCH   2   3
ENDBRANCH   1   2
BRANCH   1   8
ATOM      8  C   UNL     1      16.615   3.120  26.059  1.00  0.00     0.000 C 
BRANCH   8   9
ATOM      9  C   UNL     1      17.226   2.178  25.014  1.00  0.00     0.000 C 
BRANCH   9  10
ATOM     10  C   UNL     1      18.479   1.482  25.566  1.00  0.00     0.006 C 
BRANCH  10  11
ATOM     11  C   UNL     1      19.234   2.359  26.574  1.00  0.00     0.053 C 
BRANCH  11  12
ATOM     12  C   UNL     1      19.235   1.756  27.945  1.00  0.00     0.041 C 
ATOM     13  O   UNL     1      19.320   0.508  28.088  1.00  0.00    -0.550 OA
ATOM     14  O   UNL     1      19.175   2.575  29.066  1.00  0.00    -0.550 OA
ENDBRANCH  11  12
ENDBRANCH  10  11
ENDBRANCH   9  10
ENDBRANCH   8   9
ENDBRANCH   1   8
TORSDOF 9
ENDMDL
MODEL 7
REMARK VINA RESULT:    -0.223      2.441      2.932
REMARK INTER + INTRA:          -0.854
REMARK INTER:                  -0.730
REMARK INTRA:                  -0.124
REMARK UNBOUND:                -0.514
REMARK SMILES O=C([O-])CCCCCCCCC(=O)[O-]
REMARK SMILES IDX 7 1 6 2 5 3 4 4 2 5 1 6 3 7 8 8 9 9 10 10 11 11 12 12 13 13
REMARK SMILES IDX 14 14
REMARK H PARENT
REMARK Flexibility Score: inf
ROOT
ATOM      1  C   UNL     1      15.460   3.211  25.732  1.00  0.00     0.000 C 
ENDROOT
BRANCH   1   2
ATOM      2  C   UNL     1      14.302   2.209  25.667  1.00  0.00     0.000 C 
BRANCH   2   3
ATOM      3  C   UNL     1      13.255   2.644  24.630  1.00  0.00     0.006 C 
BRANCH   3   4
ATOM      4  C   UNL     1      13.891   3.337  23.418  1.00  0.00     0.053 C 
BRANCH   4   5
ATOM      5  C   UNL     1      13.039   4.457  22.906  1.00  0.00     0.041 C 
ATOM      6  O   UNL     1      11.980   4.208  22.272  1.00  0.00    -0.550 OA
ATOM      7  O   UNL     1      13.431   5.776  23.100  1.00  0.00    -0.550 OA
ENDBRANCH   4   5
ENDBRANCH   3   4
ENDBRANCH   2   3
ENDBRANCH   1   2
BRANCH   1   8
ATOM      8  C   UNL     1      16.682   2.692  24.965  1.00  0.00     0.000 C 
BRANCH   8   9
ATOM      9  C   UNL     1      17.947   2.764  25.829  1.00  0.00     0.000 C 
BRANCH   9  10
ATOM     10  C   UNL     1      18.289   1.388  26.419  1.00  0.00     0.006 C 
BRANCH  10  11
ATOM     11  C   UNL     1      19.746   1.305  26.894  1.00  0.00     0.053 C 
BRANCH  11  12
ATOM     12  C   UNL     1      20.672   0.913  25.783  1.00  0.00     0.041 C 
ATOM     13  O   UNL     1      20.230   0.297  24.779  1.00  0.00    -0.550 OA
ATOM     14  O   UNL     1      22.016   1.259  25.843  1.00  0.00    -0.550 OA
ENDBRANCH  11  12
ENDBRANCH  10  11
ENDBRANCH   9  10
ENDBRANCH   8   9
ENDBRANCH   1   8
TORSDOF 9
ENDMDL
MODEL 8
REMARK VINA RESULT:     0.478      2.398      7.028
REMARK INTER + INTRA:           0.215
REMARK INTER:                   0.286
REMARK INTRA:                  -0.071
REMARK UNBOUND:                -0.514
REMARK SMILES O=C([O-])CCCCCCCCC(=O)[O-]
REMARK SMILES IDX 7 1 6 2 5 3 4 4 2 5 1 6 3 7 8 8 9 9 10 10 11 11 12 12 13 13
REMARK SMILES IDX 14 14
REMARK H PARENT
REMARK Flexibility Score: inf
ROOT
ATOM      1  C   UNL     1      17.069   3.178  25.428  1.00  0.00     0.000 C 
ENDROOT
BRANCH   1   2
ATOM      2  C   UNL     1      18.382   2.386  25.464  1.00  0.00     0.000 C 
BRANCH   2   3
ATOM      3  C   UNL     1      18.740   1.979  26.901  1.00  0.00     0.006 C 
BRANCH   3   4
ATOM      4  C   UNL     1      19.769   0.842  26.944  1.00  0.00     0.053 C 
BRANCH   4   5
ATOM      5  C   UNL     1      20.607   0.803  25.702  1.00  0.00     0.041 C 
ATOM      6  O   UNL     1      21.714   1.400  25.667  1.00  0.00    -0.550 OA
ATOM      7  O   UNL     1      20.148   0.134  24.574  1.00  0.00    -0.550 OA
ENDBRANCH   4   5
ENDBRANCH   3   4
ENDBRANCH   2   3
ENDBRANCH   1   2
BRANCH   1   8
ATOM      8  C   UNL     1      15.865   2.241  25.280  1.00  0.00     0.000 C 
BRANCH   8   9
ATOM      9  C   UNL     1      14.576   2.921  25.758  1.00  0.00     0.000 C 
BRANCH   9  10
ATOM     10  C   UNL     1      13.437   2.713  24.748  1.00  0.00     0.006 C 
BRANCH  10  11
ATOM     11  C   UNL     1      13.798   3.231  23.350  1.00  0.00     0.053 C 
BRANCH  11  12
ATOM     12  C   UNL     1      12.993   4.438  22.979  1.00  0.00     0.041 C 
ATOM     13  O   UNL     1      13.311   5.572  23.424  1.00  0.00    -0.550 OA
ATOM     14  O   UNL     1      11.913   4.315  22.114  1.00  0.00    -0.550 OA
ENDBRANCH  11  12
ENDBRANCH  10  11
ENDBRANCH   9  10
ENDBRANCH   8   9
ENDBRANCH   1   8
TORSDOF 9
ENDMDL
