MODEL 1
REMARK VINA RESULT:    -5.870      0.000      0.000
REMARK INTER + INTRA:          -5.842
REMARK INTER:                  -6.385
REMARK INTRA:                   0.542
REMARK UNBOUND:                 0.542
REMARK SMILES C[C@H]1[C@H](C)CC[C@]2(C(=O)[O-])CC[C@@]3(C)C(=CC[C@H]4[C@]5(C)CC[C@@H](O)C(C)(C)[C@@H]5CC[C@]43C)[C@@H]12
REMARK SMILES IDX 7 1 6 2 11 3 33 4 5 5 12 6 15 7 2 8 3 9 13 10 16 11 1 12
REMARK SMILES IDX 4 13 14 14 31 15 17 16 18 17 30 18 32 19 19 20 29 21 28 22
REMARK SMILES IDX 21 23 20 24 25 25 22 26 23 27 26 28 27 29 8 30 9 31 10 32
REMARK SMILES IDX 24 33
REMARK H PARENT 24 34
REMARK Flexibility Score: inf
ROOT
ATOM      1  C   UNL     1      -9.150   6.720  10.540  1.00  0.00     0.017 C 
ATOM      2  C   UNL     1      -9.037   5.291   9.941  1.00  0.00     0.014 C 
ATOM      3  C   UNL     1      -8.486   6.772  11.951  1.00  0.00     0.014 C 
ATOM      4  C   UNL     1     -10.671   7.003  10.773  1.00  0.00     0.030 C 
ATOM      5  C   UNL     1      -9.857   5.160   8.639  1.00  0.00     0.004 C 
ATOM      6  C   UNL     1      -8.634   8.134  12.702  1.00  0.00     0.013 C 
ATOM      7  C   UNL     1     -10.992   8.122  11.780  1.00  0.00    -0.063 C 
ATOM      8  C   UNL     1     -11.649   6.797   9.572  1.00  0.00    -0.003 C 
ATOM      9  C   UNL     1     -11.368   5.451   8.825  1.00  0.00    -0.011 C 
ATOM     10  C   UNL     1      -9.868   9.042  12.325  1.00  0.00    -0.006 C 
ATOM     11  C   UNL     1     -12.038   7.854  12.594  1.00  0.00    -0.027 C 
ATOM     12  C   UNL     1     -11.780   7.981   8.601  1.00  0.00     0.008 C 
ATOM     13  C   UNL     1     -12.075   4.263   9.505  1.00  0.00     0.008 C 
ATOM     14  C   UNL     1      -9.421  10.045  11.206  1.00  0.00     0.017 C 
ATOM     15  C   UNL     1     -10.411   9.907  13.589  1.00  0.00    -0.020 C 
ATOM     16  C   UNL     1     -11.749   7.712  14.054  1.00  0.00     0.032 C 
ATOM     17  C   UNL     1     -11.149   8.993  14.687  1.00  0.00     0.006 C 
ATOM     18  C   UNL     1      -9.267  10.772  14.204  1.00  0.00     0.008 C 
ATOM     19  C   UNL     1     -11.488  10.945  13.080  1.00  0.00     0.012 C 
ATOM     20  C   UNL     1     -10.519   8.787  16.177  1.00  0.00    -0.025 C 
ATOM     21  C   UNL     1      -9.428  11.033  15.691  1.00  0.00     0.005 C 
ATOM     22  C   UNL     1      -9.257   9.708  16.468  1.00  0.00     0.003 C 
ATOM     23  C   UNL     1     -11.656   9.131  17.200  1.00  0.00     0.010 C 
ATOM     24  C   UNL     1     -10.121   7.296  16.399  1.00  0.00     0.012 C 
ATOM     25  C   UNL     1      -8.859   9.917  18.014  1.00  0.00    -0.006 C 
ATOM     26  C   UNL     1     -11.223   9.162  18.662  1.00  0.00     0.033 C 
ATOM     27  C   UNL     1     -10.122  10.201  18.881  1.00  0.00     0.120 C 
ATOM     28  C   UNL     1      -7.889  11.125  18.192  1.00  0.00     0.014 C 
ATOM     29  C   UNL     1      -8.074   8.685  18.574  1.00  0.00     0.014 C 
ENDROOT
BRANCH   1  30
ATOM     30  C   UNL     1      -8.380   7.631   9.592  1.00  0.00     0.048 C 
ATOM     31  O   UNL     1      -7.129   7.742   9.714  1.00  0.00    -0.550 OA
ATOM     32  O   UNL     1      -8.992   8.302   8.548  1.00  0.00    -0.550 OA
ENDBRANCH   1  30
BRANCH  27  33
ATOM     33  O   UNL     1      -9.795  10.220  20.250  1.00  0.00    -0.393 OA
ATOM     34  H   UNL     1      -8.806  10.167  20.320  1.00  0.00     0.210 HD
ENDBRANCH  27  33
TORSDOF 2
ENDMDL
MODEL 2
REMARK VINA RESULT:    -5.472      2.093      3.994
REMARK INTER + INTRA:          -5.409
REMARK INTER:                  -6.030
REMARK INTRA:                   0.621
REMARK UNBOUND:                 0.542
REMARK SMILES C[C@H]1[C@H](C)CC[C@]2(C(=O)[O-])CC[C@@]3(C)C(=CC[C@H]4[C@]5(C)CC[C@@H](O)C(C)(C)[C@@H]5CC[C@]43C)[C@@H]12
REMARK SMILES IDX 7 1 6 2 11 3 33 4 5 5 12 6 15 7 2 8 3 9 13 10 16 11 1 12
REMARK SMILES IDX 4 13 14 14 31 15 17 16 18 17 30 18 32 19 19 20 29 21 28 22
REMARK SMILES IDX 21 23 20 24 25 25 22 26 23 27 26 28 27 29 8 30 9 31 10 32
REMARK SMILES IDX 24 33
REMARK H PARENT 24 34
REMARK Flexibility Score: inf
ROOT
ATOM      1  C   UNL     1      -7.031   8.785   8.780  1.00  0.00     0.017 C 
ATOM      2  C   UNL     1      -5.577   8.997   8.276  1.00  0.00     0.014 C 
ATOM      3  C   UNL     1      -7.255   9.541  10.127  1.00  0.00     0.014 C 
ATOM      4  C   UNL     1      -7.186   7.265   9.113  1.00  0.00     0.030 C 
ATOM      5  C   UNL     1      -5.268   8.102   7.056  1.00  0.00     0.004 C 
ATOM      6  C   UNL     1      -8.652   9.313  10.789  1.00  0.00     0.013 C 
ATOM      7  C   UNL     1      -8.346   6.907  10.061  1.00  0.00    -0.063 C 
ATOM      8  C   UNL     1      -6.797   6.228   8.012  1.00  0.00    -0.003 C 
ATOM      9  C   UNL     1      -5.429   6.588   7.341  1.00  0.00    -0.011 C 
ATOM     10  C   UNL     1      -9.406   7.969  10.449  1.00  0.00    -0.006 C 
ATOM     11  C   UNL     1      -8.044   5.955  10.973  1.00  0.00    -0.027 C 
ATOM     12  C   UNL     1      -7.883   5.908   6.973  1.00  0.00     0.008 C 
ATOM     13  C   UNL     1      -4.236   6.054   8.158  1.00  0.00     0.008 C 
ATOM     14  C   UNL     1     -10.358   8.231   9.231  1.00  0.00     0.017 C 
ATOM     15  C   UNL     1     -10.313   7.436  11.689  1.00  0.00    -0.020 C 
ATOM     16  C   UNL     1      -8.043   6.362  12.412  1.00  0.00     0.032 C 
ATOM     17  C   UNL     1      -9.421   6.875  12.903  1.00  0.00     0.006 C 
ATOM     18  C   UNL     1     -11.327   8.529  12.148  1.00  0.00     0.008 C 
ATOM     19  C   UNL     1     -11.201   6.226  11.195  1.00  0.00     0.012 C 
ATOM     20  C   UNL     1      -9.392   7.628  14.349  1.00  0.00    -0.025 C 
ATOM     21  C   UNL     1     -11.686   8.451  13.621  1.00  0.00     0.005 C 
ATOM     22  C   UNL     1     -10.448   8.810  14.473  1.00  0.00     0.003 C 
ATOM     23  C   UNL     1      -9.706   6.540  15.432  1.00  0.00     0.010 C 
ATOM     24  C   UNL     1      -7.967   8.189  14.643  1.00  0.00     0.012 C 
ATOM     25  C   UNL     1     -10.814   9.296  15.964  1.00  0.00    -0.006 C 
ATOM     26  C   UNL     1      -9.891   7.073  16.850  1.00  0.00     0.033 C 
ATOM     27  C   UNL     1     -11.043   8.077  16.907  1.00  0.00     0.120 C 
ATOM     28  C   UNL     1     -12.117  10.150  15.979  1.00  0.00     0.014 C 
ATOM     29  C   UNL     1      -9.708  10.239  16.545  1.00  0.00     0.014 C 
ENDROOT
BRANCH   1  30
ATOM     30  C   UNL     1      -7.935   9.390   7.712  1.00  0.00     0.048 C 
ATOM     31  O   UNL     1      -7.937  10.638   7.533  1.00  0.00    -0.550 OA
ATOM     32  O   UNL     1      -8.716   8.612   6.876  1.00  0.00    -0.550 OA
ENDBRANCH   1  30
BRANCH  27  33
ATOM     33  O   UNL     1     -11.200   8.499  18.241  1.00  0.00    -0.393 OA
ATOM     34  H   UNL     1     -10.309   8.442  18.676  1.00  0.00     0.210 HD
ENDBRANCH  27  33
TORSDOF 2
ENDMDL
MODEL 3
REMARK VINA RESULT:    -5.247      1.669      3.827
REMARK INTER + INTRA:          -5.165
REMARK INTER:                  -5.761
REMARK INTRA:                   0.596
REMARK UNBOUND:                 0.542
REMARK SMILES C[C@H]1[C@H](C)CC[C@]2(C(=O)[O-])CC[C@@]3(C)C(=CC[C@H]4[C@]5(C)CC[C@@H](O)C(C)(C)[C@@H]5CC[C@]43C)[C@@H]12
REMARK SMILES IDX 7 1 6 2 11 3 33 4 5 5 12 6 15 7 2 8 3 9 13 10 16 11 1 12
REMARK SMILES IDX 4 13 14 14 31 15 17 16 18 17 30 18 32 19 19 20 29 21 28 22
REMARK SMILES IDX 21 23 20 24 25 25 22 26 23 27 26 28 27 29 8 30 9 31 10 32
REMARK SMILES IDX 24 33
REMARK H PARENT 24 34
REMARK Flexibility Score: inf
ROOT
ATOM      1  C   UNL     1      -9.739   8.864   9.573  1.00  0.00     0.017 C 
ATOM      2  C   UNL     1      -9.469   9.840   8.395  1.00  0.00     0.014 C 
ATOM      3  C   UNL     1     -10.392   9.625  10.769  1.00  0.00     0.014 C 
ATOM      4  C   UNL     1      -8.348   8.370  10.091  1.00  0.00     0.030 C 
ATOM      5  C   UNL     1      -8.644   9.160   7.280  1.00  0.00     0.004 C 
ATOM      6  C   UNL     1     -10.612   8.768  12.057  1.00  0.00     0.013 C 
ATOM      7  C   UNL     1      -8.336   7.798  11.520  1.00  0.00    -0.063 C 
ATOM      8  C   UNL     1      -7.351   7.764   9.052  1.00  0.00    -0.003 C 
ATOM      9  C   UNL     1      -7.264   8.640   7.759  1.00  0.00    -0.011 C 
ATOM     10  C   UNL     1      -9.663   7.526  12.274  1.00  0.00    -0.006 C 
ATOM     11  C   UNL     1      -7.256   8.154  12.252  1.00  0.00    -0.027 C 
ATOM     12  C   UNL     1      -7.538   6.273   8.729  1.00  0.00     0.008 C 
ATOM     13  C   UNL     1      -6.267   9.803   7.923  1.00  0.00     0.008 C 
ATOM     14  C   UNL     1     -10.361   6.258  11.671  1.00  0.00     0.017 C 
ATOM     15  C   UNL     1      -9.369   7.237  13.847  1.00  0.00    -0.020 C 
ATOM     16  C   UNL     1      -7.496   9.015  13.451  1.00  0.00     0.032 C 
ATOM     17  C   UNL     1      -8.415   8.350  14.507  1.00  0.00     0.006 C 
ATOM     18  C   UNL     1     -10.702   7.049  14.637  1.00  0.00     0.008 C 
ATOM     19  C   UNL     1      -8.607   5.860  13.985  1.00  0.00     0.012 C 
ATOM     20  C   UNL     1      -8.967   9.359  15.663  1.00  0.00    -0.025 C 
ATOM     21  C   UNL     1     -10.616   7.470  16.093  1.00  0.00     0.005 C 
ATOM     22  C   UNL     1     -10.428   9.002  16.176  1.00  0.00     0.003 C 
ATOM     23  C   UNL     1      -7.962   9.265  16.863  1.00  0.00     0.010 C 
ATOM     24  C   UNL     1      -8.954  10.832  15.152  1.00  0.00     0.012 C 
ATOM     25  C   UNL     1     -10.868   9.626  17.593  1.00  0.00    -0.006 C 
ATOM     26  C   UNL     1      -8.387  10.013  18.123  1.00  0.00     0.033 C 
ATOM     27  C   UNL     1      -9.725   9.484  18.643  1.00  0.00     0.120 C 
ATOM     28  C   UNL     1     -12.123   8.903  18.168  1.00  0.00     0.014 C 
ATOM     29  C   UNL     1     -11.297  11.125  17.450  1.00  0.00     0.014 C 
ENDROOT
BRANCH   1  30
ATOM     30  C   UNL     1     -10.724   7.830   9.041  1.00  0.00     0.048 C 
ATOM     31  O   UNL     1     -11.915   8.170   8.805  1.00  0.00    -0.550 OA
ATOM     32  O   UNL     1     -10.346   6.534   8.740  1.00  0.00    -0.550 OA
ENDBRANCH   1  30
BRANCH  27  33
ATOM     33  O   UNL     1     -10.045  10.173  19.828  1.00  0.00    -0.393 OA
ATOM     34  H   UNL     1      -9.511  11.010  19.838  1.00  0.00     0.210 HD
ENDBRANCH  27  33
TORSDOF 2
ENDMDL
MODEL 4
REMARK VINA RESULT:    -5.165      1.757      3.504
REMARK INTER + INTRA:          -5.075
REMARK INTER:                  -5.617
REMARK INTRA:                   0.542
REMARK UNBOUND:                 0.542
REMARK SMILES C[C@H]1[C@H](C)CC[C@]2(C(=O)[O-])CC[C@@]3(C)C(=CC[C@H]4[C@]5(C)CC[C@@H](O)C(C)(C)[C@@H]5CC[C@]43C)[C@@H]12
REMARK SMILES IDX 7 1 6 2 11 3 33 4 5 5 12 6 15 7 2 8 3 9 13 10 16 11 1 12
REMARK SMILES IDX 4 13 14 14 31 15 17 16 18 17 30 18 32 19 19 20 29 21 28 22
REMARK SMILES IDX 21 23 20 24 25 25 22 26 23 27 26 28 27 29 8 30 9 31 10 32
REMARK SMILES IDX 24 33
REMARK H PARENT 24 34
REMARK Flexibility Score: inf
ROOT
ATOM      1  C   UNL     1      -7.828   9.249   9.667  1.00  0.00     0.017 C 
ATOM      2  C   UNL     1      -6.517   9.653   8.939  1.00  0.00     0.014 C 
ATOM      3  C   UNL     1      -8.013  10.098  10.963  1.00  0.00     0.014 C 
ATOM      4  C   UNL     1      -7.653   7.771  10.146  1.00  0.00     0.030 C 
ATOM      5  C   UNL     1      -6.207   8.696   7.766  1.00  0.00     0.004 C 
ATOM      6  C   UNL     1      -9.245   9.706  11.841  1.00  0.00     0.013 C 
ATOM      7  C   UNL     1      -8.593   7.325  11.282  1.00  0.00    -0.063 C 
ATOM      8  C   UNL     1      -7.223   6.702   9.091  1.00  0.00    -0.003 C 
ATOM      9  C   UNL     1      -6.044   7.217   8.199  1.00  0.00    -0.011 C 
ATOM     10  C   UNL     1      -9.774   8.223  11.730  1.00  0.00    -0.006 C 
ATOM     11  C   UNL     1      -8.004   6.545  12.216  1.00  0.00    -0.027 C 
ATOM     12  C   UNL     1      -8.356   6.088   8.254  1.00  0.00     0.008 C 
ATOM     13  C   UNL     1      -4.678   6.990   8.873  1.00  0.00     0.008 C 
ATOM     14  C   UNL     1     -10.907   8.182  10.647  1.00  0.00     0.017 C 
ATOM     15  C   UNL     1     -10.396   7.681  13.130  1.00  0.00    -0.020 C 
ATOM     16  C   UNL     1      -7.892   7.100  13.600  1.00  0.00     0.032 C 
ATOM     17  C   UNL     1      -9.266   7.419  14.243  1.00  0.00     0.006 C 
ATOM     18  C   UNL     1     -11.528   8.626  13.640  1.00  0.00     0.008 C 
ATOM     19  C   UNL     1     -11.100   6.289  12.876  1.00  0.00     0.012 C 
ATOM     20  C   UNL     1      -9.191   8.320  15.600  1.00  0.00    -0.025 C 
ATOM     21  C   UNL     1     -11.673   8.649  15.151  1.00  0.00     0.005 C 
ATOM     22  C   UNL     1     -10.423   9.308  15.778  1.00  0.00     0.003 C 
ATOM     23  C   UNL     1      -9.154   7.319  16.806  1.00  0.00     0.010 C 
ATOM     24  C   UNL     1      -7.870   9.146  15.633  1.00  0.00     0.012 C 
ATOM     25  C   UNL     1     -10.677   9.884  17.260  1.00  0.00    -0.006 C 
ATOM     26  C   UNL     1      -9.250   7.963  18.185  1.00  0.00     0.033 C 
ATOM     27  C   UNL     1     -10.551   8.754  18.326  1.00  0.00     0.120 C 
ATOM     28  C   UNL     1     -12.104  10.497  17.394  1.00  0.00     0.014 C 
ATOM     29  C   UNL     1      -9.701  11.062  17.591  1.00  0.00     0.014 C 
ENDROOT
BRANCH   1  30
ATOM     30  C   UNL     1      -8.959   9.568   8.697  1.00  0.00     0.048 C 
ATOM     31  O   UNL     1      -9.422  10.740   8.644  1.00  0.00    -0.550 OA
ATOM     32  O   UNL     1      -9.463   8.630   7.812  1.00  0.00    -0.550 OA
ENDBRANCH   1  30
BRANCH  27  33
ATOM     33  O   UNL     1     -10.610   9.286  19.628  1.00  0.00    -0.393 OA
ATOM     34  H   UNL     1      -9.685   9.289  19.989  1.00  0.00     0.210 HD
ENDBRANCH  27  33
TORSDOF 2
ENDMDL
MODEL 5
REMARK VINA RESULT:    -4.650      1.605      2.028
REMARK INTER + INTRA:          -4.515
REMARK INTER:                  -5.058
REMARK INTRA:                   0.543
REMARK UNBOUND:                 0.542
REMARK SMILES C[C@H]1[C@H](C)CC[C@]2(C(=O)[O-])CC[C@@]3(C)C(=CC[C@H]4[C@]5(C)CC[C@@H](O)C(C)(C)[C@@H]5CC[C@]43C)[C@@H]12
REMARK SMILES IDX 7 1 6 2 11 3 33 4 5 5 12 6 15 7 2 8 3 9 13 10 16 11 1 12
REMARK SMILES IDX 4 13 14 14 31 15 17 16 18 17 30 18 32 19 19 20 29 21 28 22
REMARK SMILES IDX 21 23 20 24 25 25 22 26 23 27 26 28 27 29 8 30 9 31 10 32
REMARK SMILES IDX 24 33
REMARK H PARENT 24 34
REMARK Flexibility Score: inf
ROOT
ATOM      1  C   UNL     1      -7.095   7.872  10.040  1.00  0.00     0.017 C 
ATOM      2  C   UNL     1      -6.451   6.635   9.356  1.00  0.00     0.014 C 
ATOM      3  C   UNL     1      -6.890   7.807  11.585  1.00  0.00     0.014 C 
ATOM      4  C   UNL     1      -8.639   7.774   9.810  1.00  0.00     0.030 C 
ATOM      5  C   UNL     1      -6.811   6.571   7.855  1.00  0.00     0.004 C 
ATOM      6  C   UNL     1      -7.590   8.945  12.394  1.00  0.00     0.013 C 
ATOM      7  C   UNL     1      -9.509   8.595  10.780  1.00  0.00    -0.063 C 
ATOM      8  C   UNL     1      -9.154   7.586   8.347  1.00  0.00    -0.003 C 
ATOM      9  C   UNL     1      -8.335   6.491   7.586  1.00  0.00    -0.011 C 
ATOM     10  C   UNL     1      -8.863   9.619  11.748  1.00  0.00    -0.006 C 
ATOM     11  C   UNL     1     -10.633   7.964  11.188  1.00  0.00    -0.027 C 
ATOM     12  C   UNL     1      -9.312   8.870   7.519  1.00  0.00     0.008 C 
ATOM     13  C   UNL     1      -8.869   5.075   7.874  1.00  0.00     0.008 C 
ATOM     14  C   UNL     1      -8.398  10.882  10.944  1.00  0.00     0.017 C 
ATOM     15  C   UNL     1      -9.943  10.102  12.863  1.00  0.00    -0.020 C 
ATOM     16  C   UNL     1     -10.738   7.622  12.640  1.00  0.00     0.032 C 
ATOM     17  C   UNL     1     -10.693   8.865  13.565  1.00  0.00     0.006 C 
ATOM     18  C   UNL     1      -9.282  11.065  13.898  1.00  0.00     0.008 C 
ATOM     19  C   UNL     1     -11.066  10.958  12.155  1.00  0.00     0.012 C 
ATOM     20  C   UNL     1     -10.474   8.531  15.146  1.00  0.00    -0.025 C 
ATOM     21  C   UNL     1      -9.915  11.009  15.277  1.00  0.00     0.005 C 
ATOM     22  C   UNL     1      -9.629   9.633  15.919  1.00  0.00     0.003 C 
ATOM     23  C   UNL     1     -11.900   8.430  15.789  1.00  0.00     0.010 C 
ATOM     24  C   UNL     1      -9.780   7.146  15.319  1.00  0.00     0.012 C 
ATOM     25  C   UNL     1      -9.747   9.637  17.525  1.00  0.00    -0.006 C 
ATOM     26  C   UNL     1     -11.917   8.286  17.307  1.00  0.00     0.033 C 
ATOM     27  C   UNL     1     -11.231   9.479  17.974  1.00  0.00     0.120 C 
ATOM     28  C   UNL     1      -9.215  10.971  18.130  1.00  0.00     0.014 C 
ATOM     29  C   UNL     1      -8.857   8.521  18.167  1.00  0.00     0.014 C 
ENDROOT
BRANCH   1  30
ATOM     30  C   UNL     1      -6.356   9.085   9.489  1.00  0.00     0.048 C 
ATOM     31  O   UNL     1      -5.232   9.400   9.968  1.00  0.00    -0.550 OA
ATOM     32  O   UNL     1      -6.840   9.829   8.427  1.00  0.00    -0.550 OA
ENDBRANCH   1  30
BRANCH  27  33
ATOM     33  O   UNL     1     -11.317   9.318  19.370  1.00  0.00    -0.393 OA
ATOM     34  H   UNL     1     -10.769   8.525  19.611  1.00  0.00     0.210 HD
ENDBRANCH  27  33
TORSDOF 2
ENDMDL
MODEL 6
REMARK VINA RESULT:    -4.325      2.274      7.807
REMARK INTER + INTRA:          -4.162
REMARK INTER:                  -4.806
REMARK INTRA:                   0.644
REMARK UNBOUND:                 0.542
REMARK SMILES C[C@H]1[C@H](C)CC[C@]2(C(=O)[O-])CC[C@@]3(C)C(=CC[C@H]4[C@]5(C)CC[C@@H](O)C(C)(C)[C@@H]5CC[C@]43C)[C@@H]12
REMARK SMILES IDX 7 1 6 2 11 3 33 4 5 5 12 6 15 7 2 8 3 9 13 10 16 11 1 12
REMARK SMILES IDX 4 13 14 14 31 15 17 16 18 17 30 18 32 19 19 20 29 21 28 22
REMARK SMILES IDX 21 23 20 24 25 25 22 26 23 27 26 28 27 29 8 30 9 31 10 32
REMARK SMILES IDX 24 33
REMARK H PARENT 24 34
REMARK Flexibility Score: inf
ROOT
ATOM      1  C   UNL     1      -9.651   8.038  16.255  1.00  0.00     0.017 C 
ATOM      2  C   UNL     1      -9.051   7.916  17.683  1.00  0.00     0.014 C 
ATOM      3  C   UNL     1      -8.699   7.378  15.209  1.00  0.00     0.014 C 
ATOM      4  C   UNL     1      -9.687   9.560  15.899  1.00  0.00     0.030 C 
ATOM      5  C   UNL     1      -9.870   8.731  18.708  1.00  0.00     0.004 C 
ATOM      6  C   UNL     1      -9.145   7.534  13.719  1.00  0.00     0.013 C 
ATOM      7  C   UNL     1      -9.780   9.889  14.398  1.00  0.00    -0.063 C 
ATOM      8  C   UNL     1     -10.381  10.534  16.905  1.00  0.00    -0.003 C 
ATOM      9  C   UNL     1      -9.944  10.244  18.379  1.00  0.00    -0.011 C 
ATOM     10  C   UNL     1     -10.055   8.772  13.359  1.00  0.00    -0.006 C 
ATOM     11  C   UNL     1      -9.016  10.936  14.011  1.00  0.00    -0.027 C 
ATOM     12  C   UNL     1     -11.906  10.668  16.769  1.00  0.00     0.008 C 
ATOM     13  C   UNL     1      -8.619  10.948  18.731  1.00  0.00     0.008 C 
ATOM     14  C   UNL     1     -11.555   8.326  13.450  1.00  0.00     0.017 C 
ATOM     15  C   UNL     1      -9.785   9.322  11.853  1.00  0.00    -0.020 C 
ATOM     16  C   UNL     1      -7.892  10.651  13.067  1.00  0.00     0.032 C 
ATOM     17  C   UNL     1      -8.363  10.059  11.715  1.00  0.00     0.006 C 
ATOM     18  C   UNL     1      -9.973   8.184  10.802  1.00  0.00     0.008 C 
ATOM     19  C   UNL     1     -10.881  10.403  11.495  1.00  0.00     0.012 C 
ATOM     20  C   UNL     1      -7.173   9.433  10.793  1.00  0.00    -0.025 C 
ATOM     21  C   UNL     1      -9.116   8.350   9.559  1.00  0.00     0.005 C 
ATOM     22  C   UNL     1      -7.627   8.175   9.933  1.00  0.00     0.003 C 
ATOM     23  C   UNL     1      -6.700  10.574   9.828  1.00  0.00     0.010 C 
ATOM     24  C   UNL     1      -5.954   9.028  11.677  1.00  0.00     0.012 C 
ATOM     25  C   UNL     1      -6.694   7.783   8.682  1.00  0.00    -0.006 C 
ATOM     26  C   UNL     1      -5.697  10.145   8.761  1.00  0.00     0.033 C 
ATOM     27  C   UNL     1      -6.286   9.050   7.871  1.00  0.00     0.120 C 
ATOM     28  C   UNL     1      -7.431   6.819   7.703  1.00  0.00     0.014 C 
ATOM     29  C   UNL     1      -5.422   6.994   9.142  1.00  0.00     0.014 C 
ENDROOT
BRANCH   1  30
ATOM     30  C   UNL     1     -10.966   7.269  16.288  1.00  0.00     0.048 C 
ATOM     31  O   UNL     1     -11.001   6.077  15.875  1.00  0.00    -0.550 OA
ATOM     32  O   UNL     1     -12.125   7.806  16.819  1.00  0.00    -0.550 OA
ENDBRANCH   1  30
BRANCH  27  33
ATOM     33  O   UNL     1      -5.341   8.727   6.879  1.00  0.00    -0.393 OA
ATOM     34  H   UNL     1      -5.813   8.204   6.179  1.00  0.00     0.210 HD
ENDBRANCH  27  33
TORSDOF 2
ENDMDL
MODEL 7
REMARK VINA RESULT:    -4.186      3.309      7.800
REMARK INTER + INTRA:          -4.011
REMARK INTER:                  -4.631
REMARK INTRA:                   0.620
REMARK UNBOUND:                 0.542
REMARK SMILES C[C@H]1[C@H](C)CC[C@]2(C(=O)[O-])CC[C@@]3(C)C(=CC[C@H]4[C@]5(C)CC[C@@H](O)C(C)(C)[C@@H]5CC[C@]43C)[C@@H]12
REMARK SMILES IDX 7 1 6 2 11 3 33 4 5 5 12 6 15 7 2 8 3 9 13 10 16 11 1 12
REMARK SMILES IDX 4 13 14 14 31 15 17 16 18 17 30 18 32 19 19 20 29 21 28 22
REMARK SMILES IDX 21 23 20 24 25 25 22 26 23 27 26 28 27 29 8 30 9 31 10 32
REMARK SMILES IDX 24 33
REMARK H PARENT 24 34
REMARK Flexibility Score: inf
ROOT
ATOM      1  C   UNL     1      -8.751   7.901  14.985  1.00  0.00     0.017 C 
ATOM      2  C   UNL     1      -8.763   8.407  16.454  1.00  0.00     0.014 C 
ATOM      3  C   UNL     1      -7.299   7.927  14.414  1.00  0.00     0.014 C 
ATOM      4  C   UNL     1      -9.562   8.933  14.135  1.00  0.00     0.030 C 
ATOM      5  C   UNL     1     -10.206   8.581  16.976  1.00  0.00     0.004 C 
ATOM      6  C   UNL     1      -7.174   7.541  12.905  1.00  0.00     0.013 C 
ATOM      7  C   UNL     1      -9.285   8.910  12.621  1.00  0.00    -0.063 C 
ATOM      8  C   UNL     1     -11.004   9.304  14.609  1.00  0.00    -0.003 C 
ATOM      9  C   UNL     1     -11.049   9.584  16.148  1.00  0.00    -0.011 C 
ATOM     10  C   UNL     1      -8.438   7.776  11.989  1.00  0.00    -0.006 C 
ATOM     11  C   UNL     1      -9.229  10.134  12.048  1.00  0.00    -0.027 C 
ATOM     12  C   UNL     1     -12.125   8.353  14.161  1.00  0.00     0.008 C 
ATOM     13  C   UNL     1     -10.651  11.036  16.475  1.00  0.00     0.008 C 
ATOM     14  C   UNL     1      -9.276   6.451  11.952  1.00  0.00     0.017 C 
ATOM     15  C   UNL     1      -8.033   8.158  10.461  1.00  0.00    -0.020 C 
ATOM     16  C   UNL     1      -7.915  10.562  11.477  1.00  0.00     0.032 C 
ATOM     17  C   UNL     1      -7.409   9.635  10.343  1.00  0.00     0.006 C 
ATOM     18  C   UNL     1      -7.106   7.066   9.841  1.00  0.00     0.008 C 
ATOM     19  C   UNL     1      -9.336   8.154   9.566  1.00  0.00     0.012 C 
ATOM     20  C   UNL     1      -5.851   9.863   9.919  1.00  0.00    -0.025 C 
ATOM     21  C   UNL     1      -6.147   7.601   8.793  1.00  0.00     0.005 C 
ATOM     22  C   UNL     1      -5.112   8.530   9.467  1.00  0.00     0.003 C 
ATOM     23  C   UNL     1      -5.850  10.881   8.728  1.00  0.00     0.010 C 
ATOM     24  C   UNL     1      -5.056  10.510  11.094  1.00  0.00     0.012 C 
ATOM     25  C   UNL     1      -3.759   8.710   8.614  1.00  0.00    -0.006 C 
ATOM     26  C   UNL     1      -4.493  11.107   8.069  1.00  0.00     0.033 C 
ATOM     27  C   UNL     1      -3.936   9.797   7.511  1.00  0.00     0.120 C 
ATOM     28  C   UNL     1      -3.356   7.383   7.901  1.00  0.00     0.014 C 
ATOM     29  C   UNL     1      -2.543   9.057   9.536  1.00  0.00     0.014 C 
ENDROOT
BRANCH   1  30
ATOM     30  C   UNL     1      -9.241   6.459  15.037  1.00  0.00     0.048 C 
ATOM     31  O   UNL     1      -8.403   5.518  15.083  1.00  0.00    -0.550 OA
ATOM     32  O   UNL     1     -10.585   6.136  15.102  1.00  0.00    -0.550 OA
ENDBRANCH   1  30
BRANCH  27  33
ATOM     33  O   UNL     1      -2.710  10.069   6.875  1.00  0.00    -0.393 OA
ATOM     34  H   UNL     1      -2.837   9.906   5.904  1.00  0.00     0.210 HD
ENDBRANCH  27  33
TORSDOF 2
ENDMDL
MODEL 8
REMARK VINA RESULT:    -3.026      1.485      2.389
REMARK INTER + INTRA:          -2.749
REMARK INTER:                  -3.499
REMARK INTRA:                   0.750
REMARK UNBOUND:                 0.542
REMARK SMILES C[C@H]1[C@H](C)CC[C@]2(C(=O)[O-])CC[C@@]3(C)C(=CC[C@H]4[C@]5(C)CC[C@@H](O)C(C)(C)[C@@H]5CC[C@]43C)[C@@H]12
REMARK SMILES IDX 7 1 6 2 11 3 33 4 5 5 12 6 15 7 2 8 3 9 13 10 16 11 1 12
REMARK SMILES IDX 4 13 14 14 31 15 17 16 18 17 30 18 32 19 19 20 29 21 28 22
REMARK SMILES IDX 21 23 20 24 25 25 22 26 23 27 26 28 27 29 8 30 9 31 10 32
REMARK SMILES IDX 24 33
REMARK H PARENT 24 34
REMARK Flexibility Score: inf
ROOT
ATOM      1  C   UNL     1      -9.194   6.697  11.447  1.00  0.00     0.017 C 
ATOM      2  C   UNL     1     -10.179   5.832  10.614  1.00  0.00     0.014 C 
ATOM      3  C   UNL     1      -9.350   6.384  12.968  1.00  0.00     0.014 C 
ATOM      4  C   UNL     1      -9.630   8.189  11.272  1.00  0.00     0.030 C 
ATOM      5  C   UNL     1     -10.189   6.262   9.130  1.00  0.00     0.004 C 
ATOM      6  C   UNL     1      -8.485   7.273  13.918  1.00  0.00     0.013 C 
ATOM      7  C   UNL     1      -9.126   9.159  12.356  1.00  0.00    -0.063 C 
ATOM      8  C   UNL     1      -9.799   8.739   9.820  1.00  0.00    -0.003 C 
ATOM      9  C   UNL     1     -10.598   7.742   8.917  1.00  0.00    -0.011 C 
ATOM     10  C   UNL     1      -8.071   8.704  13.397  1.00  0.00    -0.006 C 
ATOM     11  C   UNL     1     -10.037  10.081  12.743  1.00  0.00    -0.027 C 
ATOM     12  C   UNL     1      -8.518   9.239   9.135  1.00  0.00     0.008 C 
ATOM     13  C   UNL     1     -12.120   7.919   9.080  1.00  0.00     0.008 C 
ATOM     14  C   UNL     1      -6.667   8.593  12.709  1.00  0.00     0.017 C 
ATOM     15  C   UNL     1      -7.958   9.793  14.599  1.00  0.00    -0.020 C 
ATOM     16  C   UNL     1     -10.523  10.012  14.155  1.00  0.00     0.032 C 
ATOM     17  C   UNL     1      -9.394  10.194  15.201  1.00  0.00     0.006 C 
ATOM     18  C   UNL     1      -6.965   9.305  15.700  1.00  0.00     0.008 C 
ATOM     19  C   UNL     1      -7.327  11.125  14.030  1.00  0.00     0.012 C 
ATOM     20  C   UNL     1      -9.810   9.804  16.728  1.00  0.00    -0.025 C 
ATOM     21  C   UNL     1      -7.292   9.819  17.091  1.00  0.00     0.005 C 
ATOM     22  C   UNL     1      -8.616   9.185  17.575  1.00  0.00     0.003 C 
ATOM     23  C   UNL     1     -10.299  11.125  17.415  1.00  0.00     0.010 C 
ATOM     24  C   UNL     1     -11.004   8.802  16.729  1.00  0.00     0.012 C 
ATOM     25  C   UNL     1      -8.785   9.199  19.176  1.00  0.00    -0.006 C 
ATOM     26  C   UNL     1     -10.581  11.012  18.910  1.00  0.00     0.033 C 
ATOM     27  C   UNL     1      -9.326  10.576  19.667  1.00  0.00     0.120 C 
ATOM     28  C   UNL     1      -7.424   8.949  19.894  1.00  0.00     0.014 C 
ATOM     29  C   UNL     1      -9.716   8.039  19.663  1.00  0.00     0.014 C 
ENDROOT
BRANCH   1  30
ATOM     30  C   UNL     1      -7.797   6.291  10.994  1.00  0.00     0.048 C 
ATOM     31  O   UNL     1      -7.101   5.534  11.725  1.00  0.00    -0.550 OA
ATOM     32  O   UNL     1      -7.277   6.669   9.769  1.00  0.00    -0.550 OA
ENDBRANCH   1  30
BRANCH  27  33
ATOM     33  O   UNL     1      -9.628  10.533  21.042  1.00  0.00    -0.393 OA
ATOM     34  H   UNL     1      -8.780  10.679  21.537  1.00  0.00     0.210 HD
ENDBRANCH  27  33
TORSDOF 2
ENDMDL
