MODEL 1
REMARK VINA RESULT:    -6.390      0.000      0.000
REMARK INTER + INTRA:         -20.543
REMARK INTER:                 -16.849
REMARK INTRA:                  -3.695
REMARK UNBOUND:                -3.695
REMARK SMILES CCCCCCCCCCCCCCCCCCCCCCCCCCCCCC(=O)[O-]
REMARK SMILES IDX 16 1 17 2 18 3 19 4 20 5 21 6 22 7 23 8 24 9 25 10 26 11
REMARK SMILES IDX 27 12 28 13 29 14 30 15 31 16 32 17 15 18 14 19 13 20 12 21
REMARK SMILES IDX 11 22 10 23 9 24 8 25 7 26 6 27 5 28 4 29 3 30 2 31 1 32
REMARK H PARENT
REMARK Flexibility Score: inf
ROOT
ATOM      1  C   UNL     1     113.761 -83.693  20.482  1.00  0.00     0.000 C 
ENDROOT
BRANCH   1   2
ATOM      2  C   UNL     1     114.842 -82.645  20.176  1.00  0.00     0.000 C 
BRANCH   2   3
ATOM      3  C   UNL     1     115.658 -82.314  21.436  1.00  0.00     0.000 C 
BRANCH   3   4
ATOM      4  C   UNL     1     116.660 -83.422  21.813  1.00  0.00     0.000 C 
BRANCH   4   5
ATOM      5  C   UNL     1     118.132 -83.113  21.474  1.00  0.00     0.000 C 
BRANCH   5   6
ATOM      6  C   UNL     1     118.927 -82.456  22.624  1.00  0.00     0.000 C 
BRANCH   6   7
ATOM      7  C   UNL     1     119.648 -81.154  22.221  1.00  0.00     0.000 C 
BRANCH   7   8
ATOM      8  C   UNL     1     119.330 -80.651  20.803  1.00  0.00     0.000 C 
BRANCH   8   9
ATOM      9  C   UNL     1     118.153 -79.659  20.777  1.00  0.00     0.000 C 
BRANCH   9  10
ATOM     10  C   UNL     1     117.932 -78.964  22.129  1.00  0.00     0.000 C 
BRANCH  10  11
ATOM     11  C   UNL     1     116.448 -78.901  22.526  1.00  0.00     0.000 C 
BRANCH  11  12
ATOM     12  C   UNL     1     115.952 -77.448  22.569  1.00  0.00     0.000 C 
BRANCH  12  13
ATOM     13  C   UNL     1     114.529 -77.283  22.006  1.00  0.00     0.006 C 
BRANCH  13  14
ATOM     14  C   UNL     1     114.072 -78.427  21.084  1.00  0.00     0.053 C 
BRANCH  14  15
ATOM     15  C   UNL     1     112.742 -78.147  20.451  1.00  0.00     0.041 C 
ATOM     16  O   UNL     1     112.487 -78.575  19.294  1.00  0.00    -0.550 OA
ATOM     17  O   UNL     1     111.794 -77.391  21.129  1.00  0.00    -0.550 OA
ENDBRANCH  14  15
ENDBRANCH  13  14
ENDBRANCH  12  13
ENDBRANCH  11  12
ENDBRANCH  10  11
ENDBRANCH   9  10
ENDBRANCH   8   9
ENDBRANCH   7   8
ENDBRANCH   6   7
ENDBRANCH   5   6
ENDBRANCH   4   5
ENDBRANCH   3   4
ENDBRANCH   2   3
ENDBRANCH   1   2
BRANCH   1  18
ATOM     18  C   UNL     1     112.712 -83.201  21.491  1.00  0.00     0.000 C 
BRANCH  18  19
ATOM     19  C   UNL     1     111.942 -81.961  20.997  1.00  0.00     0.000 C 
BRANCH  19  20
ATOM     20  C   UNL     1     110.784 -81.564  21.937  1.00  0.00     0.000 C 
BRANCH  20  21
ATOM     21  C   UNL     1     110.604 -82.496  23.147  1.00  0.00     0.000 C 
BRANCH  21  22
ATOM     22  C   UNL     1     109.130 -82.809  23.449  1.00  0.00     0.000 C 
BRANCH  22  23
ATOM     23  C   UNL     1     108.563 -81.991  24.624  1.00  0.00     0.000 C 
BRANCH  23  24
ATOM     24  C   UNL     1     107.220 -82.494  25.197  1.00  0.00    -0.000 C 
BRANCH  24  25
ATOM     25  C   UNL     1     106.200 -82.985  24.151  1.00  0.00    -0.000 C 
BRANCH  25  26
ATOM     26  C   UNL     1     105.174 -81.926  23.700  1.00  0.00    -0.000 C 
BRANCH  26  27
ATOM     27  C   UNL     1     104.922 -81.876  22.183  1.00  0.00    -0.000 C 
BRANCH  27  28
ATOM     28  C   UNL     1     106.084 -82.462  21.365  1.00  0.00    -0.000 C 
BRANCH  28  29
ATOM     29  C   UNL     1     106.798 -81.373  20.556  1.00  0.00    -0.000 C 
BRANCH  29  30
ATOM     30  C   UNL     1     107.269 -80.231  21.471  1.00  0.00    -0.000 C 
BRANCH  30  31
ATOM     31  C   UNL     1     106.714 -78.863  21.044  1.00  0.00    -0.003 C 
ATOM     32  C   UNL     1     105.549 -78.979  20.059  1.00  0.00     0.004 C 
ENDBRANCH  30  31
ENDBRANCH  29  30
ENDBRANCH  28  29
ENDBRANCH  27  28
ENDBRANCH  26  27
ENDBRANCH  25  26
ENDBRANCH  24  25
ENDBRANCH  23  24
ENDBRANCH  22  23
ENDBRANCH  21  22
ENDBRANCH  20  21
ENDBRANCH  19  20
ENDBRANCH  18  19
ENDBRANCH   1  18
TORSDOF 28
ENDMDL
MODEL 2
REMARK VINA RESULT:    -6.378      3.348      7.569
REMARK INTER + INTRA:         -20.513
REMARK INTER:                 -15.968
REMARK INTRA:                  -4.545
REMARK UNBOUND:                -3.695
REMARK SMILES CCCCCCCCCCCCCCCCCCCCCCCCCCCCCC(=O)[O-]
REMARK SMILES IDX 16 1 17 2 18 3 19 4 20 5 21 6 22 7 23 8 24 9 25 10 26 11
REMARK SMILES IDX 27 12 28 13 29 14 30 15 31 16 32 17 15 18 14 19 13 20 12 21
REMARK SMILES IDX 11 22 10 23 9 24 8 25 7 26 6 27 5 28 4 29 3 30 2 31 1 32
REMARK H PARENT
REMARK Flexibility Score: inf
ROOT
ATOM      1  C   UNL     1     118.458 -78.585  22.287  1.00  0.00     0.000 C 
ENDROOT
BRANCH   1   2
ATOM      2  C   UNL     1     117.719 -79.415  21.225  1.00  0.00     0.000 C 
BRANCH   2   3
ATOM      3  C   UNL     1     116.206 -79.426  21.492  1.00  0.00     0.000 C 
BRANCH   3   4
ATOM      4  C   UNL     1     115.368 -79.597  20.211  1.00  0.00     0.000 C 
BRANCH   4   5
ATOM      5  C   UNL     1     113.841 -79.545  20.418  1.00  0.00     0.000 C 
BRANCH   5   6
ATOM      6  C   UNL     1     113.399 -79.530  21.898  1.00  0.00     0.000 C 
BRANCH   6   7
ATOM      7  C   UNL     1     112.613 -78.267  22.302  1.00  0.00     0.000 C 
BRANCH   7   8
ATOM      8  C   UNL     1     113.180 -76.948  21.751  1.00  0.00     0.000 C 
BRANCH   8   9
ATOM      9  C   UNL     1     114.477 -76.518  22.460  1.00  0.00     0.000 C 
BRANCH   9  10
ATOM     10  C   UNL     1     114.544 -76.999  23.917  1.00  0.00     0.000 C 
BRANCH  10  11
ATOM     11  C   UNL     1     115.921 -76.759  24.556  1.00  0.00     0.000 C 
BRANCH  11  12
ATOM     12  C   UNL     1     116.611 -75.536  23.932  1.00  0.00     0.000 C 
BRANCH  12  13
ATOM     13  C   UNL     1     118.125 -75.496  24.206  1.00  0.00     0.006 C 
BRANCH  13  14
ATOM     14  C   UNL     1     118.504 -75.024  25.620  1.00  0.00     0.053 C 
BRANCH  14  15
ATOM     15  C   UNL     1     118.957 -76.155  26.493  1.00  0.00     0.041 C 
ATOM     16  O   UNL     1     118.244 -76.536  27.459  1.00  0.00    -0.550 OA
ATOM     17  O   UNL     1     120.181 -76.770  26.256  1.00  0.00    -0.550 OA
ENDBRANCH  14  15
ENDBRANCH  13  14
ENDBRANCH  12  13
ENDBRANCH  11  12
ENDBRANCH  10  11
ENDBRANCH   9  10
ENDBRANCH   8   9
ENDBRANCH   7   8
ENDBRANCH   6   7
ENDBRANCH   5   6
ENDBRANCH   4   5
ENDBRANCH   3   4
ENDBRANCH   2   3
ENDBRANCH   1   2
BRANCH   1  18
ATOM     18  C   UNL     1     118.603 -79.316  23.630  1.00  0.00     0.000 C 
BRANCH  18  19
ATOM     19  C   UNL     1     120.068 -79.634  23.984  1.00  0.00     0.000 C 
BRANCH  19  20
ATOM     20  C   UNL     1     120.511 -81.030  23.496  1.00  0.00     0.000 C 
BRANCH  20  21
ATOM     21  C   UNL     1     119.802 -82.200  24.201  1.00  0.00     0.000 C 
BRANCH  21  22
ATOM     22  C   UNL     1     119.237 -83.238  23.218  1.00  0.00     0.000 C 
BRANCH  22  23
ATOM     23  C   UNL     1     118.871 -82.640  21.846  1.00  0.00     0.000 C 
BRANCH  23  24
ATOM     24  C   UNL     1     117.757 -83.380  21.075  1.00  0.00    -0.000 C 
BRANCH  24  25
ATOM     25  C   UNL     1     116.317 -83.022  21.493  1.00  0.00    -0.000 C 
BRANCH  25  26
ATOM     26  C   UNL     1     115.266 -83.156  20.373  1.00  0.00    -0.000 C 
BRANCH  26  27
ATOM     27  C   UNL     1     113.992 -83.922  20.770  1.00  0.00    -0.000 C 
BRANCH  27  28
ATOM     28  C   UNL     1     112.753 -83.017  20.856  1.00  0.00    -0.000 C 
BRANCH  28  29
ATOM     29  C   UNL     1     112.024 -83.199  22.192  1.00  0.00    -0.000 C 
BRANCH  29  30
ATOM     30  C   UNL     1     110.877 -82.185  22.334  1.00  0.00    -0.000 C 
BRANCH  30  31
ATOM     31  C   UNL     1     110.227 -82.218  23.726  1.00  0.00    -0.003 C 
ATOM     32  C   UNL     1     108.767 -82.670  23.686  1.00  0.00     0.004 C 
ENDBRANCH  30  31
ENDBRANCH  29  30
ENDBRANCH  28  29
ENDBRANCH  27  28
ENDBRANCH  26  27
ENDBRANCH  25  26
ENDBRANCH  24  25
ENDBRANCH  23  24
ENDBRANCH  22  23
ENDBRANCH  21  22
ENDBRANCH  20  21
ENDBRANCH  19  20
ENDBRANCH  18  19
ENDBRANCH   1  18
TORSDOF 28
ENDMDL
MODEL 3
REMARK VINA RESULT:    -6.375      2.141      9.042
REMARK INTER + INTRA:         -20.505
REMARK INTER:                 -16.011
REMARK INTRA:                  -4.494
REMARK UNBOUND:                -3.695
REMARK SMILES CCCCCCCCCCCCCCCCCCCCCCCCCCCCCC(=O)[O-]
REMARK SMILES IDX 16 1 17 2 18 3 19 4 20 5 21 6 22 7 23 8 24 9 25 10 26 11
REMARK SMILES IDX 27 12 28 13 29 14 30 15 31 16 32 17 15 18 14 19 13 20 12 21
REMARK SMILES IDX 11 22 10 23 9 24 8 25 7 26 6 27 5 28 4 29 3 30 2 31 1 32
REMARK H PARENT
REMARK Flexibility Score: inf
ROOT
ATOM      1  C   UNL     1     108.479 -82.356  24.270  1.00  0.00     0.000 C 
ENDROOT
BRANCH   1   2
ATOM      2  C   UNL     1     108.189 -83.577  23.383  1.00  0.00     0.000 C 
BRANCH   2   3
ATOM      3  C   UNL     1     106.675 -83.786  23.214  1.00  0.00     0.000 C 
BRANCH   3   4
ATOM      4  C   UNL     1     105.836 -82.688  23.894  1.00  0.00     0.000 C 
BRANCH   4   5
ATOM      5  C   UNL     1     104.529 -82.319  23.164  1.00  0.00     0.000 C 
BRANCH   5   6
ATOM      6  C   UNL     1     104.174 -83.252  21.984  1.00  0.00     0.000 C 
BRANCH   6   7
ATOM      7  C   UNL     1     104.103 -82.535  20.621  1.00  0.00     0.000 C 
BRANCH   7   8
ATOM      8  C   UNL     1     104.937 -81.247  20.523  1.00  0.00     0.000 C 
BRANCH   8   9
ATOM      9  C   UNL     1     106.345 -81.495  19.951  1.00  0.00     0.000 C 
BRANCH   9  10
ATOM     10  C   UNL     1     107.461 -81.053  20.909  1.00  0.00     0.000 C 
BRANCH  10  11
ATOM     11  C   UNL     1     107.031 -79.894  21.823  1.00  0.00     0.000 C 
BRANCH  11  12
ATOM     12  C   UNL     1     108.241 -79.045  22.241  1.00  0.00     0.000 C 
BRANCH  12  13
ATOM     13  C   UNL     1     108.948 -78.380  21.048  1.00  0.00     0.006 C 
BRANCH  13  14
ATOM     14  C   UNL     1     108.735 -76.860  20.947  1.00  0.00     0.053 C 
BRANCH  14  15
ATOM     15  C   UNL     1     107.411 -76.513  20.334  1.00  0.00     0.041 C 
ATOM     16  O   UNL     1     106.372 -76.478  21.045  1.00  0.00    -0.550 OA
ATOM     17  O   UNL     1     107.322 -76.256  18.971  1.00  0.00    -0.550 OA
ENDBRANCH  14  15
ENDBRANCH  13  14
ENDBRANCH  12  13
ENDBRANCH  11  12
ENDBRANCH  10  11
ENDBRANCH   9  10
ENDBRANCH   8   9
ENDBRANCH   7   8
ENDBRANCH   6   7
ENDBRANCH   5   6
ENDBRANCH   4   5
ENDBRANCH   3   4
ENDBRANCH   2   3
ENDBRANCH   1   2
BRANCH   1  18
ATOM     18  C   UNL     1     109.903 -81.808  24.094  1.00  0.00     0.000 C 
BRANCH  18  19
ATOM     19  C   UNL     1     110.671 -82.493  22.947  1.00  0.00     0.000 C 
BRANCH  19  20
ATOM     20  C   UNL     1     111.139 -81.499  21.863  1.00  0.00     0.000 C 
BRANCH  20  21
ATOM     21  C   UNL     1     112.062 -82.114  20.797  1.00  0.00     0.000 C 
BRANCH  21  22
ATOM     22  C   UNL     1     112.891 -83.293  21.331  1.00  0.00     0.000 C 
BRANCH  22  23
ATOM     23  C   UNL     1     114.017 -83.727  20.375  1.00  0.00     0.000 C 
BRANCH  23  24
ATOM     24  C   UNL     1     115.436 -83.259  20.762  1.00  0.00    -0.000 C 
BRANCH  24  25
ATOM     25  C   UNL     1     115.492 -82.055  21.724  1.00  0.00    -0.000 C 
BRANCH  25  26
ATOM     26  C   UNL     1     116.101 -80.773  21.121  1.00  0.00    -0.000 C 
BRANCH  26  27
ATOM     27  C   UNL     1     115.186 -80.026  20.134  1.00  0.00    -0.000 C 
BRANCH  27  28
ATOM     28  C   UNL     1     114.392 -78.891  20.800  1.00  0.00    -0.000 C 
BRANCH  28  29
ATOM     29  C   UNL     1     115.081 -78.409  22.081  1.00  0.00    -0.000 C 
BRANCH  29  30
ATOM     30  C   UNL     1     114.775 -76.925  22.343  1.00  0.00    -0.000 C 
BRANCH  30  31
ATOM     31  C   UNL     1     113.268 -76.638  22.432  1.00  0.00    -0.003 C 
ATOM     32  C   UNL     1     112.876 -75.325  21.754  1.00  0.00     0.004 C 
ENDBRANCH  30  31
ENDBRANCH  29  30
ENDBRANCH  28  29
ENDBRANCH  27  28
ENDBRANCH  26  27
ENDBRANCH  25  26
ENDBRANCH  24  25
ENDBRANCH  23  24
ENDBRANCH  22  23
ENDBRANCH  21  22
ENDBRANCH  20  21
ENDBRANCH  19  20
ENDBRANCH  18  19
ENDBRANCH   1  18
TORSDOF 28
ENDMDL
MODEL 4
REMARK VINA RESULT:    -6.317      2.082      9.024
REMARK INTER + INTRA:         -20.353
REMARK INTER:                 -16.709
REMARK INTRA:                  -3.644
REMARK UNBOUND:                -3.695
REMARK SMILES CCCCCCCCCCCCCCCCCCCCCCCCCCCCCC(=O)[O-]
REMARK SMILES IDX 16 1 17 2 18 3 19 4 20 5 21 6 22 7 23 8 24 9 25 10 26 11
REMARK SMILES IDX 27 12 28 13 29 14 30 15 31 16 32 17 15 18 14 19 13 20 12 21
REMARK SMILES IDX 11 22 10 23 9 24 8 25 7 26 6 27 5 28 4 29 3 30 2 31 1 32
REMARK H PARENT
REMARK Flexibility Score: inf
ROOT
ATOM      1  C   UNL     1     111.023 -81.706  21.802  1.00  0.00     0.000 C 
ENDROOT
BRANCH   1   2
ATOM      2  C   UNL     1     110.707 -82.621  22.996  1.00  0.00     0.000 C 
BRANCH   2   3
ATOM      3  C   UNL     1     110.120 -81.814  24.165  1.00  0.00     0.000 C 
BRANCH   3   4
ATOM      4  C   UNL     1     108.674 -82.218  24.511  1.00  0.00     0.000 C 
BRANCH   4   5
ATOM      5  C   UNL     1     108.052 -83.276  23.578  1.00  0.00     0.000 C 
BRANCH   5   6
ATOM      6  C   UNL     1     106.520 -83.159  23.414  1.00  0.00     0.000 C 
BRANCH   6   7
ATOM      7  C   UNL     1     106.006 -81.707  23.365  1.00  0.00     0.000 C 
BRANCH   7   8
ATOM      8  C   UNL     1     105.635 -81.199  21.961  1.00  0.00     0.000 C 
BRANCH   8   9
ATOM      9  C   UNL     1     106.728 -80.308  21.344  1.00  0.00     0.000 C 
BRANCH   9  10
ATOM     10  C   UNL     1     107.614 -79.636  22.404  1.00  0.00     0.000 C 
BRANCH  10  11
ATOM     11  C   UNL     1     108.825 -78.915  21.791  1.00  0.00     0.000 C 
BRANCH  11  12
ATOM     12  C   UNL     1     108.844 -77.433  22.195  1.00  0.00     0.000 C 
BRANCH  12  13
ATOM     13  C   UNL     1     108.333 -76.501  21.082  1.00  0.00     0.006 C 
BRANCH  13  14
ATOM     14  C   UNL     1     106.801 -76.445  20.951  1.00  0.00     0.053 C 
BRANCH  14  15
ATOM     15  C   UNL     1     106.350 -75.350  20.032  1.00  0.00     0.041 C 
ATOM     16  O   UNL     1     105.980 -75.618  18.859  1.00  0.00    -0.550 OA
ATOM     17  O   UNL     1     106.366 -74.029  20.464  1.00  0.00    -0.550 OA
ENDBRANCH  14  15
ENDBRANCH  13  14
ENDBRANCH  12  13
ENDBRANCH  11  12
ENDBRANCH  10  11
ENDBRANCH   9  10
ENDBRANCH   8   9
ENDBRANCH   7   8
ENDBRANCH   6   7
ENDBRANCH   5   6
ENDBRANCH   4   5
ENDBRANCH   3   4
ENDBRANCH   2   3
ENDBRANCH   1   2
BRANCH   1  18
ATOM     18  C   UNL     1     112.124 -82.266  20.888  1.00  0.00     0.000 C 
BRANCH  18  19
ATOM     19  C   UNL     1     112.914 -83.418  21.539  1.00  0.00     0.000 C 
BRANCH  19  20
ATOM     20  C   UNL     1     114.090 -83.904  20.666  1.00  0.00     0.000 C 
BRANCH  20  21
ATOM     21  C   UNL     1     115.268 -82.917  20.586  1.00  0.00     0.000 C 
BRANCH  21  22
ATOM     22  C   UNL     1     116.307 -83.134  21.698  1.00  0.00     0.000 C 
BRANCH  22  23
ATOM     23  C   UNL     1     117.759 -83.101  21.187  1.00  0.00     0.000 C 
BRANCH  23  24
ATOM     24  C   UNL     1     118.736 -82.239  22.016  1.00  0.00    -0.000 C 
BRANCH  24  25
ATOM     25  C   UNL     1     119.172 -80.916  21.354  1.00  0.00    -0.000 C 
BRANCH  25  26
ATOM     26  C   UNL     1     118.016 -79.972  20.971  1.00  0.00    -0.000 C 
BRANCH  26  27
ATOM     27  C   UNL     1     117.812 -78.781  21.924  1.00  0.00    -0.000 C 
BRANCH  27  28
ATOM     28  C   UNL     1     116.362 -78.274  21.944  1.00  0.00    -0.000 C 
BRANCH  28  29
ATOM     29  C   UNL     1     115.369 -79.423  21.735  1.00  0.00    -0.000 C 
BRANCH  29  30
ATOM     30  C   UNL     1     114.473 -79.160  20.515  1.00  0.00    -0.000 C 
BRANCH  30  31
ATOM     31  C   UNL     1     113.040 -78.766  20.906  1.00  0.00    -0.003 C 
ATOM     32  C   UNL     1     112.878 -77.261  21.120  1.00  0.00     0.004 C 
ENDBRANCH  30  31
ENDBRANCH  29  30
ENDBRANCH  28  29
ENDBRANCH  27  28
ENDBRANCH  26  27
ENDBRANCH  25  26
ENDBRANCH  24  25
ENDBRANCH  23  24
ENDBRANCH  22  23
ENDBRANCH  21  22
ENDBRANCH  20  21
ENDBRANCH  19  20
ENDBRANCH  18  19
ENDBRANCH   1  18
TORSDOF 28
ENDMDL
MODEL 5
REMARK VINA RESULT:    -6.228      2.766      7.567
REMARK INTER + INTRA:         -20.118
REMARK INTER:                 -16.391
REMARK INTRA:                  -3.727
REMARK UNBOUND:                -3.695
REMARK SMILES CCCCCCCCCCCCCCCCCCCCCCCCCCCCCC(=O)[O-]
REMARK SMILES IDX 16 1 17 2 18 3 19 4 20 5 21 6 22 7 23 8 24 9 25 10 26 11
REMARK SMILES IDX 27 12 28 13 29 14 30 15 31 16 32 17 15 18 14 19 13 20 12 21
REMARK SMILES IDX 11 22 10 23 9 24 8 25 7 26 6 27 5 28 4 29 3 30 2 31 1 32
REMARK H PARENT
REMARK Flexibility Score: inf
ROOT
ATOM      1  C   UNL     1     106.123 -82.324  24.088  1.00  0.00     0.000 C 
ENDROOT
BRANCH   1   2
ATOM      2  C   UNL     1     106.736 -83.627  23.551  1.00  0.00     0.000 C 
BRANCH   2   3
ATOM      3  C   UNL     1     108.259 -83.491  23.390  1.00  0.00     0.000 C 
BRANCH   3   4
ATOM      4  C   UNL     1     108.851 -82.331  24.212  1.00  0.00     0.000 C 
BRANCH   4   5
ATOM      5  C   UNL     1     110.195 -81.782  23.691  1.00  0.00     0.000 C 
BRANCH   5   6
ATOM      6  C   UNL     1     110.876 -82.670  22.626  1.00  0.00     0.000 C 
BRANCH   6   7
ATOM      7  C   UNL     1     112.093 -82.009  21.948  1.00  0.00     0.000 C 
BRANCH   7   8
ATOM      8  C   UNL     1     112.584 -82.713  20.672  1.00  0.00     0.000 C 
BRANCH   8   9
ATOM      9  C   UNL     1     113.706 -83.730  20.950  1.00  0.00     0.000 C 
BRANCH   9  10
ATOM     10  C   UNL     1     115.049 -83.314  20.332  1.00  0.00     0.000 C 
BRANCH  10  11
ATOM     11  C   UNL     1     116.221 -83.455  21.317  1.00  0.00     0.000 C 
BRANCH  11  12
ATOM     12  C   UNL     1     116.936 -82.109  21.517  1.00  0.00     0.000 C 
BRANCH  12  13
ATOM     13  C   UNL     1     118.468 -82.246  21.568  1.00  0.00     0.006 C 
BRANCH  13  14
ATOM     14  C   UNL     1     119.139 -81.473  22.716  1.00  0.00     0.053 C 
BRANCH  14  15
ATOM     15  C   UNL     1     119.770 -82.388  23.722  1.00  0.00     0.041 C 
ATOM     16  O   UNL     1     119.393 -83.585  23.816  1.00  0.00    -0.550 OA
ATOM     17  O   UNL     1     120.757 -81.908  24.576  1.00  0.00    -0.550 OA
ENDBRANCH  14  15
ENDBRANCH  13  14
ENDBRANCH  12  13
ENDBRANCH  11  12
ENDBRANCH  10  11
ENDBRANCH   9  10
ENDBRANCH   8   9
ENDBRANCH   7   8
ENDBRANCH   6   7
ENDBRANCH   5   6
ENDBRANCH   4   5
ENDBRANCH   3   4
ENDBRANCH   2   3
ENDBRANCH   1   2
BRANCH   1  18
ATOM     18  C   UNL     1     105.377 -81.520  23.011  1.00  0.00     0.000 C 
BRANCH  18  19
ATOM     19  C   UNL     1     105.700 -81.993  21.581  1.00  0.00     0.000 C 
BRANCH  19  20
ATOM     20  C   UNL     1     106.613 -81.009  20.818  1.00  0.00     0.000 C 
BRANCH  20  21
ATOM     21  C   UNL     1     107.369 -80.019  21.721  1.00  0.00     0.000 C 
BRANCH  21  22
ATOM     22  C   UNL     1     107.479 -78.614  21.108  1.00  0.00     0.000 C 
BRANCH  22  23
ATOM     23  C   UNL     1     108.249 -77.621  21.999  1.00  0.00     0.000 C 
BRANCH  23  24
ATOM     24  C   UNL     1     109.705 -77.335  21.571  1.00  0.00    -0.000 C 
BRANCH  24  25
ATOM     25  C   UNL     1     110.676 -78.526  21.703  1.00  0.00    -0.000 C 
BRANCH  25  26
ATOM     26  C   UNL     1     111.424 -78.897  20.407  1.00  0.00    -0.000 C 
BRANCH  26  27
ATOM     27  C   UNL     1     112.805 -78.238  20.248  1.00  0.00    -0.000 C 
BRANCH  27  28
ATOM     28  C   UNL     1     113.957 -79.255  20.261  1.00  0.00    -0.000 C 
BRANCH  28  29
ATOM     29  C   UNL     1     114.671 -79.268  21.617  1.00  0.00    -0.000 C 
BRANCH  29  30
ATOM     30  C   UNL     1     116.069 -78.638  21.507  1.00  0.00    -0.000 C 
BRANCH  30  31
ATOM     31  C   UNL     1     116.281 -77.489  22.505  1.00  0.00    -0.003 C 
ATOM     32  C   UNL     1     114.988 -76.738  22.826  1.00  0.00     0.004 C 
ENDBRANCH  30  31
ENDBRANCH  29  30
ENDBRANCH  28  29
ENDBRANCH  27  28
ENDBRANCH  26  27
ENDBRANCH  25  26
ENDBRANCH  24  25
ENDBRANCH  23  24
ENDBRANCH  22  23
ENDBRANCH  21  22
ENDBRANCH  20  21
ENDBRANCH  19  20
ENDBRANCH  18  19
ENDBRANCH   1  18
TORSDOF 28
ENDMDL
MODEL 6
REMARK VINA RESULT:    -6.219      2.799      8.009
REMARK INTER + INTRA:         -20.093
REMARK INTER:                 -15.389
REMARK INTRA:                  -4.704
REMARK UNBOUND:                -3.695
REMARK SMILES CCCCCCCCCCCCCCCCCCCCCCCCCCCCCC(=O)[O-]
REMARK SMILES IDX 16 1 17 2 18 3 19 4 20 5 21 6 22 7 23 8 24 9 25 10 26 11
REMARK SMILES IDX 27 12 28 13 29 14 30 15 31 16 32 17 15 18 14 19 13 20 12 21
REMARK SMILES IDX 11 22 10 23 9 24 8 25 7 26 6 27 5 28 4 29 3 30 2 31 1 32
REMARK H PARENT
REMARK Flexibility Score: inf
ROOT
ATOM      1  C   UNL     1     106.460 -81.400  22.122  1.00  0.00     0.000 C 
ENDROOT
BRANCH   1   2
ATOM      2  C   UNL     1     107.128 -81.464  23.504  1.00  0.00     0.000 C 
BRANCH   2   3
ATOM      3  C   UNL     1     107.870 -82.797  23.694  1.00  0.00     0.000 C 
BRANCH   3   4
ATOM      4  C   UNL     1     109.401 -82.632  23.740  1.00  0.00     0.000 C 
BRANCH   4   5
ATOM      5  C   UNL     1     109.901 -81.174  23.735  1.00  0.00     0.000 C 
BRANCH   5   6
ATOM      6  C   UNL     1     110.843 -80.827  22.560  1.00  0.00     0.000 C 
BRANCH   6   7
ATOM      7  C   UNL     1     110.767 -81.822  21.385  1.00  0.00     0.000 C 
BRANCH   7   8
ATOM      8  C   UNL     1     112.081 -82.007  20.608  1.00  0.00     0.000 C 
BRANCH   8   9
ATOM      9  C   UNL     1     112.921 -83.185  21.135  1.00  0.00     0.000 C 
BRANCH   9  10
ATOM     10  C   UNL     1     114.213 -83.399  20.331  1.00  0.00     0.000 C 
BRANCH  10  11
ATOM     11  C   UNL     1     115.417 -83.729  21.227  1.00  0.00     0.000 C 
BRANCH  11  12
ATOM     12  C   UNL     1     116.524 -82.675  21.071  1.00  0.00     0.000 C 
BRANCH  12  13
ATOM     13  C   UNL     1     117.899 -83.174  21.552  1.00  0.00     0.006 C 
BRANCH  13  14
ATOM     14  C   UNL     1     118.843 -82.063  22.043  1.00  0.00     0.053 C 
BRANCH  14  15
ATOM     15  C   UNL     1     119.596 -82.464  23.276  1.00  0.00     0.041 C 
ATOM     16  O   UNL     1     119.187 -83.418  23.988  1.00  0.00    -0.550 OA
ATOM     17  O   UNL     1     120.735 -81.763  23.654  1.00  0.00    -0.550 OA
ENDBRANCH  14  15
ENDBRANCH  13  14
ENDBRANCH  12  13
ENDBRANCH  11  12
ENDBRANCH  10  11
ENDBRANCH   9  10
ENDBRANCH   8   9
ENDBRANCH   7   8
ENDBRANCH   6   7
ENDBRANCH   5   6
ENDBRANCH   4   5
ENDBRANCH   3   4
ENDBRANCH   2   3
ENDBRANCH   1   2
BRANCH   1  18
ATOM     18  C   UNL     1     107.201 -80.484  21.135  1.00  0.00     0.000 C 
BRANCH  18  19
ATOM     19  C   UNL     1     107.275 -79.022  21.616  1.00  0.00     0.000 C 
BRANCH  19  20
ATOM     20  C   UNL     1     108.580 -78.318  21.188  1.00  0.00     0.000 C 
BRANCH  20  21
ATOM     21  C   UNL     1     109.099 -77.280  22.199  1.00  0.00     0.000 C 
BRANCH  21  22
ATOM     22  C   UNL     1     110.416 -76.622  21.758  1.00  0.00     0.000 C 
BRANCH  22  23
ATOM     23  C   UNL     1     111.632 -77.561  21.870  1.00  0.00     0.000 C 
BRANCH  23  24
ATOM     24  C   UNL     1     112.700 -77.399  20.768  1.00  0.00    -0.000 C 
BRANCH  24  25
ATOM     25  C   UNL     1     113.100 -78.700  20.042  1.00  0.00    -0.000 C 
BRANCH  25  26
ATOM     26  C   UNL     1     114.489 -79.252  20.421  1.00  0.00    -0.000 C 
BRANCH  26  27
ATOM     27  C   UNL     1     114.634 -79.681  21.892  1.00  0.00    -0.000 C 
BRANCH  27  28
ATOM     28  C   UNL     1     115.988 -79.283  22.499  1.00  0.00    -0.000 C 
BRANCH  28  29
ATOM     29  C   UNL     1     116.175 -77.762  22.489  1.00  0.00    -0.000 C 
BRANCH  29  30
ATOM     30  C   UNL     1     115.349 -77.100  23.603  1.00  0.00    -0.000 C 
BRANCH  30  31
ATOM     31  C   UNL     1     115.166 -75.589  23.387  1.00  0.00    -0.003 C 
ATOM     32  C   UNL     1     113.717 -75.138  23.569  1.00  0.00     0.004 C 
ENDBRANCH  30  31
ENDBRANCH  29  30
ENDBRANCH  28  29
ENDBRANCH  27  28
ENDBRANCH  26  27
ENDBRANCH  25  26
ENDBRANCH  24  25
ENDBRANCH  23  24
ENDBRANCH  22  23
ENDBRANCH  21  22
ENDBRANCH  20  21
ENDBRANCH  19  20
ENDBRANCH  18  19
ENDBRANCH   1  18
TORSDOF 28
ENDMDL
MODEL 7
REMARK VINA RESULT:    -6.215      5.191      9.722
REMARK INTER + INTRA:         -20.083
REMARK INTER:                 -15.267
REMARK INTRA:                  -4.816
REMARK UNBOUND:                -3.695
REMARK SMILES CCCCCCCCCCCCCCCCCCCCCCCCCCCCCC(=O)[O-]
REMARK SMILES IDX 16 1 17 2 18 3 19 4 20 5 21 6 22 7 23 8 24 9 25 10 26 11
REMARK SMILES IDX 27 12 28 13 29 14 30 15 31 16 32 17 15 18 14 19 13 20 12 21
REMARK SMILES IDX 11 22 10 23 9 24 8 25 7 26 6 27 5 28 4 29 3 30 2 31 1 32
REMARK H PARENT
REMARK Flexibility Score: inf
ROOT
ATOM      1  C   UNL     1     105.915 -79.872  20.682  1.00  0.00     0.000 C 
ENDROOT
BRANCH   1   2
ATOM      2  C   UNL     1     106.395 -81.238  20.166  1.00  0.00     0.000 C 
BRANCH   2   3
ATOM      3  C   UNL     1     105.532 -81.712  18.985  1.00  0.00     0.000 C 
BRANCH   3   4
ATOM      4  C   UNL     1     105.471 -83.246  18.861  1.00  0.00     0.000 C 
BRANCH   4   5
ATOM      5  C   UNL     1     104.356 -83.923  19.683  1.00  0.00     0.000 C 
BRANCH   5   6
ATOM      6  C   UNL     1     103.050 -83.103  19.781  1.00  0.00     0.000 C 
BRANCH   6   7
ATOM      7  C   UNL     1     102.693 -82.667  21.217  1.00  0.00     0.000 C 
BRANCH   7   8
ATOM      8  C   UNL     1     103.652 -83.178  22.305  1.00  0.00     0.000 C 
BRANCH   8   9
ATOM      9  C   UNL     1     104.441 -82.042  22.981  1.00  0.00     0.000 C 
BRANCH   9  10
ATOM     10  C   UNL     1     105.673 -82.548  23.746  1.00  0.00     0.000 C 
BRANCH  10  11
ATOM     11  C   UNL     1     106.300 -83.793  23.098  1.00  0.00     0.000 C 
BRANCH  11  12
ATOM     12  C   UNL     1     107.832 -83.756  23.203  1.00  0.00     0.000 C 
BRANCH  12  13
ATOM     13  C   UNL     1     108.355 -82.483  23.893  1.00  0.00     0.006 C 
BRANCH  13  14
ATOM     14  C   UNL     1     109.838 -82.175  23.623  1.00  0.00     0.053 C 
BRANCH  14  15
ATOM     15  C   UNL     1     110.015 -80.989  22.722  1.00  0.00     0.041 C 
ATOM     16  O   UNL     1     111.104 -80.810  22.115  1.00  0.00    -0.550 OA
ATOM     17  O   UNL     1     108.987 -80.066  22.578  1.00  0.00    -0.550 OA
ENDBRANCH  14  15
ENDBRANCH  13  14
ENDBRANCH  12  13
ENDBRANCH  11  12
ENDBRANCH  10  11
ENDBRANCH   9  10
ENDBRANCH   8   9
ENDBRANCH   7   8
ENDBRANCH   6   7
ENDBRANCH   5   6
ENDBRANCH   4   5
ENDBRANCH   3   4
ENDBRANCH   2   3
ENDBRANCH   1   2
BRANCH   1  18
ATOM     18  C   UNL     1     105.193 -79.041  19.610  1.00  0.00     0.000 C 
BRANCH  18  19
ATOM     19  C   UNL     1     105.070 -77.553  19.989  1.00  0.00     0.000 C 
BRANCH  19  20
ATOM     20  C   UNL     1     106.226 -76.696  19.429  1.00  0.00     0.000 C 
BRANCH  20  21
ATOM     21  C   UNL     1     107.415 -76.534  20.392  1.00  0.00     0.000 C 
BRANCH  21  22
ATOM     22  C   UNL     1     107.027 -76.743  21.864  1.00  0.00     0.000 C 
BRANCH  22  23
ATOM     23  C   UNL     1     107.989 -76.054  22.850  1.00  0.00     0.000 C 
BRANCH  23  24
ATOM     24  C   UNL     1     107.906 -74.513  22.893  1.00  0.00    -0.000 C 
BRANCH  24  25
ATOM     25  C   UNL     1     107.336 -73.920  24.197  1.00  0.00    -0.000 C 
BRANCH  25  26
ATOM     26  C   UNL     1     106.041 -74.588  24.699  1.00  0.00    -0.000 C 
BRANCH  26  27
ATOM     27  C   UNL     1     104.741 -73.960  24.165  1.00  0.00    -0.000 C 
BRANCH  27  28
ATOM     28  C   UNL     1     104.024 -74.852  23.140  1.00  0.00    -0.000 C 
BRANCH  28  29
ATOM     29  C   UNL     1     104.216 -74.324  21.714  1.00  0.00    -0.000 C 
BRANCH  29  30
ATOM     30  C   UNL     1     104.531 -72.819  21.724  1.00  0.00    -0.000 C 
BRANCH  30  31
ATOM     31  C   UNL     1     104.958 -72.295  20.344  1.00  0.00    -0.003 C 
ATOM     32  C   UNL     1     106.226 -72.972  19.821  1.00  0.00     0.004 C 
ENDBRANCH  30  31
ENDBRANCH  29  30
ENDBRANCH  28  29
ENDBRANCH  27  28
ENDBRANCH  26  27
ENDBRANCH  25  26
ENDBRANCH  24  25
ENDBRANCH  23  24
ENDBRANCH  22  23
ENDBRANCH  21  22
ENDBRANCH  20  21
ENDBRANCH  19  20
ENDBRANCH  18  19
ENDBRANCH   1  18
TORSDOF 28
ENDMDL
MODEL 8
REMARK VINA RESULT:    -6.202      2.671      8.879
REMARK INTER + INTRA:         -20.049
REMARK INTER:                 -15.912
REMARK INTRA:                  -4.137
REMARK UNBOUND:                -3.695
REMARK SMILES CCCCCCCCCCCCCCCCCCCCCCCCCCCCCC(=O)[O-]
REMARK SMILES IDX 16 1 17 2 18 3 19 4 20 5 21 6 22 7 23 8 24 9 25 10 26 11
REMARK SMILES IDX 27 12 28 13 29 14 30 15 31 16 32 17 15 18 14 19 13 20 12 21
REMARK SMILES IDX 11 22 10 23 9 24 8 25 7 26 6 27 5 28 4 29 3 30 2 31 1 32
REMARK H PARENT
REMARK Flexibility Score: inf
ROOT
ATOM      1  C   UNL     1     109.064 -81.935  24.716  1.00  0.00     0.000 C 
ENDROOT
BRANCH   1   2
ATOM      2  C   UNL     1     107.628 -82.159  25.215  1.00  0.00     0.000 C 
BRANCH   2   3
ATOM      3  C   UNL     1     106.761 -82.804  24.121  1.00  0.00     0.000 C 
BRANCH   3   4
ATOM      4  C   UNL     1     105.704 -81.843  23.545  1.00  0.00     0.000 C 
BRANCH   4   5
ATOM      5  C   UNL     1     105.669 -81.759  22.006  1.00  0.00     0.000 C 
BRANCH   5   6
ATOM      6  C   UNL     1     106.124 -80.398  21.431  1.00  0.00     0.000 C 
BRANCH   6   7
ATOM      7  C   UNL     1     107.652 -80.197  21.439  1.00  0.00     0.000 C 
BRANCH   7   8
ATOM      8  C   UNL     1     108.179 -79.282  22.557  1.00  0.00     0.000 C 
BRANCH   8   9
ATOM      9  C   UNL     1     109.254 -78.298  22.061  1.00  0.00     0.000 C 
BRANCH   9  10
ATOM     10  C   UNL     1     108.977 -77.785  20.639  1.00  0.00     0.000 C 
BRANCH  10  11
ATOM     11  C   UNL     1     107.992 -76.605  20.618  1.00  0.00     0.000 C 
BRANCH  11  12
ATOM     12  C   UNL     1     107.491 -76.333  19.192  1.00  0.00     0.000 C 
BRANCH  12  13
ATOM     13  C   UNL     1     106.158 -75.565  19.160  1.00  0.00     0.006 C 
BRANCH  13  14
ATOM     14  C   UNL     1     105.341 -75.653  20.461  1.00  0.00     0.053 C 
BRANCH  14  15
ATOM     15  C   UNL     1     104.064 -76.417  20.278  1.00  0.00     0.041 C 
ATOM     16  O   UNL     1     102.956 -75.819  20.307  1.00  0.00    -0.550 OA
ATOM     17  O   UNL     1     104.097 -77.796  20.103  1.00  0.00    -0.550 OA
ENDBRANCH  14  15
ENDBRANCH  13  14
ENDBRANCH  12  13
ENDBRANCH  11  12
ENDBRANCH  10  11
ENDBRANCH   9  10
ENDBRANCH   8   9
ENDBRANCH   7   8
ENDBRANCH   6   7
ENDBRANCH   5   6
ENDBRANCH   4   5
ENDBRANCH   3   4
ENDBRANCH   2   3
ENDBRANCH   1   2
BRANCH   1  18
ATOM     18  C   UNL     1     109.372 -82.679  23.408  1.00  0.00     0.000 C 
BRANCH  18  19
ATOM     19  C   UNL     1     110.847 -82.555  22.981  1.00  0.00     0.000 C 
BRANCH  19  20
ATOM     20  C   UNL     1     111.029 -81.717  21.698  1.00  0.00     0.000 C 
BRANCH  20  21
ATOM     21  C   UNL     1     112.057 -82.293  20.708  1.00  0.00     0.000 C 
BRANCH  21  22
ATOM     22  C   UNL     1     113.107 -83.186  21.387  1.00  0.00     0.000 C 
BRANCH  22  23
ATOM     23  C   UNL     1     114.249 -83.608  20.443  1.00  0.00     0.000 C 
BRANCH  23  24
ATOM     24  C   UNL     1     115.664 -83.159  20.868  1.00  0.00    -0.000 C 
BRANCH  24  25
ATOM     25  C   UNL     1     115.713 -81.939  21.810  1.00  0.00    -0.000 C 
BRANCH  25  26
ATOM     26  C   UNL     1     116.656 -80.808  21.354  1.00  0.00    -0.000 C 
BRANCH  26  27
ATOM     27  C   UNL     1     115.959 -79.470  21.051  1.00  0.00    -0.000 C 
BRANCH  27  28
ATOM     28  C   UNL     1     114.511 -79.646  20.569  1.00  0.00    -0.000 C 
BRANCH  28  29
ATOM     29  C   UNL     1     113.522 -78.956  21.516  1.00  0.00    -0.000 C 
BRANCH  29  30
ATOM     30  C   UNL     1     112.753 -77.842  20.788  1.00  0.00    -0.000 C 
BRANCH  30  31
ATOM     31  C   UNL     1     112.970 -76.460  21.425  1.00  0.00    -0.003 C 
ATOM     32  C   UNL     1     114.004 -76.484  22.551  1.00  0.00     0.004 C 
ENDBRANCH  30  31
ENDBRANCH  29  30
ENDBRANCH  28  29
ENDBRANCH  27  28
ENDBRANCH  26  27
ENDBRANCH  25  26
ENDBRANCH  24  25
ENDBRANCH  23  24
ENDBRANCH  22  23
ENDBRANCH  21  22
ENDBRANCH  20  21
ENDBRANCH  19  20
ENDBRANCH  18  19
ENDBRANCH   1  18
TORSDOF 28
ENDMDL
MODEL 9
REMARK VINA RESULT:    -6.201      2.858      9.067
REMARK INTER + INTRA:         -20.046
REMARK INTER:                 -15.340
REMARK INTRA:                  -4.706
REMARK UNBOUND:                -3.695
REMARK SMILES CCCCCCCCCCCCCCCCCCCCCCCCCCCCCC(=O)[O-]
REMARK SMILES IDX 16 1 17 2 18 3 19 4 20 5 21 6 22 7 23 8 24 9 25 10 26 11
REMARK SMILES IDX 27 12 28 13 29 14 30 15 31 16 32 17 15 18 14 19 13 20 12 21
REMARK SMILES IDX 11 22 10 23 9 24 8 25 7 26 6 27 5 28 4 29 3 30 2 31 1 32
REMARK H PARENT
REMARK Flexibility Score: inf
ROOT
ATOM      1  C   UNL     1     115.289 -80.468  21.776  1.00  0.00     0.000 C 
ENDROOT
BRANCH   1   2
ATOM      2  C   UNL     1     116.151 -79.376  21.121  1.00  0.00     0.000 C 
BRANCH   2   3
ATOM      3  C   UNL     1     116.173 -78.104  21.983  1.00  0.00     0.000 C 
BRANCH   3   4
ATOM      4  C   UNL     1     115.506 -78.296  23.359  1.00  0.00     0.000 C 
BRANCH   4   5
ATOM      5  C   UNL     1     114.914 -77.015  23.981  1.00  0.00     0.000 C 
BRANCH   5   6
ATOM      6  C   UNL     1     114.703 -75.859  22.979  1.00  0.00     0.000 C 
BRANCH   6   7
ATOM      7  C   UNL     1     113.258 -75.321  22.941  1.00  0.00     0.000 C 
BRANCH   7   8
ATOM      8  C   UNL     1     112.527 -75.524  21.603  1.00  0.00     0.000 C 
BRANCH   8   9
ATOM      9  C   UNL     1     111.505 -76.673  21.655  1.00  0.00     0.000 C 
BRANCH   9  10
ATOM     10  C   UNL     1     112.169 -78.058  21.677  1.00  0.00     0.000 C 
BRANCH  10  11
ATOM     11  C   UNL     1     111.559 -79.022  20.646  1.00  0.00     0.000 C 
BRANCH  11  12
ATOM     12  C   UNL     1     111.140 -80.343  21.309  1.00  0.00     0.000 C 
BRANCH  12  13
ATOM     13  C   UNL     1     110.043 -80.158  22.373  1.00  0.00     0.006 C 
BRANCH  13  14
ATOM     14  C   UNL     1     110.119 -81.151  23.546  1.00  0.00     0.053 C 
BRANCH  14  15
ATOM     15  C   UNL     1     108.928 -82.061  23.597  1.00  0.00     0.041 C 
ATOM     16  O   UNL     1     109.073 -83.305  23.470  1.00  0.00    -0.550 OA
ATOM     17  O   UNL     1     107.653 -81.529  23.756  1.00  0.00    -0.550 OA
ENDBRANCH  14  15
ENDBRANCH  13  14
ENDBRANCH  12  13
ENDBRANCH  11  12
ENDBRANCH  10  11
ENDBRANCH   9  10
ENDBRANCH   8   9
ENDBRANCH   7   8
ENDBRANCH   6   7
ENDBRANCH   5   6
ENDBRANCH   4   5
ENDBRANCH   3   4
ENDBRANCH   2   3
ENDBRANCH   1   2
BRANCH   1  18
ATOM     18  C   UNL     1     114.595 -81.382  20.754  1.00  0.00     0.000 C 
BRANCH  18  19
ATOM     19  C   UNL     1     115.159 -82.816  20.754  1.00  0.00     0.000 C 
BRANCH  19  20
ATOM     20  C   UNL     1     116.309 -83.005  21.766  1.00  0.00     0.000 C 
BRANCH  20  21
ATOM     21  C   UNL     1     117.661 -83.367  21.126  1.00  0.00     0.000 C 
BRANCH  21  22
ATOM     22  C   UNL     1     118.859 -82.754  21.869  1.00  0.00     0.000 C 
BRANCH  22  23
ATOM     23  C   UNL     1     119.149 -81.298  21.458  1.00  0.00     0.000 C 
BRANCH  23  24
ATOM     24  C   UNL     1     119.733 -80.398  22.569  1.00  0.00    -0.000 C 
BRANCH  24  25
ATOM     25  C   UNL     1     118.754 -80.031  23.702  1.00  0.00    -0.000 C 
BRANCH  25  26
ATOM     26  C   UNL     1     119.194 -78.841  24.578  1.00  0.00    -0.000 C 
BRANCH  26  27
ATOM     27  C   UNL     1     118.157 -78.390  25.622  1.00  0.00    -0.000 C 
BRANCH  27  28
ATOM     28  C   UNL     1     118.173 -76.872  25.860  1.00  0.00    -0.000 C 
BRANCH  28  29
ATOM     29  C   UNL     1     118.575 -76.114  24.590  1.00  0.00    -0.000 C 
BRANCH  29  30
ATOM     30  C   UNL     1     117.919 -74.725  24.549  1.00  0.00    -0.000 C 
BRANCH  30  31
ATOM     31  C   UNL     1     116.894 -74.520  25.676  1.00  0.00    -0.003 C 
ATOM     32  C   UNL     1     117.160 -73.256  26.494  1.00  0.00     0.004 C 
ENDBRANCH  30  31
ENDBRANCH  29  30
ENDBRANCH  28  29
ENDBRANCH  27  28
ENDBRANCH  26  27
ENDBRANCH  25  26
ENDBRANCH  24  25
ENDBRANCH  23  24
ENDBRANCH  22  23
ENDBRANCH  21  22
ENDBRANCH  20  21
ENDBRANCH  19  20
ENDBRANCH  18  19
ENDBRANCH   1  18
TORSDOF 28
ENDMDL
