MODEL 1
REMARK VINA RESULT:    -1.432      0.000      0.000
REMARK INTER + INTRA:          -5.210
REMARK INTER:                  -2.605
REMARK INTRA:                  -2.605
REMARK UNBOUND:                -2.605
REMARK SMILES CCCCCCCCCCCCCC[C@@H](C)C(=O)[O-]
REMARK SMILES IDX 9 1 10 2 11 3 12 4 13 5 14 6 15 7 16 8 17 9 18 10 19 11 8 12
REMARK SMILES IDX 7 13 6 14 5 15 4 16 3 17 2 18 1 19
REMARK H PARENT
REMARK Flexibility Score: inf
ROOT
ATOM      1  C   UNL     1      17.512 -33.784   3.710  1.00  0.00     0.000 C 
ENDROOT
BRANCH   1   2
ATOM      2  C   UNL     1      16.680 -32.530   3.371  1.00  0.00     0.000 C 
BRANCH   2   3
ATOM      3  C   UNL     1      15.159 -32.758   3.313  1.00  0.00     0.000 C 
BRANCH   3   4
ATOM      4  C   UNL     1      14.643 -32.989   1.885  1.00  0.00     0.000 C 
BRANCH   4   5
ATOM      5  C   UNL     1      14.088 -34.409   1.724  1.00  0.00     0.001 C 
BRANCH   5   6
ATOM      6  C   UNL     1      15.147 -35.350   1.125  1.00  0.00     0.009 C 
BRANCH   6   7
ATOM      7  C   UNL     1      15.816 -34.767  -0.139  1.00  0.00     0.032 C 
ATOM      8  C   UNL     1      17.129 -35.483  -0.488  1.00  0.00     0.014 C 
BRANCH   7   9
ATOM      9  C   UNL     1      14.869 -34.847  -1.304  1.00  0.00     0.044 C 
ATOM     10  O   UNL     1      14.747 -35.917  -1.958  1.00  0.00    -0.550 OA
ATOM     11  O   UNL     1      14.119 -33.735  -1.666  1.00  0.00    -0.550 OA
ENDBRANCH   7   9
ENDBRANCH   6   7
ENDBRANCH   5   6
ENDBRANCH   4   5
ENDBRANCH   3   4
ENDBRANCH   2   3
ENDBRANCH   1   2
BRANCH   1  12
ATOM     12  C   UNL     1      18.675 -34.076   2.743  1.00  0.00     0.000 C 
BRANCH  12  13
ATOM     13  C   UNL     1      18.828 -33.071   1.583  1.00  0.00    -0.000 C 
BRANCH  13  14
ATOM     14  C   UNL     1      20.276 -32.667   1.256  1.00  0.00    -0.000 C 
BRANCH  14  15
ATOM     15  C   UNL     1      20.455 -31.145   1.124  1.00  0.00    -0.000 C 
BRANCH  15  16
ATOM     16  C   UNL     1      19.367 -30.350   1.866  1.00  0.00    -0.000 C 
BRANCH  16  17
ATOM     17  C   UNL     1      19.824 -29.682   3.177  1.00  0.00    -0.000 C 
BRANCH  17  18
ATOM     18  C   UNL     1      19.442 -30.472   4.446  1.00  0.00    -0.003 C 
ATOM     19  C   UNL     1      20.515 -31.485   4.848  1.00  0.00     0.004 C 
ENDBRANCH  17  18
ENDBRANCH  16  17
ENDBRANCH  15  16
ENDBRANCH  14  15
ENDBRANCH  13  14
ENDBRANCH  12  13
ENDBRANCH   1  12
TORSDOF 14
ENDMDL
MODEL 2
REMARK VINA RESULT:    -1.399      4.718      7.802
REMARK INTER + INTRA:          -5.150
REMARK INTER:                  -2.443
REMARK INTRA:                  -2.707
REMARK UNBOUND:                -2.605
REMARK SMILES CCCCCCCCCCCCCC[C@@H](C)C(=O)[O-]
REMARK SMILES IDX 9 1 10 2 11 3 12 4 13 5 14 6 15 7 16 8 17 9 18 10 19 11 8 12
REMARK SMILES IDX 7 13 6 14 5 15 4 16 3 17 2 18 1 19
REMARK H PARENT
REMARK Flexibility Score: inf
ROOT
ATOM      1  C   UNL     1      20.741 -29.544   2.050  1.00  0.00     0.000 C 
ENDROOT
BRANCH   1   2
ATOM      2  C   UNL     1      20.101 -29.702   0.656  1.00  0.00     0.000 C 
BRANCH   2   3
ATOM      3  C   UNL     1      21.076 -30.110  -0.463  1.00  0.00     0.000 C 
BRANCH   3   4
ATOM      4  C   UNL     1      20.919 -29.262  -1.733  1.00  0.00     0.000 C 
BRANCH   4   5
ATOM      5  C   UNL     1      20.520 -27.822  -1.386  1.00  0.00     0.001 C 
BRANCH   5   6
ATOM      6  C   UNL     1      21.741 -26.889  -1.421  1.00  0.00     0.009 C 
BRANCH   6   7
ATOM      7  C   UNL     1      22.005 -26.201  -0.064  1.00  0.00     0.032 C 
ATOM      8  C   UNL     1      20.720 -26.015   0.756  1.00  0.00     0.014 C 
BRANCH   7   9
ATOM      9  C   UNL     1      23.003 -26.998   0.729  1.00  0.00     0.044 C 
ATOM     10  O   UNL     1      23.733 -27.855   0.163  1.00  0.00    -0.550 OA
ATOM     11  O   UNL     1      23.126 -26.792   2.098  1.00  0.00    -0.550 OA
ENDBRANCH   7   9
ENDBRANCH   6   7
ENDBRANCH   5   6
ENDBRANCH   4   5
ENDBRANCH   3   4
ENDBRANCH   2   3
ENDBRANCH   1   2
BRANCH   1  12
ATOM     12  C   UNL     1      19.792 -29.033   3.150  1.00  0.00     0.000 C 
BRANCH  12  13
ATOM     13  C   UNL     1      19.243 -30.119   4.096  1.00  0.00    -0.000 C 
BRANCH  13  14
ATOM     14  C   UNL     1      18.104 -30.976   3.515  1.00  0.00    -0.000 C 
BRANCH  14  15
ATOM     15  C   UNL     1      18.493 -32.455   3.355  1.00  0.00    -0.000 C 
BRANCH  15  16
ATOM     16  C   UNL     1      18.517 -32.910   1.886  1.00  0.00    -0.000 C 
BRANCH  16  17
ATOM     17  C   UNL     1      19.900 -33.330   1.353  1.00  0.00    -0.000 C 
BRANCH  17  18
ATOM     18  C   UNL     1      21.024 -33.259   2.409  1.00  0.00    -0.003 C 
ATOM     19  C   UNL     1      22.370 -32.859   1.803  1.00  0.00     0.004 C 
ENDBRANCH  17  18
ENDBRANCH  16  17
ENDBRANCH  15  16
ENDBRANCH  14  15
ENDBRANCH  13  14
ENDBRANCH  12  13
ENDBRANCH   1  12
TORSDOF 14
ENDMDL
MODEL 3
REMARK VINA RESULT:    -1.373      2.473      4.948
REMARK INTER + INTRA:          -5.102
REMARK INTER:                  -2.482
REMARK INTRA:                  -2.620
REMARK UNBOUND:                -2.605
REMARK SMILES CCCCCCCCCCCCCC[C@@H](C)C(=O)[O-]
REMARK SMILES IDX 9 1 10 2 11 3 12 4 13 5 14 6 15 7 16 8 17 9 18 10 19 11 8 12
REMARK SMILES IDX 7 13 6 14 5 15 4 16 3 17 2 18 1 19
REMARK H PARENT
REMARK Flexibility Score: inf
ROOT
ATOM      1  C   UNL     1      16.734 -31.015   2.702  1.00  0.00     0.000 C 
ENDROOT
BRANCH   1   2
ATOM      2  C   UNL     1      17.310 -32.377   3.141  1.00  0.00     0.000 C 
BRANCH   2   3
ATOM      3  C   UNL     1      16.382 -33.582   2.902  1.00  0.00     0.000 C 
BRANCH   3   4
ATOM      4  C   UNL     1      15.521 -33.431   1.640  1.00  0.00     0.000 C 
BRANCH   4   5
ATOM      5  C   UNL     1      15.889 -34.490   0.593  1.00  0.00     0.001 C 
BRANCH   5   6
ATOM      6  C   UNL     1      14.868 -34.506  -0.557  1.00  0.00     0.009 C 
BRANCH   6   7
ATOM      7  C   UNL     1      13.483 -33.972  -0.132  1.00  0.00     0.032 C 
ATOM      8  C   UNL     1      12.851 -33.069  -1.202  1.00  0.00     0.014 C 
BRANCH   7   9
ATOM      9  C   UNL     1      12.562 -35.121   0.171  1.00  0.00     0.044 C 
ATOM     10  O   UNL     1      11.878 -35.652  -0.744  1.00  0.00    -0.550 OA
ATOM     11  O   UNL     1      12.460 -35.606   1.469  1.00  0.00    -0.550 OA
ENDBRANCH   7   9
ENDBRANCH   6   7
ENDBRANCH   5   6
ENDBRANCH   4   5
ENDBRANCH   3   4
ENDBRANCH   2   3
ENDBRANCH   1   2
BRANCH   1  12
ATOM     12  C   UNL     1      15.793 -30.346   3.722  1.00  0.00     0.000 C 
BRANCH  12  13
ATOM     13  C   UNL     1      14.585 -29.608   3.109  1.00  0.00    -0.000 C 
BRANCH  13  14
ATOM     14  C   UNL     1      13.668 -30.475   2.229  1.00  0.00    -0.000 C 
BRANCH  14  15
ATOM     15  C   UNL     1      12.357 -30.863   2.935  1.00  0.00    -0.000 C 
BRANCH  15  16
ATOM     16  C   UNL     1      12.097 -32.379   2.918  1.00  0.00    -0.000 C 
BRANCH  16  17
ATOM     17  C   UNL     1      12.824 -33.180   4.015  1.00  0.00    -0.000 C 
BRANCH  17  18
ATOM     18  C   UNL     1      13.071 -32.381   5.312  1.00  0.00    -0.003 C 
ATOM     19  C   UNL     1      14.368 -32.789   6.012  1.00  0.00     0.004 C 
ENDBRANCH  17  18
ENDBRANCH  16  17
ENDBRANCH  15  16
ENDBRANCH  14  15
ENDBRANCH  13  14
ENDBRANCH  12  13
ENDBRANCH   1  12
TORSDOF 14
ENDMDL
MODEL 4
REMARK VINA RESULT:    -1.367      3.064      6.276
REMARK INTER + INTRA:          -5.090
REMARK INTER:                  -3.117
REMARK INTRA:                  -1.973
REMARK UNBOUND:                -2.605
REMARK SMILES CCCCCCCCCCCCCC[C@@H](C)C(=O)[O-]
REMARK SMILES IDX 9 1 10 2 11 3 12 4 13 5 14 6 15 7 16 8 17 9 18 10 19 11 8 12
REMARK SMILES IDX 7 13 6 14 5 15 4 16 3 17 2 18 1 19
REMARK H PARENT
REMARK Flexibility Score: inf
ROOT
ATOM      1  C   UNL     1      16.212 -34.817   2.251  1.00  0.00     0.000 C 
ENDROOT
BRANCH   1   2
ATOM      2  C   UNL     1      16.795 -33.431   1.906  1.00  0.00     0.000 C 
BRANCH   2   3
ATOM      3  C   UNL     1      16.066 -32.241   2.556  1.00  0.00     0.000 C 
BRANCH   3   4
ATOM      4  C   UNL     1      17.017 -31.104   2.955  1.00  0.00     0.000 C 
BRANCH   4   5
ATOM      5  C   UNL     1      18.456 -31.413   2.524  1.00  0.00     0.001 C 
BRANCH   5   6
ATOM      6  C   UNL     1      19.129 -30.170   1.920  1.00  0.00     0.009 C 
BRANCH   6   7
ATOM      7  C   UNL     1      20.480 -30.492   1.246  1.00  0.00     0.032 C 
ATOM      8  C   UNL     1      20.703 -32.002   1.076  1.00  0.00     0.014 C 
BRANCH   7   9
ATOM      9  C   UNL     1      20.559 -29.813  -0.094  1.00  0.00     0.044 C 
ATOM     10  O   UNL     1      21.361 -30.226  -0.974  1.00  0.00    -0.550 OA
ATOM     11  O   UNL     1      19.743 -28.723  -0.369  1.00  0.00    -0.550 OA
ENDBRANCH   7   9
ENDBRANCH   6   7
ENDBRANCH   5   6
ENDBRANCH   4   5
ENDBRANCH   3   4
ENDBRANCH   2   3
ENDBRANCH   1   2
BRANCH   1  12
ATOM     12  C   UNL     1      16.410 -35.896   1.170  1.00  0.00     0.000 C 
BRANCH  12  13
ATOM     13  C   UNL     1      16.499 -35.364  -0.275  1.00  0.00    -0.000 C 
BRANCH  13  14
ATOM     14  C   UNL     1      15.229 -35.560  -1.122  1.00  0.00    -0.000 C 
BRANCH  14  15
ATOM     15  C   UNL     1      14.493 -34.241  -1.407  1.00  0.00    -0.000 C 
BRANCH  15  16
ATOM     16  C   UNL     1      13.133 -34.150  -0.695  1.00  0.00    -0.000 C 
BRANCH  16  17
ATOM     17  C   UNL     1      13.069 -33.141   0.468  1.00  0.00    -0.000 C 
BRANCH  17  18
ATOM     18  C   UNL     1      12.718 -33.779   1.829  1.00  0.00    -0.003 C 
ATOM     19  C   UNL     1      12.493 -35.288   1.727  1.00  0.00     0.004 C 
ENDBRANCH  17  18
ENDBRANCH  16  17
ENDBRANCH  15  16
ENDBRANCH  14  15
ENDBRANCH  13  14
ENDBRANCH  12  13
ENDBRANCH   1  12
TORSDOF 14
ENDMDL
MODEL 5
REMARK VINA RESULT:    -1.362      1.704      2.590
REMARK INTER + INTRA:          -5.081
REMARK INTER:                  -2.607
REMARK INTRA:                  -2.474
REMARK UNBOUND:                -2.605
REMARK SMILES CCCCCCCCCCCCCC[C@@H](C)C(=O)[O-]
REMARK SMILES IDX 9 1 10 2 11 3 12 4 13 5 14 6 15 7 16 8 17 9 18 10 19 11 8 12
REMARK SMILES IDX 7 13 6 14 5 15 4 16 3 17 2 18 1 19
REMARK H PARENT
REMARK Flexibility Score: inf
ROOT
ATOM      1  C   UNL     1      17.942 -32.255   4.551  1.00  0.00     0.000 C 
ENDROOT
BRANCH   1   2
ATOM      2  C   UNL     1      17.605 -30.754   4.657  1.00  0.00     0.000 C 
BRANCH   2   3
ATOM      3  C   UNL     1      16.440 -30.287   3.766  1.00  0.00     0.000 C 
BRANCH   3   4
ATOM      4  C   UNL     1      16.090 -31.295   2.661  1.00  0.00     0.000 C 
BRANCH   4   5
ATOM      5  C   UNL     1      14.638 -31.770   2.790  1.00  0.00     0.001 C 
BRANCH   5   6
ATOM      6  C   UNL     1      14.489 -33.223   2.311  1.00  0.00     0.009 C 
BRANCH   6   7
ATOM      7  C   UNL     1      15.837 -33.858   1.906  1.00  0.00     0.032 C 
ATOM      8  C   UNL     1      16.253 -34.997   2.849  1.00  0.00     0.014 C 
BRANCH   7   9
ATOM      9  C   UNL     1      15.759 -34.371   0.495  1.00  0.00     0.044 C 
ATOM     10  O   UNL     1      16.659 -35.125   0.036  1.00  0.00    -0.550 OA
ATOM     11  O   UNL     1      14.687 -34.014  -0.315  1.00  0.00    -0.550 OA
ENDBRANCH   7   9
ENDBRANCH   6   7
ENDBRANCH   5   6
ENDBRANCH   4   5
ENDBRANCH   3   4
ENDBRANCH   2   3
ENDBRANCH   1   2
BRANCH   1  12
ATOM     12  C   UNL     1      19.417 -32.572   4.241  1.00  0.00     0.000 C 
BRANCH  12  13
ATOM     13  C   UNL     1      19.656 -33.357   2.936  1.00  0.00    -0.000 C 
BRANCH  13  14
ATOM     14  C   UNL     1      19.254 -32.619   1.647  1.00  0.00    -0.000 C 
BRANCH  14  15
ATOM     15  C   UNL     1      20.207 -31.463   1.300  1.00  0.00    -0.000 C 
BRANCH  15  16
ATOM     16  C   UNL     1      19.554 -30.081   1.471  1.00  0.00    -0.000 C 
BRANCH  16  17
ATOM     17  C   UNL     1      20.221 -29.166   2.517  1.00  0.00    -0.000 C 
BRANCH  17  18
ATOM     18  C   UNL     1      20.603 -27.773   1.975  1.00  0.00    -0.003 C 
ATOM     19  C   UNL     1      20.623 -27.726   0.446  1.00  0.00     0.004 C 
ENDBRANCH  17  18
ENDBRANCH  16  17
ENDBRANCH  15  16
ENDBRANCH  14  15
ENDBRANCH  13  14
ENDBRANCH  12  13
ENDBRANCH   1  12
TORSDOF 14
ENDMDL
MODEL 6
REMARK VINA RESULT:    -1.339      4.260      7.314
REMARK INTER + INTRA:          -5.040
REMARK INTER:                  -2.453
REMARK INTRA:                  -2.587
REMARK UNBOUND:                -2.605
REMARK SMILES CCCCCCCCCCCCCC[C@@H](C)C(=O)[O-]
REMARK SMILES IDX 9 1 10 2 11 3 12 4 13 5 14 6 15 7 16 8 17 9 18 10 19 11 8 12
REMARK SMILES IDX 7 13 6 14 5 15 4 16 3 17 2 18 1 19
REMARK H PARENT
REMARK Flexibility Score: inf
ROOT
ATOM      1  C   UNL     1      18.613 -29.609   3.725  1.00  0.00     0.000 C 
ENDROOT
BRANCH   1   2
ATOM      2  C   UNL     1      19.984 -30.310   3.638  1.00  0.00     0.000 C 
BRANCH   2   3
ATOM      3  C   UNL     1      20.547 -30.458   2.213  1.00  0.00     0.000 C 
BRANCH   3   4
ATOM      4  C   UNL     1      19.524 -30.099   1.125  1.00  0.00     0.000 C 
BRANCH   4   5
ATOM      5  C   UNL     1      20.114 -29.099   0.124  1.00  0.00     0.001 C 
BRANCH   5   6
ATOM      6  C   UNL     1      21.192 -28.227   0.787  1.00  0.00     0.009 C 
BRANCH   6   7
ATOM      7  C   UNL     1      20.653 -26.851   1.236  1.00  0.00     0.032 C 
ATOM      8  C   UNL     1      20.884 -26.593   2.732  1.00  0.00     0.014 C 
BRANCH   7   9
ATOM      9  C   UNL     1      21.297 -25.759   0.427  1.00  0.00     0.044 C 
ATOM     10  O   UNL     1      22.368 -25.220   0.817  1.00  0.00    -0.550 OA
ATOM     11  O   UNL     1      20.712 -25.338  -0.760  1.00  0.00    -0.550 OA
ENDBRANCH   7   9
ENDBRANCH   6   7
ENDBRANCH   5   6
ENDBRANCH   4   5
ENDBRANCH   3   4
ENDBRANCH   2   3
ENDBRANCH   1   2
BRANCH   1  12
ATOM     12  C   UNL     1      17.662 -30.167   4.801  1.00  0.00     0.000 C 
BRANCH  12  13
ATOM     13  C   UNL     1      16.329 -30.728   4.267  1.00  0.00    -0.000 C 
BRANCH  13  14
ATOM     14  C   UNL     1      16.341 -31.139   2.784  1.00  0.00    -0.000 C 
BRANCH  14  15
ATOM     15  C   UNL     1      15.604 -32.464   2.526  1.00  0.00    -0.000 C 
BRANCH  15  16
ATOM     16  C   UNL     1      16.562 -33.640   2.272  1.00  0.00    -0.000 C 
BRANCH  16  17
ATOM     17  C   UNL     1      18.028 -33.245   2.008  1.00  0.00    -0.000 C 
BRANCH  17  18
ATOM     18  C   UNL     1      19.032 -33.879   2.994  1.00  0.00    -0.003 C 
ATOM     19  C   UNL     1      18.591 -33.733   4.451  1.00  0.00     0.004 C 
ENDBRANCH  17  18
ENDBRANCH  16  17
ENDBRANCH  15  16
ENDBRANCH  14  15
ENDBRANCH  13  14
ENDBRANCH  12  13
ENDBRANCH   1  12
TORSDOF 14
ENDMDL
MODEL 7
REMARK VINA RESULT:    -1.334      2.707      4.283
REMARK INTER + INTRA:          -5.030
REMARK INTER:                  -2.561
REMARK INTRA:                  -2.470
REMARK UNBOUND:                -2.605
REMARK SMILES CCCCCCCCCCCCCC[C@@H](C)C(=O)[O-]
REMARK SMILES IDX 9 1 10 2 11 3 12 4 13 5 14 6 15 7 16 8 17 9 18 10 19 11 8 12
REMARK SMILES IDX 7 13 6 14 5 15 4 16 3 17 2 18 1 19
REMARK H PARENT
REMARK Flexibility Score: inf
ROOT
ATOM      1  C   UNL     1      15.778 -32.430   3.697  1.00  0.00     0.000 C 
ENDROOT
BRANCH   1   2
ATOM      2  C   UNL     1      14.461 -33.053   3.191  1.00  0.00     0.000 C 
BRANCH   2   3
ATOM      3  C   UNL     1      13.793 -32.300   2.026  1.00  0.00     0.000 C 
BRANCH   3   4
ATOM      4  C   UNL     1      13.360 -33.230   0.884  1.00  0.00     0.000 C 
BRANCH   4   5
ATOM      5  C   UNL     1      14.224 -34.497   0.848  1.00  0.00     0.001 C 
BRANCH   5   6
ATOM      6  C   UNL     1      15.045 -34.567  -0.450  1.00  0.00     0.009 C 
BRANCH   6   7
ATOM      7  C   UNL     1      16.448 -35.177  -0.235  1.00  0.00     0.032 C 
ATOM      8  C   UNL     1      17.229 -34.467   0.880  1.00  0.00     0.014 C 
BRANCH   7   9
ATOM      9  C   UNL     1      16.326 -36.642   0.084  1.00  0.00     0.044 C 
ATOM     10  O   UNL     1      15.817 -37.438  -0.749  1.00  0.00    -0.550 OA
ATOM     11  O   UNL     1      16.777 -37.126   1.305  1.00  0.00    -0.550 OA
ENDBRANCH   7   9
ENDBRANCH   6   7
ENDBRANCH   5   6
ENDBRANCH   4   5
ENDBRANCH   3   4
ENDBRANCH   2   3
ENDBRANCH   1   2
BRANCH   1  12
ATOM     12  C   UNL     1      16.404 -31.378   2.762  1.00  0.00     0.000 C 
BRANCH  12  13
ATOM     13  C   UNL     1      17.097 -30.200   3.475  1.00  0.00    -0.000 C 
BRANCH  13  14
ATOM     14  C   UNL     1      16.754 -30.047   4.967  1.00  0.00    -0.000 C 
BRANCH  14  15
ATOM     15  C   UNL     1      15.768 -28.898   5.238  1.00  0.00    -0.000 C 
BRANCH  15  16
ATOM     16  C   UNL     1      14.325 -29.387   5.447  1.00  0.00    -0.000 C 
BRANCH  16  17
ATOM     17  C   UNL     1      13.420 -29.310   4.202  1.00  0.00    -0.000 C 
BRANCH  17  18
ATOM     18  C   UNL     1      13.813 -28.191   3.214  1.00  0.00    -0.003 C 
ATOM     19  C   UNL     1      13.901 -28.690   1.772  1.00  0.00     0.004 C 
ENDBRANCH  17  18
ENDBRANCH  16  17
ENDBRANCH  15  16
ENDBRANCH  14  15
ENDBRANCH  13  14
ENDBRANCH  12  13
ENDBRANCH   1  12
TORSDOF 14
ENDMDL
MODEL 8
REMARK VINA RESULT:    -1.324      1.739      4.171
REMARK INTER + INTRA:          -5.012
REMARK INTER:                  -2.677
REMARK INTRA:                  -2.336
REMARK UNBOUND:                -2.605
REMARK SMILES CCCCCCCCCCCCCC[C@@H](C)C(=O)[O-]
REMARK SMILES IDX 9 1 10 2 11 3 12 4 13 5 14 6 15 7 16 8 17 9 18 10 19 11 8 12
REMARK SMILES IDX 7 13 6 14 5 15 4 16 3 17 2 18 1 19
REMARK H PARENT
REMARK Flexibility Score: inf
ROOT
ATOM      1  C   UNL     1      18.698 -31.564   3.766  1.00  0.00     0.000 C 
ENDROOT
BRANCH   1   2
ATOM      2  C   UNL     1      18.714 -33.018   3.254  1.00  0.00     0.000 C 
BRANCH   2   3
ATOM      3  C   UNL     1      19.294 -33.201   1.840  1.00  0.00     0.000 C 
BRANCH   3   4
ATOM      4  C   UNL     1      18.501 -34.209   0.994  1.00  0.00     0.000 C 
BRANCH   4   5
ATOM      5  C   UNL     1      17.013 -34.185   1.362  1.00  0.00     0.001 C 
BRANCH   5   6
ATOM      6  C   UNL     1      16.201 -35.098   0.430  1.00  0.00     0.009 C 
BRANCH   6   7
ATOM      7  C   UNL     1      14.734 -34.640   0.276  1.00  0.00     0.032 C 
ATOM      8  C   UNL     1      14.409 -33.417   1.146  1.00  0.00     0.014 C 
BRANCH   7   9
ATOM      9  C   UNL     1      14.443 -34.328  -1.167  1.00  0.00     0.044 C 
ATOM     10  O   UNL     1      15.041 -34.945  -2.088  1.00  0.00    -0.550 OA
ATOM     11  O   UNL     1      13.508 -33.353  -1.491  1.00  0.00    -0.550 OA
ENDBRANCH   7   9
ENDBRANCH   6   7
ENDBRANCH   5   6
ENDBRANCH   4   5
ENDBRANCH   3   4
ENDBRANCH   2   3
ENDBRANCH   1   2
BRANCH   1  12
ATOM     12  C   UNL     1      17.949 -30.562   2.867  1.00  0.00     0.000 C 
BRANCH  12  13
ATOM     13  C   UNL     1      16.421 -30.761   2.799  1.00  0.00    -0.000 C 
BRANCH  13  14
ATOM     14  C   UNL     1      15.600 -29.813   3.690  1.00  0.00    -0.000 C 
BRANCH  14  15
ATOM     15  C   UNL     1      15.035 -30.509   4.940  1.00  0.00    -0.000 C 
BRANCH  15  16
ATOM     16  C   UNL     1      14.533 -31.935   4.653  1.00  0.00    -0.000 C 
BRANCH  16  17
ATOM     17  C   UNL     1      15.093 -33.026   5.587  1.00  0.00    -0.000 C 
BRANCH  17  18
ATOM     18  C   UNL     1      15.723 -34.222   4.841  1.00  0.00    -0.003 C 
ATOM     19  C   UNL     1      14.673 -35.210   4.332  1.00  0.00     0.004 C 
ENDBRANCH  17  18
ENDBRANCH  16  17
ENDBRANCH  15  16
ENDBRANCH  14  15
ENDBRANCH  13  14
ENDBRANCH  12  13
ENDBRANCH   1  12
TORSDOF 14
ENDMDL
MODEL 9
REMARK VINA RESULT:    -1.302      2.318      4.278
REMARK INTER + INTRA:          -4.972
REMARK INTER:                  -2.844
REMARK INTRA:                  -2.128
REMARK UNBOUND:                -2.605
REMARK SMILES CCCCCCCCCCCCCC[C@@H](C)C(=O)[O-]
REMARK SMILES IDX 9 1 10 2 11 3 12 4 13 5 14 6 15 7 16 8 17 9 18 10 19 11 8 12
REMARK SMILES IDX 7 13 6 14 5 15 4 16 3 17 2 18 1 19
REMARK H PARENT
REMARK Flexibility Score: inf
ROOT
ATOM      1  C   UNL     1      18.597 -33.587   3.689  1.00  0.00     0.000 C 
ENDROOT
BRANCH   1   2
ATOM      2  C   UNL     1      18.919 -33.433   2.189  1.00  0.00     0.000 C 
BRANCH   2   3
ATOM      3  C   UNL     1      17.912 -34.103   1.238  1.00  0.00     0.000 C 
BRANCH   3   4
ATOM      4  C   UNL     1      17.129 -35.245   1.903  1.00  0.00     0.000 C 
BRANCH   4   5
ATOM      5  C   UNL     1      15.640 -34.897   2.015  1.00  0.00     0.001 C 
BRANCH   5   6
ATOM      6  C   UNL     1      15.249 -33.813   0.997  1.00  0.00     0.009 C 
BRANCH   6   7
ATOM      7  C   UNL     1      13.772 -33.916   0.555  1.00  0.00     0.032 C 
ATOM      8  C   UNL     1      12.944 -32.702   1.001  1.00  0.00     0.014 C 
BRANCH   7   9
ATOM      9  C   UNL     1      13.694 -34.063  -0.939  1.00  0.00     0.044 C 
ATOM     10  O   UNL     1      14.697 -34.448  -1.598  1.00  0.00    -0.550 OA
ATOM     11  O   UNL     1      12.509 -33.774  -1.604  1.00  0.00    -0.550 OA
ENDBRANCH   7   9
ENDBRANCH   6   7
ENDBRANCH   5   6
ENDBRANCH   4   5
ENDBRANCH   3   4
ENDBRANCH   2   3
ENDBRANCH   1   2
BRANCH   1  12
ATOM     12  C   UNL     1      17.918 -32.367   4.339  1.00  0.00     0.000 C 
BRANCH  12  13
ATOM     13  C   UNL     1      17.828 -31.115   3.443  1.00  0.00    -0.000 C 
BRANCH  13  14
ATOM     14  C   UNL     1      16.457 -30.878   2.788  1.00  0.00    -0.000 C 
BRANCH  14  15
ATOM     15  C   UNL     1      15.284 -31.311   3.684  1.00  0.00    -0.000 C 
BRANCH  15  16
ATOM     16  C   UNL     1      14.097 -30.335   3.626  1.00  0.00    -0.000 C 
BRANCH  16  17
ATOM     17  C   UNL     1      14.192 -29.253   2.533  1.00  0.00    -0.000 C 
BRANCH  17  18
ATOM     18  C   UNL     1      12.878 -29.037   1.753  1.00  0.00    -0.003 C 
ATOM     19  C   UNL     1      13.028 -28.010   0.630  1.00  0.00     0.004 C 
ENDBRANCH  17  18
ENDBRANCH  16  17
ENDBRANCH  15  16
ENDBRANCH  14  15
ENDBRANCH  13  14
ENDBRANCH  12  13
ENDBRANCH   1  12
TORSDOF 14
ENDMDL
