MODEL 1
REMARK VINA RESULT:    -5.784      0.000      0.000
REMARK INTER + INTRA:         -10.644
REMARK INTER:                  -8.996
REMARK INTRA:                  -1.648
REMARK UNBOUND:                -1.648
REMARK SMILES COc1cc(CNC(=O)CCCCC=CC(C)C)ccc1O
REMARK SMILES IDX 11 1 12 2 13 3 14 4 15 5 16 6 17 7 18 8 10 9 8 10 9 11 7 12
REMARK SMILES IDX 6 14 5 15 4 16 19 17 3 18 20 19 21 20 2 21 1 22 22 23
REMARK H PARENT 7 13 22 24
REMARK Flexibility Score: inf
ROOT
ATOM      1  C   UNL     1       0.494  55.902  10.410  1.00  0.00     0.010 C 
ENDROOT
BRANCH   1   2
ATOM      2  C   UNL     1       0.599  57.428  10.600  1.00  0.00     0.005 C 
BRANCH   2   3
ATOM      3  C   UNL     1       1.894  57.909  11.275  1.00  0.00     0.027 C 
BRANCH   3   4
ATOM      4  C   UNL     1       2.933  58.400  10.296  1.00  0.00    -0.031 C 
ATOM      5  C   UNL     1       3.952  57.668   9.808  1.00  0.00    -0.028 C 
BRANCH   5   6
ATOM      6  C   UNL     1       4.236  56.221  10.151  1.00  0.00     0.005 C 
ATOM      7  C   UNL     1       5.708  56.063  10.540  1.00  0.00     0.012 C 
ATOM      8  C   UNL     1       3.899  55.334   8.949  1.00  0.00     0.012 C 
ENDBRANCH   5   6
ENDBRANCH   3   4
ENDBRANCH   2   3
ENDBRANCH   1   2
BRANCH   1   9
ATOM      9  C   UNL     1      -0.233  55.479   9.121  1.00  0.00     0.100 C 
BRANCH   9  10
ATOM     10  C   UNL     1       0.211  54.132   8.628  1.00  0.00     0.220 C 
ATOM     11  O   UNL     1       0.089  53.126   9.379  1.00  0.00    -0.275 OA
ATOM     12  N   UNL     1       0.790  53.990   7.322  1.00  0.00    -0.352 N 
ATOM     13  H   UNL     1       0.895  54.836   6.715  1.00  0.00     0.163 HD
BRANCH  12  14
ATOM     14  C   UNL     1       1.201  52.697   6.783  1.00  0.00     0.151 C 
BRANCH  14  15
ATOM     15  C   UNL     1       2.694  52.543   6.880  1.00  0.00    -0.025 A 
ATOM     16  C   UNL     1       3.537  53.105   5.908  1.00  0.00     0.056 A 
ATOM     17  C   UNL     1       3.253  51.800   7.930  1.00  0.00     0.009 A 
ATOM     18  C   UNL     1       4.933  52.935   5.987  1.00  0.00     0.160 A 
ATOM     19  C   UNL     1       4.636  51.630   8.014  1.00  0.00     0.050 A 
ATOM     20  C   UNL     1       5.477  52.194   7.047  1.00  0.00     0.157 A 
BRANCH  18  21
ATOM     21  O   UNL     1       5.807  53.481   5.035  1.00  0.00    -0.493 OA
ATOM     22  C   UNL     1       5.454  54.501   4.105  1.00  0.00     0.278 C 
ENDBRANCH  18  21
BRANCH  20  23
ATOM     23  O   UNL     1       6.857  52.022   7.131  1.00  0.00    -0.504 OA
ATOM     24  H   UNL     1       7.494  52.536   6.532  1.00  0.00     0.293 HD
ENDBRANCH  20  23
ENDBRANCH  14  15
ENDBRANCH  12  14
ENDBRANCH   9  10
ENDBRANCH   1   9
TORSDOF 10
ENDMDL
MODEL 2
REMARK VINA RESULT:    -5.519      1.641      3.309
REMARK INTER + INTRA:         -10.233
REMARK INTER:                  -8.621
REMARK INTRA:                  -1.612
REMARK UNBOUND:                -1.648
REMARK SMILES COc1cc(CNC(=O)CCCCC=CC(C)C)ccc1O
REMARK SMILES IDX 11 1 12 2 13 3 14 4 15 5 16 6 17 7 18 8 10 9 8 10 9 11 7 12
REMARK SMILES IDX 6 14 5 15 4 16 19 17 3 18 20 19 21 20 2 21 1 22 22 23
REMARK H PARENT 7 13 22 24
REMARK Flexibility Score: inf
ROOT
ATOM      1  C   UNL     1       2.678  51.946  10.593  1.00  0.00     0.010 C 
ENDROOT
BRANCH   1   2
ATOM      2  C   UNL     1       4.150  52.292  10.290  1.00  0.00     0.005 C 
BRANCH   2   3
ATOM      3  C   UNL     1       4.593  53.692  10.748  1.00  0.00     0.027 C 
BRANCH   3   4
ATOM      4  C   UNL     1       4.987  54.597   9.606  1.00  0.00    -0.031 C 
ATOM      5  C   UNL     1       4.771  55.925   9.553  1.00  0.00    -0.028 C 
BRANCH   5   6
ATOM      6  C   UNL     1       4.099  56.748  10.631  1.00  0.00     0.005 C 
ATOM      7  C   UNL     1       3.375  57.937   9.995  1.00  0.00     0.012 C 
ATOM      8  C   UNL     1       5.149  57.232  11.636  1.00  0.00     0.012 C 
ENDBRANCH   5   6
ENDBRANCH   3   4
ENDBRANCH   2   3
ENDBRANCH   1   2
BRANCH   1   9
ATOM      9  C   UNL     1       1.760  53.175  10.727  1.00  0.00     0.100 C 
BRANCH   9  10
ATOM     10  C   UNL     1       1.429  53.791   9.398  1.00  0.00     0.220 C 
ATOM     11  O   UNL     1       1.106  55.008   9.343  1.00  0.00    -0.275 OA
ATOM     12  N   UNL     1       1.460  52.998   8.201  1.00  0.00    -0.352 N 
ATOM     13  H   UNL     1       1.719  51.987   8.265  1.00  0.00     0.163 HD
BRANCH  12  14
ATOM     14  C   UNL     1       1.186  53.561   6.882  1.00  0.00     0.151 C 
BRANCH  14  15
ATOM     15  C   UNL     1       2.471  53.780   6.132  1.00  0.00    -0.025 A 
ATOM     16  C   UNL     1       3.613  53.019   6.430  1.00  0.00     0.056 A 
ATOM     17  C   UNL     1       2.546  54.779   5.151  1.00  0.00     0.009 A 
ATOM     18  C   UNL     1       4.823  53.247   5.745  1.00  0.00     0.160 A 
ATOM     19  C   UNL     1       3.742  55.008   4.468  1.00  0.00     0.050 A 
ATOM     20  C   UNL     1       4.880  54.245   4.762  1.00  0.00     0.157 A 
BRANCH  18  21
ATOM     21  O   UNL     1       5.985  52.506   6.015  1.00  0.00    -0.493 OA
ATOM     22  C   UNL     1       6.344  52.006   7.299  1.00  0.00     0.278 C 
ENDBRANCH  18  21
BRANCH  20  23
ATOM     23  O   UNL     1       6.074  54.476   4.081  1.00  0.00    -0.504 OA
ATOM     24  H   UNL     1       6.907  54.792   4.563  1.00  0.00     0.293 HD
ENDBRANCH  20  23
ENDBRANCH  14  15
ENDBRANCH  12  14
ENDBRANCH   9  10
ENDBRANCH   1   9
TORSDOF 10
ENDMDL
MODEL 3
REMARK VINA RESULT:    -5.467      2.523      3.867
REMARK INTER + INTRA:         -10.152
REMARK INTER:                  -8.729
REMARK INTRA:                  -1.423
REMARK UNBOUND:                -1.648
REMARK SMILES COc1cc(CNC(=O)CCCCC=CC(C)C)ccc1O
REMARK SMILES IDX 11 1 12 2 13 3 14 4 15 5 16 6 17 7 18 8 10 9 8 10 9 11 7 12
REMARK SMILES IDX 6 14 5 15 4 16 19 17 3 18 20 19 21 20 2 21 1 22 22 23
REMARK H PARENT 7 13 22 24
REMARK Flexibility Score: inf
ROOT
ATOM      1  C   UNL     1       3.628  52.616  11.592  1.00  0.00     0.010 C 
ENDROOT
BRANCH   1   2
ATOM      2  C   UNL     1       4.178  53.985  11.140  1.00  0.00     0.005 C 
BRANCH   2   3
ATOM      3  C   UNL     1       3.310  54.720  10.105  1.00  0.00     0.027 C 
BRANCH   3   4
ATOM      4  C   UNL     1       4.084  55.720   9.279  1.00  0.00    -0.031 C 
ATOM      5  C   UNL     1       4.228  57.026   9.569  1.00  0.00    -0.028 C 
BRANCH   5   6
ATOM      6  C   UNL     1       3.644  57.725  10.778  1.00  0.00     0.005 C 
ATOM      7  C   UNL     1       3.072  59.083  10.361  1.00  0.00     0.012 C 
ATOM      8  C   UNL     1       4.732  57.904  11.842  1.00  0.00     0.012 C 
ENDBRANCH   5   6
ENDBRANCH   3   4
ENDBRANCH   2   3
ENDBRANCH   1   2
BRANCH   1   9
ATOM      9  C   UNL     1       4.592  51.442  11.346  1.00  0.00     0.100 C 
BRANCH   9  10
ATOM     10  C   UNL     1       4.589  50.988   9.914  1.00  0.00     0.220 C 
ATOM     11  O   UNL     1       3.896  49.987   9.584  1.00  0.00    -0.275 OA
ATOM     12  N   UNL     1       5.381  51.673   8.933  1.00  0.00    -0.352 N 
ATOM     13  H   UNL     1       5.959  52.494   9.225  1.00  0.00     0.163 HD
BRANCH  12  14
ATOM     14  C   UNL     1       5.380  51.295   7.522  1.00  0.00     0.151 C 
BRANCH  14  15
ATOM     15  C   UNL     1       4.700  52.355   6.700  1.00  0.00    -0.025 A 
ATOM     16  C   UNL     1       5.394  53.025   5.680  1.00  0.00     0.056 A 
ATOM     17  C   UNL     1       3.370  52.707   6.975  1.00  0.00     0.009 A 
ATOM     18  C   UNL     1       4.762  54.038   4.931  1.00  0.00     0.160 A 
ATOM     19  C   UNL     1       2.739  53.708   6.234  1.00  0.00     0.050 A 
ATOM     20  C   UNL     1       3.430  54.374   5.214  1.00  0.00     0.157 A 
BRANCH  18  21
ATOM     21  O   UNL     1       5.423  54.730   3.904  1.00  0.00    -0.493 OA
ATOM     22  C   UNL     1       6.715  54.396   3.407  1.00  0.00     0.278 C 
ENDBRANCH  18  21
BRANCH  20  23
ATOM     23  O   UNL     1       2.800  55.374   4.476  1.00  0.00    -0.504 OA
ATOM     24  H   UNL     1       2.056  55.937   4.873  1.00  0.00     0.293 HD
ENDBRANCH  20  23
ENDBRANCH  14  15
ENDBRANCH  12  14
ENDBRANCH   9  10
ENDBRANCH   1   9
TORSDOF 10
ENDMDL
MODEL 4
REMARK VINA RESULT:    -5.461      1.206      2.245
REMARK INTER + INTRA:         -10.143
REMARK INTER:                  -8.605
REMARK INTRA:                  -1.538
REMARK UNBOUND:                -1.648
REMARK SMILES COc1cc(CNC(=O)CCCCC=CC(C)C)ccc1O
REMARK SMILES IDX 11 1 12 2 13 3 14 4 15 5 16 6 17 7 18 8 10 9 8 10 9 11 7 12
REMARK SMILES IDX 6 14 5 15 4 16 19 17 3 18 20 19 21 20 2 21 1 22 22 23
REMARK H PARENT 7 13 22 24
REMARK Flexibility Score: inf
ROOT
ATOM      1  C   UNL     1       0.246  55.417  10.883  1.00  0.00     0.010 C 
ENDROOT
BRANCH   1   2
ATOM      2  C   UNL     1       0.685  56.867  10.592  1.00  0.00     0.005 C 
BRANCH   2   3
ATOM      3  C   UNL     1       2.105  57.221  11.067  1.00  0.00     0.027 C 
BRANCH   3   4
ATOM      4  C   UNL     1       3.055  57.527   9.935  1.00  0.00    -0.031 C 
ATOM      5  C   UNL     1       4.227  56.904   9.711  1.00  0.00    -0.028 C 
BRANCH   5   6
ATOM      6  C   UNL     1       4.799  55.783  10.552  1.00  0.00     0.005 C 
ATOM      7  C   UNL     1       6.120  56.234  11.182  1.00  0.00     0.012 C 
ATOM      8  C   UNL     1       5.016  54.544   9.677  1.00  0.00     0.012 C 
ENDBRANCH   5   6
ENDBRANCH   3   4
ENDBRANCH   2   3
ENDBRANCH   1   2
BRANCH   1   9
ATOM      9  C   UNL     1       1.383  54.384  10.774  1.00  0.00     0.100 C 
BRANCH   9  10
ATOM     10  C   UNL     1       1.348  53.629   9.477  1.00  0.00     0.220 C 
ATOM     11  O   UNL     1       1.377  52.369   9.493  1.00  0.00    -0.275 OA
ATOM     12  N   UNL     1       1.302  54.333   8.227  1.00  0.00    -0.352 N 
ATOM     13  H   UNL     1       1.290  55.379   8.229  1.00  0.00     0.163 HD
BRANCH  12  14
ATOM     14  C   UNL     1       1.227  53.644   6.942  1.00  0.00     0.151 C 
BRANCH  14  15
ATOM     15  C   UNL     1       2.498  53.850   6.165  1.00  0.00    -0.025 A 
ATOM     16  C   UNL     1       3.652  53.110   6.469  1.00  0.00     0.056 A 
ATOM     17  C   UNL     1       2.547  54.816   5.150  1.00  0.00     0.009 A 
ATOM     18  C   UNL     1       4.849  53.327   5.757  1.00  0.00     0.160 A 
ATOM     19  C   UNL     1       3.730  55.034   4.440  1.00  0.00     0.050 A 
ATOM     20  C   UNL     1       4.880  54.293   4.741  1.00  0.00     0.157 A 
BRANCH  18  21
ATOM     21  O   UNL     1       6.022  52.607   6.032  1.00  0.00    -0.493 OA
ATOM     22  C   UNL     1       6.165  51.672   7.097  1.00  0.00     0.278 C 
ENDBRANCH  18  21
BRANCH  20  23
ATOM     23  O   UNL     1       6.060  54.512   4.033  1.00  0.00    -0.504 OA
ATOM     24  H   UNL     1       6.960  54.541   4.499  1.00  0.00     0.293 HD
ENDBRANCH  20  23
ENDBRANCH  14  15
ENDBRANCH  12  14
ENDBRANCH   9  10
ENDBRANCH   1   9
TORSDOF 10
ENDMDL
MODEL 5
REMARK VINA RESULT:    -5.437      1.986      3.906
REMARK INTER + INTRA:         -10.105
REMARK INTER:                  -8.214
REMARK INTRA:                  -1.891
REMARK UNBOUND:                -1.648
REMARK SMILES COc1cc(CNC(=O)CCCCC=CC(C)C)ccc1O
REMARK SMILES IDX 11 1 12 2 13 3 14 4 15 5 16 6 17 7 18 8 10 9 8 10 9 11 7 12
REMARK SMILES IDX 6 14 5 15 4 16 19 17 3 18 20 19 21 20 2 21 1 22 22 23
REMARK H PARENT 7 13 22 24
REMARK Flexibility Score: inf
ROOT
ATOM      1  C   UNL     1       2.133  50.423   9.654  1.00  0.00     0.010 C 
ENDROOT
BRANCH   1   2
ATOM      2  C   UNL     1       3.114  50.166  10.815  1.00  0.00     0.005 C 
BRANCH   2   3
ATOM      3  C   UNL     1       3.995  51.368  11.196  1.00  0.00     0.027 C 
BRANCH   3   4
ATOM      4  C   UNL     1       4.696  51.994  10.014  1.00  0.00    -0.031 C 
ATOM      5  C   UNL     1       4.639  53.296   9.674  1.00  0.00    -0.028 C 
BRANCH   5   6
ATOM      6  C   UNL     1       3.867  54.364  10.419  1.00  0.00     0.005 C 
ATOM      7  C   UNL     1       3.303  55.380   9.422  1.00  0.00     0.012 C 
ATOM      8  C   UNL     1       4.791  55.055  11.427  1.00  0.00     0.012 C 
ENDBRANCH   5   6
ENDBRANCH   3   4
ENDBRANCH   2   3
ENDBRANCH   1   2
BRANCH   1   9
ATOM      9  C   UNL     1       0.951  51.338  10.023  1.00  0.00     0.100 C 
BRANCH   9  10
ATOM     10  C   UNL     1       0.822  52.510   9.093  1.00  0.00     0.220 C 
ATOM     11  O   UNL     1       0.217  53.546   9.482  1.00  0.00    -0.275 OA
ATOM     12  N   UNL     1       1.362  52.447   7.764  1.00  0.00    -0.352 N 
ATOM     13  H   UNL     1       1.850  51.577   7.452  1.00  0.00     0.163 HD
BRANCH  12  14
ATOM     14  C   UNL     1       1.296  53.574   6.838  1.00  0.00     0.151 C 
BRANCH  14  15
ATOM     15  C   UNL     1       2.606  53.729   6.114  1.00  0.00    -0.025 A 
ATOM     16  C   UNL     1       3.718  52.948   6.469  1.00  0.00     0.056 A 
ATOM     17  C   UNL     1       2.733  54.687   5.098  1.00  0.00     0.009 A 
ATOM     18  C   UNL     1       4.950  53.117   5.807  1.00  0.00     0.160 A 
ATOM     19  C   UNL     1       3.951  54.857   4.438  1.00  0.00     0.050 A 
ATOM     20  C   UNL     1       5.059  54.075   4.789  1.00  0.00     0.157 A 
BRANCH  18  21
ATOM     21  O   UNL     1       6.083  52.356   6.134  1.00  0.00    -0.493 OA
ATOM     22  C   UNL     1       6.051  51.126   6.852  1.00  0.00     0.278 C 
ENDBRANCH  18  21
BRANCH  20  23
ATOM     23  O   UNL     1       6.275  54.247   4.131  1.00  0.00    -0.504 OA
ATOM     24  H   UNL     1       7.125  54.471   4.636  1.00  0.00     0.293 HD
ENDBRANCH  20  23
ENDBRANCH  14  15
ENDBRANCH  12  14
ENDBRANCH   9  10
ENDBRANCH   1   9
TORSDOF 10
ENDMDL
MODEL 6
REMARK VINA RESULT:    -5.358      1.146      2.255
REMARK INTER + INTRA:          -9.982
REMARK INTER:                  -8.539
REMARK INTRA:                  -1.443
REMARK UNBOUND:                -1.648
REMARK SMILES COc1cc(CNC(=O)CCCCC=CC(C)C)ccc1O
REMARK SMILES IDX 11 1 12 2 13 3 14 4 15 5 16 6 17 7 18 8 10 9 8 10 9 11 7 12
REMARK SMILES IDX 6 14 5 15 4 16 19 17 3 18 20 19 21 20 2 21 1 22 22 23
REMARK H PARENT 7 13 22 24
REMARK Flexibility Score: inf
ROOT
ATOM      1  C   UNL     1       0.270  55.348  10.244  1.00  0.00     0.010 C 
ENDROOT
BRANCH   1   2
ATOM      2  C   UNL     1       0.476  56.876  10.211  1.00  0.00     0.005 C 
BRANCH   2   3
ATOM      3  C   UNL     1       1.603  57.397  11.120  1.00  0.00     0.027 C 
BRANCH   3   4
ATOM      4  C   UNL     1       2.683  58.137  10.368  1.00  0.00    -0.031 C 
ATOM      5  C   UNL     1       3.846  57.604   9.950  1.00  0.00    -0.028 C 
BRANCH   5   6
ATOM      6  C   UNL     1       4.276  56.168  10.153  1.00  0.00     0.005 C 
ATOM      7  C   UNL     1       5.749  56.126  10.570  1.00  0.00     0.012 C 
ATOM      8  C   UNL     1       4.061  55.379   8.858  1.00  0.00     0.012 C 
ENDBRANCH   5   6
ENDBRANCH   3   4
ENDBRANCH   2   3
ENDBRANCH   1   2
BRANCH   1   9
ATOM      9  C   UNL     1      -0.809  54.840   9.271  1.00  0.00     0.100 C 
BRANCH   9  10
ATOM     10  C   UNL     1      -0.255  54.532   7.910  1.00  0.00     0.220 C 
ATOM     11  O   UNL     1      -0.657  55.192   6.914  1.00  0.00    -0.275 OA
ATOM     12  N   UNL     1       0.710  53.482   7.739  1.00  0.00    -0.352 N 
ATOM     13  H   UNL     1       1.025  52.937   8.573  1.00  0.00     0.163 HD
BRANCH  12  14
ATOM     14  C   UNL     1       1.307  53.173   6.443  1.00  0.00     0.151 C 
BRANCH  14  15
ATOM     15  C   UNL     1       2.760  52.822   6.610  1.00  0.00    -0.025 A 
ATOM     16  C   UNL     1       3.174  51.947   7.628  1.00  0.00     0.056 A 
ATOM     17  C   UNL     1       3.720  53.401   5.767  1.00  0.00     0.009 A 
ATOM     18  C   UNL     1       4.539  51.644   7.799  1.00  0.00     0.160 A 
ATOM     19  C   UNL     1       5.074  53.102   5.931  1.00  0.00     0.050 A 
ATOM     20  C   UNL     1       5.486  52.226   6.944  1.00  0.00     0.157 A 
BRANCH  18  21
ATOM     21  O   UNL     1       4.990  50.775   8.804  1.00  0.00    -0.493 OA
ATOM     22  C   UNL     1       4.402  49.513   9.106  1.00  0.00     0.278 C 
ENDBRANCH  18  21
BRANCH  20  23
ATOM     23  O   UNL     1       6.838  51.930   7.108  1.00  0.00    -0.504 OA
ATOM     24  H   UNL     1       7.194  51.536   7.971  1.00  0.00     0.293 HD
ENDBRANCH  20  23
ENDBRANCH  14  15
ENDBRANCH  12  14
ENDBRANCH   9  10
ENDBRANCH   1   9
TORSDOF 10
ENDMDL
MODEL 7
REMARK VINA RESULT:    -5.310      2.535      4.381
REMARK INTER + INTRA:          -9.907
REMARK INTER:                  -8.351
REMARK INTRA:                  -1.556
REMARK UNBOUND:                -1.648
REMARK SMILES COc1cc(CNC(=O)CCCCC=CC(C)C)ccc1O
REMARK SMILES IDX 11 1 12 2 13 3 14 4 15 5 16 6 17 7 18 8 10 9 8 10 9 11 7 12
REMARK SMILES IDX 6 14 5 15 4 16 19 17 3 18 20 19 21 20 2 21 1 22 22 23
REMARK H PARENT 7 13 22 24
REMARK Flexibility Score: inf
ROOT
ATOM      1  C   UNL     1       4.287  52.054  11.317  1.00  0.00     0.010 C 
ENDROOT
BRANCH   1   2
ATOM      2  C   UNL     1       3.141  53.084  11.251  1.00  0.00     0.005 C 
BRANCH   2   3
ATOM      3  C   UNL     1       3.347  54.217  10.230  1.00  0.00     0.027 C 
BRANCH   3   4
ATOM      4  C   UNL     1       2.304  55.304  10.325  1.00  0.00    -0.031 C 
ATOM      5  C   UNL     1       1.079  55.259   9.769  1.00  0.00    -0.028 C 
BRANCH   5   6
ATOM      6  C   UNL     1       0.527  54.109   8.953  1.00  0.00     0.005 C 
ATOM      7  C   UNL     1      -0.322  54.655   7.803  1.00  0.00     0.012 C 
ATOM      8  C   UNL     1      -0.311  53.197   9.854  1.00  0.00     0.012 C 
ENDBRANCH   5   6
ENDBRANCH   3   4
ENDBRANCH   2   3
ENDBRANCH   1   2
BRANCH   1   9
ATOM      9  C   UNL     1       3.945  50.694  10.683  1.00  0.00     0.100 C 
BRANCH   9  10
ATOM     10  C   UNL     1       4.432  50.584   9.267  1.00  0.00     0.220 C 
ATOM     11  O   UNL     1       4.189  49.537   8.608  1.00  0.00    -0.275 OA
ATOM     12  N   UNL     1       5.187  51.651   8.672  1.00  0.00    -0.352 N 
ATOM     13  H   UNL     1       5.390  52.509   9.235  1.00  0.00     0.163 HD
BRANCH  12  14
ATOM     14  C   UNL     1       5.647  51.607   7.287  1.00  0.00     0.151 C 
BRANCH  14  15
ATOM     15  C   UNL     1       4.872  52.588   6.450  1.00  0.00    -0.025 A 
ATOM     16  C   UNL     1       5.470  53.215   5.344  1.00  0.00     0.056 A 
ATOM     17  C   UNL     1       3.552  52.910   6.794  1.00  0.00     0.009 A 
ATOM     18  C   UNL     1       4.749  54.154   4.579  1.00  0.00     0.160 A 
ATOM     19  C   UNL     1       2.834  53.839   6.039  1.00  0.00     0.050 A 
ATOM     20  C   UNL     1       3.428  54.461   4.933  1.00  0.00     0.157 A 
BRANCH  18  21
ATOM     21  O   UNL     1       5.312  54.800   3.468  1.00  0.00    -0.493 OA
ATOM     22  C   UNL     1       6.620  54.549   2.964  1.00  0.00     0.278 C 
ENDBRANCH  18  21
BRANCH  20  23
ATOM     23  O   UNL     1       2.710  55.389   4.181  1.00  0.00    -0.504 OA
ATOM     24  H   UNL     1       2.927  55.563   3.206  1.00  0.00     0.293 HD
ENDBRANCH  20  23
ENDBRANCH  14  15
ENDBRANCH  12  14
ENDBRANCH   9  10
ENDBRANCH   1   9
TORSDOF 10
ENDMDL
MODEL 8
REMARK VINA RESULT:    -5.252      2.366      4.527
REMARK INTER + INTRA:          -9.818
REMARK INTER:                  -8.428
REMARK INTRA:                  -1.389
REMARK UNBOUND:                -1.648
REMARK SMILES COc1cc(CNC(=O)CCCCC=CC(C)C)ccc1O
REMARK SMILES IDX 11 1 12 2 13 3 14 4 15 5 16 6 17 7 18 8 10 9 8 10 9 11 7 12
REMARK SMILES IDX 6 14 5 15 4 16 19 17 3 18 20 19 21 20 2 21 1 22 22 23
REMARK H PARENT 7 13 22 24
REMARK Flexibility Score: inf
ROOT
ATOM      1  C   UNL     1       4.613  51.556  11.208  1.00  0.00     0.010 C 
ENDROOT
BRANCH   1   2
ATOM      2  C   UNL     1       3.547  52.647  11.437  1.00  0.00     0.005 C 
BRANCH   2   3
ATOM      3  C   UNL     1       4.061  54.091  11.310  1.00  0.00     0.027 C 
BRANCH   3   4
ATOM      4  C   UNL     1       4.055  54.605   9.890  1.00  0.00    -0.031 C 
ATOM      5  C   UNL     1       3.629  55.822   9.503  1.00  0.00    -0.028 C 
BRANCH   5   6
ATOM      6  C   UNL     1       3.085  56.894  10.423  1.00  0.00     0.005 C 
ATOM      7  C   UNL     1       1.554  56.853  10.414  1.00  0.00     0.012 C 
ATOM      8  C   UNL     1       3.589  58.266   9.965  1.00  0.00     0.012 C 
ENDBRANCH   5   6
ENDBRANCH   3   4
ENDBRANCH   2   3
ENDBRANCH   1   2
BRANCH   1   9
ATOM      9  C   UNL     1       4.103  50.337  10.418  1.00  0.00     0.100 C 
BRANCH   9  10
ATOM     10  C   UNL     1       4.521  50.373   8.976  1.00  0.00     0.220 C 
ATOM     11  O   UNL     1       4.216  49.412   8.219  1.00  0.00    -0.275 OA
ATOM     12  N   UNL     1       5.279  51.480   8.466  1.00  0.00    -0.352 N 
ATOM     13  H   UNL     1       5.533  52.265   9.110  1.00  0.00     0.163 HD
BRANCH  12  14
ATOM     14  C   UNL     1       5.673  51.580   7.064  1.00  0.00     0.151 C 
BRANCH  14  15
ATOM     15  C   UNL     1       4.841  52.617   6.361  1.00  0.00    -0.025 A 
ATOM     16  C   UNL     1       3.495  52.814   6.712  1.00  0.00     0.056 A 
ATOM     17  C   UNL     1       5.399  53.373   5.321  1.00  0.00     0.009 A 
ATOM     18  C   UNL     1       2.711  53.767   6.032  1.00  0.00     0.160 A 
ATOM     19  C   UNL     1       4.627  54.321   4.645  1.00  0.00     0.050 A 
ATOM     20  C   UNL     1       3.286  54.520   4.997  1.00  0.00     0.157 A 
BRANCH  18  21
ATOM     21  O   UNL     1       1.364  53.992   6.354  1.00  0.00    -0.493 OA
ATOM     22  C   UNL     1       0.836  53.981   7.677  1.00  0.00     0.278 C 
ENDBRANCH  18  21
BRANCH  20  23
ATOM     23  O   UNL     1       2.517  55.464   4.322  1.00  0.00    -0.504 OA
ATOM     24  H   UNL     1       1.828  55.191   3.630  1.00  0.00     0.293 HD
ENDBRANCH  20  23
ENDBRANCH  14  15
ENDBRANCH  12  14
ENDBRANCH   9  10
ENDBRANCH   1   9
TORSDOF 10
ENDMDL
MODEL 9
REMARK VINA RESULT:    -5.218      2.439      5.782
REMARK INTER + INTRA:          -9.764
REMARK INTER:                  -7.741
REMARK INTRA:                  -2.023
REMARK UNBOUND:                -1.648
REMARK SMILES COc1cc(CNC(=O)CCCCC=CC(C)C)ccc1O
REMARK SMILES IDX 11 1 12 2 13 3 14 4 15 5 16 6 17 7 18 8 10 9 8 10 9 11 7 12
REMARK SMILES IDX 6 14 5 15 4 16 19 17 3 18 20 19 21 20 2 21 1 22 22 23
REMARK H PARENT 7 13 22 24
REMARK Flexibility Score: inf
ROOT
ATOM      1  C   UNL     1       1.661  51.215   8.377  1.00  0.00     0.010 C 
ENDROOT
BRANCH   1   2
ATOM      2  C   UNL     1       1.527  51.954   7.030  1.00  0.00     0.005 C 
BRANCH   2   3
ATOM      3  C   UNL     1       1.286  53.469   7.144  1.00  0.00     0.027 C 
BRANCH   3   4
ATOM      4  C   UNL     1       2.491  54.231   7.641  1.00  0.00    -0.031 C 
ATOM      5  C   UNL     1       3.671  54.325   7.001  1.00  0.00    -0.028 C 
BRANCH   5   6
ATOM      6  C   UNL     1       3.999  53.690   5.667  1.00  0.00     0.005 C 
ATOM      7  C   UNL     1       5.380  53.032   5.735  1.00  0.00     0.012 C 
ATOM      8  C   UNL     1       3.966  54.758   4.569  1.00  0.00     0.012 C 
ENDBRANCH   5   6
ENDBRANCH   3   4
ENDBRANCH   2   3
ENDBRANCH   1   2
BRANCH   1   9
ATOM      9  C   UNL     1       3.028  50.539   8.588  1.00  0.00     0.100 C 
BRANCH   9  10
ATOM     10  C   UNL     1       3.987  51.412   9.344  1.00  0.00     0.220 C 
ATOM     11  O   UNL     1       5.160  51.567   8.907  1.00  0.00    -0.275 OA
ATOM     12  N   UNL     1       3.583  52.047  10.566  1.00  0.00    -0.352 N 
ATOM     13  H   UNL     1       2.611  51.900  10.922  1.00  0.00     0.163 HD
BRANCH  12  14
ATOM     14  C   UNL     1       4.467  52.936  11.316  1.00  0.00     0.151 C 
BRANCH  14  15
ATOM     15  C   UNL     1       4.226  54.366  10.919  1.00  0.00    -0.025 A 
ATOM     16  C   UNL     1       2.984  54.977  11.158  1.00  0.00     0.056 A 
ATOM     17  C   UNL     1       5.236  55.091  10.270  1.00  0.00     0.009 A 
ATOM     18  C   UNL     1       2.753  56.309  10.759  1.00  0.00     0.160 A 
ATOM     19  C   UNL     1       5.013  56.411   9.873  1.00  0.00     0.050 A 
ATOM     20  C   UNL     1       3.776  57.021  10.116  1.00  0.00     0.157 A 
BRANCH  18  21
ATOM     21  O   UNL     1       1.526  56.952  10.981  1.00  0.00    -0.493 OA
ATOM     22  C   UNL     1       0.358  56.760  10.188  1.00  0.00     0.278 C 
ENDBRANCH  18  21
BRANCH  20  23
ATOM     23  O   UNL     1       3.553  58.338   9.719  1.00  0.00    -0.504 OA
ATOM     24  H   UNL     1       3.790  59.121  10.319  1.00  0.00     0.293 HD
ENDBRANCH  20  23
ENDBRANCH  14  15
ENDBRANCH  12  14
ENDBRANCH   9  10
ENDBRANCH   1   9
TORSDOF 10
ENDMDL
