MODEL 1
REMARK VINA RESULT:    -3.221      0.000      0.000
REMARK INTER + INTRA:          -3.578
REMARK INTER:                  -3.409
REMARK INTRA:                  -0.169
REMARK UNBOUND:                -0.169
REMARK SMILES CC(C)[C@@H]1CC[C@@H](C)CC1=O
REMARK SMILES IDX 8 1 7 2 6 3 5 4 4 5 10 6 11 7 9 8 2 9 1 10 3 11
REMARK H PARENT
REMARK Flexibility Score: inf
ROOT
ATOM      1  C   UNL     1     232.503 235.078 233.444  1.00  0.00     0.008 C 
ATOM      2  C   UNL     1     232.731 236.569 233.710  1.00  0.00    -0.007 C 
ATOM      3  C   UNL     1     231.804 237.065 234.838  1.00  0.00     0.004 C 
ATOM      4  C   UNL     1     232.062 238.549 235.140  1.00  0.00     0.012 C 
ATOM      5  C   UNL     1     231.827 239.431 233.891  1.00  0.00     0.058 C 
ATOM      6  C   UNL     1     232.599 238.862 232.711  1.00  0.00     0.136 C 
ATOM      7  O   UNL     1     233.191 239.591 231.928  1.00  0.00    -0.299 OA
ATOM      8  C   UNL     1     232.512 237.387 232.425  1.00  0.00     0.079 C 
ENDROOT
BRANCH   5   9
ATOM      9  C   UNL     1     232.115 240.946 234.140  1.00  0.00    -0.007 C 
ATOM     10  C   UNL     1     232.644 241.248 235.553  1.00  0.00     0.008 C 
ATOM     11  C   UNL     1     230.886 241.817 233.840  1.00  0.00     0.008 C 
ENDBRANCH   5   9
TORSDOF 1
ENDMDL
MODEL 2
REMARK VINA RESULT:    -3.219      7.490     10.859
REMARK INTER + INTRA:          -3.576
REMARK INTER:                  -3.404
REMARK INTRA:                  -0.172
REMARK UNBOUND:                -0.169
REMARK SMILES CC(C)[C@@H]1CC[C@@H](C)CC1=O
REMARK SMILES IDX 8 1 7 2 6 3 5 4 4 5 10 6 11 7 9 8 2 9 1 10 3 11
REMARK H PARENT
REMARK Flexibility Score: inf
ROOT
ATOM      1  C   UNL     1     235.769 233.269 233.589  1.00  0.00     0.008 C 
ATOM      2  C   UNL     1     235.630 231.757 233.788  1.00  0.00    -0.007 C 
ATOM      3  C   UNL     1     236.623 231.259 234.858  1.00  0.00     0.004 C 
ATOM      4  C   UNL     1     236.456 229.751 235.095  1.00  0.00     0.012 C 
ATOM      5  C   UNL     1     236.692 228.944 233.796  1.00  0.00     0.058 C 
ATOM      6  C   UNL     1     235.849 229.525 232.672  1.00  0.00     0.136 C 
ATOM      7  O   UNL     1     235.268 228.803 231.875  1.00  0.00    -0.299 OA
ATOM      8  C   UNL     1     235.846 231.014 232.458  1.00  0.00     0.079 C 
ENDROOT
BRANCH   5   9
ATOM      9  C   UNL     1     236.495 227.405 233.980  1.00  0.00    -0.007 C 
ATOM     10  C   UNL     1     235.882 227.020 235.338  1.00  0.00     0.008 C 
ATOM     11  C   UNL     1     237.802 226.631 233.752  1.00  0.00     0.008 C 
ENDBRANCH   5   9
TORSDOF 1
ENDMDL
MODEL 3
REMARK VINA RESULT:    -3.184      6.829      7.813
REMARK INTER + INTRA:          -3.539
REMARK INTER:                  -3.370
REMARK INTRA:                  -0.169
REMARK UNBOUND:                -0.169
REMARK SMILES CC(C)[C@@H]1CC[C@@H](C)CC1=O
REMARK SMILES IDX 8 1 7 2 6 3 5 4 4 5 10 6 11 7 9 8 2 9 1 10 3 11
REMARK H PARENT
REMARK Flexibility Score: inf
ROOT
ATOM      1  C   UNL     1     235.391 235.759 233.865  1.00  0.00     0.008 C 
ATOM      2  C   UNL     1     236.910 235.639 234.026  1.00  0.00    -0.007 C 
ATOM      3  C   UNL     1     237.415 236.597 235.124  1.00  0.00     0.004 C 
ATOM      4  C   UNL     1     238.931 236.447 235.321  1.00  0.00     0.012 C 
ATOM      5  C   UNL     1     239.705 236.748 234.015  1.00  0.00     0.058 C 
ATOM      6  C   UNL     1     239.112 235.941 232.871  1.00  0.00     0.136 C 
ATOM      7  O   UNL     1     239.826 235.405 232.035  1.00  0.00    -0.299 OA
ATOM      8  C   UNL     1     237.619 235.921 232.689  1.00  0.00     0.079 C 
ENDROOT
BRANCH   5   9
ATOM      9  C   UNL     1     241.250 236.571 234.157  1.00  0.00    -0.007 C 
ATOM     10  C   UNL     1     241.688 236.076 235.547  1.00  0.00     0.008 C 
ATOM     11  C   UNL     1     242.008 237.856 233.791  1.00  0.00     0.008 C 
ENDBRANCH   5   9
TORSDOF 1
ENDMDL
MODEL 4
REMARK VINA RESULT:    -3.154      6.631      7.797
REMARK INTER + INTRA:          -3.508
REMARK INTER:                  -3.337
REMARK INTRA:                  -0.171
REMARK UNBOUND:                -0.169
REMARK SMILES CC(C)[C@@H]1CC[C@@H](C)CC1=O
REMARK SMILES IDX 8 1 7 2 6 3 5 4 4 5 10 6 11 7 9 8 2 9 1 10 3 11
REMARK H PARENT
REMARK Flexibility Score: inf
ROOT
ATOM      1  C   UNL     1     233.276 232.480 234.268  1.00  0.00     0.008 C 
ATOM      2  C   UNL     1     231.755 232.654 234.315  1.00  0.00    -0.007 C 
ATOM      3  C   UNL     1     231.131 231.686 235.339  1.00  0.00     0.004 C 
ATOM      4  C   UNL     1     229.611 231.888 235.424  1.00  0.00     0.012 C 
ATOM      5  C   UNL     1     228.931 231.655 234.053  1.00  0.00     0.058 C 
ATOM      6  C   UNL     1     229.641 232.471 232.985  1.00  0.00     0.136 C 
ATOM      7  O   UNL     1     229.014 233.058 232.114  1.00  0.00    -0.299 OA
ATOM      8  C   UNL     1     231.143 232.439 232.919  1.00  0.00     0.079 C 
ENDROOT
BRANCH   5   9
ATOM      9  C   UNL     1     227.387 231.887 234.081  1.00  0.00    -0.007 C 
ATOM     10  C   UNL     1     226.875 232.470 235.410  1.00  0.00     0.008 C 
ATOM     11  C   UNL     1     226.611 230.608 233.732  1.00  0.00     0.008 C 
ENDBRANCH   5   9
TORSDOF 1
ENDMDL
MODEL 5
REMARK VINA RESULT:    -3.064      1.636      2.480
REMARK INTER + INTRA:          -3.412
REMARK INTER:                  -3.270
REMARK INTRA:                  -0.142
REMARK UNBOUND:                -0.169
REMARK SMILES CC(C)[C@@H]1CC[C@@H](C)CC1=O
REMARK SMILES IDX 8 1 7 2 6 3 5 4 4 5 10 6 11 7 9 8 2 9 1 10 3 11
REMARK H PARENT
REMARK Flexibility Score: inf
ROOT
ATOM      1  C   UNL     1     232.739 235.049 231.970  1.00  0.00     0.008 C 
ATOM      2  C   UNL     1     232.236 236.360 232.581  1.00  0.00    -0.007 C 
ATOM      3  C   UNL     1     233.060 237.553 232.056  1.00  0.00     0.004 C 
ATOM      4  C   UNL     1     232.530 238.875 232.630  1.00  0.00     0.012 C 
ATOM      5  C   UNL     1     232.586 238.884 234.177  1.00  0.00     0.058 C 
ATOM      6  C   UNL     1     231.929 237.626 234.720  1.00  0.00     0.136 C 
ATOM      7  O   UNL     1     231.205 237.663 235.705  1.00  0.00    -0.299 OA
ATOM      8  C   UNL     1     232.289 236.295 234.118  1.00  0.00     0.079 C 
ENDROOT
BRANCH   5   9
ATOM      9  C   UNL     1     232.021 240.196 234.809  1.00  0.00    -0.007 C 
ATOM     10  C   UNL     1     231.812 241.330 233.790  1.00  0.00     0.008 C 
ATOM     11  C   UNL     1     232.890 240.688 235.976  1.00  0.00     0.008 C 
ENDBRANCH   5   9
TORSDOF 1
ENDMDL
MODEL 6
REMARK VINA RESULT:    -3.061      6.852      9.173
REMARK INTER + INTRA:          -3.409
REMARK INTER:                  -3.239
REMARK INTRA:                  -0.170
REMARK UNBOUND:                -0.169
REMARK SMILES CC(C)[C@@H]1CC[C@@H](C)CC1=O
REMARK SMILES IDX 8 1 7 2 6 3 5 4 4 5 10 6 11 7 9 8 2 9 1 10 3 11
REMARK H PARENT
REMARK Flexibility Score: inf
ROOT
ATOM      1  C   UNL     1     225.688 228.293 235.046  1.00  0.00     0.008 C 
ATOM      2  C   UNL     1     226.770 229.230 234.502  1.00  0.00    -0.007 C 
ATOM      3  C   UNL     1     228.001 229.232 235.431  1.00  0.00     0.004 C 
ATOM      4  C   UNL     1     229.107 230.135 234.866  1.00  0.00     0.012 C 
ATOM      5  C   UNL     1     228.618 231.594 234.700  1.00  0.00     0.058 C 
ATOM      6  C   UNL     1     227.306 231.609 233.931  1.00  0.00     0.136 C 
ATOM      7  O   UNL     1     227.082 232.452 233.074  1.00  0.00    -0.299 OA
ATOM      8  C   UNL     1     226.214 230.655 234.331  1.00  0.00     0.079 C 
ENDROOT
BRANCH   5   9
ATOM      9  C   UNL     1     229.699 232.543 234.091  1.00  0.00    -0.007 C 
ATOM     10  C   UNL     1     230.560 231.879 233.003  1.00  0.00     0.008 C 
ATOM     11  C   UNL     1     230.598 233.154 235.176  1.00  0.00     0.008 C 
ENDBRANCH   5   9
TORSDOF 1
ENDMDL
MODEL 7
REMARK VINA RESULT:    -3.049      9.635     12.176
REMARK INTER + INTRA:          -3.397
REMARK INTER:                  -3.223
REMARK INTRA:                  -0.174
REMARK UNBOUND:                -0.169
REMARK SMILES CC(C)[C@@H]1CC[C@@H](C)CC1=O
REMARK SMILES IDX 8 1 7 2 6 3 5 4 4 5 10 6 11 7 9 8 2 9 1 10 3 11
REMARK H PARENT
REMARK Flexibility Score: inf
ROOT
ATOM      1  C   UNL     1     240.474 225.824 235.210  1.00  0.00     0.008 C 
ATOM      2  C   UNL     1     239.475 226.833 234.635  1.00  0.00    -0.007 C 
ATOM      3  C   UNL     1     239.426 228.103 235.508  1.00  0.00     0.004 C 
ATOM      4  C   UNL     1     238.461 229.137 234.911  1.00  0.00     0.012 C 
ATOM      5  C   UNL     1     237.026 228.570 234.792  1.00  0.00     0.058 C 
ATOM      6  C   UNL     1     237.064 227.226 234.082  1.00  0.00     0.136 C 
ATOM      7  O   UNL     1     236.220 226.923 233.250  1.00  0.00    -0.299 OA
ATOM      8  C   UNL     1     238.077 226.201 234.514  1.00  0.00     0.079 C 
ENDROOT
BRANCH   5   9
ATOM      9  C   UNL     1     236.015 229.575 234.153  1.00  0.00    -0.007 C 
ATOM     10  C   UNL     1     236.630 230.447 233.044  1.00  0.00     0.008 C 
ATOM     11  C   UNL     1     235.345 230.463 235.212  1.00  0.00     0.008 C 
ENDBRANCH   5   9
TORSDOF 1
ENDMDL
MODEL 8
REMARK VINA RESULT:    -3.048      7.908      9.057
REMARK INTER + INTRA:          -3.395
REMARK INTER:                  -3.223
REMARK INTRA:                  -0.173
REMARK UNBOUND:                -0.169
REMARK SMILES CC(C)[C@@H]1CC[C@@H](C)CC1=O
REMARK SMILES IDX 8 1 7 2 6 3 5 4 4 5 10 6 11 7 9 8 2 9 1 10 3 11
REMARK H PARENT
REMARK Flexibility Score: inf
ROOT
ATOM      1  C   UNL     1     242.561 240.447 235.322  1.00  0.00     0.008 C 
ATOM      2  C   UNL     1     241.560 239.454 234.726  1.00  0.00    -0.007 C 
ATOM      3  C   UNL     1     240.292 239.375 235.599  1.00  0.00     0.004 C 
ATOM      4  C   UNL     1     239.265 238.415 234.981  1.00  0.00     0.012 C 
ATOM      5  C   UNL     1     239.843 236.987 234.828  1.00  0.00     0.058 C 
ATOM      6  C   UNL     1     241.186 237.054 234.117  1.00  0.00     0.136 C 
ATOM      7  O   UNL     1     241.495 236.232 233.266  1.00  0.00    -0.299 OA
ATOM      8  C   UNL     1     242.203 238.065 234.571  1.00  0.00     0.079 C 
ENDROOT
BRANCH   5   9
ATOM      9  C   UNL     1     238.846 235.983 234.167  1.00  0.00    -0.007 C 
ATOM     10  C   UNL     1     237.980 236.613 233.061  1.00  0.00     0.008 C 
ATOM     11  C   UNL     1     237.953 235.295 235.210  1.00  0.00     0.008 C 
ENDBRANCH   5   9
TORSDOF 1
ENDMDL
MODEL 9
REMARK VINA RESULT:    -3.029      8.288      8.872
REMARK INTER + INTRA:          -3.375
REMARK INTER:                  -3.200
REMARK INTRA:                  -0.175
REMARK UNBOUND:                -0.169
REMARK SMILES CC(C)[C@@H]1CC[C@@H](C)CC1=O
REMARK SMILES IDX 8 1 7 2 6 3 5 4 4 5 10 6 11 7 9 8 2 9 1 10 3 11
REMARK H PARENT
REMARK Flexibility Score: inf
ROOT
ATOM      1  C   UNL     1     238.467 235.725 233.529  1.00  0.00     0.008 C 
ATOM      2  C   UNL     1     239.294 237.001 233.714  1.00  0.00    -0.007 C 
ATOM      3  C   UNL     1     240.799 236.669 233.751  1.00  0.00     0.004 C 
ATOM      4  C   UNL     1     241.635 237.950 233.889  1.00  0.00     0.012 C 
ATOM      5  C   UNL     1     241.273 238.727 235.177  1.00  0.00     0.058 C 
ATOM      6  C   UNL     1     239.766 238.919 235.253  1.00  0.00     0.136 C 
ATOM      7  O   UNL     1     239.279 239.975 235.630  1.00  0.00    -0.299 OA
ATOM      8  C   UNL     1     238.867 237.741 234.993  1.00  0.00     0.079 C 
ENDROOT
BRANCH   5   9
ATOM      9  C   UNL     1     242.072 240.059 235.342  1.00  0.00    -0.007 C 
ATOM     10  C   UNL     1     242.359 240.774 234.009  1.00  0.00     0.008 C 
ATOM     11  C   UNL     1     243.379 239.849 236.121  1.00  0.00     0.008 C 
ENDBRANCH   5   9
TORSDOF 1
ENDMDL
