MODEL 1
REMARK VINA RESULT:    -3.799      0.000      0.000
REMARK INTER + INTRA:          -4.803
REMARK INTER:                  -4.687
REMARK INTRA:                  -0.116
REMARK UNBOUND:                -0.116
REMARK SMILES CCCCCC(=O)[O-]
REMARK SMILES IDX 4 1 5 2 6 3 7 4 8 5 3 6 2 7 1 8
REMARK H PARENT
REMARK Flexibility Score: inf
ROOT
ATOM      1  C   UNL     1       8.033   5.946  -8.231  1.00  0.00     0.006 C 
ENDROOT
BRANCH   1   2
ATOM      2  C   UNL     1       7.210   5.014  -7.336  1.00  0.00     0.053 C 
BRANCH   2   3
ATOM      3  C   UNL     1       7.054   5.601  -5.969  1.00  0.00     0.041 C 
ATOM      4  O   UNL     1       6.900   6.844  -5.827  1.00  0.00    -0.550 OA
ATOM      5  O   UNL     1       7.027   4.773  -4.855  1.00  0.00    -0.550 OA
ENDBRANCH   2   3
ENDBRANCH   1   2
BRANCH   1   6
ATOM      6  C   UNL     1       7.359   6.131  -9.598  1.00  0.00     0.000 C 
BRANCH   6   7
ATOM      7  C   UNL     1       8.373   6.205 -10.751  1.00  0.00    -0.003 C 
ATOM      8  C   UNL     1       9.805   5.925 -10.297  1.00  0.00     0.004 C 
ENDBRANCH   6   7
ENDBRANCH   1   6
TORSDOF 4
ENDMDL
MODEL 2
REMARK VINA RESULT:    -3.628     11.228     12.467
REMARK INTER + INTRA:          -4.592
REMARK INTER:                  -4.430
REMARK INTRA:                  -0.163
REMARK UNBOUND:                -0.116
REMARK SMILES CCCCCC(=O)[O-]
REMARK SMILES IDX 4 1 5 2 6 3 7 4 8 5 3 6 2 7 1 8
REMARK H PARENT
REMARK Flexibility Score: inf
ROOT
ATOM      1  C   UNL     1      10.964   0.556   0.981  1.00  0.00     0.006 C 
ENDROOT
BRANCH   1   2
ATOM      2  C   UNL     1      12.453   0.194   0.951  1.00  0.00     0.053 C 
BRANCH   2   3
ATOM      3  C   UNL     1      12.726  -0.818  -0.117  1.00  0.00     0.041 C 
ATOM      4  O   UNL     1      13.477  -0.531  -1.086  1.00  0.00    -0.550 OA
ATOM      5  O   UNL     1      12.190  -2.095  -0.016  1.00  0.00    -0.550 OA
ENDBRANCH   2   3
ENDBRANCH   1   2
BRANCH   1   6
ATOM      6  C   UNL     1      10.347   0.224   2.347  1.00  0.00     0.000 C 
BRANCH   6   7
ATOM      7  C   UNL     1      11.399   0.134   3.465  1.00  0.00    -0.003 C 
ATOM      8  C   UNL     1      11.292   1.281   4.469  1.00  0.00     0.004 C 
ENDBRANCH   6   7
ENDBRANCH   1   6
TORSDOF 4
ENDMDL
MODEL 3
REMARK VINA RESULT:    -3.603     11.392     12.526
REMARK INTER + INTRA:          -4.562
REMARK INTER:                  -4.302
REMARK INTRA:                  -0.260
REMARK UNBOUND:                -0.116
REMARK SMILES CCCCCC(=O)[O-]
REMARK SMILES IDX 4 1 5 2 6 3 7 4 8 5 3 6 2 7 1 8
REMARK H PARENT
REMARK Flexibility Score: inf
ROOT
ATOM      1  C   UNL     1      11.336   0.310   0.665  1.00  0.00     0.006 C 
ENDROOT
BRANCH   1   2
ATOM      2  C   UNL     1      12.353  -0.625   0.000  1.00  0.00     0.053 C 
BRANCH   2   3
ATOM      3  C   UNL     1      12.149  -2.034   0.460  1.00  0.00     0.041 C 
ATOM      4  O   UNL     1      13.011  -2.593   1.188  1.00  0.00    -0.550 OA
ATOM      5  O   UNL     1      10.984  -2.712   0.127  1.00  0.00    -0.550 OA
ENDBRANCH   2   3
ENDBRANCH   1   2
BRANCH   1   6
ATOM      6  C   UNL     1      11.761   0.652   2.100  1.00  0.00     0.000 C 
BRANCH   6   7
ATOM      7  C   UNL     1      10.707   0.242   3.141  1.00  0.00    -0.003 C 
ATOM      8  C   UNL     1       9.444  -0.337   2.506  1.00  0.00     0.004 C 
ENDBRANCH   6   7
ENDBRANCH   1   6
TORSDOF 4
ENDMDL
MODEL 4
REMARK VINA RESULT:    -3.586     11.361     12.379
REMARK INTER + INTRA:          -4.541
REMARK INTER:                  -4.299
REMARK INTRA:                  -0.242
REMARK UNBOUND:                -0.116
REMARK SMILES CCCCCC(=O)[O-]
REMARK SMILES IDX 4 1 5 2 6 3 7 4 8 5 3 6 2 7 1 8
REMARK H PARENT
REMARK Flexibility Score: inf
ROOT
ATOM      1  C   UNL     1      12.001   0.549   2.012  1.00  0.00     0.006 C 
ENDROOT
BRANCH   1   2
ATOM      2  C   UNL     1      11.629   0.245   0.556  1.00  0.00     0.053 C 
BRANCH   2   3
ATOM      3  C   UNL     1      12.141  -1.103   0.155  1.00  0.00     0.041 C 
ATOM      4  O   UNL     1      13.348  -1.251  -0.171  1.00  0.00    -0.550 OA
ATOM      5  O   UNL     1      11.297  -2.204   0.189  1.00  0.00    -0.550 OA
ENDBRANCH   2   3
ENDBRANCH   1   2
BRANCH   1   6
ATOM      6  C   UNL     1      10.924   0.030   2.974  1.00  0.00     0.000 C 
BRANCH   6   7
ATOM      7  C   UNL     1       9.499   0.249   2.440  1.00  0.00    -0.003 C 
ATOM      8  C   UNL     1       8.648  -1.018   2.491  1.00  0.00     0.004 C 
ENDBRANCH   6   7
ENDBRANCH   1   6
TORSDOF 4
ENDMDL
MODEL 5
REMARK VINA RESULT:    -3.551     11.689     12.804
REMARK INTER + INTRA:          -4.497
REMARK INTER:                  -4.296
REMARK INTRA:                  -0.201
REMARK UNBOUND:                -0.116
REMARK SMILES CCCCCC(=O)[O-]
REMARK SMILES IDX 4 1 5 2 6 3 7 4 8 5 3 6 2 7 1 8
REMARK H PARENT
REMARK Flexibility Score: inf
ROOT
ATOM      1  C   UNL     1      10.779   0.010   1.317  1.00  0.00     0.006 C 
ENDROOT
BRANCH   1   2
ATOM      2  C   UNL     1      10.506  -1.435   1.748  1.00  0.00     0.053 C 
BRANCH   2   3
ATOM      3  C   UNL     1       9.060  -1.616   2.088  1.00  0.00     0.041 C 
ATOM      4  O   UNL     1       8.423  -0.692   2.659  1.00  0.00    -0.550 OA
ATOM      5  O   UNL     1       8.403  -2.785   1.730  1.00  0.00    -0.550 OA
ENDBRANCH   2   3
ENDBRANCH   1   2
BRANCH   1   6
ATOM      6  C   UNL     1      11.918   0.624   2.143  1.00  0.00     0.000 C 
BRANCH   6   7
ATOM      7  C   UNL     1      11.884   0.182   3.615  1.00  0.00    -0.003 C 
ATOM      8  C   UNL     1      11.292   1.247   4.537  1.00  0.00     0.004 C 
ENDBRANCH   6   7
ENDBRANCH   1   6
TORSDOF 4
ENDMDL
MODEL 6
REMARK VINA RESULT:    -3.502     11.207     12.884
REMARK INTER + INTRA:          -4.438
REMARK INTER:                  -4.218
REMARK INTRA:                  -0.219
REMARK UNBOUND:                -0.116
REMARK SMILES CCCCCC(=O)[O-]
REMARK SMILES IDX 4 1 5 2 6 3 7 4 8 5 3 6 2 7 1 8
REMARK H PARENT
REMARK Flexibility Score: inf
ROOT
ATOM      1  C   UNL     1      10.721   0.017   2.344  1.00  0.00     0.006 C 
ENDROOT
BRANCH   1   2
ATOM      2  C   UNL     1      10.990   0.414   0.888  1.00  0.00     0.053 C 
BRANCH   2   3
ATOM      3  C   UNL     1      11.900  -0.578   0.234  1.00  0.00     0.041 C 
ATOM      4  O   UNL     1      13.019  -0.212  -0.213  1.00  0.00    -0.550 OA
ATOM      5  O   UNL     1      11.534  -1.915   0.162  1.00  0.00    -0.550 OA
ENDBRANCH   2   3
ENDBRANCH   1   2
BRANCH   1   6
ATOM      6  C   UNL     1      11.737   0.671   3.289  1.00  0.00     0.000 C 
BRANCH   6   7
ATOM      7  C   UNL     1      12.316  -0.319   4.312  1.00  0.00    -0.003 C 
ATOM      8  C   UNL     1      12.689  -1.662   3.687  1.00  0.00     0.004 C 
ENDBRANCH   6   7
ENDBRANCH   1   6
TORSDOF 4
ENDMDL
MODEL 7
REMARK VINA RESULT:    -3.489     11.227     11.616
REMARK INTER + INTRA:          -4.421
REMARK INTER:                  -4.343
REMARK INTRA:                  -0.078
REMARK UNBOUND:                -0.116
REMARK SMILES CCCCCC(=O)[O-]
REMARK SMILES IDX 4 1 5 2 6 3 7 4 8 5 3 6 2 7 1 8
REMARK H PARENT
REMARK Flexibility Score: inf
ROOT
ATOM      1  C   UNL     1      12.746   0.018   1.161  1.00  0.00     0.006 C 
ENDROOT
BRANCH   1   2
ATOM      2  C   UNL     1      11.303   0.513   1.012  1.00  0.00     0.053 C 
BRANCH   2   3
ATOM      3  C   UNL     1      10.388  -0.261   1.908  1.00  0.00     0.041 C 
ATOM      4  O   UNL     1       9.826   0.306   2.882  1.00  0.00    -0.550 OA
ATOM      5  O   UNL     1      10.115  -1.595   1.637  1.00  0.00    -0.550 OA
ENDBRANCH   2   3
ENDBRANCH   1   2
BRANCH   1   6
ATOM      6  C   UNL     1      13.248  -0.612  -0.145  1.00  0.00     0.000 C 
BRANCH   6   7
ATOM      7  C   UNL     1      14.740  -0.340  -0.397  1.00  0.00    -0.003 C 
ATOM      8  C   UNL     1      15.121  -0.462  -1.871  1.00  0.00     0.004 C 
ENDBRANCH   6   7
ENDBRANCH   1   6
TORSDOF 4
ENDMDL
MODEL 8
REMARK VINA RESULT:    -3.470     11.495     12.318
REMARK INTER + INTRA:          -4.398
REMARK INTER:                  -4.339
REMARK INTRA:                  -0.059
REMARK UNBOUND:                -0.116
REMARK SMILES CCCCCC(=O)[O-]
REMARK SMILES IDX 4 1 5 2 6 3 7 4 8 5 3 6 2 7 1 8
REMARK H PARENT
REMARK Flexibility Score: inf
ROOT
ATOM      1  C   UNL     1      13.063  -0.121   0.915  1.00  0.00     0.006 C 
ENDROOT
BRANCH   1   2
ATOM      2  C   UNL     1      13.288  -0.562  -0.535  1.00  0.00     0.053 C 
BRANCH   2   3
ATOM      3  C   UNL     1      14.724  -0.392  -0.919  1.00  0.00     0.041 C 
ATOM      4  O   UNL     1      15.073  -0.487  -2.125  1.00  0.00    -0.550 OA
ATOM      5  O   UNL     1      15.670  -0.080   0.049  1.00  0.00    -0.550 OA
ENDBRANCH   2   3
ENDBRANCH   1   2
BRANCH   1   6
ATOM      6  C   UNL     1      11.682   0.527   1.084  1.00  0.00     0.000 C 
BRANCH   6   7
ATOM      7  C   UNL     1      11.058   0.240   2.459  1.00  0.00    -0.003 C 
ATOM      8  C   UNL     1       9.544   0.050   2.392  1.00  0.00     0.004 C 
ENDBRANCH   6   7
ENDBRANCH   1   6
TORSDOF 4
ENDMDL
MODEL 9
REMARK VINA RESULT:    -3.468      2.757      4.383
REMARK INTER + INTRA:          -4.395
REMARK INTER:                  -4.284
REMARK INTRA:                  -0.111
REMARK UNBOUND:                -0.116
REMARK SMILES CCCCCC(=O)[O-]
REMARK SMILES IDX 4 1 5 2 6 3 7 4 8 5 3 6 2 7 1 8
REMARK H PARENT
REMARK Flexibility Score: inf
ROOT
ATOM      1  C   UNL     1       7.740   6.113  -7.396  1.00  0.00     0.006 C 
ENDROOT
BRANCH   1   2
ATOM      2  C   UNL     1       8.378   6.033  -8.787  1.00  0.00     0.053 C 
BRANCH   2   3
ATOM      3  C   UNL     1       7.430   6.537  -9.829  1.00  0.00     0.041 C 
ATOM      4  O   UNL     1       7.329   7.773 -10.049  1.00  0.00    -0.550 OA
ATOM      5  O   UNL     1       6.695   5.640 -10.592  1.00  0.00    -0.550 OA
ENDBRANCH   2   3
ENDBRANCH   1   2
BRANCH   1   6
ATOM      6  C   UNL     1       7.212   4.741  -6.954  1.00  0.00     0.000 C 
BRANCH   6   7
ATOM      7  C   UNL     1       6.867   4.695  -5.457  1.00  0.00    -0.003 C 
ATOM      8  C   UNL     1       7.019   6.053  -4.774  1.00  0.00     0.004 C 
ENDBRANCH   6   7
ENDBRANCH   1   6
TORSDOF 4
ENDMDL
