MODEL 1
REMARK VINA RESULT:    -4.948      0.000      0.000
REMARK INTER + INTRA:          -4.948
REMARK INTER:                  -4.948
REMARK INTRA:                   0.000
REMARK UNBOUND:                 0.000
REMARK SMILES CC1=CC(=O)[C@@H]2C[C@H]1C2(C)C
REMARK SMILES IDX 1 1 2 2 3 3 4 4 5 5 6 6 7 7 8 8 9 9 10 10 11 11
REMARK H PARENT
REMARK Flexibility Score: inf
ROOT
ATOM      1  C   UNL     1       3.486 -13.905  29.752  1.00  0.00     0.040 C 
ATOM      2  C   UNL     1       4.805 -14.365  29.218  1.00  0.00    -0.066 C 
ATOM      3  C   UNL     1       5.391 -15.509  29.669  1.00  0.00     0.047 C 
ATOM      4  C   UNL     1       6.697 -15.879  29.033  1.00  0.00     0.159 C 
ATOM      5  O   UNL     1       7.317 -16.933  29.335  1.00  0.00    -0.295 OA
ATOM      6  C   UNL     1       7.223 -14.889  27.994  1.00  0.00     0.067 C 
ATOM      7  C   UNL     1       7.034 -13.507  28.658  1.00  0.00     0.021 C 
ATOM      8  C   UNL     1       5.575 -13.561  28.150  1.00  0.00     0.022 C 
ATOM      9  C   UNL     1       6.061 -14.522  27.027  1.00  0.00    -0.019 C 
ATOM     10  C   UNL     1       5.102 -15.655  26.564  1.00  0.00     0.012 C 
ATOM     11  C   UNL     1       6.557 -13.762  25.772  1.00  0.00     0.012 C 
ENDROOT
TORSDOF 0
ENDMDL
MODEL 2
REMARK VINA RESULT:    -4.693     10.646     12.314
REMARK INTER + INTRA:          -4.693
REMARK INTER:                  -4.693
REMARK INTRA:                   0.000
REMARK UNBOUND:                 0.000
REMARK SMILES CC1=CC(=O)[C@@H]2C[C@H]1C2(C)C
REMARK SMILES IDX 1 1 2 2 3 3 4 4 5 5 6 6 7 7 8 8 9 9 10 10 11 11
REMARK H PARENT
REMARK Flexibility Score: inf
ROOT
ATOM      1  C   UNL     1       2.548 -24.459  25.793  1.00  0.00     0.040 C 
ATOM      2  C   UNL     1       1.365 -24.127  24.941  1.00  0.00    -0.066 C 
ATOM      3  C   UNL     1       1.391 -23.080  24.070  1.00  0.00     0.047 C 
ATOM      4  C   UNL     1       0.154 -22.869  23.251  1.00  0.00     0.159 C 
ATOM      5  O   UNL     1       0.069 -21.960  22.383  1.00  0.00    -0.295 OA
ATOM      6  C   UNL     1      -0.997 -23.832  23.541  1.00  0.00     0.067 C 
ATOM      7  C   UNL     1      -1.072 -23.878  25.083  1.00  0.00     0.021 C 
ATOM      8  C   UNL     1       0.053 -24.936  25.020  1.00  0.00     0.022 C 
ATOM      9  C   UNL     1      -0.431 -25.281  23.582  1.00  0.00    -0.019 C 
ATOM     10  C   UNL     1       0.636 -25.686  22.525  1.00  0.00     0.012 C 
ATOM     11  C   UNL     1      -1.550 -26.352  23.576  1.00  0.00     0.012 C 
ENDROOT
TORSDOF 0
ENDMDL
MODEL 3
REMARK VINA RESULT:    -4.672     10.902     12.412
REMARK INTER + INTRA:          -4.672
REMARK INTER:                  -4.672
REMARK INTRA:                   0.000
REMARK UNBOUND:                 0.000
REMARK SMILES CC1=CC(=O)[C@@H]2C[C@H]1C2(C)C
REMARK SMILES IDX 1 1 2 2 3 3 4 4 5 5 6 6 7 7 8 8 9 9 10 10 11 11
REMARK H PARENT
REMARK Flexibility Score: inf
ROOT
ATOM      1  C   UNL     1      -1.020 -25.372  25.996  1.00  0.00     0.040 C 
ATOM      2  C   UNL     1      -0.358 -24.908  24.738  1.00  0.00    -0.066 C 
ATOM      3  C   UNL     1      -0.576 -23.658  24.242  1.00  0.00     0.047 C 
ATOM      4  C   UNL     1       0.170 -23.303  22.991  1.00  0.00     0.159 C 
ATOM      5  O   UNL     1       0.084 -22.165  22.459  1.00  0.00    -0.295 OA
ATOM      6  C   UNL     1       1.041 -24.415  22.410  1.00  0.00     0.067 C 
ATOM      7  C   UNL     1       0.139 -25.668  22.459  1.00  0.00     0.021 C 
ATOM      8  C   UNL     1       0.585 -25.824  23.930  1.00  0.00     0.022 C 
ATOM      9  C   UNL     1       1.879 -25.042  23.561  1.00  0.00    -0.019 C 
ATOM     10  C   UNL     1       2.491 -24.092  24.629  1.00  0.00     0.012 C 
ATOM     11  C   UNL     1       3.002 -25.970  23.036  1.00  0.00     0.012 C 
ENDROOT
TORSDOF 0
ENDMDL
MODEL 4
REMARK VINA RESULT:    -4.658      9.940     11.332
REMARK INTER + INTRA:          -4.658
REMARK INTER:                  -4.658
REMARK INTRA:                   0.000
REMARK UNBOUND:                 0.000
REMARK SMILES CC1=CC(=O)[C@@H]2C[C@H]1C2(C)C
REMARK SMILES IDX 1 1 2 2 3 3 4 4 5 5 6 6 7 7 8 8 9 9 10 10 11 11
REMARK H PARENT
REMARK Flexibility Score: inf
ROOT
ATOM      1  C   UNL     1       2.280 -23.438  26.954  1.00  0.00     0.040 C 
ATOM      2  C   UNL     1       1.995 -23.602  25.495  1.00  0.00    -0.066 C 
ATOM      3  C   UNL     1       2.904 -24.174  24.656  1.00  0.00     0.047 C 
ATOM      4  C   UNL     1       2.488 -24.309  23.222  1.00  0.00     0.159 C 
ATOM      5  O   UNL     1       3.223 -24.857  22.359  1.00  0.00    -0.295 OA
ATOM      6  C   UNL     1       1.112 -23.737  22.883  1.00  0.00     0.067 C 
ATOM      7  C   UNL     1       1.091 -22.360  23.582  1.00  0.00     0.021 C 
ATOM      8  C   UNL     1       0.674 -23.115  24.864  1.00  0.00     0.022 C 
ATOM      9  C   UNL     1       0.093 -24.232  23.949  1.00  0.00    -0.019 C 
ATOM     10  C   UNL     1       0.192 -25.705  24.436  1.00  0.00     0.012 C 
ATOM     11  C   UNL     1      -1.374 -23.954  23.536  1.00  0.00     0.012 C 
ENDROOT
TORSDOF 0
ENDMDL
MODEL 5
REMARK VINA RESULT:    -4.649     10.315     12.119
REMARK INTER + INTRA:          -4.649
REMARK INTER:                  -4.649
REMARK INTRA:                   0.000
REMARK UNBOUND:                 0.000
REMARK SMILES CC1=CC(=O)[C@@H]2C[C@H]1C2(C)C
REMARK SMILES IDX 1 1 2 2 3 3 4 4 5 5 6 6 7 7 8 8 9 9 10 10 11 11
REMARK H PARENT
REMARK Flexibility Score: inf
ROOT
ATOM      1  C   UNL     1       4.162 -24.999  22.647  1.00  0.00     0.040 C 
ATOM      2  C   UNL     1       2.775 -25.006  23.204  1.00  0.00    -0.066 C 
ATOM      3  C   UNL     1       2.488 -25.631  24.380  1.00  0.00     0.047 C 
ATOM      4  C   UNL     1       1.067 -25.541  24.848  1.00  0.00     0.159 C 
ATOM      5  O   UNL     1       0.685 -26.043  25.939  1.00  0.00    -0.295 OA
ATOM      6  C   UNL     1       0.114 -24.798  23.912  1.00  0.00     0.067 C 
ATOM      7  C   UNL     1       0.448 -25.358  22.511  1.00  0.00     0.021 C 
ATOM      8  C   UNL     1       1.599 -24.328  22.470  1.00  0.00     0.022 C 
ATOM      9  C   UNL     1       0.787 -23.464  23.478  1.00  0.00    -0.019 C 
ATOM     10  C   UNL     1       1.571 -22.652  24.547  1.00  0.00     0.012 C 
ATOM     11  C   UNL     1      -0.205 -22.507  22.771  1.00  0.00     0.012 C 
ENDROOT
TORSDOF 0
ENDMDL
MODEL 6
REMARK VINA RESULT:    -4.521      3.730      5.332
REMARK INTER + INTRA:          -4.521
REMARK INTER:                  -4.521
REMARK INTRA:                   0.000
REMARK UNBOUND:                 0.000
REMARK SMILES CC1=CC(=O)[C@@H]2C[C@H]1C2(C)C
REMARK SMILES IDX 1 1 2 2 3 3 4 4 5 5 6 6 7 7 8 8 9 9 10 10 11 11
REMARK H PARENT
REMARK Flexibility Score: inf
ROOT
ATOM      1  C   UNL     1       8.734 -14.937  21.817  1.00  0.00     0.040 C 
ATOM      2  C   UNL     1       7.682 -14.932  22.880  1.00  0.00    -0.066 C 
ATOM      3  C   UNL     1       7.365 -16.064  23.568  1.00  0.00     0.047 C 
ATOM      4  C   UNL     1       6.316 -15.923  24.629  1.00  0.00     0.159 C 
ATOM      5  O   UNL     1       5.965 -16.886  25.360  1.00  0.00    -0.295 OA
ATOM      6  C   UNL     1       5.704 -14.528  24.764  1.00  0.00     0.067 C 
ATOM      7  C   UNL     1       5.414 -14.100  23.309  1.00  0.00     0.021 C 
ATOM      8  C   UNL     1       6.892 -13.655  23.237  1.00  0.00     0.022 C 
ATOM      9  C   UNL     1       6.856 -13.482  24.783  1.00  0.00    -0.019 C 
ATOM     10  C   UNL     1       8.142 -13.816  25.589  1.00  0.00     0.012 C 
ATOM     11  C   UNL     1       6.367 -12.075  25.209  1.00  0.00     0.012 C 
ENDROOT
TORSDOF 0
ENDMDL
MODEL 7
REMARK VINA RESULT:    -4.461      8.209      9.895
REMARK INTER + INTRA:          -4.461
REMARK INTER:                  -4.461
REMARK INTRA:                   0.000
REMARK UNBOUND:                 0.000
REMARK SMILES CC1=CC(=O)[C@@H]2C[C@H]1C2(C)C
REMARK SMILES IDX 1 1 2 2 3 3 4 4 5 5 6 6 7 7 8 8 9 9 10 10 11 11
REMARK H PARENT
REMARK Flexibility Score: inf
ROOT
ATOM      1  C   UNL     1       8.752 -15.918  21.553  1.00  0.00     0.040 C 
ATOM      2  C   UNL     1       8.873 -17.055  20.588  1.00  0.00    -0.066 C 
ATOM      3  C   UNL     1       9.200 -18.309  21.009  1.00  0.00     0.047 C 
ATOM      4  C   UNL     1       9.260 -19.368  19.950  1.00  0.00     0.159 C 
ATOM      5  O   UNL     1       9.511 -20.572  20.218  1.00  0.00    -0.295 OA
ATOM      6  C   UNL     1       8.994 -18.884  18.524  1.00  0.00     0.067 C 
ATOM      7  C   UNL     1       9.837 -17.596  18.398  1.00  0.00     0.021 C 
ATOM      8  C   UNL     1       8.656 -16.862  19.073  1.00  0.00     0.022 C 
ATOM      9  C   UNL     1       7.724 -17.986  18.535  1.00  0.00    -0.019 C 
ATOM     10  C   UNL     1       6.518 -18.423  19.414  1.00  0.00     0.012 C 
ATOM     11  C   UNL     1       7.201 -17.688  17.107  1.00  0.00     0.012 C 
ENDROOT
TORSDOF 0
ENDMDL
MODEL 8
REMARK VINA RESULT:    -4.448      3.818      5.134
REMARK INTER + INTRA:          -4.448
REMARK INTER:                  -4.448
REMARK INTRA:                   0.000
REMARK UNBOUND:                 0.000
REMARK SMILES CC1=CC(=O)[C@@H]2C[C@H]1C2(C)C
REMARK SMILES IDX 1 1 2 2 3 3 4 4 5 5 6 6 7 7 8 8 9 9 10 10 11 11
REMARK H PARENT
REMARK Flexibility Score: inf
ROOT
ATOM      1  C   UNL     1       6.118 -16.774  26.455  1.00  0.00     0.040 C 
ATOM      2  C   UNL     1       6.348 -15.907  25.259  1.00  0.00    -0.066 C 
ATOM      3  C   UNL     1       5.416 -15.000  24.853  1.00  0.00     0.047 C 
ATOM      4  C   UNL     1       5.777 -14.168  23.659  1.00  0.00     0.159 C 
ATOM      5  O   UNL     1       5.017 -13.269  23.212  1.00  0.00    -0.295 OA
ATOM      6  C   UNL     1       7.129 -14.488  23.023  1.00  0.00     0.067 C 
ATOM      7  C   UNL     1       7.156 -16.030  22.946  1.00  0.00     0.021 C 
ATOM      8  C   UNL     1       7.636 -16.008  24.416  1.00  0.00     0.022 C 
ATOM      9  C   UNL     1       8.197 -14.581  24.151  1.00  0.00    -0.019 C 
ATOM     10  C   UNL     1       8.140 -13.544  25.308  1.00  0.00     0.012 C 
ATOM     11  C   UNL     1       9.642 -14.608  23.594  1.00  0.00     0.012 C 
ENDROOT
TORSDOF 0
ENDMDL
MODEL 9
REMARK VINA RESULT:    -4.419      2.921      4.434
REMARK INTER + INTRA:          -4.419
REMARK INTER:                  -4.419
REMARK INTRA:                   0.000
REMARK UNBOUND:                 0.000
REMARK SMILES CC1=CC(=O)[C@@H]2C[C@H]1C2(C)C
REMARK SMILES IDX 1 1 2 2 3 3 4 4 5 5 6 6 7 7 8 8 9 9 10 10 11 11
REMARK H PARENT
REMARK Flexibility Score: inf
ROOT
ATOM      1  C   UNL     1       6.849 -14.935  28.043  1.00  0.00     0.040 C 
ATOM      2  C   UNL     1       6.699 -14.312  26.692  1.00  0.00    -0.066 C 
ATOM      3  C   UNL     1       6.387 -12.994  26.550  1.00  0.00     0.047 C 
ATOM      4  C   UNL     1       6.296 -12.482  25.145  1.00  0.00     0.159 C 
ATOM      5  O   UNL     1       6.054 -11.274  24.884  1.00  0.00    -0.295 OA
ATOM      6  C   UNL     1       6.517 -13.526  24.051  1.00  0.00     0.067 C 
ATOM      7  C   UNL     1       5.669 -14.735  24.505  1.00  0.00     0.021 C 
ATOM      8  C   UNL     1       6.870 -15.131  25.395  1.00  0.00     0.022 C 
ATOM      9  C   UNL     1       7.786 -14.354  24.406  1.00  0.00    -0.019 C 
ATOM     10  C   UNL     1       9.018 -13.602  24.984  1.00  0.00     0.012 C 
ATOM     11  C   UNL     1       8.264 -15.235  23.226  1.00  0.00     0.012 C 
ENDROOT
TORSDOF 0
ENDMDL
