MODEL 1
REMARK VINA RESULT:    -3.980      0.000      0.000
REMARK INTER + INTRA:          -4.264
REMARK INTER:                  -4.911
REMARK INTRA:                   0.647
REMARK UNBOUND:                 0.647
REMARK SMILES C=C1[C@H]2CC[C@@H]3[C@H]2C(C)(C)CCC[C@]13C
REMARK SMILES IDX 14 1 6 2 7 3 3 4 2 5 1 6 4 7 5 8 15 9 8 10 9 11 10 12 11 13
REMARK SMILES IDX 13 15 12 16
REMARK H PARENT
REMARK Flexibility Score: 80.00
ROOT
ATOM      1  C   UNL     1     134.810 136.885 130.355  1.00  0.00    -0.008 C 
ATOM      2  C   UNL     1     134.441 135.355 130.488  1.00  0.00     0.003 C 
ATOM      3  C   UNL     1     134.316 135.115 132.007  1.00  0.00     0.006 C 
ATOM      4  C   UNL     1     133.343 136.277 132.210  1.00  0.00     0.019 C 
ATOM      5  C   UNL     1     134.074 137.417 131.559  1.00  0.00    -0.068 C 
ATOM      6  C   UNL     1     134.000 138.698 131.943  1.00  0.00     0.009 C 
ATOM      7  C   UNL     1     132.201 135.877 131.244  1.00  0.00     0.008 C 
ATOM      8  C   UNL     1     132.950 135.146 130.102  1.00  0.00     0.005 C 
ATOM      9  C   UNL     1     134.276 137.541 129.053  1.00  0.00     0.016 C 
ENDROOT
BRANCH   3  10
ATOM     10  C   UNL     1     135.623 135.012 132.904  1.00  0.00    -0.032 C 
ATOM     11  C   UNL     1     135.824 133.518 133.282  1.00  0.00     0.011 C 
ATOM     12  C   UNL     1     135.456 135.775 134.243  1.00  0.00     0.011 C 
BRANCH  10  13
ATOM     13  C   UNL     1     136.941 135.436 132.194  1.00  0.00     0.007 CG0
ATOM     14  G   UNL     1     137.025 136.899 131.767  1.00  0.00     0.000 G0
ENDBRANCH  10  13
ENDBRANCH   3  10
BRANCH   1  15
ATOM     15  C   UNL     1     136.340 137.142 130.409  1.00  0.00     0.011 C 
BRANCH  15  16
ATOM     16  C   UNL     1     137.012 136.892 131.755  1.00  0.00     0.001 CG0
ATOM     17  G   UNL     1     136.927 135.431 132.188  1.00  0.00     0.000 G0
ENDBRANCH  15  16
ENDBRANCH   1  15
TORSDOF 0
ENDMDL
MODEL 2
REMARK VINA RESULT:    -3.952      2.219      3.917
REMARK INTER + INTRA:          -4.229
REMARK INTER:                  -4.859
REMARK INTRA:                   0.629
REMARK UNBOUND:                 0.647
REMARK SMILES C=C1[C@H]2CC[C@@H]3[C@H]2C(C)(C)CCC[C@]13C
REMARK SMILES IDX 14 1 6 2 7 3 3 4 2 5 1 6 4 7 5 8 15 9 8 10 9 11 10 12 11 13
REMARK SMILES IDX 13 15 12 16
REMARK H PARENT
REMARK Flexibility Score: 80.00
ROOT
ATOM      1  C   UNL     1     137.218 138.798 130.874  1.00  0.00    -0.008 C 
ATOM      2  C   UNL     1     135.732 139.021 130.389  1.00  0.00     0.003 C 
ATOM      3  C   UNL     1     134.944 139.334 131.679  1.00  0.00     0.006 C 
ATOM      4  C   UNL     1     135.905 140.441 132.114  1.00  0.00     0.019 C 
ATOM      5  C   UNL     1     137.236 139.747 132.046  1.00  0.00    -0.068 C 
ATOM      6  C   UNL     1     138.281 140.007 132.842  1.00  0.00     0.009 C 
ATOM      7  C   UNL     1     135.838 141.387 130.891  1.00  0.00     0.008 C 
ATOM      8  C   UNL     1     135.613 140.413 129.708  1.00  0.00     0.005 C 
ATOM      9  C   UNL     1     138.283 139.208 129.821  1.00  0.00     0.016 C 
ENDROOT
BRANCH   3  10
ATOM     10  C   UNL     1     134.577 138.162 132.687  1.00  0.00    -0.032 C 
ATOM     11  C   UNL     1     133.064 137.850 132.523  1.00  0.00     0.011 C 
ATOM     12  C   UNL     1     134.768 138.601 134.162  1.00  0.00     0.011 C 
BRANCH  10  13
ATOM     13  C   UNL     1     135.305 136.814 132.420  1.00  0.00     0.007 CG0
ATOM     14  G   UNL     1     136.825 136.841 132.558  1.00  0.00     0.000 G0
ENDBRANCH  10  13
ENDBRANCH   3  10
BRANCH   1  15
ATOM     15  C   UNL     1     137.506 137.325 131.274  1.00  0.00     0.011 C 
BRANCH  15  16
ATOM     16  C   UNL     1     136.825 136.834 132.547  1.00  0.00     0.001 CG0
ATOM     17  G   UNL     1     135.304 136.806 132.423  1.00  0.00     0.000 G0
ENDBRANCH  15  16
ENDBRANCH   1  15
TORSDOF 0
ENDMDL
MODEL 3
REMARK VINA RESULT:    -3.924      2.998      5.573
REMARK INTER + INTRA:          -4.195
REMARK INTER:                  -4.821
REMARK INTRA:                   0.626
REMARK UNBOUND:                 0.647
REMARK SMILES C=C1[C@H]2CC[C@@H]3[C@H]2C(C)(C)CCC[C@]13C
REMARK SMILES IDX 14 1 6 2 7 3 3 4 2 5 1 6 4 7 5 8 15 9 8 10 9 11 10 12 11 13
REMARK SMILES IDX 13 15 12 16
REMARK H PARENT
REMARK Flexibility Score: 80.00
ROOT
ATOM      1  C   UNL     1     138.801 136.442 131.087  1.00  0.00    -0.008 C 
ATOM      2  C   UNL     1     139.103 137.864 130.473  1.00  0.00     0.003 C 
ATOM      3  C   UNL     1     139.384 138.764 131.696  1.00  0.00     0.006 C 
ATOM      4  C   UNL     1     140.432 137.815 132.277  1.00  0.00     0.019 C 
ATOM      5  C   UNL     1     139.692 136.506 132.302  1.00  0.00    -0.068 C 
ATOM      6  C   UNL     1     139.874 135.537 133.207  1.00  0.00     0.009 C 
ATOM      7  C   UNL     1     141.437 137.731 131.104  1.00  0.00     0.008 C 
ATOM      8  C   UNL     1     140.529 137.871 129.856  1.00  0.00     0.005 C 
ATOM      9  C   UNL     1     139.220 135.266 130.163  1.00  0.00     0.016 C 
ENDROOT
BRANCH   3  10
ATOM     10  C   UNL     1     138.180 139.266 132.603  1.00  0.00    -0.032 C 
ATOM     11  C   UNL     1     137.932 140.765 132.277  1.00  0.00     0.011 C 
ATOM     12  C   UNL     1     138.542 139.209 134.110  1.00  0.00     0.011 C 
BRANCH  10  13
ATOM     13  C   UNL     1     136.821 138.559 132.341  1.00  0.00     0.007 CG0
ATOM     14  G   UNL     1     136.788 137.057 132.614  1.00  0.00     0.000 G0
ENDBRANCH  10  13
ENDBRANCH   3  10
BRANCH   1  15
ATOM     15  C   UNL     1     137.302 136.243 131.437  1.00  0.00     0.011 C 
BRANCH  15  16
ATOM     16  C   UNL     1     136.776 137.062 132.612  1.00  0.00     0.001 CG0
ATOM     17  G   UNL     1     136.820 138.564 132.343  1.00  0.00     0.000 G0
ENDBRANCH  15  16
ENDBRANCH   1  15
TORSDOF 0
ENDMDL
MODEL 4
REMARK VINA RESULT:    -3.919      2.149      3.776
REMARK INTER + INTRA:          -4.189
REMARK INTER:                  -4.827
REMARK INTRA:                   0.638
REMARK UNBOUND:                 0.647
REMARK SMILES C=C1[C@H]2CC[C@@H]3[C@H]2C(C)(C)CCC[C@]13C
REMARK SMILES IDX 14 1 6 2 7 3 3 4 2 5 1 6 4 7 5 8 15 9 8 10 9 11 10 12 11 13
REMARK SMILES IDX 13 15 12 16
REMARK H PARENT
REMARK Flexibility Score: 80.00
ROOT
ATOM      1  C   UNL     1     136.755 134.891 130.448  1.00  0.00    -0.008 C 
ATOM      2  C   UNL     1     138.286 134.549 130.627  1.00  0.00     0.003 C 
ATOM      3  C   UNL     1     138.466 134.353 132.148  1.00  0.00     0.006 C 
ATOM      4  C   UNL     1     137.320 133.346 132.252  1.00  0.00     0.019 C 
ATOM      5  C   UNL     1     136.190 134.084 131.590  1.00  0.00    -0.068 C 
ATOM      6  C   UNL     1     134.897 133.963 131.914  1.00  0.00     0.009 C 
ATOM      7  C   UNL     1     137.787 132.263 131.250  1.00  0.00     0.008 C 
ATOM      8  C   UNL     1     138.547 133.085 130.178  1.00  0.00     0.005 C 
ATOM      9  C   UNL     1     136.167 134.408 129.093  1.00  0.00     0.016 C 
ENDROOT
BRANCH   3  10
ATOM     10  C   UNL     1     138.500 135.616 133.111  1.00  0.00    -0.032 C 
ATOM     11  C   UNL     1     139.974 135.839 133.551  1.00  0.00     0.011 C 
ATOM     12  C   UNL     1     137.697 135.360 134.412  1.00  0.00     0.011 C 
BRANCH  10  13
ATOM     13  C   UNL     1     138.061 136.955 132.453  1.00  0.00     0.007 CG0
ATOM     14  G   UNL     1     136.620 137.010 131.953  1.00  0.00     0.000 G0
ENDBRANCH  10  13
ENDBRANCH   3  10
BRANCH   1  15
ATOM     15  C   UNL     1     136.460 136.410 130.565  1.00  0.00     0.011 C 
BRANCH  15  16
ATOM     16  C   UNL     1     136.630 137.018 131.954  1.00  0.00     0.001 CG0
ATOM     17  G   UNL     1     138.073 136.946 132.449  1.00  0.00     0.000 G0
ENDBRANCH  15  16
ENDBRANCH   1  15
TORSDOF 0
ENDMDL
MODEL 5
REMARK VINA RESULT:    -3.797      3.219      5.090
REMARK INTER + INTRA:          -4.038
REMARK INTER:                  -4.676
REMARK INTRA:                   0.638
REMARK UNBOUND:                 0.647
REMARK SMILES C=C1[C@H]2CC[C@@H]3[C@H]2C(C)(C)CCC[C@]13C
REMARK SMILES IDX 14 1 6 2 7 3 3 4 2 5 1 6 4 7 5 8 15 9 8 10 9 11 10 12 11 13
REMARK SMILES IDX 13 15 12 16
REMARK H PARENT
REMARK Flexibility Score: 80.00
ROOT
ATOM      1  C   UNL     1     138.759 138.397 131.775  1.00  0.00    -0.008 C 
ATOM      2  C   UNL     1     138.212 137.622 133.037  1.00  0.00     0.003 C 
ATOM      3  C   UNL     1     138.911 136.247 132.983  1.00  0.00     0.006 C 
ATOM      4  C   UNL     1     140.310 136.854 132.858  1.00  0.00     0.019 C 
ATOM      5  C   UNL     1     140.141 137.798 131.702  1.00  0.00    -0.068 C 
ATOM      6  C   UNL     1     141.098 138.112 130.819  1.00  0.00     0.009 C 
ATOM      7  C   UNL     1     140.368 137.726 134.136  1.00  0.00     0.008 C 
ATOM      8  C   UNL     1     138.895 138.173 134.320  1.00  0.00     0.005 C 
ATOM      9  C   UNL     1     138.839 139.935 131.977  1.00  0.00     0.016 C 
ENDROOT
BRANCH   3  10
ATOM     10  C   UNL     1     138.428 135.152 131.939  1.00  0.00    -0.032 C 
ATOM     11  C   UNL     1     137.638 134.066 132.720  1.00  0.00     0.011 C 
ATOM     12  C   UNL     1     139.628 134.423 131.283  1.00  0.00     0.011 C 
BRANCH  10  13
ATOM     13  C   UNL     1     137.444 135.672 130.852  1.00  0.00     0.007 CG0
ATOM     14  G   UNL     1     137.998 136.736 129.907  1.00  0.00     0.000 G0
ENDBRANCH  10  13
ENDBRANCH   3  10
BRANCH   1  15
ATOM     15  C   UNL     1     137.913 138.142 130.499  1.00  0.00     0.011 C 
BRANCH  15  16
ATOM     16  C   UNL     1     137.997 136.736 129.912  1.00  0.00     0.001 CG0
ATOM     17  G   UNL     1     137.443 135.674 130.858  1.00  0.00     0.000 G0
ENDBRANCH  15  16
ENDBRANCH   1  15
TORSDOF 0
ENDMDL
MODEL 6
REMARK VINA RESULT:    -3.782      3.040      4.588
REMARK INTER + INTRA:          -4.019
REMARK INTER:                  -4.647
REMARK INTRA:                   0.628
REMARK UNBOUND:                 0.647
REMARK SMILES C=C1[C@H]2CC[C@@H]3[C@H]2C(C)(C)CCC[C@]13C
REMARK SMILES IDX 14 1 6 2 7 3 3 4 2 5 1 6 4 7 5 8 15 9 8 10 9 11 10 12 11 13
REMARK SMILES IDX 13 15 12 16
REMARK H PARENT
REMARK Flexibility Score: 80.00
ROOT
ATOM      1  C   UNL     1     136.938 138.412 131.626  1.00  0.00    -0.008 C 
ATOM      2  C   UNL     1     135.598 139.044 132.170  1.00  0.00     0.003 C 
ATOM      3  C   UNL     1     136.052 140.069 133.231  1.00  0.00     0.006 C 
ATOM      4  C   UNL     1     137.033 140.762 132.283  1.00  0.00     0.019 C 
ATOM      5  C   UNL     1     137.847 139.607 131.773  1.00  0.00    -0.068 C 
ATOM      6  C   UNL     1     139.139 139.670 131.426  1.00  0.00     0.009 C 
ATOM      7  C   UNL     1     136.085 141.176 131.131  1.00  0.00     0.008 C 
ATOM      8  C   UNL     1     135.031 140.041 131.121  1.00  0.00     0.005 C 
ATOM      9  C   UNL     1     136.856 137.967 130.140  1.00  0.00     0.016 C 
ENDROOT
BRANCH   3  10
ATOM     10  C   UNL     1     136.549 139.568 134.655  1.00  0.00    -0.032 C 
ATOM     11  C   UNL     1     135.425 139.875 135.684  1.00  0.00     0.011 C 
ATOM     12  C   UNL     1     137.795 140.357 135.132  1.00  0.00     0.011 C 
BRANCH  10  13
ATOM     13  C   UNL     1     136.796 138.037 134.763  1.00  0.00     0.007 CG0
ATOM     14  G   UNL     1     137.905 137.478 133.873  1.00  0.00     0.000 G0
ENDBRANCH  10  13
ENDBRANCH   3  10
BRANCH   1  15
ATOM     15  C   UNL     1     137.403 137.183 132.451  1.00  0.00     0.011 C 
BRANCH  15  16
ATOM     16  C   UNL     1     137.900 137.477 133.864  1.00  0.00     0.001 CG0
ATOM     17  G   UNL     1     136.801 138.036 134.764  1.00  0.00     0.000 G0
ENDBRANCH  15  16
ENDBRANCH   1  15
TORSDOF 0
ENDMDL
MODEL 7
REMARK VINA RESULT:    -3.760      2.950      5.058
REMARK INTER + INTRA:          -3.992
REMARK INTER:                  -4.632
REMARK INTRA:                   0.640
REMARK UNBOUND:                 0.647
REMARK SMILES C=C1[C@H]2CC[C@@H]3[C@H]2C(C)(C)CCC[C@]13C
REMARK SMILES IDX 14 1 6 2 7 3 3 4 2 5 1 6 4 7 5 8 15 9 8 10 9 11 10 12 11 13
REMARK SMILES IDX 13 15 12 16
REMARK H PARENT
REMARK Flexibility Score: 80.00
ROOT
ATOM      1  C   UNL     1     136.943 137.933 131.365  1.00  0.00    -0.008 C 
ATOM      2  C   UNL     1     138.099 137.865 132.438  1.00  0.00     0.003 C 
ATOM      3  C   UNL     1     139.230 138.733 131.848  1.00  0.00     0.006 C 
ATOM      4  C   UNL     1     138.317 139.936 131.612  1.00  0.00     0.019 C 
ATOM      5  C   UNL     1     137.184 139.325 130.836  1.00  0.00    -0.068 C 
ATOM      6  C   UNL     1     136.463 139.956 129.901  1.00  0.00     0.009 C 
ATOM      7  C   UNL     1     137.785 140.188 133.044  1.00  0.00     0.008 C 
ATOM      8  C   UNL     1     137.734 138.763 133.652  1.00  0.00     0.005 C 
ATOM      9  C   UNL     1     135.520 137.820 131.978  1.00  0.00     0.016 C 
ENDROOT
BRANCH   3  10
ATOM     10  C   UNL     1     140.122 138.171 130.659  1.00  0.00    -0.032 C 
ATOM     11  C   UNL     1     141.509 137.787 131.245  1.00  0.00     0.011 C 
ATOM     12  C   UNL     1     140.394 139.260 129.589  1.00  0.00     0.011 C 
BRANCH  10  13
ATOM     13  C   UNL     1     139.585 136.873 129.992  1.00  0.00     0.007 CG0
ATOM     14  G   UNL     1     138.224 136.989 129.311  1.00  0.00     0.000 G0
ENDBRANCH  10  13
ENDBRANCH   3  10
BRANCH   1  15
ATOM     15  C   UNL     1     137.065 136.834 130.276  1.00  0.00     0.011 C 
BRANCH  15  16
ATOM     16  C   UNL     1     138.232 136.985 129.304  1.00  0.00     0.001 CG0
ATOM     17  G   UNL     1     139.587 136.873 129.997  1.00  0.00     0.000 G0
ENDBRANCH  15  16
ENDBRANCH   1  15
TORSDOF 0
ENDMDL
MODEL 8
REMARK VINA RESULT:    -3.684      2.508      4.764
REMARK INTER + INTRA:          -3.898
REMARK INTER:                  -4.539
REMARK INTRA:                   0.640
REMARK UNBOUND:                 0.647
REMARK SMILES C=C1[C@H]2CC[C@@H]3[C@H]2C(C)(C)CCC[C@]13C
REMARK SMILES IDX 14 1 6 2 7 3 3 4 2 5 1 6 4 7 5 8 15 9 8 10 9 11 10 12 11 13
REMARK SMILES IDX 13 15 12 16
REMARK H PARENT
REMARK Flexibility Score: 80.00
ROOT
ATOM      1  C   UNL     1     137.032 135.155 131.485  1.00  0.00    -0.008 C 
ATOM      2  C   UNL     1     137.741 135.275 130.079  1.00  0.00     0.003 C 
ATOM      3  C   UNL     1     139.215 135.587 130.412  1.00  0.00     0.006 C 
ATOM      4  C   UNL     1     139.352 134.403 131.370  1.00  0.00     0.019 C 
ATOM      5  C   UNL     1     138.182 134.607 132.292  1.00  0.00    -0.068 C 
ATOM      6  C   UNL     1     138.154 134.268 133.586  1.00  0.00     0.009 C 
ATOM      7  C   UNL     1     138.979 133.225 130.438  1.00  0.00     0.008 C 
ATOM      8  C   UNL     1     137.940 133.856 129.476  1.00  0.00     0.005 C 
ATOM      9  C   UNL     1     135.835 134.164 131.494  1.00  0.00     0.016 C 
ENDROOT
BRANCH   3  10
ATOM     10  C   UNL     1     139.628 137.044 130.891  1.00  0.00    -0.032 C 
ATOM     11  C   UNL     1     140.349 137.747 129.708  1.00  0.00     0.011 C 
ATOM     12  C   UNL     1     140.656 136.991 132.051  1.00  0.00     0.011 C 
BRANCH  10  13
ATOM     13  C   UNL     1     138.439 137.976 131.258  1.00  0.00     0.007 CG0
ATOM     14  G   UNL     1     137.572 137.519 132.429  1.00  0.00     0.000 G0
ENDBRANCH  10  13
ENDBRANCH   3  10
BRANCH   1  15
ATOM     15  C   UNL     1     136.507 136.517 132.013  1.00  0.00     0.011 C 
BRANCH  15  16
ATOM     16  C   UNL     1     137.573 137.527 132.427  1.00  0.00     0.001 CG0
ATOM     17  G   UNL     1     138.436 137.980 131.252  1.00  0.00     0.000 G0
ENDBRANCH  15  16
ENDBRANCH   1  15
TORSDOF 0
ENDMDL
MODEL 9
REMARK VINA RESULT:    -3.683      1.683      3.825
REMARK INTER + INTRA:          -3.898
REMARK INTER:                  -4.538
REMARK INTRA:                   0.641
REMARK UNBOUND:                 0.647
REMARK SMILES C=C1[C@H]2CC[C@@H]3[C@H]2C(C)(C)CCC[C@]13C
REMARK SMILES IDX 14 1 6 2 7 3 3 4 2 5 1 6 4 7 5 8 15 9 8 10 9 11 10 12 11 13
REMARK SMILES IDX 13 15 12 16
REMARK H PARENT
REMARK Flexibility Score: 80.00
ROOT
ATOM      1  C   UNL     1     135.095 136.153 132.190  1.00  0.00    -0.008 C 
ATOM      2  C   UNL     1     135.788 137.245 133.094  1.00  0.00     0.003 C 
ATOM      3  C   UNL     1     135.147 138.579 132.655  1.00  0.00     0.006 C 
ATOM      4  C   UNL     1     133.718 138.063 132.834  1.00  0.00     0.019 C 
ATOM      5  C   UNL     1     133.738 136.793 132.031  1.00  0.00    -0.068 C 
ATOM      6  C   UNL     1     132.692 136.285 131.368  1.00  0.00     0.009 C 
ATOM      7  C   UNL     1     133.740 137.644 134.323  1.00  0.00     0.008 C 
ATOM      8  C   UNL     1     135.203 137.176 134.532  1.00  0.00     0.005 C 
ATOM      9  C   UNL     1     134.968 134.766 132.879  1.00  0.00     0.016 C 
ENDROOT
BRANCH   3  10
ATOM     10  C   UNL     1     135.579 139.252 131.282  1.00  0.00    -0.032 C 
ATOM     11  C   UNL     1     136.485 140.470 131.615  1.00  0.00     0.011 C 
ATOM     12  C   UNL     1     134.356 139.822 130.518  1.00  0.00     0.011 C 
BRANCH  10  13
ATOM     13  C   UNL     1     136.434 138.349 130.349  1.00  0.00     0.007 CG0
ATOM     14  G   UNL     1     135.747 137.087 129.832  1.00  0.00     0.000 G0
ENDBRANCH  10  13
ENDBRANCH   3  10
BRANCH   1  15
ATOM     15  C   UNL     1     135.830 135.933 130.841  1.00  0.00     0.011 C 
BRANCH  15  16
ATOM     16  C   UNL     1     135.747 137.082 129.840  1.00  0.00     0.001 CG0
ATOM     17  G   UNL     1     136.440 138.346 130.344  1.00  0.00     0.000 G0
ENDBRANCH  15  16
ENDBRANCH   1  15
TORSDOF 0
ENDMDL
