MODEL 1
REMARK VINA RESULT:    -3.956      0.000      0.000
REMARK INTER + INTRA:          -7.223
REMARK INTER:                  -6.847
REMARK INTRA:                  -0.376
REMARK UNBOUND:                -0.376
REMARK SMILES OC[C@@H]1O[C@@H](O[C@@H]2[C@@H](O)[C@H](O)[C@@H](O[C@@H]3[C@H](O)[C@H](O)[C@H](O)O[C@@H]3CO)O[C@@H]2CO)[C@@H](O)[C@@H](O)[C@H]1O
REMARK SMILES IDX 7 1 26 2 25 3 12 4 10 5 8 6 6 7 5 8 3 9 33 10 4 11 31 12
REMARK SMILES IDX 29 13 2 14 1 15 34 17 32 19 30 21 27 23 28 24 9 26 11 28
REMARK SMILES IDX 13 30 14 31 22 32 15 33 21 34 17 35 19 36 23 37 24 38 16 40
REMARK SMILES IDX 18 42 20 44
REMARK H PARENT 1 16 34 18 32 20 30 22 28 25 9 27 11 29 24 39 16 41 18 43
REMARK H PARENT 20 45
REMARK Flexibility Score: inf
ROOT
ATOM      1  C   UNL     1      18.672  28.576  30.976  1.00  0.00     0.184 C 
ATOM      2  C   UNL     1      17.877  28.414  32.300  1.00  0.00     0.178 C 
ATOM      3  O   UNL     1      18.505  29.160  33.337  1.00  0.00    -0.341 OA
ATOM      4  C   UNL     1      18.427  30.560  33.083  1.00  0.00     0.282 C 
ATOM      5  C   UNL     1      19.137  30.943  31.755  1.00  0.00     0.202 C 
ATOM      6  C   UNL     1      18.644  30.066  30.583  1.00  0.00     0.180 C 
ENDROOT
BRANCH   1   7
ATOM      7  O   UNL     1      20.030  28.194  31.172  1.00  0.00    -0.341 OA
BRANCH   7   8
ATOM      8  C   UNL     1      20.371  26.931  30.622  1.00  0.00     0.282 C 
ATOM      9  C   UNL     1      19.630  24.696  31.166  1.00  0.00     0.178 C 
ATOM     10  C   UNL     1      20.614  24.528  32.365  1.00  0.00     0.177 C 
ATOM     11  O   UNL     1      19.286  26.056  30.934  1.00  0.00    -0.341 OA
ATOM     12  C   UNL     1      21.524  25.778  32.553  1.00  0.00     0.179 C 
ATOM     13  C   UNL     1      21.739  26.490  31.213  1.00  0.00     0.202 C 
BRANCH   9  14
ATOM     14  C   UNL     1      20.080  23.962  29.878  1.00  0.00     0.191 C 
BRANCH  14  15
ATOM     15  O   UNL     1      20.167  22.578  30.108  1.00  0.00    -0.394 OA
ATOM     16  H   UNL     1      21.137  22.368  30.161  1.00  0.00     0.210 HD
ENDBRANCH  14  15
ENDBRANCH   9  14
BRANCH  10  17
ATOM     17  O   UNL     1      19.888  24.276  33.544  1.00  0.00    -0.387 OA
ATOM     18  H   UNL     1      19.554  25.154  33.870  1.00  0.00     0.211 HD
ENDBRANCH  10  17
BRANCH  12  19
ATOM     19  O   UNL     1      21.018  26.681  33.509  1.00  0.00    -0.387 OA
ATOM     20  H   UNL     1      20.337  27.257  33.070  1.00  0.00     0.211 HD
ENDBRANCH  12  19
BRANCH  13  21
ATOM     21  O   UNL     1      22.602  27.590  31.386  1.00  0.00    -0.385 OA
ATOM     22  H   UNL     1      22.387  28.242  30.670  1.00  0.00     0.211 HD
ENDBRANCH  13  21
ENDBRANCH   7   8
ENDBRANCH   1   7
BRANCH   2  23
ATOM     23  C   UNL     1      17.761  26.955  32.745  1.00  0.00     0.191 C 
BRANCH  23  24
ATOM     24  O   UNL     1      18.371  26.782  33.994  1.00  0.00    -0.394 OA
ATOM     25  H   UNL     1      17.664  26.423  34.596  1.00  0.00     0.210 HD
ENDBRANCH  23  24
ENDBRANCH   2  23
BRANCH   6  26
ATOM     26  O   UNL     1      17.333  30.438  30.228  1.00  0.00    -0.387 OA
ATOM     27  H   UNL     1      16.713  29.890  30.770  1.00  0.00     0.211 HD
ENDBRANCH   6  26
BRANCH   5  28
ATOM     28  O   UNL     1      20.544  30.861  31.841  1.00  0.00    -0.385 OA
ATOM     29  H   UNL     1      20.929  31.772  31.895  1.00  0.00     0.211 HD
ENDBRANCH   5  28
BRANCH   4  30
ATOM     30  O   UNL     1      17.078  30.999  33.060  1.00  0.00    -0.341 OA
BRANCH  30  31
ATOM     31  C   UNL     1      16.634  31.394  34.351  1.00  0.00     0.184 C 
ATOM     32  C   UNL     1      15.157  31.877  34.284  1.00  0.00     0.178 C 
ATOM     33  C   UNL     1      16.818  30.228  35.333  1.00  0.00     0.180 C 
ATOM     34  O   UNL     1      14.590  32.125  35.566  1.00  0.00    -0.342 OA
ATOM     35  C   UNL     1      16.175  30.590  36.671  1.00  0.00     0.201 C 
ATOM     36  C   UNL     1      14.708  31.038  36.480  1.00  0.00     0.279 C 
BRANCH  32  37
ATOM     37  C   UNL     1      14.241  31.025  33.383  1.00  0.00     0.191 C 
BRANCH  37  38
ATOM     38  O   UNL     1      14.337  31.435  32.043  1.00  0.00    -0.394 OA
ATOM     39  H   UNL     1      13.728  32.212  31.936  1.00  0.00     0.210 HD
ENDBRANCH  37  38
ENDBRANCH  32  37
BRANCH  33  40
ATOM     40  O   UNL     1      16.253  29.039  34.831  1.00  0.00    -0.387 OA
ATOM     41  H   UNL     1      16.888  28.672  34.158  1.00  0.00     0.211 HD
ENDBRANCH  33  40
BRANCH  35  42
ATOM     42  O   UNL     1      16.234  29.484  37.540  1.00  0.00    -0.385 OA
ATOM     43  H   UNL     1      15.944  28.685  37.034  1.00  0.00     0.211 HD
ENDBRANCH  35  42
BRANCH  36  44
ATOM     44  O   UNL     1      13.876  29.968  36.096  1.00  0.00    -0.366 OA
ATOM     45  H   UNL     1      13.254  29.806  36.853  1.00  0.00     0.213 HD
ENDBRANCH  36  44
ENDBRANCH  30  31
ENDBRANCH   4  30
TORSDOF 18
ENDMDL
MODEL 2
REMARK VINA RESULT:    -2.807      1.384      7.486
REMARK INTER + INTRA:          -5.234
REMARK INTER:                  -5.211
REMARK INTRA:                  -0.023
REMARK UNBOUND:                -0.376
REMARK SMILES OC[C@@H]1O[C@@H](O[C@@H]2[C@@H](O)[C@H](O)[C@@H](O[C@@H]3[C@H](O)[C@H](O)[C@H](O)O[C@@H]3CO)O[C@@H]2CO)[C@@H](O)[C@@H](O)[C@H]1O
REMARK SMILES IDX 7 1 26 2 25 3 12 4 10 5 8 6 6 7 5 8 3 9 33 10 4 11 31 12
REMARK SMILES IDX 29 13 2 14 1 15 34 17 32 19 30 21 27 23 28 24 9 26 11 28
REMARK SMILES IDX 13 30 14 31 22 32 15 33 21 34 17 35 19 36 23 37 24 38 16 40
REMARK SMILES IDX 18 42 20 44
REMARK H PARENT 1 16 34 18 32 20 30 22 28 25 9 27 11 29 24 39 16 41 18 43
REMARK H PARENT 20 45
REMARK Flexibility Score: inf
ROOT
ATOM      1  C   UNL     1      18.038  30.531  32.920  1.00  0.00     0.184 C 
ATOM      2  C   UNL     1      18.125  28.991  33.095  1.00  0.00     0.178 C 
ATOM      3  O   UNL     1      17.423  28.343  32.040  1.00  0.00    -0.341 OA
ATOM      4  C   UNL     1      18.062  28.562  30.785  1.00  0.00     0.282 C 
ATOM      5  C   UNL     1      18.124  30.073  30.428  1.00  0.00     0.202 C 
ATOM      6  C   UNL     1      18.721  30.899  31.589  1.00  0.00     0.180 C 
ENDROOT
BRANCH   1   7
ATOM      7  O   UNL     1      16.675  30.938  32.847  1.00  0.00    -0.341 OA
BRANCH   7   8
ATOM      8  C   UNL     1      16.196  31.602  34.005  1.00  0.00     0.282 C 
ATOM      9  C   UNL     1      15.667  30.782  36.216  1.00  0.00     0.178 C 
ATOM     10  C   UNL     1      14.245  30.274  35.822  1.00  0.00     0.177 C 
ATOM     11  O   UNL     1      16.566  30.781  35.115  1.00  0.00    -0.341 OA
ATOM     12  C   UNL     1      13.911  30.572  34.331  1.00  0.00     0.179 C 
ATOM     13  C   UNL     1      14.665  31.818  33.852  1.00  0.00     0.202 C 
BRANCH   9  14
ATOM     14  C   UNL     1      15.662  32.125  36.988  1.00  0.00     0.191 C 
BRANCH  14  15
ATOM     15  O   UNL     1      14.793  32.054  38.090  1.00  0.00    -0.394 OA
ATOM     16  H   UNL     1      13.934  31.695  37.741  1.00  0.00     0.210 HD
ENDBRANCH  14  15
ENDBRANCH   9  14
BRANCH  10  17
ATOM     17  O   UNL     1      14.147  28.893  36.075  1.00  0.00    -0.387 OA
ATOM     18  H   UNL     1      15.018  28.609  36.460  1.00  0.00     0.211 HD
ENDBRANCH  10  17
BRANCH  12  19
ATOM     19  O   UNL     1      14.186  29.480  33.483  1.00  0.00    -0.387 OA
ATOM     20  H   UNL     1      13.386  28.892  33.456  1.00  0.00     0.211 HD
ENDBRANCH  12  19
BRANCH  13  21
ATOM     21  O   UNL     1      14.318  32.105  32.517  1.00  0.00    -0.385 OA
ATOM     22  H   UNL     1      14.126  31.237  32.075  1.00  0.00     0.211 HD
ENDBRANCH  13  21
ENDBRANCH   7   8
ENDBRANCH   1   7
BRANCH   2  23
ATOM     23  C   UNL     1      17.554  28.515  34.431  1.00  0.00     0.191 C 
BRANCH  23  24
ATOM     24  O   UNL     1      18.433  27.608  35.036  1.00  0.00    -0.394 OA
ATOM     25  H   UNL     1      19.238  27.576  34.451  1.00  0.00     0.210 HD
ENDBRANCH  23  24
ENDBRANCH   2  23
BRANCH   6  26
ATOM     26  O   UNL     1      20.105  30.656  31.683  1.00  0.00    -0.387 OA
ATOM     27  H   UNL     1      20.514  31.444  32.120  1.00  0.00     0.211 HD
ENDBRANCH   6  26
BRANCH   5  28
ATOM     28  O   UNL     1      16.865  30.605  30.075  1.00  0.00    -0.385 OA
ATOM     29  H   UNL     1      16.984  31.483  29.633  1.00  0.00     0.211 HD
ENDBRANCH   5  28
BRANCH   4  30
ATOM     30  O   UNL     1      19.367  28.004  30.775  1.00  0.00    -0.341 OA
BRANCH  30  31
ATOM     31  C   UNL     1      19.382  26.718  30.169  1.00  0.00     0.184 C 
ATOM     32  C   UNL     1      20.794  26.080  30.305  1.00  0.00     0.178 C 
ATOM     33  C   UNL     1      18.288  25.844  30.801  1.00  0.00     0.180 C 
ATOM     34  O   UNL     1      20.838  24.723  29.875  1.00  0.00    -0.342 OA
ATOM     35  C   UNL     1      18.425  24.414  30.281  1.00  0.00     0.201 C 
ATOM     36  C   UNL     1      19.862  23.883  30.484  1.00  0.00     0.279 C 
BRANCH  32  37
ATOM     37  C   UNL     1      21.469  26.293  31.674  1.00  0.00     0.191 C 
BRANCH  37  38
ATOM     38  O   UNL     1      22.190  27.498  31.693  1.00  0.00    -0.394 OA
ATOM     39  H   UNL     1      23.088  27.291  32.061  1.00  0.00     0.210 HD
ENDBRANCH  37  38
ENDBRANCH  32  37
BRANCH  33  40
ATOM     40  O   UNL     1      18.368  25.857  32.208  1.00  0.00    -0.387 OA
ATOM     41  H   UNL     1      17.436  25.832  32.556  1.00  0.00     0.211 HD
ENDBRANCH  33  40
BRANCH  35  42
ATOM     42  O   UNL     1      17.503  23.580  30.942  1.00  0.00    -0.385 OA
ATOM     43  H   UNL     1      17.487  23.842  31.896  1.00  0.00     0.211 HD
ENDBRANCH  35  42
BRANCH  36  44
ATOM     44  O   UNL     1      20.159  23.673  31.844  1.00  0.00    -0.366 OA
ATOM     45  H   UNL     1      20.738  22.867  31.888  1.00  0.00     0.213 HD
ENDBRANCH  36  44
ENDBRANCH  30  31
ENDBRANCH   4  30
TORSDOF 18
ENDMDL
MODEL 3
REMARK VINA RESULT:    -2.701      1.574      2.182
REMARK INTER + INTRA:          -5.050
REMARK INTER:                  -4.034
REMARK INTRA:                  -1.016
REMARK UNBOUND:                -0.376
REMARK SMILES OC[C@@H]1O[C@@H](O[C@@H]2[C@@H](O)[C@H](O)[C@@H](O[C@@H]3[C@H](O)[C@H](O)[C@H](O)O[C@@H]3CO)O[C@@H]2CO)[C@@H](O)[C@@H](O)[C@H]1O
REMARK SMILES IDX 7 1 26 2 25 3 12 4 10 5 8 6 6 7 5 8 3 9 33 10 4 11 31 12
REMARK SMILES IDX 29 13 2 14 1 15 34 17 32 19 30 21 27 23 28 24 9 26 11 28
REMARK SMILES IDX 13 30 14 31 22 32 15 33 21 34 17 35 19 36 23 37 24 38 16 40
REMARK SMILES IDX 18 42 20 44
REMARK H PARENT 1 16 34 18 32 20 30 22 28 25 9 27 11 29 24 39 16 41 18 43
REMARK H PARENT 20 45
REMARK Flexibility Score: inf
ROOT
ATOM      1  C   UNL     1      17.281  27.784  31.922  1.00  0.00     0.184 C 
ATOM      2  C   UNL     1      17.462  28.278  33.382  1.00  0.00     0.178 C 
ATOM      3  O   UNL     1      17.655  29.688  33.397  1.00  0.00    -0.341 OA
ATOM      4  C   UNL     1      16.481  30.372  32.968  1.00  0.00     0.282 C 
ATOM      5  C   UNL     1      16.087  29.983  31.516  1.00  0.00     0.202 C 
ATOM      6  C   UNL     1      16.016  28.450  31.347  1.00  0.00     0.180 C 
ENDROOT
BRANCH   1   7
ATOM      7  O   UNL     1      18.393  28.186  31.129  1.00  0.00    -0.341 OA
BRANCH   7   8
ATOM      8  C   UNL     1      19.041  27.127  30.444  1.00  0.00     0.282 C 
ATOM      9  C   UNL     1      19.930  25.020  31.228  1.00  0.00     0.178 C 
ATOM     10  C   UNL     1      21.278  25.631  31.723  1.00  0.00     0.177 C 
ATOM     11  O   UNL     1      18.866  25.963  31.254  1.00  0.00    -0.341 OA
ATOM     12  C   UNL     1      21.365  27.160  31.440  1.00  0.00     0.179 C 
ATOM     13  C   UNL     1      20.525  27.525  30.210  1.00  0.00     0.202 C 
BRANCH   9  14
ATOM     14  C   UNL     1      20.038  24.274  29.875  1.00  0.00     0.191 C 
BRANCH  14  15
ATOM     15  O   UNL     1      20.061  22.884  30.083  1.00  0.00    -0.394 OA
ATOM     16  H   UNL     1      19.762  22.740  31.019  1.00  0.00     0.210 HD
ENDBRANCH  14  15
ENDBRANCH   9  14
BRANCH  10  17
ATOM     17  O   UNL     1      21.435  25.382  33.099  1.00  0.00    -0.387 OA
ATOM     18  H   UNL     1      21.107  26.190  33.576  1.00  0.00     0.211 HD
ENDBRANCH  10  17
BRANCH  12  19
ATOM     19  O   UNL     1      20.973  27.941  32.546  1.00  0.00    -0.387 OA
ATOM     20  H   UNL     1      21.693  27.903  33.230  1.00  0.00     0.211 HD
ENDBRANCH  12  19
BRANCH  13  21
ATOM     21  O   UNL     1      20.650  28.902  29.936  1.00  0.00    -0.385 OA
ATOM     22  H   UNL     1      21.502  29.022  29.441  1.00  0.00     0.211 HD
ENDBRANCH  13  21
ENDBRANCH   7   8
ENDBRANCH   1   7
BRANCH   2  23
ATOM     23  C   UNL     1      18.644  27.612  34.088  1.00  0.00     0.191 C 
BRANCH  23  24
ATOM     24  O   UNL     1      19.247  28.515  34.975  1.00  0.00    -0.394 OA
ATOM     25  H   UNL     1      19.239  28.070  35.865  1.00  0.00     0.210 HD
ENDBRANCH  23  24
ENDBRANCH   2  23
BRANCH   6  26
ATOM     26  O   UNL     1      14.876  27.950  32.007  1.00  0.00    -0.387 OA
ATOM     27  H   UNL     1      14.083  28.354  31.574  1.00  0.00     0.211 HD
ENDBRANCH   6  26
BRANCH   5  28
ATOM     28  O   UNL     1      16.963  30.520  30.548  1.00  0.00    -0.385 OA
ATOM     29  H   UNL     1      16.571  31.342  30.160  1.00  0.00     0.211 HD
ENDBRANCH   5  28
BRANCH   4  30
ATOM     30  O   UNL     1      15.397  30.126  33.850  1.00  0.00    -0.341 OA
BRANCH  30  31
ATOM     31  C   UNL     1      15.304  31.125  34.857  1.00  0.00     0.184 C 
ATOM     32  C   UNL     1      14.082  30.844  35.777  1.00  0.00     0.178 C 
ATOM     33  C   UNL     1      16.621  31.179  35.645  1.00  0.00     0.180 C 
ATOM     34  O   UNL     1      14.026  31.704  36.911  1.00  0.00    -0.342 OA
ATOM     35  C   UNL     1      16.456  32.120  36.837  1.00  0.00     0.201 C 
ATOM     36  C   UNL     1      15.222  31.734  37.683  1.00  0.00     0.279 C 
BRANCH  32  37
ATOM     37  C   UNL     1      13.878  29.360  36.144  1.00  0.00     0.191 C 
BRANCH  37  38
ATOM     38  O   UNL     1      14.144  28.533  35.042  1.00  0.00    -0.394 OA
ATOM     39  H   UNL     1      15.009  28.833  34.658  1.00  0.00     0.210 HD
ENDBRANCH  37  38
ENDBRANCH  32  37
BRANCH  33  40
ATOM     40  O   UNL     1      17.008  29.899  36.090  1.00  0.00    -0.387 OA
ATOM     41  H   UNL     1      17.222  29.358  35.281  1.00  0.00     0.211 HD
ENDBRANCH  33  40
BRANCH  35  42
ATOM     42  O   UNL     1      17.618  32.087  37.632  1.00  0.00    -0.385 OA
ATOM     43  H   UNL     1      17.674  31.191  38.048  1.00  0.00     0.211 HD
ENDBRANCH  35  42
BRANCH  36  44
ATOM     44  O   UNL     1      15.410  30.516  38.365  1.00  0.00    -0.366 OA
ATOM     45  H   UNL     1      16.107  30.679  39.053  1.00  0.00     0.213 HD
ENDBRANCH  36  44
ENDBRANCH  30  31
ENDBRANCH   4  30
TORSDOF 18
ENDMDL
MODEL 4
REMARK VINA RESULT:    -1.922     11.667     14.514
REMARK INTER + INTRA:          -3.702
REMARK INTER:                  -2.676
REMARK INTRA:                  -1.026
REMARK UNBOUND:                -0.376
REMARK SMILES OC[C@@H]1O[C@@H](O[C@@H]2[C@@H](O)[C@H](O)[C@@H](O[C@@H]3[C@H](O)[C@H](O)[C@H](O)O[C@@H]3CO)O[C@@H]2CO)[C@@H](O)[C@@H](O)[C@H]1O
REMARK SMILES IDX 7 1 26 2 25 3 12 4 10 5 8 6 6 7 5 8 3 9 33 10 4 11 31 12
REMARK SMILES IDX 29 13 2 14 1 15 34 17 32 19 30 21 27 23 28 24 9 26 11 28
REMARK SMILES IDX 13 30 14 31 22 32 15 33 21 34 17 35 19 36 23 37 24 38 16 40
REMARK SMILES IDX 18 42 20 44
REMARK H PARENT 1 16 34 18 32 20 30 22 28 25 9 27 11 29 24 39 16 41 18 43
REMARK H PARENT 20 45
REMARK Flexibility Score: inf
ROOT
ATOM      1  C   UNL     1      21.049  28.966  46.216  1.00  0.00     0.184 C 
ATOM      2  C   UNL     1      19.796  29.709  46.753  1.00  0.00     0.178 C 
ATOM      3  O   UNL     1      19.192  30.460  45.705  1.00  0.00    -0.341 OA
ATOM      4  C   UNL     1      18.654  29.603  44.702  1.00  0.00     0.282 C 
ATOM      5  C   UNL     1      19.756  28.720  44.050  1.00  0.00     0.202 C 
ATOM      6  C   UNL     1      20.590  27.984  45.122  1.00  0.00     0.180 C 
ENDROOT
BRANCH   1   7
ATOM      7  O   UNL     1      21.952  29.897  45.627  1.00  0.00    -0.341 OA
BRANCH   7   8
ATOM      8  C   UNL     1      23.285  29.805  46.104  1.00  0.00     0.282 C 
ATOM      9  C   UNL     1      24.172  29.556  48.338  1.00  0.00     0.178 C 
ATOM     10  C   UNL     1      24.069  31.074  48.682  1.00  0.00     0.177 C 
ATOM     11  O   UNL     1      23.210  29.153  47.372  1.00  0.00    -0.341 OA
ATOM     12  C   UNL     1      23.526  31.909  47.485  1.00  0.00     0.179 C 
ATOM     13  C   UNL     1      23.889  31.237  46.156  1.00  0.00     0.202 C 
BRANCH   9  14
ATOM     14  C   UNL     1      25.607  29.088  47.988  1.00  0.00     0.191 C 
BRANCH  14  15
ATOM     15  O   UNL     1      26.514  29.509  48.976  1.00  0.00    -0.394 OA
ATOM     16  H   UNL     1      27.409  29.512  48.545  1.00  0.00     0.210 HD
ENDBRANCH  14  15
ENDBRANCH   9  14
BRANCH  10  17
ATOM     17  O   UNL     1      23.245  31.251  49.810  1.00  0.00    -0.387 OA
ATOM     18  H   UNL     1      22.412  30.735  49.640  1.00  0.00     0.211 HD
ENDBRANCH  10  17
BRANCH  12  19
ATOM     19  O   UNL     1      22.135  32.125  47.558  1.00  0.00    -0.387 OA
ATOM     20  H   UNL     1      21.672  31.270  47.352  1.00  0.00     0.211 HD
ENDBRANCH  12  19
BRANCH  13  21
ATOM     21  O   UNL     1      23.435  32.025  45.080  1.00  0.00    -0.385 OA
ATOM     22  H   UNL     1      24.199  32.591  44.794  1.00  0.00     0.211 HD
ENDBRANCH  13  21
ENDBRANCH   7   8
ENDBRANCH   1   7
BRANCH   2  23
ATOM     23  C   UNL     1      20.119  30.652  47.912  1.00  0.00     0.191 C 
BRANCH  23  24
ATOM     24  O   UNL     1      19.228  31.733  47.916  1.00  0.00    -0.394 OA
ATOM     25  H   UNL     1      18.715  31.661  48.766  1.00  0.00     0.210 HD
ENDBRANCH  23  24
ENDBRANCH   2  23
BRANCH   6  26
ATOM     26  O   UNL     1      19.821  26.956  45.700  1.00  0.00    -0.387 OA
ATOM     27  H   UNL     1      19.773  27.134  46.672  1.00  0.00     0.211 HD
ENDBRANCH   6  26
BRANCH   5  28
ATOM     28  O   UNL     1      20.619  29.454  43.208  1.00  0.00    -0.385 OA
ATOM     29  H   UNL     1      21.561  29.233  43.419  1.00  0.00     0.211 HD
ENDBRANCH   5  28
BRANCH   4  30
ATOM     30  O   UNL     1      17.622  28.785  45.229  1.00  0.00    -0.341 OA
BRANCH  30  31
ATOM     31  C   UNL     1      16.360  29.437  45.179  1.00  0.00     0.184 C 
ATOM     32  C   UNL     1      15.217  28.408  45.410  1.00  0.00     0.178 C 
ATOM     33  C   UNL     1      16.332  30.574  46.211  1.00  0.00     0.180 C 
ATOM     34  O   UNL     1      13.936  29.015  45.545  1.00  0.00    -0.342 OA
ATOM     35  C   UNL     1      14.920  31.153  46.283  1.00  0.00     0.201 C 
ATOM     36  C   UNL     1      13.875  30.042  46.530  1.00  0.00     0.279 C 
BRANCH  32  37
ATOM     37  C   UNL     1      15.501  27.365  46.510  1.00  0.00     0.191 C 
BRANCH  37  38
ATOM     38  O   UNL     1      16.516  26.481  46.109  1.00  0.00    -0.394 OA
ATOM     39  H   UNL     1      17.337  27.025  45.982  1.00  0.00     0.210 HD
ENDBRANCH  37  38
ENDBRANCH  32  37
BRANCH  33  40
ATOM     40  O   UNL     1      16.736  30.124  47.484  1.00  0.00    -0.387 OA
ATOM     41  H   UNL     1      17.495  30.701  47.773  1.00  0.00     0.211 HD
ENDBRANCH  33  40
BRANCH  35  42
ATOM     42  O   UNL     1      14.855  32.116  47.308  1.00  0.00    -0.385 OA
ATOM     43  H   UNL     1      14.876  33.010  46.884  1.00  0.00     0.211 HD
ENDBRANCH  35  42
BRANCH  36  44
ATOM     44  O   UNL     1      13.978  29.500  47.826  1.00  0.00    -0.366 OA
ATOM     45  H   UNL     1      13.082  29.139  48.057  1.00  0.00     0.213 HD
ENDBRANCH  36  44
ENDBRANCH  30  31
ENDBRANCH   4  30
TORSDOF 18
ENDMDL
MODEL 5
REMARK VINA RESULT:    -1.912     11.572     15.015
REMARK INTER + INTRA:          -3.684
REMARK INTER:                  -3.255
REMARK INTRA:                  -0.430
REMARK UNBOUND:                -0.376
REMARK SMILES OC[C@@H]1O[C@@H](O[C@@H]2[C@@H](O)[C@H](O)[C@@H](O[C@@H]3[C@H](O)[C@H](O)[C@H](O)O[C@@H]3CO)O[C@@H]2CO)[C@@H](O)[C@@H](O)[C@H]1O
REMARK SMILES IDX 7 1 26 2 25 3 12 4 10 5 8 6 6 7 5 8 3 9 33 10 4 11 31 12
REMARK SMILES IDX 29 13 2 14 1 15 34 17 32 19 30 21 27 23 28 24 9 26 11 28
REMARK SMILES IDX 13 30 14 31 22 32 15 33 21 34 17 35 19 36 23 37 24 38 16 40
REMARK SMILES IDX 18 42 20 44
REMARK H PARENT 1 16 34 18 32 20 30 22 28 25 9 27 11 29 24 39 16 41 18 43
REMARK H PARENT 20 45
REMARK Flexibility Score: inf
ROOT
ATOM      1  C   UNL     1      18.511  30.368  45.179  1.00  0.00     0.184 C 
ATOM      2  C   UNL     1      19.135  30.876  46.506  1.00  0.00     0.178 C 
ATOM      3  O   UNL     1      20.169  29.991  46.925  1.00  0.00    -0.341 OA
ATOM      4  C   UNL     1      21.268  30.019  46.020  1.00  0.00     0.282 C 
ATOM      5  C   UNL     1      20.846  29.578  44.590  1.00  0.00     0.202 C 
ATOM      6  C   UNL     1      19.613  30.368  44.102  1.00  0.00     0.180 C 
ENDROOT
BRANCH   1   7
ATOM      7  O   UNL     1      18.047  29.030  45.338  1.00  0.00    -0.341 OA
BRANCH   7   8
ATOM      8  C   UNL     1      16.795  28.765  44.727  1.00  0.00     0.282 C 
ATOM      9  C   UNL     1      14.640  29.834  44.963  1.00  0.00     0.178 C 
ATOM     10  C   UNL     1      14.260  29.060  46.263  1.00  0.00     0.177 C 
ATOM     11  O   UNL     1      16.047  29.979  44.811  1.00  0.00    -0.341 OA
ATOM     12  C   UNL     1      15.363  28.046  46.683  1.00  0.00     0.179 C 
ATOM     13  C   UNL     1      16.138  27.558  45.453  1.00  0.00     0.202 C 
BRANCH   9  14
ATOM     14  C   UNL     1      13.950  29.293  43.686  1.00  0.00     0.191 C 
BRANCH  14  15
ATOM     15  O   UNL     1      13.875  30.299  42.707  1.00  0.00    -0.394 OA
ATOM     16  H   UNL     1      14.799  30.649  42.598  1.00  0.00     0.210 HD
ENDBRANCH  14  15
ENDBRANCH   9  14
BRANCH  10  17
ATOM     17  O   UNL     1      14.018  29.974  47.306  1.00  0.00    -0.387 OA
ATOM     18  H   UNL     1      13.242  29.623  47.820  1.00  0.00     0.211 HD
ENDBRANCH  10  17
BRANCH  12  19
ATOM     19  O   UNL     1      16.253  28.574  47.640  1.00  0.00    -0.387 OA
ATOM     20  H   UNL     1      15.928  29.474  47.911  1.00  0.00     0.211 HD
ENDBRANCH  12  19
BRANCH  13  21
ATOM     21  O   UNL     1      17.101  26.605  45.840  1.00  0.00    -0.385 OA
ATOM     22  H   UNL     1      16.716  25.710  45.648  1.00  0.00     0.211 HD
ENDBRANCH  13  21
ENDBRANCH   7   8
ENDBRANCH   1   7
BRANCH   2  23
ATOM     23  C   UNL     1      18.108  31.002  47.632  1.00  0.00     0.191 C 
BRANCH  23  24
ATOM     24  O   UNL     1      16.862  31.372  47.110  1.00  0.00    -0.394 OA
ATOM     25  H   UNL     1      16.878  32.364  47.042  1.00  0.00     0.210 HD
ENDBRANCH  23  24
ENDBRANCH   2  23
BRANCH   6  26
ATOM     26  O   UNL     1      19.984  31.694  43.805  1.00  0.00    -0.387 OA
ATOM     27  H   UNL     1      19.856  31.826  42.832  1.00  0.00     0.211 HD
ENDBRANCH   6  26
BRANCH   5  28
ATOM     28  O   UNL     1      20.582  28.194  44.499  1.00  0.00    -0.385 OA
ATOM     29  H   UNL     1      21.188  27.781  43.834  1.00  0.00     0.211 HD
ENDBRANCH   5  28
BRANCH   4  30
ATOM     30  O   UNL     1      21.862  31.307  45.978  1.00  0.00    -0.341 OA
BRANCH  30  31
ATOM     31  C   UNL     1      23.164  31.302  46.549  1.00  0.00     0.184 C 
ATOM     32  C   UNL     1      23.170  32.121  47.871  1.00  0.00     0.178 C 
ATOM     33  C   UNL     1      23.622  29.852  46.764  1.00  0.00     0.180 C 
ATOM     34  O   UNL     1      24.396  32.018  48.588  1.00  0.00    -0.342 OA
ATOM     35  C   UNL     1      24.936  29.850  47.541  1.00  0.00     0.201 C 
ATOM     36  C   UNL     1      24.817  30.681  48.839  1.00  0.00     0.279 C 
BRANCH  32  37
ATOM     37  C   UNL     1      21.936  31.906  48.769  1.00  0.00     0.191 C 
BRANCH  37  38
ATOM     38  O   UNL     1      22.276  32.040  50.125  1.00  0.00    -0.394 OA
ATOM     39  H   UNL     1      22.907  31.304  50.338  1.00  0.00     0.210 HD
ENDBRANCH  37  38
ENDBRANCH  32  37
BRANCH  33  40
ATOM     40  O   UNL     1      22.649  29.103  47.456  1.00  0.00    -0.387 OA
ATOM     41  H   UNL     1      21.767  29.528  47.277  1.00  0.00     0.211 HD
ENDBRANCH  33  40
BRANCH  35  42
ATOM     42  O   UNL     1      25.305  28.526  47.846  1.00  0.00    -0.385 OA
ATOM     43  H   UNL     1      25.807  28.166  47.073  1.00  0.00     0.211 HD
ENDBRANCH  35  42
BRANCH  36  44
ATOM     44  O   UNL     1      23.979  30.061  49.786  1.00  0.00    -0.366 OA
ATOM     45  H   UNL     1      23.796  30.736  50.491  1.00  0.00     0.213 HD
ENDBRANCH  36  44
ENDBRANCH  30  31
ENDBRANCH   4  30
TORSDOF 18
ENDMDL
MODEL 6
REMARK VINA RESULT:    -1.908      1.439      2.367
REMARK INTER + INTRA:          -3.679
REMARK INTER:                  -6.821
REMARK INTRA:                   3.143
REMARK UNBOUND:                -0.376
REMARK SMILES OC[C@@H]1O[C@@H](O[C@@H]2[C@@H](O)[C@H](O)[C@@H](O[C@@H]3[C@H](O)[C@H](O)[C@H](O)O[C@@H]3CO)O[C@@H]2CO)[C@@H](O)[C@@H](O)[C@H]1O
REMARK SMILES IDX 7 1 26 2 25 3 12 4 10 5 8 6 6 7 5 8 3 9 33 10 4 11 31 12
REMARK SMILES IDX 29 13 2 14 1 15 34 17 32 19 30 21 27 23 28 24 9 26 11 28
REMARK SMILES IDX 13 30 14 31 22 32 15 33 21 34 17 35 19 36 23 37 24 38 16 40
REMARK SMILES IDX 18 42 20 44
REMARK H PARENT 1 16 34 18 32 20 30 22 28 25 9 27 11 29 24 39 16 41 18 43
REMARK H PARENT 20 45
REMARK Flexibility Score: inf
ROOT
ATOM      1  C   UNL     1      19.639  28.009  31.754  1.00  0.00     0.184 C 
ATOM      2  C   UNL     1      19.733  29.540  31.986  1.00  0.00     0.178 C 
ATOM      3  O   UNL     1      18.565  30.180  31.484  1.00  0.00    -0.341 OA
ATOM      4  C   UNL     1      17.412  29.810  32.235  1.00  0.00     0.282 C 
ATOM      5  C   UNL     1      17.154  28.279  32.173  1.00  0.00     0.202 C 
ATOM      6  C   UNL     1      18.423  27.481  32.541  1.00  0.00     0.180 C 
ENDROOT
BRANCH   1   7
ATOM      7  O   UNL     1      19.425  27.736  30.373  1.00  0.00    -0.341 OA
BRANCH   7   8
ATOM      8  C   UNL     1      19.523  26.366  30.021  1.00  0.00     0.282 C 
ATOM      9  C   UNL     1      18.936  24.357  31.230  1.00  0.00     0.178 C 
ATOM     10  C   UNL     1      20.257  24.321  32.059  1.00  0.00     0.177 C 
ATOM     11  O   UNL     1      18.577  25.676  30.840  1.00  0.00    -0.341 OA
ATOM     12  C   UNL     1      21.217  25.487  31.679  1.00  0.00     0.179 C 
ATOM     13  C   UNL     1      20.996  25.910  30.222  1.00  0.00     0.202 C 
BRANCH   9  14
ATOM     14  C   UNL     1      18.908  23.353  30.050  1.00  0.00     0.191 C 
BRANCH  14  15
ATOM     15  O   UNL     1      20.009  22.482  30.122  1.00  0.00    -0.394 OA
ATOM     16  H   UNL     1      20.236  22.246  29.184  1.00  0.00     0.210 HD
ENDBRANCH  14  15
ENDBRANCH   9  14
BRANCH  10  17
ATOM     17  O   UNL     1      19.957  24.368  33.433  1.00  0.00    -0.387 OA
ATOM     18  H   UNL     1      20.775  24.071  33.916  1.00  0.00     0.211 HD
ENDBRANCH  10  17
BRANCH  12  19
ATOM     19  O   UNL     1      21.087  26.600  32.535  1.00  0.00    -0.387 OA
ATOM     20  H   UNL     1      20.729  27.363  32.008  1.00  0.00     0.211 HD
ENDBRANCH  12  19
BRANCH  13  21
ATOM     21  O   UNL     1      21.902  26.931  29.876  1.00  0.00    -0.385 OA
ATOM     22  H   UNL     1      21.949  27.550  30.651  1.00  0.00     0.211 HD
ENDBRANCH  13  21
ENDBRANCH   7   8
ENDBRANCH   1   7
BRANCH   2  23
ATOM     23  C   UNL     1      20.960  30.164  31.321  1.00  0.00     0.191 C 
BRANCH  23  24
ATOM     24  O   UNL     1      22.045  29.280  31.384  1.00  0.00    -0.394 OA
ATOM     25  H   UNL     1      21.670  28.408  31.684  1.00  0.00     0.210 HD
ENDBRANCH  23  24
ENDBRANCH   2  23
BRANCH   6  26
ATOM     26  O   UNL     1      18.671  27.590  33.924  1.00  0.00    -0.387 OA
ATOM     27  H   UNL     1      19.650  27.540  34.053  1.00  0.00     0.211 HD
ENDBRANCH   6  26
BRANCH   5  28
ATOM     28  O   UNL     1      16.682  27.853  30.913  1.00  0.00    -0.385 OA
ATOM     29  H   UNL     1      17.446  27.578  30.345  1.00  0.00     0.211 HD
ENDBRANCH   5  28
BRANCH   4  30
ATOM     30  O   UNL     1      17.527  30.232  33.585  1.00  0.00    -0.341 OA
BRANCH  30  31
ATOM     31  C   UNL     1      16.404  31.003  33.990  1.00  0.00     0.184 C 
ATOM     32  C   UNL     1      15.087  30.266  33.616  1.00  0.00     0.178 C 
ATOM     33  C   UNL     1      16.499  31.292  35.495  1.00  0.00     0.180 C 
ATOM     34  O   UNL     1      13.924  30.896  34.143  1.00  0.00    -0.342 OA
ATOM     35  C   UNL     1      15.207  31.962  35.961  1.00  0.00     0.201 C 
ATOM     36  C   UNL     1      13.970  31.132  35.547  1.00  0.00     0.279 C 
BRANCH  32  37
ATOM     37  C   UNL     1      15.105  28.745  33.867  1.00  0.00     0.191 C 
BRANCH  37  38
ATOM     38  O   UNL     1      13.907  28.154  33.437  1.00  0.00    -0.394 OA
ATOM     39  H   UNL     1      13.415  28.844  32.919  1.00  0.00     0.210 HD
ENDBRANCH  37  38
ENDBRANCH  32  37
BRANCH  33  40
ATOM     40  O   UNL     1      16.726  30.113  36.232  1.00  0.00    -0.387 OA
ATOM     41  H   UNL     1      17.442  30.313  36.894  1.00  0.00     0.211 HD
ENDBRANCH  33  40
BRANCH  35  42
ATOM     42  O   UNL     1      15.235  32.125  37.359  1.00  0.00    -0.385 OA
ATOM     43  H   UNL     1      16.021  31.633  37.705  1.00  0.00     0.211 HD
ENDBRANCH  35  42
BRANCH  36  44
ATOM     44  O   UNL     1      13.884  29.922  36.262  1.00  0.00    -0.366 OA
ATOM     45  H   UNL     1      14.549  29.304  35.858  1.00  0.00     0.213 HD
ENDBRANCH  36  44
ENDBRANCH  30  31
ENDBRANCH   4  30
TORSDOF 18
ENDMDL
MODEL 7
REMARK VINA RESULT:    -1.602     13.067     16.647
REMARK INTER + INTRA:          -3.147
REMARK INTER:                  -2.997
REMARK INTRA:                  -0.151
REMARK UNBOUND:                -0.376
REMARK SMILES OC[C@@H]1O[C@@H](O[C@@H]2[C@@H](O)[C@H](O)[C@@H](O[C@@H]3[C@H](O)[C@H](O)[C@H](O)O[C@@H]3CO)O[C@@H]2CO)[C@@H](O)[C@@H](O)[C@H]1O
REMARK SMILES IDX 7 1 26 2 25 3 12 4 10 5 8 6 6 7 5 8 3 9 33 10 4 11 31 12
REMARK SMILES IDX 29 13 2 14 1 15 34 17 32 19 30 21 27 23 28 24 9 26 11 28
REMARK SMILES IDX 13 30 14 31 22 32 15 33 21 34 17 35 19 36 23 37 24 38 16 40
REMARK SMILES IDX 18 42 20 44
REMARK H PARENT 1 16 34 18 32 20 30 22 28 25 9 27 11 29 24 39 16 41 18 43
REMARK H PARENT 20 45
REMARK Flexibility Score: inf
ROOT
ATOM      1  C   UNL     1      21.355  25.536  45.462  1.00  0.00     0.184 C 
ATOM      2  C   UNL     1      22.555  26.128  46.249  1.00  0.00     0.178 C 
ATOM      3  O   UNL     1      22.412  25.843  47.636  1.00  0.00    -0.341 OA
ATOM      4  C   UNL     1      22.519  24.445  47.888  1.00  0.00     0.282 C 
ATOM      5  C   UNL     1      21.416  23.641  47.144  1.00  0.00     0.202 C 
ATOM      6  C   UNL     1      21.373  24.006  45.645  1.00  0.00     0.180 C 
ENDROOT
BRANCH   1   7
ATOM      7  O   UNL     1      20.130  26.032  45.994  1.00  0.00    -0.341 OA
BRANCH   7   8
ATOM      8  C   UNL     1      19.583  27.133  45.285  1.00  0.00     0.282 C 
ATOM      9  C   UNL     1      18.112  28.917  45.987  1.00  0.00     0.178 C 
ATOM     10  C   UNL     1      16.810  28.070  45.835  1.00  0.00     0.177 C 
ATOM     11  O   UNL     1      19.250  28.113  46.269  1.00  0.00    -0.341 OA
ATOM     12  C   UNL     1      17.105  26.634  45.310  1.00  0.00     0.179 C 
ATOM     13  C   UNL     1      18.374  26.629  44.449  1.00  0.00     0.202 C 
BRANCH   9  14
ATOM     14  C   UNL     1      18.352  29.912  44.825  1.00  0.00     0.191 C 
BRANCH  14  15
ATOM     15  O   UNL     1      19.503  30.682  45.070  1.00  0.00    -0.394 OA
ATOM     16  H   UNL     1      20.097  30.119  45.633  1.00  0.00     0.210 HD
ENDBRANCH  14  15
ENDBRANCH   9  14
BRANCH  10  17
ATOM     17  O   UNL     1      16.137  28.007  47.070  1.00  0.00    -0.387 OA
ATOM     18  H   UNL     1      16.546  27.258  47.581  1.00  0.00     0.211 HD
ENDBRANCH  10  17
BRANCH  12  19
ATOM     19  O   UNL     1      17.218  25.688  46.349  1.00  0.00    -0.387 OA
ATOM     20  H   UNL     1      16.425  25.089  46.318  1.00  0.00     0.211 HD
ENDBRANCH  12  19
BRANCH  13  21
ATOM     21  O   UNL     1      18.604  25.335  43.941  1.00  0.00    -0.385 OA
ATOM     22  H   UNL     1      18.059  25.248  43.116  1.00  0.00     0.211 HD
ENDBRANCH  13  21
ENDBRANCH   7   8
ENDBRANCH   1   7
BRANCH   2  23
ATOM     23  C   UNL     1      22.691  27.640  46.069  1.00  0.00     0.191 C 
BRANCH  23  24
ATOM     24  O   UNL     1      24.022  28.032  46.268  1.00  0.00    -0.394 OA
ATOM     25  H   UNL     1      24.078  28.340  47.213  1.00  0.00     0.210 HD
ENDBRANCH  23  24
ENDBRANCH   2  23
BRANCH   6  26
ATOM     26  O   UNL     1      22.495  23.464  44.989  1.00  0.00    -0.387 OA
ATOM     27  H   UNL     1      23.207  24.151  45.005  1.00  0.00     0.211 HD
ENDBRANCH   6  26
BRANCH   5  28
ATOM     28  O   UNL     1      20.134  23.820  47.707  1.00  0.00    -0.385 OA
ATOM     29  H   UNL     1      19.442  23.691  47.011  1.00  0.00     0.211 HD
ENDBRANCH   5  28
BRANCH   4  30
ATOM     30  O   UNL     1      23.804  23.959  47.528  1.00  0.00    -0.341 OA
BRANCH  30  31
ATOM     31  C   UNL     1      24.481  23.395  48.643  1.00  0.00     0.184 C 
ATOM     32  C   UNL     1      23.746  22.112  49.122  1.00  0.00     0.178 C 
ATOM     33  C   UNL     1      25.944  23.118  48.265  1.00  0.00     0.180 C 
ATOM     34  O   UNL     1      24.462  21.397  50.125  1.00  0.00    -0.342 OA
ATOM     35  C   UNL     1      26.619  22.349  49.399  1.00  0.00     0.201 C 
ATOM     36  C   UNL     1      25.808  21.088  49.777  1.00  0.00     0.279 C 
BRANCH  32  37
ATOM     37  C   UNL     1      23.239  21.198  47.988  1.00  0.00     0.191 C 
BRANCH  37  38
ATOM     38  O   UNL     1      23.954  21.430  46.803  1.00  0.00    -0.394 OA
ATOM     39  H   UNL     1      24.527  20.634  46.651  1.00  0.00     0.210 HD
ENDBRANCH  37  38
ENDBRANCH  32  37
BRANCH  33  40
ATOM     40  O   UNL     1      26.035  22.388  47.064  1.00  0.00    -0.387 OA
ATOM     41  H   UNL     1      25.500  22.877  46.381  1.00  0.00     0.211 HD
ENDBRANCH  33  40
BRANCH  35  42
ATOM     42  O   UNL     1      27.924  21.987  49.015  1.00  0.00    -0.385 OA
ATOM     43  H   UNL     1      28.086  21.062  49.328  1.00  0.00     0.211 HD
ENDBRANCH  35  42
BRANCH  36  44
ATOM     44  O   UNL     1      25.852  20.111  48.764  1.00  0.00    -0.366 OA
ATOM     45  H   UNL     1      26.782  19.762  48.745  1.00  0.00     0.213 HD
ENDBRANCH  36  44
ENDBRANCH  30  31
ENDBRANCH   4  30
TORSDOF 18
ENDMDL
MODEL 8
REMARK VINA RESULT:    -1.432     11.631     14.653
REMARK INTER + INTRA:          -2.854
REMARK INTER:                  -2.876
REMARK INTRA:                   0.022
REMARK UNBOUND:                -0.376
REMARK SMILES OC[C@@H]1O[C@@H](O[C@@H]2[C@@H](O)[C@H](O)[C@@H](O[C@@H]3[C@H](O)[C@H](O)[C@H](O)O[C@@H]3CO)O[C@@H]2CO)[C@@H](O)[C@@H](O)[C@H]1O
REMARK SMILES IDX 7 1 26 2 25 3 12 4 10 5 8 6 6 7 5 8 3 9 33 10 4 11 31 12
REMARK SMILES IDX 29 13 2 14 1 15 34 17 32 19 30 21 27 23 28 24 9 26 11 28
REMARK SMILES IDX 13 30 14 31 22 32 15 33 21 34 17 35 19 36 23 37 24 38 16 40
REMARK SMILES IDX 18 42 20 44
REMARK H PARENT 1 16 34 18 32 20 30 22 28 25 9 27 11 29 24 39 16 41 18 43
REMARK H PARENT 20 45
REMARK Flexibility Score: inf
ROOT
ATOM      1  C   UNL     1      20.753  28.916  46.273  1.00  0.00     0.184 C 
ATOM      2  C   UNL     1      19.514  29.709  46.768  1.00  0.00     0.178 C 
ATOM      3  O   UNL     1      18.878  30.349  45.667  1.00  0.00    -0.341 OA
ATOM      4  C   UNL     1      18.314  29.395  44.772  1.00  0.00     0.282 C 
ATOM      5  C   UNL     1      19.398  28.450  44.182  1.00  0.00     0.202 C 
ATOM      6  C   UNL     1      20.265  27.828  45.298  1.00  0.00     0.180 C 
ENDROOT
BRANCH   1   7
ATOM      7  O   UNL     1      21.636  29.781  45.566  1.00  0.00    -0.341 OA
BRANCH   7   8
ATOM      8  C   UNL     1      22.986  29.725  45.998  1.00  0.00     0.282 C 
ATOM      9  C   UNL     1      23.956  29.617  48.209  1.00  0.00     0.178 C 
ATOM     10  C   UNL     1      23.856  31.153  48.463  1.00  0.00     0.177 C 
ATOM     11  O   UNL     1      22.962  29.151  47.306  1.00  0.00    -0.341 OA
ATOM     12  C   UNL     1      23.265  31.910  47.238  1.00  0.00     0.179 C 
ATOM     13  C   UNL     1      23.583  31.160  45.940  1.00  0.00     0.202 C 
BRANCH   9  14
ATOM     14  C   UNL     1      25.380  29.135  47.835  1.00  0.00     0.191 C 
BRANCH  14  15
ATOM     15  O   UNL     1      26.287  29.439  48.865  1.00  0.00    -0.394 OA
ATOM     16  H   UNL     1      26.697  30.311  48.622  1.00  0.00     0.210 HD
ENDBRANCH  14  15
ENDBRANCH   9  14
BRANCH  10  17
ATOM     17  O   UNL     1      23.073  31.395  49.607  1.00  0.00    -0.387 OA
ATOM     18  H   UNL     1      23.604  31.994  50.197  1.00  0.00     0.211 HD
ENDBRANCH  10  17
BRANCH  12  19
ATOM     19  O   UNL     1      21.876  32.125  47.349  1.00  0.00    -0.387 OA
ATOM     20  H   UNL     1      21.655  32.995  46.922  1.00  0.00     0.211 HD
ENDBRANCH  12  19
BRANCH  13  21
ATOM     21  O   UNL     1      23.085  31.879  44.835  1.00  0.00    -0.385 OA
ATOM     22  H   UNL     1      22.381  32.487  45.180  1.00  0.00     0.211 HD
ENDBRANCH  13  21
ENDBRANCH   7   8
ENDBRANCH   1   7
BRANCH   2  23
ATOM     23  C   UNL     1      19.868  30.765  47.815  1.00  0.00     0.191 C 
BRANCH  23  24
ATOM     24  O   UNL     1      18.829  31.699  47.928  1.00  0.00    -0.394 OA
ATOM     25  H   UNL     1      19.122  32.498  47.413  1.00  0.00     0.210 HD
ENDBRANCH  23  24
ENDBRANCH   2  23
BRANCH   6  26
ATOM     26  O   UNL     1      19.517  26.863  46.000  1.00  0.00    -0.387 OA
ATOM     27  H   UNL     1      18.660  27.285  46.260  1.00  0.00     0.211 HD
ENDBRANCH   6  26
BRANCH   5  28
ATOM     28  O   UNL     1      20.235  29.094  43.244  1.00  0.00    -0.385 OA
ATOM     29  H   UNL     1      19.835  29.961  42.980  1.00  0.00     0.211 HD
ENDBRANCH   5  28
BRANCH   4  30
ATOM     30  O   UNL     1      17.299  28.634  45.410  1.00  0.00    -0.341 OA
BRANCH  30  31
ATOM     31  C   UNL     1      16.815  29.284  46.578  1.00  0.00     0.184 C 
ATOM     32  C   UNL     1      15.372  29.810  46.337  1.00  0.00     0.178 C 
ATOM     33  C   UNL     1      16.887  28.315  47.768  1.00  0.00     0.180 C 
ATOM     34  O   UNL     1      14.758  30.320  47.516  1.00  0.00    -0.342 OA
ATOM     35  C   UNL     1      16.200  28.950  48.975  1.00  0.00     0.201 C 
ATOM     36  C   UNL     1      14.771  29.419  48.620  1.00  0.00     0.279 C 
BRANCH  32  37
ATOM     37  C   UNL     1      14.455  28.846  45.557  1.00  0.00     0.191 C 
BRANCH  37  38
ATOM     38  O   UNL     1      14.842  28.771  44.209  1.00  0.00    -0.394 OA
ATOM     39  H   UNL     1      14.011  28.812  43.668  1.00  0.00     0.210 HD
ENDBRANCH  37  38
ENDBRANCH  32  37
BRANCH  33  40
ATOM     40  O   UNL     1      16.283  27.079  47.462  1.00  0.00    -0.387 OA
ATOM     41  H   UNL     1      17.004  26.393  47.454  1.00  0.00     0.211 HD
ENDBRANCH  33  40
BRANCH  35  42
ATOM     42  O   UNL     1      16.156  28.026  50.036  1.00  0.00    -0.385 OA
ATOM     43  H   UNL     1      16.640  27.212  49.748  1.00  0.00     0.211 HD
ENDBRANCH  35  42
BRANCH  36  44
ATOM     44  O   UNL     1      13.902  28.335  48.393  1.00  0.00    -0.366 OA
ATOM     45  H   UNL     1      14.435  27.633  47.935  1.00  0.00     0.213 HD
ENDBRANCH  36  44
ENDBRANCH  30  31
ENDBRANCH   4  30
TORSDOF 18
ENDMDL
