MODEL 1
REMARK VINA RESULT:    -8.216      0.000      0.000
REMARK INTER + INTRA:          -8.456
REMARK INTER:                  -8.456
REMARK INTRA:                   0.000
REMARK UNBOUND:                 0.000
REMARK SMILES CC1(C)CC[C@]2(C)CC[C@@]3(C)C(=CC[C@H]4[C@@]5(C)CC[C@@H](O)C(C)(C)[C@@H]5CC[C@]43C)[C@@H]2C1
REMARK SMILES IDX 1 1 2 2 4 3 5 4 6 5 8 6 9 7 10 8 12 9 13 10 14 11 15 12
REMARK SMILES IDX 28 13 27 14 26 15 25 16 16 17 18 18 19 19 20 20 22 21 23 22
REMARK SMILES IDX 24 23 17 24 29 25 30 26 31 27 11 28 7 29 3 30 21 31
REMARK H PARENT 21 32
REMARK Flexibility Score: inf
ROOT
ATOM      1  C   UNL     1       0.054  25.543  54.116  1.00  0.00     0.011 C 
ATOM      2  C   UNL     1      -1.064  25.532  53.046  1.00  0.00    -0.035 C 
ATOM      3  C   UNL     1      -1.286  26.943  52.456  1.00  0.00     0.007 C 
ATOM      4  C   UNL     1      -0.093  27.431  51.620  1.00  0.00     0.008 C 
ATOM      5  C   UNL     1       0.321  26.459  50.472  1.00  0.00    -0.026 C 
ATOM      6  C   UNL     1      -0.694  26.563  49.283  1.00  0.00     0.008 C 
ATOM      7  C   UNL     1      -1.171  25.233  48.655  1.00  0.00     0.012 C 
ATOM      8  C   UNL     1      -0.088  24.106  48.549  1.00  0.00    -0.006 C 
ATOM      9  C   UNL     1       0.659  24.002  49.874  1.00  0.00    -0.064 C 
ATOM     10  C   UNL     1       1.440  22.938  50.095  1.00  0.00    -0.027 C 
ATOM     11  C   UNL     1       1.525  21.743  49.183  1.00  0.00     0.032 C 
ATOM     12  C   UNL     1       0.481  21.629  48.002  1.00  0.00     0.006 C 
ATOM     13  C   UNL     1      -0.715  22.662  48.191  1.00  0.00    -0.020 C 
ATOM     14  C   UNL     1      -1.624  22.103  49.333  1.00  0.00     0.008 C 
ATOM     15  C   UNL     1      -2.101  20.653  49.107  1.00  0.00     0.005 C 
ATOM     16  C   UNL     1      -0.943  19.642  48.861  1.00  0.00     0.003 C 
ATOM     17  C   UNL     1       0.034  20.114  47.723  1.00  0.00    -0.025 C 
ATOM     18  C   UNL     1       1.277  19.160  47.732  1.00  0.00     0.010 C 
ATOM     19  C   UNL     1       0.954  17.652  47.742  1.00  0.00     0.033 C 
ATOM     20  C   UNL     1      -0.537  17.263  47.781  1.00  0.00     0.120 C 
ATOM     21  C   UNL     1      -1.398  18.107  48.802  1.00  0.00    -0.006 C 
ATOM     22  C   UNL     1      -2.895  17.971  48.393  1.00  0.00     0.014 C 
ATOM     23  C   UNL     1      -1.251  17.500  50.229  1.00  0.00     0.014 C 
ATOM     24  C   UNL     1      -0.589  20.003  46.289  1.00  0.00     0.012 C 
ATOM     25  C   UNL     1      -1.610  22.810  46.912  1.00  0.00     0.012 C 
ATOM     26  C   UNL     1       0.457  25.003  51.010  1.00  0.00     0.022 C 
ATOM     27  C   UNL     1      -0.726  24.549  51.903  1.00  0.00     0.015 C 
ATOM     28  C   UNL     1       0.945  24.552  47.457  1.00  0.00     0.017 C 
ATOM     29  C   UNL     1       1.725  26.925  49.994  1.00  0.00     0.012 C 
ATOM     30  C   UNL     1      -2.368  25.071  53.725  1.00  0.00     0.011 C 
ENDROOT
BRANCH  20  31
ATOM     31  O   UNL     1      -0.583  15.875  48.024  1.00  0.00    -0.393 OA
ATOM     32  H   UNL     1      -0.388  15.389  47.185  1.00  0.00     0.210 HD
ENDBRANCH  20  31
TORSDOF 1
ENDMDL
MODEL 2
REMARK VINA RESULT:    -7.736      4.224      6.624
REMARK INTER + INTRA:          -7.962
REMARK INTER:                  -7.962
REMARK INTRA:                   0.000
REMARK UNBOUND:                 0.000
REMARK SMILES CC1(C)CC[C@]2(C)CC[C@@]3(C)C(=CC[C@H]4[C@@]5(C)CC[C@@H](O)C(C)(C)[C@@H]5CC[C@]43C)[C@@H]2C1
REMARK SMILES IDX 1 1 2 2 4 3 5 4 6 5 8 6 9 7 10 8 12 9 13 10 14 11 15 12
REMARK SMILES IDX 28 13 27 14 26 15 25 16 16 17 18 18 19 19 20 20 22 21 23 22
REMARK SMILES IDX 24 23 17 24 29 25 30 26 31 27 11 28 7 29 3 30 21 31
REMARK H PARENT 21 32
REMARK Flexibility Score: inf
ROOT
ATOM      1  C   UNL     1      -8.392  27.516  47.053  1.00  0.00     0.011 C 
ATOM      2  C   UNL     1      -7.094  27.513  46.208  1.00  0.00    -0.035 C 
ATOM      3  C   UNL     1      -6.864  28.885  45.535  1.00  0.00     0.007 C 
ATOM      4  C   UNL     1      -6.545  29.996  46.547  1.00  0.00     0.008 C 
ATOM      5  C   UNL     1      -5.337  29.679  47.483  1.00  0.00    -0.026 C 
ATOM      6  C   UNL     1      -3.989  29.852  46.704  1.00  0.00     0.008 C 
ATOM      7  C   UNL     1      -2.925  28.748  46.898  1.00  0.00     0.012 C 
ATOM      8  C   UNL     1      -2.822  28.150  48.342  1.00  0.00    -0.006 C 
ATOM      9  C   UNL     1      -4.224  27.841  48.858  1.00  0.00    -0.064 C 
ATOM     10  C   UNL     1      -4.358  27.086  49.955  1.00  0.00    -0.027 C 
ATOM     11  C   UNL     1      -3.220  26.383  50.646  1.00  0.00     0.032 C 
ATOM     12  C   UNL     1      -1.814  26.353  49.927  1.00  0.00     0.006 C 
ATOM     13  C   UNL     1      -1.937  26.802  48.405  1.00  0.00    -0.020 C 
ATOM     14  C   UNL     1      -2.597  25.614  47.632  1.00  0.00     0.008 C 
ATOM     15  C   UNL     1      -1.873  24.263  47.813  1.00  0.00     0.005 C 
ATOM     16  C   UNL     1      -1.692  23.842  49.300  1.00  0.00     0.003 C 
ATOM     17  C   UNL     1      -1.032  24.974  50.168  1.00  0.00    -0.025 C 
ATOM     18  C   UNL     1      -1.125  24.540  51.672  1.00  0.00     0.010 C 
ATOM     19  C   UNL     1      -0.645  23.107  51.979  1.00  0.00     0.033 C 
ATOM     20  C   UNL     1      -0.172  22.263  50.779  1.00  0.00     0.120 C 
ATOM     21  C   UNL     1      -1.106  22.366  49.509  1.00  0.00    -0.006 C 
ATOM     22  C   UNL     1      -0.284  21.897  48.271  1.00  0.00     0.014 C 
ATOM     23  C   UNL     1      -2.304  21.383  49.667  1.00  0.00     0.014 C 
ATOM     24  C   UNL     1       0.494  25.172  49.867  1.00  0.00     0.012 C 
ATOM     25  C   UNL     1      -0.550  27.084  47.731  1.00  0.00     0.012 C 
ATOM     26  C   UNL     1      -5.485  28.258  48.105  1.00  0.00     0.022 C 
ATOM     27  C   UNL     1      -5.868  27.159  47.079  1.00  0.00     0.015 C 
ATOM     28  C   UNL     1      -2.213  29.261  49.265  1.00  0.00     0.017 C 
ATOM     29  C   UNL     1      -5.402  30.715  48.640  1.00  0.00     0.012 C 
ATOM     30  C   UNL     1      -7.245  26.444  45.109  1.00  0.00     0.011 C 
ENDROOT
BRANCH  20  31
ATOM     31  O   UNL     1      -0.015  20.945  51.253  1.00  0.00    -0.393 OA
ATOM     32  H   UNL     1      -0.742  20.736  51.889  1.00  0.00     0.210 HD
ENDBRANCH  20  31
TORSDOF 1
ENDMDL
MODEL 3
REMARK VINA RESULT:    -7.430      7.062     10.435
REMARK INTER + INTRA:          -7.648
REMARK INTER:                  -7.648
REMARK INTRA:                   0.000
REMARK UNBOUND:                 0.000
REMARK SMILES CC1(C)CC[C@]2(C)CC[C@@]3(C)C(=CC[C@H]4[C@@]5(C)CC[C@@H](O)C(C)(C)[C@@H]5CC[C@]43C)[C@@H]2C1
REMARK SMILES IDX 1 1 2 2 4 3 5 4 6 5 8 6 9 7 10 8 12 9 13 10 14 11 15 12
REMARK SMILES IDX 28 13 27 14 26 15 25 16 16 17 18 18 19 19 20 20 22 21 23 22
REMARK SMILES IDX 24 23 17 24 29 25 30 26 31 27 11 28 7 29 3 30 21 31
REMARK H PARENT 21 32
REMARK Flexibility Score: inf
ROOT
ATOM      1  C   UNL     1       3.168  15.875  47.228  1.00  0.00     0.011 C 
ATOM      2  C   UNL     1       3.502  17.364  47.491  1.00  0.00    -0.035 C 
ATOM      3  C   UNL     1       4.359  17.525  48.766  1.00  0.00     0.007 C 
ATOM      4  C   UNL     1       5.771  16.937  48.611  1.00  0.00     0.008 C 
ATOM      5  C   UNL     1       6.564  17.498  47.390  1.00  0.00    -0.026 C 
ATOM      6  C   UNL     1       7.082  18.943  47.698  1.00  0.00     0.008 C 
ATOM      7  C   UNL     1       6.909  19.999  46.583  1.00  0.00     0.012 C 
ATOM      8  C   UNL     1       7.121  19.482  45.120  1.00  0.00    -0.006 C 
ATOM      9  C   UNL     1       6.365  18.170  44.937  1.00  0.00    -0.064 C 
ATOM     10  C   UNL     1       6.191  17.690  43.700  1.00  0.00    -0.027 C 
ATOM     11  C   UNL     1       6.559  18.431  42.442  1.00  0.00     0.032 C 
ATOM     12  C   UNL     1       6.984  19.948  42.566  1.00  0.00     0.006 C 
ATOM     13  C   UNL     1       6.619  20.531  44.001  1.00  0.00    -0.020 C 
ATOM     14  C   UNL     1       5.069  20.740  44.028  1.00  0.00     0.008 C 
ATOM     15  C   UNL     1       4.528  21.598  42.865  1.00  0.00     0.005 C 
ATOM     16  C   UNL     1       4.930  21.072  41.455  1.00  0.00     0.003 C 
ATOM     17  C   UNL     1       6.477  20.828  41.325  1.00  0.00    -0.025 C 
ATOM     18  C   UNL     1       6.731  20.077  39.973  1.00  0.00     0.010 C 
ATOM     19  C   UNL     1       6.052  20.695  38.734  1.00  0.00     0.033 C 
ATOM     20  C   UNL     1       5.181  21.944  38.972  1.00  0.00     0.120 C 
ATOM     21  C   UNL     1       4.235  21.839  40.233  1.00  0.00    -0.006 C 
ATOM     22  C   UNL     1       3.810  23.284  40.634  1.00  0.00     0.014 C 
ATOM     23  C   UNL     1       2.939  21.067  39.846  1.00  0.00     0.014 C 
ATOM     24  C   UNL     1       7.307  22.156  41.246  1.00  0.00     0.012 C 
ATOM     25  C   UNL     1       7.282  21.923  44.288  1.00  0.00     0.012 C 
ATOM     26  C   UNL     1       5.692  17.443  46.100  1.00  0.00     0.022 C 
ATOM     27  C   UNL     1       4.251  17.983  46.290  1.00  0.00     0.015 C 
ATOM     28  C   UNL     1       8.649  19.174  44.949  1.00  0.00     0.017 C 
ATOM     29  C   UNL     1       7.777  16.546  47.188  1.00  0.00     0.012 C 
ATOM     30  C   UNL     1       2.175  18.121  47.690  1.00  0.00     0.011 C 
ENDROOT
BRANCH  20  31
ATOM     31  O   UNL     1       4.486  22.183  37.769  1.00  0.00    -0.393 OA
ATOM     32  H   UNL     1       4.800  21.552  37.077  1.00  0.00     0.210 HD
ENDBRANCH  20  31
TORSDOF 1
ENDMDL
MODEL 4
REMARK VINA RESULT:    -7.131      3.656      7.018
REMARK INTER + INTRA:          -7.339
REMARK INTER:                  -7.339
REMARK INTRA:                   0.000
REMARK UNBOUND:                 0.000
REMARK SMILES CC1(C)CC[C@]2(C)CC[C@@]3(C)C(=CC[C@H]4[C@@]5(C)CC[C@@H](O)C(C)(C)[C@@H]5CC[C@]43C)[C@@H]2C1
REMARK SMILES IDX 1 1 2 2 4 3 5 4 6 5 8 6 9 7 10 8 12 9 13 10 14 11 15 12
REMARK SMILES IDX 28 13 27 14 26 15 25 16 16 17 18 18 19 19 20 20 22 21 23 22
REMARK SMILES IDX 24 23 17 24 29 25 30 26 31 27 11 28 7 29 3 30 21 31
REMARK H PARENT 21 32
REMARK Flexibility Score: inf
ROOT
ATOM      1  C   UNL     1      -1.466  16.861  49.795  1.00  0.00     0.011 C 
ATOM      2  C   UNL     1      -1.297  17.365  48.341  1.00  0.00    -0.035 C 
ATOM      3  C   UNL     1      -2.618  17.955  47.799  1.00  0.00     0.007 C 
ATOM      4  C   UNL     1      -3.022  19.257  48.508  1.00  0.00     0.008 C 
ATOM      5  C   UNL     1      -1.922  20.363  48.484  1.00  0.00    -0.026 C 
ATOM      6  C   UNL     1      -1.854  21.029  47.068  1.00  0.00     0.008 C 
ATOM      7  C   UNL     1      -0.447  21.258  46.471  1.00  0.00     0.012 C 
ATOM      8  C   UNL     1       0.662  21.683  47.493  1.00  0.00    -0.006 C 
ATOM      9  C   UNL     1       0.583  20.783  48.722  1.00  0.00    -0.064 C 
ATOM     10  C   UNL     1       1.594  20.795  49.599  1.00  0.00    -0.027 C 
ATOM     11  C   UNL     1       2.893  21.527  49.388  1.00  0.00     0.032 C 
ATOM     12  C   UNL     1       3.175  22.151  47.964  1.00  0.00     0.006 C 
ATOM     13  C   UNL     1       2.152  21.595  46.879  1.00  0.00    -0.020 C 
ATOM     14  C   UNL     1       2.582  20.126  46.558  1.00  0.00     0.008 C 
ATOM     15  C   UNL     1       4.059  19.979  46.135  1.00  0.00     0.005 C 
ATOM     16  C   UNL     1       5.069  20.575  47.160  1.00  0.00     0.003 C 
ATOM     17  C   UNL     1       4.722  22.057  47.551  1.00  0.00    -0.025 C 
ATOM     18  C   UNL     1       5.642  22.463  48.753  1.00  0.00     0.010 C 
ATOM     19  C   UNL     1       7.143  22.161  48.570  1.00  0.00     0.033 C 
ATOM     20  C   UNL     1       7.555  21.467  47.257  1.00  0.00     0.120 C 
ATOM     21  C   UNL     1       6.608  20.277  46.831  1.00  0.00    -0.006 C 
ATOM     22  C   UNL     1       6.826  20.012  45.311  1.00  0.00     0.014 C 
ATOM     23  C   UNL     1       7.027  18.983  47.590  1.00  0.00     0.014 C 
ATOM     24  C   UNL     1       5.026  23.084  46.406  1.00  0.00     0.012 C 
ATOM     25  C   UNL     1       2.185  22.396  45.531  1.00  0.00     0.012 C 
ATOM     26  C   UNL     1      -0.548  19.779  48.931  1.00  0.00     0.022 C 
ATOM     27  C   UNL     1      -0.185  18.434  48.251  1.00  0.00     0.015 C 
ATOM     28  C   UNL     1       0.336  23.145  47.956  1.00  0.00     0.017 C 
ATOM     29  C   UNL     1      -2.354  21.426  49.534  1.00  0.00     0.012 C 
ATOM     30  C   UNL     1      -0.899  16.161  47.465  1.00  0.00     0.011 C 
ENDROOT
BRANCH  20  31
ATOM     31  O   UNL     1       8.902  21.082  47.413  1.00  0.00    -0.393 OA
ATOM     32  H   UNL     1       9.373  21.177  46.549  1.00  0.00     0.210 HD
ENDBRANCH  20  31
TORSDOF 1
ENDMDL
MODEL 5
REMARK VINA RESULT:    -6.832      4.595      9.311
REMARK INTER + INTRA:          -7.031
REMARK INTER:                  -7.031
REMARK INTRA:                   0.000
REMARK UNBOUND:                 0.000
REMARK SMILES CC1(C)CC[C@]2(C)CC[C@@]3(C)C(=CC[C@H]4[C@@]5(C)CC[C@@H](O)C(C)(C)[C@@H]5CC[C@]43C)[C@@H]2C1
REMARK SMILES IDX 1 1 2 2 4 3 5 4 6 5 8 6 9 7 10 8 12 9 13 10 14 11 15 12
REMARK SMILES IDX 28 13 27 14 26 15 25 16 16 17 18 18 19 19 20 20 22 21 23 22
REMARK SMILES IDX 24 23 17 24 29 25 30 26 31 27 11 28 7 29 3 30 21 31
REMARK H PARENT 21 32
REMARK Flexibility Score: inf
ROOT
ATOM      1  C   UNL     1       8.352  19.210  43.475  1.00  0.00     0.011 C 
ATOM      2  C   UNL     1       6.864  18.837  43.265  1.00  0.00    -0.035 C 
ATOM      3  C   UNL     1       6.699  17.323  43.010  1.00  0.00     0.007 C 
ATOM      4  C   UNL     1       7.036  16.472  44.245  1.00  0.00     0.008 C 
ATOM      5  C   UNL     1       6.234  16.864  45.525  1.00  0.00    -0.026 C 
ATOM      6  C   UNL     1       4.764  16.333  45.426  1.00  0.00     0.008 C 
ATOM      7  C   UNL     1       3.640  17.308  45.844  1.00  0.00     0.012 C 
ATOM      8  C   UNL     1       3.965  18.235  47.064  1.00  0.00    -0.006 C 
ATOM      9  C   UNL     1       5.354  18.836  46.883  1.00  0.00    -0.064 C 
ATOM     10  C   UNL     1       5.727  19.854  47.667  1.00  0.00    -0.027 C 
ATOM     11  C   UNL     1       4.812  20.563  48.630  1.00  0.00     0.032 C 
ATOM     12  C   UNL     1       3.267  20.234  48.572  1.00  0.00     0.006 C 
ATOM     13  C   UNL     1       2.900  19.433  47.247  1.00  0.00    -0.020 C 
ATOM     14  C   UNL     1       2.944  20.460  46.068  1.00  0.00     0.008 C 
ATOM     15  C   UNL     1       2.068  21.711  46.287  1.00  0.00     0.005 C 
ATOM     16  C   UNL     1       2.376  22.470  47.611  1.00  0.00     0.003 C 
ATOM     17  C   UNL     1       2.356  21.521  48.865  1.00  0.00    -0.025 C 
ATOM     18  C   UNL     1       2.915  22.329  50.086  1.00  0.00     0.010 C 
ATOM     19  C   UNL     1       2.289  23.723  50.301  1.00  0.00     0.033 C 
ATOM     20  C   UNL     1       1.226  24.169  49.278  1.00  0.00     0.120 C 
ATOM     21  C   UNL     1       1.608  23.865  47.775  1.00  0.00    -0.006 C 
ATOM     22  C   UNL     1       0.299  23.899  46.932  1.00  0.00     0.014 C 
ATOM     23  C   UNL     1       2.533  24.997  47.238  1.00  0.00     0.014 C 
ATOM     24  C   UNL     1       0.912  21.065  49.270  1.00  0.00     0.012 C 
ATOM     25  C   UNL     1       1.457  18.819  47.277  1.00  0.00     0.012 C 
ATOM     26  C   UNL     1       6.295  18.403  45.760  1.00  0.00     0.022 C 
ATOM     27  C   UNL     1       6.013  19.245  44.489  1.00  0.00     0.015 C 
ATOM     28  C   UNL     1       4.006  17.327  48.342  1.00  0.00     0.017 C 
ATOM     29  C   UNL     1       6.955  16.170  46.716  1.00  0.00     0.012 C 
ATOM     30  C   UNL     1       6.352  19.604  42.030  1.00  0.00     0.011 C 
ENDROOT
BRANCH  20  31
ATOM     31  O   UNL     1       0.978  25.534  49.528  1.00  0.00    -0.393 OA
ATOM     32  H   UNL     1       0.807  25.666  50.492  1.00  0.00     0.210 HD
ENDBRANCH  20  31
TORSDOF 1
ENDMDL
MODEL 6
REMARK VINA RESULT:    -6.803      4.894      8.390
REMARK INTER + INTRA:          -7.002
REMARK INTER:                  -7.002
REMARK INTRA:                   0.000
REMARK UNBOUND:                 0.000
REMARK SMILES CC1(C)CC[C@]2(C)CC[C@@]3(C)C(=CC[C@H]4[C@@]5(C)CC[C@@H](O)C(C)(C)[C@@H]5CC[C@]43C)[C@@H]2C1
REMARK SMILES IDX 1 1 2 2 4 3 5 4 6 5 8 6 9 7 10 8 12 9 13 10 14 11 15 12
REMARK SMILES IDX 28 13 27 14 26 15 25 16 16 17 18 18 19 19 20 20 22 21 23 22
REMARK SMILES IDX 24 23 17 24 29 25 30 26 31 27 11 28 7 29 3 30 21 31
REMARK H PARENT 21 32
REMARK Flexibility Score: inf
ROOT
ATOM      1  C   UNL     1       7.510  18.386  42.523  1.00  0.00     0.011 C 
ATOM      2  C   UNL     1       7.467  18.104  44.044  1.00  0.00    -0.035 C 
ATOM      3  C   UNL     1       8.807  18.478  44.718  1.00  0.00     0.007 C 
ATOM      4  C   UNL     1       9.072  19.991  44.714  1.00  0.00     0.008 C 
ATOM      5  C   UNL     1       7.927  20.840  45.350  1.00  0.00    -0.026 C 
ATOM      6  C   UNL     1       7.974  20.727  46.911  1.00  0.00     0.008 C 
ATOM      7  C   UNL     1       6.626  20.508  47.635  1.00  0.00     0.012 C 
ATOM      8  C   UNL     1       5.398  21.269  47.029  1.00  0.00    -0.006 C 
ATOM      9  C   UNL     1       5.394  21.089  45.515  1.00  0.00    -0.064 C 
ATOM     10  C   UNL     1       4.299  21.429  44.825  1.00  0.00    -0.027 C 
ATOM     11  C   UNL     1       2.995  21.844  45.453  1.00  0.00     0.032 C 
ATOM     12  C   UNL     1       2.830  21.671  47.015  1.00  0.00     0.006 C 
ATOM     13  C   UNL     1       3.985  20.757  47.617  1.00  0.00    -0.020 C 
ATOM     14  C   UNL     1       3.662  19.284  47.204  1.00  0.00     0.008 C 
ATOM     15  C   UNL     1       2.246  18.815  47.597  1.00  0.00     0.005 C 
ATOM     16  C   UNL     1       1.109  19.735  47.066  1.00  0.00     0.003 C 
ATOM     17  C   UNL     1       1.340  21.246  47.431  1.00  0.00    -0.025 C 
ATOM     18  C   UNL     1       0.283  22.096  46.645  1.00  0.00     0.010 C 
ATOM     19  C   UNL     1      -1.175  21.605  46.755  1.00  0.00     0.033 C 
ATOM     20  C   UNL     1      -1.415  20.328  47.583  1.00  0.00     0.120 C 
ATOM     21  C   UNL     1      -0.372  19.174  47.307  1.00  0.00    -0.006 C 
ATOM     22  C   UNL     1      -0.420  18.188  48.512  1.00  0.00     0.014 C 
ATOM     23  C   UNL     1      -0.804  18.378  46.040  1.00  0.00     0.014 C 
ATOM     24  C   UNL     1       1.106  21.558  48.949  1.00  0.00     0.012 C 
ATOM     25  C   UNL     1       4.052  20.799  49.184  1.00  0.00     0.012 C 
ATOM     26  C   UNL     1       6.545  20.421  44.765  1.00  0.00     0.022 C 
ATOM     27  C   UNL     1       6.320  18.888  44.720  1.00  0.00     0.015 C 
ATOM     28  C   UNL     1       5.604  22.795  47.322  1.00  0.00     0.017 C 
ATOM     29  C   UNL     1       8.197  22.313  44.930  1.00  0.00     0.012 C 
ATOM     30  C   UNL     1       7.220  16.596  44.242  1.00  0.00     0.011 C 
ENDROOT
BRANCH  20  31
ATOM     31  O   UNL     1      -2.751  19.943  47.348  1.00  0.00    -0.393 OA
ATOM     32  H   UNL     1      -3.248  19.944  48.202  1.00  0.00     0.210 HD
ENDBRANCH  20  31
TORSDOF 1
ENDMDL
MODEL 7
REMARK VINA RESULT:    -6.799      6.638     10.907
REMARK INTER + INTRA:          -6.997
REMARK INTER:                  -6.997
REMARK INTRA:                   0.000
REMARK UNBOUND:                 0.000
REMARK SMILES CC1(C)CC[C@]2(C)CC[C@@]3(C)C(=CC[C@H]4[C@@]5(C)CC[C@@H](O)C(C)(C)[C@@H]5CC[C@]43C)[C@@H]2C1
REMARK SMILES IDX 1 1 2 2 4 3 5 4 6 5 8 6 9 7 10 8 12 9 13 10 14 11 15 12
REMARK SMILES IDX 28 13 27 14 26 15 25 16 16 17 18 18 19 19 20 20 22 21 23 22
REMARK SMILES IDX 24 23 17 24 29 25 30 26 31 27 11 28 7 29 3 30 21 31
REMARK H PARENT 21 32
REMARK Flexibility Score: inf
ROOT
ATOM      1  C   UNL     1      10.858  19.581  42.607  1.00  0.00     0.011 C 
ATOM      2  C   UNL     1       9.480  18.993  42.220  1.00  0.00    -0.035 C 
ATOM      3  C   UNL     1       9.611  17.526  41.752  1.00  0.00     0.007 C 
ATOM      4  C   UNL     1      10.019  16.575  42.888  1.00  0.00     0.008 C 
ATOM      5  C   UNL     1       9.081  16.631  44.134  1.00  0.00    -0.026 C 
ATOM      6  C   UNL     1       7.741  15.875  43.837  1.00  0.00     0.008 C 
ATOM      7  C   UNL     1       6.434  16.572  44.280  1.00  0.00     0.012 C 
ATOM      8  C   UNL     1       6.507  17.351  45.637  1.00  0.00    -0.006 C 
ATOM      9  C   UNL     1       7.772  18.203  45.659  1.00  0.00    -0.064 C 
ATOM     10  C   UNL     1       7.902  19.144  46.601  1.00  0.00    -0.027 C 
ATOM     11  C   UNL     1       6.815  19.536  47.566  1.00  0.00     0.032 C 
ATOM     12  C   UNL     1       5.363  18.959  47.329  1.00  0.00     0.006 C 
ATOM     13  C   UNL     1       5.232  18.309  45.882  1.00  0.00    -0.020 C 
ATOM     14  C   UNL     1       5.162  19.489  44.858  1.00  0.00     0.008 C 
ATOM     15  C   UNL     1       4.060  20.525  45.164  1.00  0.00     0.005 C 
ATOM     16  C   UNL     1       4.141  21.124  46.599  1.00  0.00     0.003 C 
ATOM     17  C   UNL     1       4.216  20.013  47.709  1.00  0.00    -0.025 C 
ATOM     18  C   UNL     1       4.539  20.717  49.071  1.00  0.00     0.010 C 
ATOM     19  C   UNL     1       3.657  21.936  49.413  1.00  0.00     0.033 C 
ATOM     20  C   UNL     1       2.597  22.338  48.369  1.00  0.00     0.120 C 
ATOM     21  C   UNL     1       3.122  22.327  46.879  1.00  0.00    -0.006 C 
ATOM     22  C   UNL     1       1.884  22.258  45.936  1.00  0.00     0.014 C 
ATOM     23  C   UNL     1       3.856  23.668  46.579  1.00  0.00     0.014 C 
ATOM     24  C   UNL     1       2.857  19.261  47.922  1.00  0.00     0.012 C 
ATOM     25  C   UNL     1       3.927  17.458  45.704  1.00  0.00     0.012 C 
ATOM     26  C   UNL     1       8.844  18.107  44.575  1.00  0.00     0.022 C 
ATOM     27  C   UNL     1       8.494  19.064  43.407  1.00  0.00     0.015 C 
ATOM     28  C   UNL     1       6.634  16.287  46.781  1.00  0.00     0.017 C 
ATOM     29  C   UNL     1       9.840  15.906  45.281  1.00  0.00     0.012 C 
ATOM     30  C   UNL     1       8.915  19.832  41.057  1.00  0.00     0.011 C 
ENDROOT
BRANCH  20  31
ATOM     31  O   UNL     1       2.089  23.588  48.775  1.00  0.00    -0.393 OA
ATOM     32  H   UNL     1       1.776  23.528  49.710  1.00  0.00     0.210 HD
ENDBRANCH  20  31
TORSDOF 1
ENDMDL
MODEL 8
REMARK VINA RESULT:    -6.741     11.226     14.471
REMARK INTER + INTRA:          -6.938
REMARK INTER:                  -6.938
REMARK INTRA:                   0.000
REMARK UNBOUND:                 0.000
REMARK SMILES CC1(C)CC[C@]2(C)CC[C@@]3(C)C(=CC[C@H]4[C@@]5(C)CC[C@@H](O)C(C)(C)[C@@H]5CC[C@]43C)[C@@H]2C1
REMARK SMILES IDX 1 1 2 2 4 3 5 4 6 5 8 6 9 7 10 8 12 9 13 10 14 11 15 12
REMARK SMILES IDX 28 13 27 14 26 15 25 16 16 17 18 18 19 19 20 20 22 21 23 22
REMARK SMILES IDX 24 23 17 24 29 25 30 26 31 27 11 28 7 29 3 30 21 31
REMARK H PARENT 21 32
REMARK Flexibility Score: inf
ROOT
ATOM      1  C   UNL     1      -0.580  23.321  40.684  1.00  0.00     0.011 C 
ATOM      2  C   UNL     1       0.246  24.545  41.150  1.00  0.00    -0.035 C 
ATOM      3  C   UNL     1       1.661  24.122  41.604  1.00  0.00     0.007 C 
ATOM      4  C   UNL     1       2.531  23.615  40.442  1.00  0.00     0.008 C 
ATOM      5  C   UNL     1       2.655  24.618  39.254  1.00  0.00    -0.026 C 
ATOM      6  C   UNL     1       3.640  25.778  39.626  1.00  0.00     0.008 C 
ATOM      7  C   UNL     1       3.196  27.214  39.263  1.00  0.00     0.012 C 
ATOM      8  C   UNL     1       2.426  27.363  37.907  1.00  0.00    -0.006 C 
ATOM      9  C   UNL     1       1.359  26.277  37.813  1.00  0.00    -0.064 C 
ATOM     10  C   UNL     1       0.417  26.375  36.869  1.00  0.00    -0.027 C 
ATOM     11  C   UNL     1       0.236  27.570  35.970  1.00  0.00     0.032 C 
ATOM     12  C   UNL     1       1.066  28.876  36.289  1.00  0.00     0.006 C 
ATOM     13  C   UNL     1       1.718  28.803  37.739  1.00  0.00    -0.020 C 
ATOM     14  C   UNL     1       0.563  29.027  38.770  1.00  0.00     0.008 C 
ATOM     15  C   UNL     1      -0.254  30.315  38.532  1.00  0.00     0.005 C 
ATOM     16  C   UNL     1      -0.846  30.428  37.097  1.00  0.00     0.003 C 
ATOM     17  C   UNL     1       0.241  30.217  35.981  1.00  0.00    -0.025 C 
ATOM     18  C   UNL     1      -0.501  30.106  34.605  1.00  0.00     0.010 C 
ATOM     19  C   UNL     1      -1.536  31.213  34.319  1.00  0.00     0.033 C 
ATOM     20  C   UNL     1      -1.746  32.266  35.424  1.00  0.00     0.120 C 
ATOM     21  C   UNL     1      -1.842  31.663  36.881  1.00  0.00    -0.006 C 
ATOM     22  C   UNL     1      -1.556  32.811  37.895  1.00  0.00     0.014 C 
ATOM     23  C   UNL     1      -3.296  31.168  37.141  1.00  0.00     0.014 C 
ATOM     24  C   UNL     1       1.229  31.426  35.845  1.00  0.00     0.012 C 
ATOM     25  C   UNL     1       2.790  29.919  37.991  1.00  0.00     0.012 C 
ATOM     26  C   UNL     1       1.251  25.144  38.832  1.00  0.00     0.022 C 
ATOM     27  C   UNL     1       0.364  25.595  40.022  1.00  0.00     0.015 C 
ATOM     28  C   UNL     1       3.458  27.111  36.754  1.00  0.00     0.017 C 
ATOM     29  C   UNL     1       3.239  23.807  38.063  1.00  0.00     0.012 C 
ATOM     30  C   UNL     1      -0.485  25.184  42.346  1.00  0.00     0.011 C 
ENDROOT
BRANCH  20  31
ATOM     31  O   UNL     1      -2.881  33.016  35.053  1.00  0.00    -0.393 OA
ATOM     32  H   UNL     1      -2.595  33.819  34.552  1.00  0.00     0.210 HD
ENDBRANCH  20  31
TORSDOF 1
ENDMDL
MODEL 9
REMARK VINA RESULT:    -6.630      5.254      7.565
REMARK INTER + INTRA:          -6.824
REMARK INTER:                  -6.824
REMARK INTRA:                   0.000
REMARK UNBOUND:                 0.000
REMARK SMILES CC1(C)CC[C@]2(C)CC[C@@]3(C)C(=CC[C@H]4[C@@]5(C)CC[C@@H](O)C(C)(C)[C@@H]5CC[C@]43C)[C@@H]2C1
REMARK SMILES IDX 1 1 2 2 4 3 5 4 6 5 8 6 9 7 10 8 12 9 13 10 14 11 15 12
REMARK SMILES IDX 28 13 27 14 26 15 25 16 16 17 18 18 19 19 20 20 22 21 23 22
REMARK SMILES IDX 24 23 17 24 29 25 30 26 31 27 11 28 7 29 3 30 21 31
REMARK H PARENT 21 32
REMARK Flexibility Score: inf
ROOT
ATOM      1  C   UNL     1      -0.487  20.550  48.074  1.00  0.00     0.011 C 
ATOM      2  C   UNL     1       0.407  21.588  47.353  1.00  0.00    -0.035 C 
ATOM      3  C   UNL     1       0.287  22.981  48.012  1.00  0.00     0.007 C 
ATOM      4  C   UNL     1       0.883  23.022  49.428  1.00  0.00     0.008 C 
ATOM      5  C   UNL     1       2.367  22.547  49.508  1.00  0.00    -0.026 C 
ATOM      6  C   UNL     1       3.322  23.660  48.956  1.00  0.00     0.008 C 
ATOM      7  C   UNL     1       4.451  23.202  48.005  1.00  0.00     0.012 C 
ATOM      8  C   UNL     1       5.114  21.826  48.352  1.00  0.00    -0.006 C 
ATOM      9  C   UNL     1       4.022  20.804  48.652  1.00  0.00    -0.064 C 
ATOM     10  C   UNL     1       4.348  19.508  48.713  1.00  0.00    -0.027 C 
ATOM     11  C   UNL     1       5.702  18.955  48.357  1.00  0.00     0.032 C 
ATOM     12  C   UNL     1       6.746  19.921  47.668  1.00  0.00     0.006 C 
ATOM     13  C   UNL     1       6.045  21.258  47.162  1.00  0.00    -0.020 C 
ATOM     14  C   UNL     1       5.224  20.885  45.884  1.00  0.00     0.008 C 
ATOM     15  C   UNL     1       6.048  20.176  44.789  1.00  0.00     0.005 C 
ATOM     16  C   UNL     1       6.789  18.901  45.287  1.00  0.00     0.003 C 
ATOM     17  C   UNL     1       7.648  19.170  46.576  1.00  0.00    -0.025 C 
ATOM     18  C   UNL     1       8.141  17.786  47.121  1.00  0.00     0.010 C 
ATOM     19  C   UNL     1       8.790  16.855  46.077  1.00  0.00     0.033 C 
ATOM     20  C   UNL     1       8.843  17.373  44.626  1.00  0.00     0.120 C 
ATOM     21  C   UNL     1       7.504  18.050  44.133  1.00  0.00    -0.006 C 
ATOM     22  C   UNL     1       7.843  18.937  42.897  1.00  0.00     0.014 C 
ATOM     23  C   UNL     1       6.512  16.949  43.654  1.00  0.00     0.014 C 
ATOM     24  C   UNL     1       8.941  20.010  46.291  1.00  0.00     0.012 C 
ATOM     25  C   UNL     1       7.067  22.374  46.751  1.00  0.00     0.012 C 
ATOM     26  C   UNL     1       2.549  21.189  48.766  1.00  0.00     0.022 C 
ATOM     27  C   UNL     1       1.887  21.145  47.364  1.00  0.00     0.015 C 
ATOM     28  C   UNL     1       5.947  22.027  49.664  1.00  0.00     0.017 C 
ATOM     29  C   UNL     1       2.665  22.311  51.015  1.00  0.00     0.012 C 
ATOM     30  C   UNL     1      -0.068  21.692  45.891  1.00  0.00     0.011 C 
ENDROOT
BRANCH  20  31
ATOM     31  O   UNL     1       9.247  16.284  43.827  1.00  0.00    -0.393 OA
ATOM     32  H   UNL     1       9.798  15.667  44.367  1.00  0.00     0.210 HD
ENDBRANCH  20  31
TORSDOF 1
ENDMDL
