MODEL 1
REMARK VINA RESULT:    -4.001      0.000      0.000
REMARK INTER + INTRA:          -8.747
REMARK INTER:                  -6.807
REMARK INTRA:                  -1.940
REMARK UNBOUND:                -1.940
REMARK SMILES CCCCCCCCCCCCCC(=O)[O-]
REMARK SMILES IDX 8 1 9 2 10 3 11 4 12 5 13 6 14 7 15 8 16 9 7 10 6 11 5 12
REMARK SMILES IDX 4 13 3 14 2 15 1 16
REMARK H PARENT
REMARK Flexibility Score: inf
ROOT
ATOM      1  C   UNL     1     -19.129  12.000  13.849  1.00  0.00     0.000 C 
ENDROOT
BRANCH   1   2
ATOM      2  C   UNL     1     -19.739  10.625  14.153  1.00  0.00     0.000 C 
BRANCH   2   3
ATOM      3  C   UNL     1     -18.896   9.867  15.189  1.00  0.00     0.000 C 
BRANCH   3   4
ATOM      4  C   UNL     1     -19.752   9.214  16.286  1.00  0.00     0.000 C 
BRANCH   4   5
ATOM      5  C   UNL     1     -19.047   9.195  17.654  1.00  0.00     0.006 C 
BRANCH   5   6
ATOM      6  C   UNL     1     -19.260   7.870  18.397  1.00  0.00     0.053 C 
BRANCH   6   7
ATOM      7  C   UNL     1     -17.981   7.341  18.973  1.00  0.00     0.041 C 
ATOM      8  O   UNL     1     -18.001   6.629  20.011  1.00  0.00    -0.550 OA
ATOM      9  O   UNL     1     -16.771   7.610  18.345  1.00  0.00    -0.550 OA
ENDBRANCH   6   7
ENDBRANCH   5   6
ENDBRANCH   4   5
ENDBRANCH   3   4
ENDBRANCH   2   3
ENDBRANCH   1   2
BRANCH   1  10
ATOM     10  C   UNL     1     -17.816  12.201  14.614  1.00  0.00     0.000 C 
BRANCH  10  11
ATOM     11  C   UNL     1     -17.730  13.617  15.196  1.00  0.00    -0.000 C 
BRANCH  11  12
ATOM     12  C   UNL     1     -19.016  13.984  15.947  1.00  0.00    -0.000 C 
BRANCH  12  13
ATOM     13  C   UNL     1     -19.021  13.384  17.357  1.00  0.00    -0.000 C 
BRANCH  13  14
ATOM     14  C   UNL     1     -20.283  12.540  17.592  1.00  0.00    -0.000 C 
BRANCH  14  15
ATOM     15  C   UNL     1     -21.456  12.970  16.698  1.00  0.00    -0.003 C 
ATOM     16  C   UNL     1     -22.462  11.844  16.458  1.00  0.00     0.004 C 
ENDBRANCH  14  15
ENDBRANCH  13  14
ENDBRANCH  12  13
ENDBRANCH  11  12
ENDBRANCH  10  11
ENDBRANCH   1  10
TORSDOF 12
ENDMDL
MODEL 2
REMARK VINA RESULT:    -3.875      4.590      7.057
REMARK INTER + INTRA:          -8.533
REMARK INTER:                  -7.294
REMARK INTRA:                  -1.239
REMARK UNBOUND:                -1.940
REMARK SMILES CCCCCCCCCCCCCC(=O)[O-]
REMARK SMILES IDX 8 1 9 2 10 3 11 4 12 5 13 6 14 7 15 8 16 9 7 10 6 11 5 12
REMARK SMILES IDX 4 13 3 14 2 15 1 16
REMARK H PARENT
REMARK Flexibility Score: inf
ROOT
ATOM      1  C   UNL     1     -19.156  12.311  18.486  1.00  0.00     0.000 C 
ENDROOT
BRANCH   1   2
ATOM      2  C   UNL     1     -18.925  13.515  17.563  1.00  0.00     0.000 C 
BRANCH   2   3
ATOM      3  C   UNL     1     -18.590  13.057  16.136  1.00  0.00     0.000 C 
BRANCH   3   4
ATOM      4  C   UNL     1     -19.329  13.872  15.063  1.00  0.00     0.000 C 
BRANCH   4   5
ATOM      5  C   UNL     1     -18.504  15.067  14.555  1.00  0.00     0.006 C 
BRANCH   5   6
ATOM      6  C   UNL     1     -19.297  16.380  14.604  1.00  0.00     0.053 C 
BRANCH   6   7
ATOM      7  C   UNL     1     -18.494  17.537  14.090  1.00  0.00     0.041 C 
ATOM      8  O   UNL     1     -18.120  18.446  14.876  1.00  0.00    -0.550 OA
ATOM      9  O   UNL     1     -18.134  17.594  12.749  1.00  0.00    -0.550 OA
ENDBRANCH   6   7
ENDBRANCH   5   6
ENDBRANCH   4   5
ENDBRANCH   3   4
ENDBRANCH   2   3
ENDBRANCH   1   2
BRANCH   1  10
ATOM     10  C   UNL     1     -20.119  11.304  17.846  1.00  0.00     0.000 C 
BRANCH  10  11
ATOM     11  C   UNL     1     -19.539   9.885  17.889  1.00  0.00    -0.000 C 
BRANCH  11  12
ATOM     12  C   UNL     1     -19.763   9.159  16.557  1.00  0.00    -0.000 C 
BRANCH  12  13
ATOM     13  C   UNL     1     -18.872   9.742  15.454  1.00  0.00    -0.000 C 
BRANCH  13  14
ATOM     14  C   UNL     1     -19.648   9.880  14.135  1.00  0.00    -0.000 C 
BRANCH  14  15
ATOM     15  C   UNL     1     -18.906  10.740  13.101  1.00  0.00    -0.003 C 
ATOM     16  C   UNL     1     -17.406  10.839  13.380  1.00  0.00     0.004 C 
ENDBRANCH  14  15
ENDBRANCH  13  14
ENDBRANCH  12  13
ENDBRANCH  11  12
ENDBRANCH  10  11
ENDBRANCH   1  10
TORSDOF 12
ENDMDL
MODEL 3
REMARK VINA RESULT:    -3.857      1.299      3.016
REMARK INTER + INTRA:          -8.504
REMARK INTER:                  -6.846
REMARK INTRA:                  -1.658
REMARK UNBOUND:                -1.940
REMARK SMILES CCCCCCCCCCCCCC(=O)[O-]
REMARK SMILES IDX 8 1 9 2 10 3 11 4 12 5 13 6 14 7 15 8 16 9 7 10 6 11 5 12
REMARK SMILES IDX 4 13 3 14 2 15 1 16
REMARK H PARENT
REMARK Flexibility Score: inf
ROOT
ATOM      1  C   UNL     1     -21.199  11.809  17.269  1.00  0.00     0.000 C 
ENDROOT
BRANCH   1   2
ATOM      2  C   UNL     1     -21.062  10.328  17.646  1.00  0.00     0.000 C 
BRANCH   2   3
ATOM      3  C   UNL     1     -19.724  10.062  18.352  1.00  0.00     0.000 C 
BRANCH   3   4
ATOM      4  C   UNL     1     -18.899   8.962  17.666  1.00  0.00     0.000 C 
BRANCH   4   5
ATOM      5  C   UNL     1     -18.721   7.716  18.552  1.00  0.00     0.006 C 
BRANCH   5   6
ATOM      6  C   UNL     1     -17.248   7.449  18.887  1.00  0.00     0.053 C 
BRANCH   6   7
ATOM      7  C   UNL     1     -16.970   5.987  19.059  1.00  0.00     0.041 C 
ATOM      8  O   UNL     1     -17.102   5.199  18.086  1.00  0.00    -0.550 OA
ATOM      9  O   UNL     1     -16.536   5.500  20.285  1.00  0.00    -0.550 OA
ENDBRANCH   6   7
ENDBRANCH   5   6
ENDBRANCH   4   5
ENDBRANCH   3   4
ENDBRANCH   2   3
ENDBRANCH   1   2
BRANCH   1  10
ATOM     10  C   UNL     1     -19.902  12.573  17.558  1.00  0.00     0.000 C 
BRANCH  10  11
ATOM     11  C   UNL     1     -19.528  13.485  16.384  1.00  0.00    -0.000 C 
BRANCH  11  12
ATOM     12  C   UNL     1     -18.302  12.947  15.636  1.00  0.00    -0.000 C 
BRANCH  12  13
ATOM     13  C   UNL     1     -18.717  12.177  14.378  1.00  0.00    -0.000 C 
BRANCH  13  14
ATOM     14  C   UNL     1     -18.458  10.672  14.543  1.00  0.00    -0.000 C 
BRANCH  14  15
ATOM     15  C   UNL     1     -19.668   9.816  14.137  1.00  0.00    -0.003 C 
ATOM     16  C   UNL     1     -20.894  10.657  13.781  1.00  0.00     0.004 C 
ENDBRANCH  14  15
ENDBRANCH  13  14
ENDBRANCH  12  13
ENDBRANCH  11  12
ENDBRANCH  10  11
ENDBRANCH   1  10
TORSDOF 12
ENDMDL
MODEL 4
REMARK VINA RESULT:    -3.850      1.254      2.976
REMARK INTER + INTRA:          -8.492
REMARK INTER:                  -6.656
REMARK INTRA:                  -1.835
REMARK UNBOUND:                -1.940
REMARK SMILES CCCCCCCCCCCCCC(=O)[O-]
REMARK SMILES IDX 8 1 9 2 10 3 11 4 12 5 13 6 14 7 15 8 16 9 7 10 6 11 5 12
REMARK SMILES IDX 4 13 3 14 2 15 1 16
REMARK H PARENT
REMARK Flexibility Score: inf
ROOT
ATOM      1  C   UNL     1     -19.622  13.808  17.269  1.00  0.00     0.000 C 
ENDROOT
BRANCH   1   2
ATOM      2  C   UNL     1     -18.746  12.823  18.054  1.00  0.00     0.000 C 
BRANCH   2   3
ATOM      3  C   UNL     1     -19.608  11.774  18.773  1.00  0.00     0.000 C 
BRANCH   3   4
ATOM      4  C   UNL     1     -20.468  10.948  17.805  1.00  0.00     0.000 C 
BRANCH   4   5
ATOM      5  C   UNL     1     -20.343   9.433  18.048  1.00  0.00     0.006 C 
BRANCH   5   6
ATOM      6  C   UNL     1     -18.882   8.966  18.059  1.00  0.00     0.053 C 
BRANCH   6   7
ATOM      7  C   UNL     1     -18.755   7.537  18.493  1.00  0.00     0.041 C 
ATOM      8  O   UNL     1     -19.164   6.611  17.745  1.00  0.00    -0.550 OA
ATOM      9  O   UNL     1     -18.158   7.229  19.709  1.00  0.00    -0.550 OA
ENDBRANCH   6   7
ENDBRANCH   5   6
ENDBRANCH   4   5
ENDBRANCH   3   4
ENDBRANCH   2   3
ENDBRANCH   1   2
BRANCH   1  10
ATOM     10  C   UNL     1     -19.219  13.846  15.790  1.00  0.00     0.000 C 
BRANCH  10  11
ATOM     11  C   UNL     1     -17.928  13.053  15.552  1.00  0.00    -0.000 C 
BRANCH  11  12
ATOM     12  C   UNL     1     -18.081  12.094  14.365  1.00  0.00    -0.000 C 
BRANCH  12  13
ATOM     13  C   UNL     1     -18.482  10.692  14.837  1.00  0.00    -0.000 C 
BRANCH  13  14
ATOM     14  C   UNL     1     -19.537  10.078  13.903  1.00  0.00    -0.000 C 
BRANCH  14  15
ATOM     15  C   UNL     1     -20.543  11.117  13.384  1.00  0.00    -0.003 C 
ATOM     16  C   UNL     1     -21.684  11.378  14.368  1.00  0.00     0.004 C 
ENDBRANCH  14  15
ENDBRANCH  13  14
ENDBRANCH  12  13
ENDBRANCH  11  12
ENDBRANCH  10  11
ENDBRANCH   1  10
TORSDOF 12
ENDMDL
MODEL 5
REMARK VINA RESULT:    -3.706      3.108      4.992
REMARK INTER + INTRA:          -8.246
REMARK INTER:                  -6.260
REMARK INTRA:                  -1.986
REMARK UNBOUND:                -1.940
REMARK SMILES CCCCCCCCCCCCCC(=O)[O-]
REMARK SMILES IDX 8 1 9 2 10 3 11 4 12 5 13 6 14 7 15 8 16 9 7 10 6 11 5 12
REMARK SMILES IDX 4 13 3 14 2 15 1 16
REMARK H PARENT
REMARK Flexibility Score: inf
ROOT
ATOM      1  C   UNL     1     -22.405   9.342  18.064  1.00  0.00     0.000 C 
ENDROOT
BRANCH   1   2
ATOM      2  C   UNL     1     -21.160   8.484  17.804  1.00  0.00     0.000 C 
BRANCH   2   3
ATOM      3  C   UNL     1     -20.576   8.769  16.412  1.00  0.00     0.000 C 
BRANCH   3   4
ATOM      4  C   UNL     1     -19.136   9.300  16.470  1.00  0.00     0.000 C 
BRANCH   4   5
ATOM      5  C   UNL     1     -18.734  10.062  15.195  1.00  0.00     0.006 C 
BRANCH   5   6
ATOM      6  C   UNL     1     -19.868  10.103  14.163  1.00  0.00     0.053 C 
BRANCH   6   7
ATOM      7  C   UNL     1     -19.530  10.980  12.995  1.00  0.00     0.041 C 
ATOM      8  O   UNL     1     -18.730  10.576  12.112  1.00  0.00    -0.550 OA
ATOM      9  O   UNL     1     -20.121  12.231  12.870  1.00  0.00    -0.550 OA
ENDBRANCH   6   7
ENDBRANCH   5   6
ENDBRANCH   4   5
ENDBRANCH   3   4
ENDBRANCH   2   3
ENDBRANCH   1   2
BRANCH   1  10
ATOM     10  C   UNL     1     -22.020  10.709  18.641  1.00  0.00     0.000 C 
BRANCH  10  11
ATOM     11  C   UNL     1     -22.372  11.837  17.663  1.00  0.00    -0.000 C 
BRANCH  11  12
ATOM     12  C   UNL     1     -21.111  12.409  17.004  1.00  0.00    -0.000 C 
BRANCH  12  13
ATOM     13  C   UNL     1     -19.934  12.424  17.986  1.00  0.00    -0.000 C 
BRANCH  13  14
ATOM     14  C   UNL     1     -18.742  13.199  17.405  1.00  0.00    -0.000 C 
BRANCH  14  15
ATOM     15  C   UNL     1     -18.965  13.617  15.943  1.00  0.00    -0.003 C 
ATOM     16  C   UNL     1     -17.683  13.571  15.112  1.00  0.00     0.004 C 
ENDBRANCH  14  15
ENDBRANCH  13  14
ENDBRANCH  12  13
ENDBRANCH  11  12
ENDBRANCH  10  11
ENDBRANCH   1  10
TORSDOF 12
ENDMDL
MODEL 6
REMARK VINA RESULT:    -3.669      4.199      6.623
REMARK INTER + INTRA:          -8.184
REMARK INTER:                  -6.444
REMARK INTRA:                  -1.739
REMARK UNBOUND:                -1.940
REMARK SMILES CCCCCCCCCCCCCC(=O)[O-]
REMARK SMILES IDX 8 1 9 2 10 3 11 4 12 5 13 6 14 7 15 8 16 9 7 10 6 11 5 12
REMARK SMILES IDX 4 13 3 14 2 15 1 16
REMARK H PARENT
REMARK Flexibility Score: inf
ROOT
ATOM      1  C   UNL     1     -20.475  11.816  17.862  1.00  0.00     0.000 C 
ENDROOT
BRANCH   1   2
ATOM      2  C   UNL     1     -19.151  12.574  18.026  1.00  0.00     0.000 C 
BRANCH   2   3
ATOM      3  C   UNL     1     -19.125  13.832  17.145  1.00  0.00     0.000 C 
BRANCH   3   4
ATOM      4  C   UNL     1     -20.527  14.276  16.702  1.00  0.00     0.000 C 
BRANCH   4   5
ATOM      5  C   UNL     1     -20.536  15.690  16.096  1.00  0.00     0.006 C 
BRANCH   5   6
ATOM      6  C   UNL     1     -21.038  16.744  17.091  1.00  0.00     0.053 C 
BRANCH   6   7
ATOM      7  C   UNL     1     -19.925  17.617  17.588  1.00  0.00     0.041 C 
ATOM      8  O   UNL     1     -19.479  18.547  16.866  1.00  0.00    -0.550 OA
ATOM      9  O   UNL     1     -19.403  17.422  18.861  1.00  0.00    -0.550 OA
ENDBRANCH   6   7
ENDBRANCH   5   6
ENDBRANCH   4   5
ENDBRANCH   3   4
ENDBRANCH   2   3
ENDBRANCH   1   2
BRANCH   1  10
ATOM     10  C   UNL     1     -20.313  10.338  18.235  1.00  0.00     0.000 C 
BRANCH  10  11
ATOM     11  C   UNL     1     -19.252   9.662  17.358  1.00  0.00    -0.000 C 
BRANCH  11  12
ATOM     12  C   UNL     1     -19.709   9.593  15.896  1.00  0.00    -0.000 C 
BRANCH  12  13
ATOM     13  C   UNL     1     -18.602  10.071  14.949  1.00  0.00    -0.000 C 
BRANCH  13  14
ATOM     14  C   UNL     1     -18.938  11.450  14.360  1.00  0.00    -0.000 C 
BRANCH  14  15
ATOM     15  C   UNL     1     -20.443  11.634  14.110  1.00  0.00    -0.003 C 
ATOM     16  C   UNL     1     -20.752  12.850  13.237  1.00  0.00     0.004 C 
ENDBRANCH  14  15
ENDBRANCH  13  14
ENDBRANCH  12  13
ENDBRANCH  11  12
ENDBRANCH  10  11
ENDBRANCH   1  10
TORSDOF 12
ENDMDL
MODEL 7
REMARK VINA RESULT:    -3.668      2.832      6.425
REMARK INTER + INTRA:          -8.181
REMARK INTER:                  -6.984
REMARK INTRA:                  -1.197
REMARK UNBOUND:                -1.940
REMARK SMILES CCCCCCCCCCCCCC(=O)[O-]
REMARK SMILES IDX 8 1 9 2 10 3 11 4 12 5 13 6 14 7 15 8 16 9 7 10 6 11 5 12
REMARK SMILES IDX 4 13 3 14 2 15 1 16
REMARK H PARENT
REMARK Flexibility Score: inf
ROOT
ATOM      1  C   UNL     1     -20.783  11.255  18.246  1.00  0.00     0.000 C 
ENDROOT
BRANCH   1   2
ATOM      2  C   UNL     1     -19.558  11.611  19.098  1.00  0.00     0.000 C 
BRANCH   2   3
ATOM      3  C   UNL     1     -18.761  12.759  18.463  1.00  0.00     0.000 C 
BRANCH   3   4
ATOM      4  C   UNL     1     -19.456  13.352  17.227  1.00  0.00     0.000 C 
BRANCH   4   5
ATOM      5  C   UNL     1     -18.559  13.334  15.977  1.00  0.00     0.006 C 
BRANCH   5   6
ATOM      6  C   UNL     1     -18.537  11.958  15.299  1.00  0.00     0.053 C 
BRANCH   6   7
ATOM      7  C   UNL     1     -19.656  11.804  14.313  1.00  0.00     0.041 C 
ATOM      8  O   UNL     1     -19.564  12.315  13.167  1.00  0.00    -0.550 OA
ATOM      9  O   UNL     1     -20.786  11.069  14.652  1.00  0.00    -0.550 OA
ENDBRANCH   6   7
ENDBRANCH   5   6
ENDBRANCH   4   5
ENDBRANCH   3   4
ENDBRANCH   2   3
ENDBRANCH   1   2
BRANCH   1  10
ATOM     10  C   UNL     1     -20.821   9.754  17.936  1.00  0.00     0.000 C 
BRANCH  10  11
ATOM     11  C   UNL     1     -19.404   9.191  17.772  1.00  0.00    -0.000 C 
BRANCH  11  12
ATOM     12  C   UNL     1     -19.371   7.687  18.073  1.00  0.00    -0.000 C 
BRANCH  12  13
ATOM     13  C   UNL     1     -18.386   7.373  19.204  1.00  0.00    -0.000 C 
BRANCH  13  14
ATOM     14  C   UNL     1     -18.840   6.142  20.003  1.00  0.00    -0.000 C 
BRANCH  14  15
ATOM     15  C   UNL     1     -17.767   5.043  20.056  1.00  0.00    -0.003 C 
ATOM     16  C   UNL     1     -16.537   5.377  19.212  1.00  0.00     0.004 C 
ENDBRANCH  14  15
ENDBRANCH  13  14
ENDBRANCH  12  13
ENDBRANCH  11  12
ENDBRANCH  10  11
ENDBRANCH   1  10
TORSDOF 12
ENDMDL
MODEL 8
REMARK VINA RESULT:    -3.649      1.934      3.817
REMARK INTER + INTRA:          -8.148
REMARK INTER:                  -6.673
REMARK INTRA:                  -1.476
REMARK UNBOUND:                -1.940
REMARK SMILES CCCCCCCCCCCCCC(=O)[O-]
REMARK SMILES IDX 8 1 9 2 10 3 11 4 12 5 13 6 14 7 15 8 16 9 7 10 6 11 5 12
REMARK SMILES IDX 4 13 3 14 2 15 1 16
REMARK H PARENT
REMARK Flexibility Score: inf
ROOT
ATOM      1  C   UNL     1     -19.298  13.644  15.473  1.00  0.00     0.000 C 
ENDROOT
BRANCH   1   2
ATOM      2  C   UNL     1     -20.033  13.250  16.761  1.00  0.00     0.000 C 
BRANCH   2   3
ATOM      3  C   UNL     1     -19.039  12.964  17.896  1.00  0.00     0.000 C 
BRANCH   3   4
ATOM      4  C   UNL     1     -19.434  11.741  18.737  1.00  0.00     0.000 C 
BRANCH   4   5
ATOM      5  C   UNL     1     -20.044  10.611  17.889  1.00  0.00     0.006 C 
BRANCH   5   6
ATOM      6  C   UNL     1     -19.209   9.325  17.949  1.00  0.00     0.053 C 
BRANCH   6   7
ATOM      7  C   UNL     1     -19.965   8.143  17.422  1.00  0.00     0.041 C 
ATOM      8  O   UNL     1     -20.714   7.479  18.186  1.00  0.00    -0.550 OA
ATOM      9  O   UNL     1     -19.865   7.795  16.081  1.00  0.00    -0.550 OA
ENDBRANCH   6   7
ENDBRANCH   5   6
ENDBRANCH   4   5
ENDBRANCH   3   4
ENDBRANCH   2   3
ENDBRANCH   1   2
BRANCH   1  10
ATOM     10  C   UNL     1     -17.916  12.983  15.404  1.00  0.00     0.000 C 
BRANCH  10  11
ATOM     11  C   UNL     1     -17.827  12.020  14.214  1.00  0.00    -0.000 C 
BRANCH  11  12
ATOM     12  C   UNL     1     -18.424  10.652  14.567  1.00  0.00    -0.000 C 
BRANCH  12  13
ATOM     13  C   UNL     1     -19.724  10.402  13.794  1.00  0.00    -0.000 C 
BRANCH  13  14
ATOM     14  C   UNL     1     -19.464  10.354  12.281  1.00  0.00    -0.000 C 
BRANCH  14  15
ATOM     15  C   UNL     1     -20.322   9.298  11.567  1.00  0.00    -0.003 C 
ATOM     16  C   UNL     1     -20.868   8.236  12.523  1.00  0.00     0.004 C 
ENDBRANCH  14  15
ENDBRANCH  13  14
ENDBRANCH  12  13
ENDBRANCH  11  12
ENDBRANCH  10  11
ENDBRANCH   1  10
TORSDOF 12
ENDMDL
MODEL 9
REMARK VINA RESULT:    -3.645      3.235      4.852
REMARK INTER + INTRA:          -8.142
REMARK INTER:                  -6.161
REMARK INTRA:                  -1.981
REMARK UNBOUND:                -1.940
REMARK SMILES CCCCCCCCCCCCCC(=O)[O-]
REMARK SMILES IDX 8 1 9 2 10 3 11 4 12 5 13 6 14 7 15 8 16 9 7 10 6 11 5 12
REMARK SMILES IDX 4 13 3 14 2 15 1 16
REMARK H PARENT
REMARK Flexibility Score: inf
ROOT
ATOM      1  C   UNL     1     -20.931  10.327  17.087  1.00  0.00     0.000 C 
ENDROOT
BRANCH   1   2
ATOM      2  C   UNL     1     -19.538   9.794  16.726  1.00  0.00     0.000 C 
BRANCH   2   3
ATOM      3  C   UNL     1     -19.411   9.567  15.213  1.00  0.00     0.000 C 
BRANCH   3   4
ATOM      4  C   UNL     1     -18.318  10.436  14.572  1.00  0.00     0.000 C 
BRANCH   4   5
ATOM      5  C   UNL     1     -18.544  10.657  13.066  1.00  0.00     0.006 C 
BRANCH   5   6
ATOM      6  C   UNL     1     -20.023  10.537  12.679  1.00  0.00     0.053 C 
BRANCH   6   7
ATOM      7  C   UNL     1     -20.260   9.410  11.720  1.00  0.00     0.041 C 
ATOM      8  O   UNL     1     -20.570   8.268  12.150  1.00  0.00    -0.550 OA
ATOM      9  O   UNL     1     -20.169   9.630  10.351  1.00  0.00    -0.550 OA
ENDBRANCH   6   7
ENDBRANCH   5   6
ENDBRANCH   4   5
ENDBRANCH   3   4
ENDBRANCH   2   3
ENDBRANCH   1   2
BRANCH   1  10
ATOM     10  C   UNL     1     -20.835  11.500  18.069  1.00  0.00     0.000 C 
BRANCH  10  11
ATOM     11  C   UNL     1     -19.424  11.609  18.658  1.00  0.00    -0.000 C 
BRANCH  11  12
ATOM     12  C   UNL     1     -18.806  12.980  18.355  1.00  0.00    -0.000 C 
BRANCH  12  13
ATOM     13  C   UNL     1     -19.580  13.701  17.246  1.00  0.00    -0.000 C 
BRANCH  13  14
ATOM     14  C   UNL     1     -18.745  13.789  15.959  1.00  0.00    -0.000 C 
BRANCH  14  15
ATOM     15  C   UNL     1     -19.615  13.866  14.695  1.00  0.00    -0.003 C 
ATOM     16  C   UNL     1     -21.067  13.462  14.951  1.00  0.00     0.004 C 
ENDBRANCH  14  15
ENDBRANCH  13  14
ENDBRANCH  12  13
ENDBRANCH  11  12
ENDBRANCH  10  11
ENDBRANCH   1  10
TORSDOF 12
ENDMDL
