MODEL 1
REMARK VINA RESULT:    -4.101      0.000      0.000
REMARK INTER + INTRA:          -6.575
REMARK INTER:                  -6.259
REMARK INTRA:                  -0.315
REMARK UNBOUND:                -0.315
REMARK SMILES O=C([O-])CCCCCCCCC(=O)[O-]
REMARK SMILES IDX 7 1 6 2 5 3 4 4 2 5 1 6 3 7 8 8 9 9 10 10 11 11 12 12 13 13
REMARK SMILES IDX 14 14
REMARK H PARENT
REMARK Flexibility Score: inf
ROOT
ATOM      1  C   UNL     1     -36.238  -9.413   2.283  1.00  0.00     0.000 C 
ENDROOT
BRANCH   1   2
ATOM      2  C   UNL     1     -35.454 -10.575   1.664  1.00  0.00     0.000 C 
BRANCH   2   3
ATOM      3  C   UNL     1     -34.612 -11.298   2.722  1.00  0.00     0.006 C 
BRANCH   3   4
ATOM      4  C   UNL     1     -33.244 -11.693   2.159  1.00  0.00     0.053 C 
BRANCH   4   5
ATOM      5  C   UNL     1     -32.171 -11.444   3.170  1.00  0.00     0.041 C 
ATOM      6  O   UNL     1     -30.976 -11.294   2.803  1.00  0.00    -0.550 OA
ATOM      7  O   UNL     1     -32.496 -11.326   4.516  1.00  0.00    -0.550 OA
ENDBRANCH   4   5
ENDBRANCH   3   4
ENDBRANCH   2   3
ENDBRANCH   1   2
BRANCH   1   8
ATOM      8  C   UNL     1     -37.136  -8.735   1.240  1.00  0.00     0.000 C 
BRANCH   8   9
ATOM      9  C   UNL     1     -36.344  -8.388  -0.026  1.00  0.00     0.000 C 
BRANCH   9  10
ATOM     10  C   UNL     1     -37.183  -7.526  -0.980  1.00  0.00     0.006 C 
BRANCH  10  11
ATOM     11  C   UNL     1     -38.070  -6.524  -0.230  1.00  0.00     0.053 C 
BRANCH  11  12
ATOM     12  C   UNL     1     -37.985  -5.152  -0.826  1.00  0.00     0.041 C 
ATOM     13  O   UNL     1     -37.755  -5.008  -2.056  1.00  0.00    -0.550 OA
ATOM     14  O   UNL     1     -38.125  -4.033  -0.016  1.00  0.00    -0.550 OA
ENDBRANCH  11  12
ENDBRANCH  10  11
ENDBRANCH   9  10
ENDBRANCH   8   9
ENDBRANCH   1   8
TORSDOF 9
ENDMDL
MODEL 2
REMARK VINA RESULT:    -4.071      2.251      6.951
REMARK INTER + INTRA:          -6.527
REMARK INTER:                  -5.955
REMARK INTRA:                  -0.573
REMARK UNBOUND:                -0.315
REMARK SMILES O=C([O-])CCCCCCCCC(=O)[O-]
REMARK SMILES IDX 7 1 6 2 5 3 4 4 2 5 1 6 3 7 8 8 9 9 10 10 11 11 12 12 13 13
REMARK SMILES IDX 14 14
REMARK H PARENT
REMARK Flexibility Score: inf
ROOT
ATOM      1  C   UNL     1     -35.875  -9.174   2.113  1.00  0.00     0.000 C 
ENDROOT
BRANCH   1   2
ATOM      2  C   UNL     1     -37.365  -9.141   1.754  1.00  0.00     0.000 C 
BRANCH   2   3
ATOM      3  C   UNL     1     -37.608  -8.312   0.487  1.00  0.00     0.006 C 
BRANCH   3   4
ATOM      4  C   UNL     1     -36.327  -8.188  -0.343  1.00  0.00     0.053 C 
BRANCH   4   5
ATOM      5  C   UNL     1     -36.358  -9.138  -1.498  1.00  0.00     0.041 C 
ATOM      6  O   UNL     1     -35.726 -10.226  -1.442  1.00  0.00    -0.550 OA
ATOM      7  O   UNL     1     -37.126  -8.847  -2.618  1.00  0.00    -0.550 OA
ENDBRANCH   4   5
ENDBRANCH   3   4
ENDBRANCH   2   3
ENDBRANCH   1   2
BRANCH   1   8
ATOM      8  C   UNL     1     -35.491 -10.516   2.749  1.00  0.00     0.000 C 
BRANCH   8   9
ATOM      9  C   UNL     1     -34.777 -11.421   1.738  1.00  0.00     0.000 C 
BRANCH   9  10
ATOM     10  C   UNL     1     -33.433 -11.914   2.294  1.00  0.00     0.006 C 
BRANCH  10  11
ATOM     11  C   UNL     1     -32.952 -11.072   3.483  1.00  0.00     0.053 C 
BRANCH  11  12
ATOM     12  C   UNL     1     -31.457 -11.022   3.559  1.00  0.00     0.041 C 
ATOM     13  O   UNL     1     -30.766 -11.077   2.507  1.00  0.00    -0.550 OA
ATOM     14  O   UNL     1     -30.826 -10.950   4.794  1.00  0.00    -0.550 OA
ENDBRANCH  11  12
ENDBRANCH  10  11
ENDBRANCH   9  10
ENDBRANCH   8   9
ENDBRANCH   1   8
TORSDOF 9
ENDMDL
MODEL 3
REMARK VINA RESULT:    -4.012      0.658      7.800
REMARK INTER + INTRA:          -6.439
REMARK INTER:                  -6.208
REMARK INTRA:                  -0.230
REMARK UNBOUND:                -0.315
REMARK SMILES O=C([O-])CCCCCCCCC(=O)[O-]
REMARK SMILES IDX 7 1 6 2 5 3 4 4 2 5 1 6 3 7 8 8 9 9 10 10 11 11 12 12 13 13
REMARK SMILES IDX 14 14
REMARK H PARENT
REMARK Flexibility Score: inf
ROOT
ATOM      1  C   UNL     1     -36.258  -8.425  -0.001  1.00  0.00     0.000 C 
ENDROOT
BRANCH   1   2
ATOM      2  C   UNL     1     -37.698  -8.259  -0.499  1.00  0.00     0.000 C 
BRANCH   2   3
ATOM      3  C   UNL     1     -37.865  -6.948  -1.276  1.00  0.00     0.006 C 
BRANCH   3   4
ATOM      4  C   UNL     1     -38.125  -5.776  -0.325  1.00  0.00     0.053 C 
BRANCH   4   5
ATOM      5  C   UNL     1     -37.804  -4.477  -0.995  1.00  0.00     0.041 C 
ATOM      6  O   UNL     1     -37.694  -3.424  -0.316  1.00  0.00    -0.550 OA
ATOM      7  O   UNL     1     -37.578  -4.439  -2.366  1.00  0.00    -0.550 OA
ENDBRANCH   4   5
ENDBRANCH   3   4
ENDBRANCH   2   3
ENDBRANCH   1   2
BRANCH   1   8
ATOM      8  C   UNL     1     -36.215  -9.227   1.305  1.00  0.00     0.000 C 
BRANCH   8   9
ATOM      9  C   UNL     1     -35.537 -10.585   1.096  1.00  0.00     0.000 C 
BRANCH   9  10
ATOM     10  C   UNL     1     -34.737 -10.999   2.340  1.00  0.00     0.006 C 
BRANCH  10  11
ATOM     11  C   UNL     1     -33.451 -11.754   1.979  1.00  0.00     0.053 C 
BRANCH  11  12
ATOM     12  C   UNL     1     -32.355 -11.485   2.964  1.00  0.00     0.041 C 
ATOM     13  O   UNL     1     -31.163 -11.374   2.573  1.00  0.00    -0.550 OA
ATOM     14  O   UNL     1     -32.646 -11.391   4.319  1.00  0.00    -0.550 OA
ENDBRANCH  11  12
ENDBRANCH  10  11
ENDBRANCH   9  10
ENDBRANCH   8   9
ENDBRANCH   1   8
TORSDOF 9
ENDMDL
MODEL 4
REMARK VINA RESULT:    -3.978      2.776      3.195
REMARK INTER + INTRA:          -6.385
REMARK INTER:                  -5.758
REMARK INTRA:                  -0.627
REMARK UNBOUND:                -0.315
REMARK SMILES O=C([O-])CCCCCCCCC(=O)[O-]
REMARK SMILES IDX 7 1 6 2 5 3 4 4 2 5 1 6 3 7 8 8 9 9 10 10 11 11 12 12 13 13
REMARK SMILES IDX 14 14
REMARK H PARENT
REMARK Flexibility Score: inf
ROOT
ATOM      1  C   UNL     1     -35.623  -9.866   2.581  1.00  0.00     0.000 C 
ENDROOT
BRANCH   1   2
ATOM      2  C   UNL     1     -35.808 -11.385   2.664  1.00  0.00     0.000 C 
BRANCH   2   3
ATOM      3  C   UNL     1     -34.554 -12.062   3.232  1.00  0.00     0.006 C 
BRANCH   3   4
ATOM      4  C   UNL     1     -33.306 -11.656   2.444  1.00  0.00     0.053 C 
BRANCH   4   5
ATOM      5  C   UNL     1     -32.203 -11.267   3.377  1.00  0.00     0.041 C 
ATOM      6  O   UNL     1     -32.408 -11.223   4.618  1.00  0.00    -0.550 OA
ATOM      7  O   UNL     1     -30.933 -11.000   2.881  1.00  0.00    -0.550 OA
ENDBRANCH   4   5
ENDBRANCH   3   4
ENDBRANCH   2   3
ENDBRANCH   1   2
BRANCH   1   8
ATOM      8  C   UNL     1     -36.976  -9.143   2.619  1.00  0.00     0.000 C 
BRANCH   8   9
ATOM      9  C   UNL     1     -37.444  -8.776   1.206  1.00  0.00     0.000 C 
BRANCH   9  10
ATOM     10  C   UNL     1     -36.249  -8.466   0.294  1.00  0.00     0.006 C 
BRANCH  10  11
ATOM     11  C   UNL     1     -36.580  -8.677  -1.189  1.00  0.00     0.053 C 
BRANCH  11  12
ATOM     12  C   UNL     1     -35.912  -9.901  -1.738  1.00  0.00     0.041 C 
ATOM     13  O   UNL     1     -35.840 -10.080  -2.983  1.00  0.00    -0.550 OA
ATOM     14  O   UNL     1     -35.400 -10.860  -0.874  1.00  0.00    -0.550 OA
ENDBRANCH  11  12
ENDBRANCH  10  11
ENDBRANCH   9  10
ENDBRANCH   8   9
ENDBRANCH   1   8
TORSDOF 9
ENDMDL
MODEL 5
REMARK VINA RESULT:    -3.926      2.079      3.498
REMARK INTER + INTRA:          -6.307
REMARK INTER:                  -5.874
REMARK INTRA:                  -0.433
REMARK UNBOUND:                -0.315
REMARK SMILES O=C([O-])CCCCCCCCC(=O)[O-]
REMARK SMILES IDX 7 1 6 2 5 3 4 4 2 5 1 6 3 7 8 8 9 9 10 10 11 11 12 12 13 13
REMARK SMILES IDX 14 14
REMARK H PARENT
REMARK Flexibility Score: inf
ROOT
ATOM      1  C   UNL     1     -33.025 -12.049   1.861  1.00  0.00     0.000 C 
ENDROOT
BRANCH   1   2
ATOM      2  C   UNL     1     -33.505 -11.194   3.039  1.00  0.00     0.000 C 
BRANCH   2   3
ATOM      3  C   UNL     1     -32.352 -10.884   4.002  1.00  0.00     0.006 C 
BRANCH   3   4
ATOM      4  C   UNL     1     -30.997 -11.149   3.339  1.00  0.00     0.053 C 
BRANCH   4   5
ATOM      5  C   UNL     1     -29.888 -10.960   4.324  1.00  0.00     0.041 C 
ATOM      6  O   UNL     1     -30.145 -10.796   5.545  1.00  0.00    -0.550 OA
ATOM      7  O   UNL     1     -28.565 -11.016   3.902  1.00  0.00    -0.550 OA
ENDBRANCH   4   5
ENDBRANCH   3   4
ENDBRANCH   2   3
ENDBRANCH   1   2
BRANCH   1   8
ATOM      8  C   UNL     1     -34.082 -12.104   0.752  1.00  0.00     0.000 C 
BRANCH   8   9
ATOM      9  C   UNL     1     -35.342 -11.329   1.153  1.00  0.00     0.000 C 
BRANCH   9  10
ATOM     10  C   UNL     1     -35.911 -10.547  -0.040  1.00  0.00     0.006 C 
BRANCH  10  11
ATOM     11  C   UNL     1     -36.151  -9.069   0.296  1.00  0.00     0.053 C 
BRANCH  11  12
ATOM     12  C   UNL     1     -36.590  -8.291  -0.907  1.00  0.00     0.041 C 
ATOM     13  O   UNL     1     -36.972  -7.098  -0.785  1.00  0.00    -0.550 OA
ATOM     14  O   UNL     1     -36.608  -8.896  -2.157  1.00  0.00    -0.550 OA
ENDBRANCH  11  12
ENDBRANCH  10  11
ENDBRANCH   9  10
ENDBRANCH   8   9
ENDBRANCH   1   8
TORSDOF 9
ENDMDL
MODEL 6
REMARK VINA RESULT:    -3.920      2.802      6.905
REMARK INTER + INTRA:          -6.298
REMARK INTER:                  -5.735
REMARK INTRA:                  -0.563
REMARK UNBOUND:                -0.315
REMARK SMILES O=C([O-])CCCCCCCCC(=O)[O-]
REMARK SMILES IDX 7 1 6 2 5 3 4 4 2 5 1 6 3 7 8 8 9 9 10 10 11 11 12 12 13 13
REMARK SMILES IDX 14 14
REMARK H PARENT
REMARK Flexibility Score: inf
ROOT
ATOM      1  C   UNL     1     -35.885  -9.124   2.036  1.00  0.00     0.000 C 
ENDROOT
BRANCH   1   2
ATOM      2  C   UNL     1     -36.873  -9.006   0.870  1.00  0.00     0.000 C 
BRANCH   2   3
ATOM      3  C   UNL     1     -36.203  -8.381  -0.359  1.00  0.00     0.006 C 
BRANCH   3   4
ATOM      4  C   UNL     1     -36.936  -8.777  -1.644  1.00  0.00     0.053 C 
BRANCH   4   5
ATOM      5  C   UNL     1     -36.147  -9.796  -2.403  1.00  0.00     0.041 C 
ATOM      6  O   UNL     1     -36.440 -10.064  -3.598  1.00  0.00    -0.550 OA
ATOM      7  O   UNL     1     -35.056 -10.416  -1.808  1.00  0.00    -0.550 OA
ENDBRANCH   4   5
ENDBRANCH   3   4
ENDBRANCH   2   3
ENDBRANCH   1   2
BRANCH   1   8
ATOM      8  C   UNL     1     -35.815 -10.564   2.557  1.00  0.00     0.000 C 
BRANCH   8   9
ATOM      9  C   UNL     1     -35.225 -11.505   1.501  1.00  0.00     0.000 C 
BRANCH   9  10
ATOM     10  C   UNL     1     -33.723 -11.722   1.735  1.00  0.00     0.006 C 
BRANCH  10  11
ATOM     11  C   UNL     1     -33.356 -11.686   3.224  1.00  0.00     0.053 C 
BRANCH  11  12
ATOM     12  C   UNL     1     -31.931 -11.275   3.435  1.00  0.00     0.041 C 
ATOM     13  O   UNL     1     -31.544 -10.884   4.568  1.00  0.00    -0.550 OA
ATOM     14  O   UNL     1     -31.039 -11.291   2.371  1.00  0.00    -0.550 OA
ENDBRANCH  11  12
ENDBRANCH  10  11
ENDBRANCH   9  10
ENDBRANCH   8   9
ENDBRANCH   1   8
TORSDOF 9
ENDMDL
MODEL 7
REMARK VINA RESULT:    -3.757      3.204      3.728
REMARK INTER + INTRA:          -6.050
REMARK INTER:                  -5.670
REMARK INTRA:                  -0.379
REMARK UNBOUND:                -0.315
REMARK SMILES O=C([O-])CCCCCCCCC(=O)[O-]
REMARK SMILES IDX 7 1 6 2 5 3 4 4 2 5 1 6 3 7 8 8 9 9 10 10 11 11 12 12 13 13
REMARK SMILES IDX 14 14
REMARK H PARENT
REMARK Flexibility Score: inf
ROOT
ATOM      1  C   UNL     1     -36.049 -10.211   1.206  1.00  0.00     0.000 C 
ENDROOT
BRANCH   1   2
ATOM      2  C   UNL     1     -35.123 -10.346   2.420  1.00  0.00     0.000 C 
BRANCH   2   3
ATOM      3  C   UNL     1     -34.532 -11.758   2.509  1.00  0.00     0.006 C 
BRANCH   3   4
ATOM      4  C   UNL     1     -33.072 -11.773   2.046  1.00  0.00     0.053 C 
BRANCH   4   5
ATOM      5  C   UNL     1     -32.167 -11.348   3.158  1.00  0.00     0.041 C 
ATOM      6  O   UNL     1     -31.013 -10.914   2.905  1.00  0.00    -0.550 OA
ATOM      7  O   UNL     1     -32.615 -11.384   4.472  1.00  0.00    -0.550 OA
ENDBRANCH   4   5
ENDBRANCH   3   4
ENDBRANCH   2   3
ENDBRANCH   1   2
BRANCH   1   8
ATOM      8  C   UNL     1     -36.389  -8.741   0.932  1.00  0.00     0.000 C 
BRANCH   8   9
ATOM      9  C   UNL     1     -36.348  -8.437  -0.570  1.00  0.00     0.000 C 
BRANCH   9  10
ATOM     10  C   UNL     1     -35.993  -9.694  -1.377  1.00  0.00     0.006 C 
BRANCH  10  11
ATOM     11  C   UNL     1     -36.464  -9.600  -2.834  1.00  0.00     0.053 C 
BRANCH  11  12
ATOM     12  C   UNL     1     -36.077 -10.815  -3.621  1.00  0.00     0.041 C 
ATOM     13  O   UNL     1     -36.291 -10.862  -4.861  1.00  0.00    -0.550 OA
ATOM     14  O   UNL     1     -35.510 -11.908  -2.978  1.00  0.00    -0.550 OA
ENDBRANCH  11  12
ENDBRANCH  10  11
ENDBRANCH   9  10
ENDBRANCH   8   9
ENDBRANCH   1   8
TORSDOF 9
ENDMDL
MODEL 8
REMARK VINA RESULT:    -3.589     20.458     21.656
REMARK INTER + INTRA:          -5.793
REMARK INTER:                  -4.980
REMARK INTRA:                  -0.813
REMARK UNBOUND:                -0.315
REMARK SMILES O=C([O-])CCCCCCCCC(=O)[O-]
REMARK SMILES IDX 7 1 6 2 5 3 4 4 2 5 1 6 3 7 8 8 9 9 10 10 11 11 12 12 13 13
REMARK SMILES IDX 14 14
REMARK H PARENT
REMARK Flexibility Score: inf
ROOT
ATOM      1  C   UNL     1     -22.796   4.516  13.125  1.00  0.00     0.000 C 
ENDROOT
BRANCH   1   2
ATOM      2  C   UNL     1     -22.025   3.406  12.402  1.00  0.00     0.000 C 
BRANCH   2   3
ATOM      3  C   UNL     1     -22.514   3.246  10.958  1.00  0.00     0.006 C 
BRANCH   3   4
ATOM      4  C   UNL     1     -22.129   1.874  10.397  1.00  0.00     0.053 C 
BRANCH   4   5
ATOM      5  C   UNL     1     -21.889   1.960   8.923  1.00  0.00     0.041 C 
ATOM      6  O   UNL     1     -20.865   2.543   8.480  1.00  0.00    -0.550 OA
ATOM      7  O   UNL     1     -22.770   1.352   8.038  1.00  0.00    -0.550 OA
ENDBRANCH   4   5
ENDBRANCH   3   4
ENDBRANCH   2   3
ENDBRANCH   1   2
BRANCH   1   8
ATOM      8  C   UNL     1     -23.871   5.124  12.215  1.00  0.00     0.000 C 
BRANCH   8   9
ATOM      9  C   UNL     1     -24.075   6.612  12.520  1.00  0.00     0.000 C 
BRANCH   9  10
ATOM     10  C   UNL     1     -22.764   7.393  12.350  1.00  0.00     0.006 C 
BRANCH  10  11
ATOM     11  C   UNL     1     -22.314   7.460  10.884  1.00  0.00     0.053 C 
BRANCH  11  12
ATOM     12  C   UNL     1     -21.074   6.653  10.648  1.00  0.00     0.041 C 
ATOM     13  O   UNL     1     -20.212   6.533  11.558  1.00  0.00    -0.550 OA
ATOM     14  O   UNL     1     -20.855   6.063   9.410  1.00  0.00    -0.550 OA
ENDBRANCH  11  12
ENDBRANCH  10  11
ENDBRANCH   9  10
ENDBRANCH   8   9
ENDBRANCH   1   8
TORSDOF 9
ENDMDL
MODEL 9
REMARK VINA RESULT:    -3.508     20.674     22.155
REMARK INTER + INTRA:          -5.669
REMARK INTER:                  -4.830
REMARK INTRA:                  -0.840
REMARK UNBOUND:                -0.315
REMARK SMILES O=C([O-])CCCCCCCCC(=O)[O-]
REMARK SMILES IDX 7 1 6 2 5 3 4 4 2 5 1 6 3 7 8 8 9 9 10 10 11 11 12 12 13 13
REMARK SMILES IDX 14 14
REMARK H PARENT
REMARK Flexibility Score: inf
ROOT
ATOM      1  C   UNL     1     -24.079   5.032  12.041  1.00  0.00     0.000 C 
ENDROOT
BRANCH   1   2
ATOM      2  C   UNL     1     -24.594   6.442  12.350  1.00  0.00     0.000 C 
BRANCH   2   3
ATOM      3  C   UNL     1     -23.431   7.417  12.574  1.00  0.00     0.006 C 
BRANCH   3   4
ATOM      4  C   UNL     1     -22.760   7.784  11.247  1.00  0.00     0.053 C 
BRANCH   4   5
ATOM      5  C   UNL     1     -21.336   7.324  11.236  1.00  0.00     0.041 C 
ATOM      6  O   UNL     1     -20.755   7.087  10.145  1.00  0.00    -0.550 OA
ATOM      7  O   UNL     1     -20.634   7.206  12.429  1.00  0.00    -0.550 OA
ENDBRANCH   4   5
ENDBRANCH   3   4
ENDBRANCH   2   3
ENDBRANCH   1   2
BRANCH   1   8
ATOM      8  C   UNL     1     -23.107   4.550  13.125  1.00  0.00     0.000 C 
BRANCH   8   9
ATOM      9  C   UNL     1     -21.905   3.828  12.505  1.00  0.00     0.000 C 
BRANCH   9  10
ATOM     10  C   UNL     1     -22.101   3.630  10.995  1.00  0.00     0.006 C 
BRANCH  10  11
ATOM     11  C   UNL     1     -22.379   2.165  10.633  1.00  0.00     0.053 C 
BRANCH  11  12
ATOM     12  C   UNL     1     -21.843   1.817   9.278  1.00  0.00     0.041 C 
ATOM     13  O   UNL     1     -20.622   1.981   9.017  1.00  0.00    -0.550 OA
ATOM     14  O   UNL     1     -22.700   1.344   8.293  1.00  0.00    -0.550 OA
ENDBRANCH  11  12
ENDBRANCH  10  11
ENDBRANCH   9  10
ENDBRANCH   8   9
ENDBRANCH   1   8
TORSDOF 9
ENDMDL
