MODEL 1
REMARK VINA RESULT:    -5.646      0.000      0.000
REMARK INTER + INTRA:         -13.279
REMARK INTER:                 -10.267
REMARK INTRA:                  -3.012
REMARK UNBOUND:                -3.012
REMARK SMILES CCCCCC=CCC=CCCCCCCCC(=O)[O-]
REMARK SMILES IDX 11 1 12 2 13 3 14 4 15 5 16 6 17 7 18 8 19 9 20 10 10 11
REMARK SMILES IDX 9 12 8 13 7 14 6 15 5 16 4 17 3 18 2 19 1 20
REMARK H PARENT
REMARK Flexibility Score: inf
ROOT
ATOM      1  C   UNL     1      34.953   3.070   3.257  1.00  0.00     0.027 C 
ENDROOT
BRANCH   1   2
ATOM      2  C   UNL     1      35.594   1.675   3.147  1.00  0.00     0.004 C 
BRANCH   2   3
ATOM      3  C   UNL     1      34.586   0.512   3.103  1.00  0.00     0.000 C 
BRANCH   3   4
ATOM      4  C   UNL     1      35.065  -0.722   3.886  1.00  0.00     0.000 C 
BRANCH   4   5
ATOM      5  C   UNL     1      36.279  -0.418   4.780  1.00  0.00     0.000 C 
BRANCH   5   6
ATOM      6  C   UNL     1      35.937  -0.470   6.280  1.00  0.00     0.006 C 
BRANCH   6   7
ATOM      7  C   UNL     1      35.169   0.776   6.740  1.00  0.00     0.053 C 
BRANCH   7   8
ATOM      8  C   UNL     1      33.842   0.423   7.338  1.00  0.00     0.041 C 
ATOM      9  O   UNL     1      33.067  -0.369   6.739  1.00  0.00    -0.550 OA
ATOM     10  O   UNL     1      33.471   0.950   8.568  1.00  0.00    -0.550 OA
ENDBRANCH   7   8
ENDBRANCH   6   7
ENDBRANCH   5   6
ENDBRANCH   4   5
ENDBRANCH   3   4
ENDBRANCH   2   3
ENDBRANCH   1   2
BRANCH   1  11
ATOM     11  C   UNL     1      33.552   3.013   3.816  1.00  0.00    -0.031 C 
ATOM     12  C   UNL     1      33.149   3.643   4.935  1.00  0.00    -0.027 C 
BRANCH  12  13
ATOM     13  C   UNL     1      34.021   4.556   5.760  1.00  0.00     0.054 C 
BRANCH  13  14
ATOM     14  C   UNL     1      33.914   4.226   7.228  1.00  0.00    -0.027 C 
ATOM     15  C   UNL     1      34.909   4.430   8.111  1.00  0.00    -0.031 C 
BRANCH  15  16
ATOM     16  C   UNL     1      36.271   4.966   7.751  1.00  0.00     0.027 C 
BRANCH  16  17
ATOM     17  C   UNL     1      37.265   3.824   7.518  1.00  0.00     0.004 C 
BRANCH  17  18
ATOM     18  C   UNL     1      37.515   3.609   6.019  1.00  0.00     0.000 C 
BRANCH  18  19
ATOM     19  C   UNL     1      38.493   2.458   5.742  1.00  0.00    -0.003 C 
ATOM     20  C   UNL     1      39.018   2.460   4.305  1.00  0.00     0.004 C 
ENDBRANCH  18  19
ENDBRANCH  17  18
ENDBRANCH  16  17
ENDBRANCH  15  16
ENDBRANCH  13  14
ENDBRANCH  12  13
ENDBRANCH   1  11
TORSDOF 14
ENDMDL
MODEL 2
REMARK VINA RESULT:    -5.560     16.733     19.737
REMARK INTER + INTRA:         -13.122
REMARK INTER:                  -9.681
REMARK INTRA:                  -3.441
REMARK UNBOUND:                -3.012
REMARK SMILES CCCCCC=CCC=CCCCCCCCC(=O)[O-]
REMARK SMILES IDX 11 1 12 2 13 3 14 4 15 5 16 6 17 7 18 8 19 9 20 10 10 11
REMARK SMILES IDX 9 12 8 13 7 14 6 15 5 16 4 17 3 18 2 19 1 20
REMARK H PARENT
REMARK Flexibility Score: inf
ROOT
ATOM      1  C   UNL     1      49.425   9.295  -5.109  1.00  0.00     0.027 C 
ENDROOT
BRANCH   1   2
ATOM      2  C   UNL     1      48.270  10.173  -4.593  1.00  0.00     0.004 C 
BRANCH   2   3
ATOM      3  C   UNL     1      48.478  11.685  -4.798  1.00  0.00     0.000 C 
BRANCH   3   4
ATOM      4  C   UNL     1      47.269  12.368  -5.460  1.00  0.00     0.000 C 
BRANCH   4   5
ATOM      5  C   UNL     1      47.105  11.975  -6.937  1.00  0.00     0.000 C 
BRANCH   5   6
ATOM      6  C   UNL     1      46.034  12.814  -7.657  1.00  0.00     0.006 C 
BRANCH   6   7
ATOM      7  C   UNL     1      46.068  12.614  -9.178  1.00  0.00     0.053 C 
BRANCH   7   8
ATOM      8  C   UNL     1      45.074  11.588  -9.626  1.00  0.00     0.041 C 
ATOM      9  O   UNL     1      45.392  10.732 -10.494  1.00  0.00    -0.550 OA
ATOM     10  O   UNL     1      43.802  11.563  -9.070  1.00  0.00    -0.550 OA
ENDBRANCH   7   8
ENDBRANCH   6   7
ENDBRANCH   5   6
ENDBRANCH   4   5
ENDBRANCH   3   4
ENDBRANCH   2   3
ENDBRANCH   1   2
BRANCH   1  11
ATOM     11  C   UNL     1      50.058   9.859  -6.357  1.00  0.00    -0.031 C 
ATOM     12  C   UNL     1      49.861   9.378  -7.599  1.00  0.00    -0.027 C 
BRANCH  12  13
ATOM     13  C   UNL     1      48.923   8.246  -7.935  1.00  0.00     0.054 C 
BRANCH  13  14
ATOM     14  C   UNL     1      47.597   8.770  -8.429  1.00  0.00    -0.027 C 
ATOM     15  C   UNL     1      46.431   8.565  -7.790  1.00  0.00    -0.031 C 
BRANCH  15  16
ATOM     16  C   UNL     1      46.281   7.750  -6.530  1.00  0.00     0.027 C 
BRANCH  16  17
ATOM     17  C   UNL     1      45.219   8.358  -5.607  1.00  0.00     0.004 C 
BRANCH  17  18
ATOM     18  C   UNL     1      44.349   9.371  -6.364  1.00  0.00     0.000 C 
BRANCH  18  19
ATOM     19  C   UNL     1      43.956  10.575  -5.495  1.00  0.00    -0.003 C 
ATOM     20  C   UNL     1      44.478  10.466  -4.062  1.00  0.00     0.004 C 
ENDBRANCH  18  19
ENDBRANCH  17  18
ENDBRANCH  16  17
ENDBRANCH  15  16
ENDBRANCH  13  14
ENDBRANCH  12  13
ENDBRANCH   1  11
TORSDOF 14
ENDMDL
MODEL 3
REMARK VINA RESULT:    -5.476     16.103     18.810
REMARK INTER + INTRA:         -12.970
REMARK INTER:                  -9.955
REMARK INTRA:                  -3.014
REMARK UNBOUND:                -3.012
REMARK SMILES CCCCCC=CCC=CCCCCCCCC(=O)[O-]
REMARK SMILES IDX 11 1 12 2 13 3 14 4 15 5 16 6 17 7 18 8 19 9 20 10 10 11
REMARK SMILES IDX 9 12 8 13 7 14 6 15 5 16 4 17 3 18 2 19 1 20
REMARK H PARENT
REMARK Flexibility Score: inf
ROOT
ATOM      1  C   UNL     1      49.915   9.761  -7.052  1.00  0.00     0.027 C 
ENDROOT
BRANCH   1   2
ATOM      2  C   UNL     1      49.161   8.628  -7.770  1.00  0.00     0.004 C 
BRANCH   2   3
ATOM      3  C   UNL     1      47.834   9.059  -8.424  1.00  0.00     0.000 C 
BRANCH   3   4
ATOM      4  C   UNL     1      46.639   8.205  -7.965  1.00  0.00     0.000 C 
BRANCH   4   5
ATOM      5  C   UNL     1      46.093   8.643  -6.596  1.00  0.00     0.000 C 
BRANCH   5   6
ATOM      6  C   UNL     1      46.571   7.733  -5.450  1.00  0.00     0.006 C 
BRANCH   6   7
ATOM      7  C   UNL     1      45.882   6.362  -5.475  1.00  0.00     0.053 C 
BRANCH   7   8
ATOM      8  C   UNL     1      44.688   6.322  -4.572  1.00  0.00     0.041 C 
ATOM      9  O   UNL     1      44.817   5.988  -3.365  1.00  0.00    -0.550 OA
ATOM     10  O   UNL     1      43.437   6.675  -5.059  1.00  0.00    -0.550 OA
ENDBRANCH   7   8
ENDBRANCH   6   7
ENDBRANCH   5   6
ENDBRANCH   4   5
ENDBRANCH   3   4
ENDBRANCH   2   3
ENDBRANCH   1   2
BRANCH   1  11
ATOM     11  C   UNL     1      49.833   9.641  -5.550  1.00  0.00    -0.031 C 
ATOM     12  C   UNL     1      49.441  10.629  -4.724  1.00  0.00    -0.027 C 
BRANCH  12  13
ATOM     13  C   UNL     1      48.958  11.981  -5.183  1.00  0.00     0.054 C 
BRANCH  13  14
ATOM     14  C   UNL     1      47.452  12.063  -5.139  1.00  0.00    -0.027 C 
ATOM     15  C   UNL     1      46.683  12.239  -6.229  1.00  0.00    -0.031 C 
BRANCH  15  16
ATOM     16  C   UNL     1      47.217  12.426  -7.626  1.00  0.00     0.027 C 
BRANCH  16  17
ATOM     17  C   UNL     1      46.073  12.586  -8.633  1.00  0.00     0.004 C 
BRANCH  17  18
ATOM     18  C   UNL     1      44.794  11.907  -8.124  1.00  0.00     0.000 C 
BRANCH  18  19
ATOM     19  C   UNL     1      44.216  10.905  -9.135  1.00  0.00    -0.003 C 
ATOM     20  C   UNL     1      45.098  10.738 -10.373  1.00  0.00     0.004 C 
ENDBRANCH  18  19
ENDBRANCH  17  18
ENDBRANCH  16  17
ENDBRANCH  15  16
ENDBRANCH  13  14
ENDBRANCH  12  13
ENDBRANCH   1  11
TORSDOF 14
ENDMDL
MODEL 4
REMARK VINA RESULT:    -5.460      3.251      4.954
REMARK INTER + INTRA:         -12.940
REMARK INTER:                  -9.837
REMARK INTRA:                  -3.103
REMARK UNBOUND:                -3.012
REMARK SMILES CCCCCC=CCC=CCCCCCCCC(=O)[O-]
REMARK SMILES IDX 11 1 12 2 13 3 14 4 15 5 16 6 17 7 18 8 19 9 20 10 10 11
REMARK SMILES IDX 9 12 8 13 7 14 6 15 5 16 4 17 3 18 2 19 1 20
REMARK H PARENT
REMARK Flexibility Score: inf
ROOT
ATOM      1  C   UNL     1      33.514   3.753   6.467  1.00  0.00     0.027 C 
ENDROOT
BRANCH   1   2
ATOM      2  C   UNL     1      33.738   2.959   5.168  1.00  0.00     0.004 C 
BRANCH   2   3
ATOM      3  C   UNL     1      34.687   3.637   4.161  1.00  0.00     0.000 C 
BRANCH   3   4
ATOM      4  C   UNL     1      35.886   2.751   3.783  1.00  0.00     0.000 C 
BRANCH   4   5
ATOM      5  C   UNL     1      37.194   3.550   3.656  1.00  0.00     0.000 C 
BRANCH   5   6
ATOM      6  C   UNL     1      38.406   2.655   3.344  1.00  0.00     0.006 C 
BRANCH   6   7
ATOM      7  C   UNL     1      39.436   2.661   4.481  1.00  0.00     0.053 C 
BRANCH   7   8
ATOM      8  C   UNL     1      40.648   3.467   4.130  1.00  0.00     0.041 C 
ATOM      9  O   UNL     1      41.800   3.031   4.397  1.00  0.00    -0.550 OA
ATOM     10  O   UNL     1      40.508   4.690   3.488  1.00  0.00    -0.550 OA
ENDBRANCH   7   8
ENDBRANCH   6   7
ENDBRANCH   5   6
ENDBRANCH   4   5
ENDBRANCH   3   4
ENDBRANCH   2   3
ENDBRANCH   1   2
BRANCH   1  11
ATOM     11  C   UNL     1      34.169   5.112   6.426  1.00  0.00    -0.031 C 
ATOM     12  C   UNL     1      35.187   5.495   7.219  1.00  0.00    -0.027 C 
BRANCH  12  13
ATOM     13  C   UNL     1      35.870   4.599   8.220  1.00  0.00     0.054 C 
BRANCH  13  14
ATOM     14  C   UNL     1      37.209   4.132   7.704  1.00  0.00    -0.027 C 
ATOM     15  C   UNL     1      37.451   2.876   7.289  1.00  0.00    -0.031 C 
BRANCH  15  16
ATOM     16  C   UNL     1      36.441   1.757   7.328  1.00  0.00     0.027 C 
BRANCH  16  17
ATOM     17  C   UNL     1      36.947   0.535   6.553  1.00  0.00     0.004 C 
BRANCH  17  18
ATOM     18  C   UNL     1      35.776  -0.344   6.089  1.00  0.00     0.000 C 
BRANCH  18  19
ATOM     19  C   UNL     1      36.013  -0.959   4.702  1.00  0.00    -0.003 C 
ATOM     20  C   UNL     1      37.459  -0.804   4.226  1.00  0.00     0.004 C 
ENDBRANCH  18  19
ENDBRANCH  17  18
ENDBRANCH  16  17
ENDBRANCH  15  16
ENDBRANCH  13  14
ENDBRANCH  12  13
ENDBRANCH   1  11
TORSDOF 14
ENDMDL
MODEL 5
REMARK VINA RESULT:    -5.442      3.254      4.937
REMARK INTER + INTRA:         -12.908
REMARK INTER:                  -9.856
REMARK INTRA:                  -3.052
REMARK UNBOUND:                -3.012
REMARK SMILES CCCCCC=CCC=CCCCCCCCC(=O)[O-]
REMARK SMILES IDX 11 1 12 2 13 3 14 4 15 5 16 6 17 7 18 8 19 9 20 10 10 11
REMARK SMILES IDX 9 12 8 13 7 14 6 15 5 16 4 17 3 18 2 19 1 20
REMARK H PARENT
REMARK Flexibility Score: inf
ROOT
ATOM      1  C   UNL     1      33.523   3.903   6.406  1.00  0.00     0.027 C 
ENDROOT
BRANCH   1   2
ATOM      2  C   UNL     1      33.139   3.400   5.003  1.00  0.00     0.004 C 
BRANCH   2   3
ATOM      3  C   UNL     1      34.065   2.303   4.444  1.00  0.00     0.000 C 
BRANCH   3   4
ATOM      4  C   UNL     1      34.960   2.804   3.298  1.00  0.00     0.000 C 
BRANCH   4   5
ATOM      5  C   UNL     1      36.445   2.474   3.522  1.00  0.00     0.000 C 
BRANCH   5   6
ATOM      6  C   UNL     1      37.315   3.734   3.674  1.00  0.00     0.006 C 
BRANCH   6   7
ATOM      7  C   UNL     1      36.516   5.021   3.429  1.00  0.00     0.053 C 
BRANCH   7   8
ATOM      8  C   UNL     1      37.383   6.123   2.905  1.00  0.00     0.041 C 
ATOM      9  O   UNL     1      37.140   6.643   1.783  1.00  0.00    -0.550 OA
ATOM     10  O   UNL     1      38.447   6.592   3.664  1.00  0.00    -0.550 OA
ENDBRANCH   7   8
ENDBRANCH   6   7
ENDBRANCH   5   6
ENDBRANCH   4   5
ENDBRANCH   3   4
ENDBRANCH   2   3
ENDBRANCH   1   2
BRANCH   1  11
ATOM     11  C   UNL     1      34.240   5.231   6.361  1.00  0.00    -0.031 C 
ATOM     12  C   UNL     1      35.269   5.571   7.160  1.00  0.00    -0.027 C 
BRANCH  12  13
ATOM     13  C   UNL     1      35.902   4.651   8.172  1.00  0.00     0.054 C 
BRANCH  13  14
ATOM     14  C   UNL     1      37.266   4.199   7.715  1.00  0.00    -0.027 C 
ATOM     15  C   UNL     1      37.529   2.956   7.271  1.00  0.00    -0.031 C 
BRANCH  15  16
ATOM     16  C   UNL     1      36.518   1.839   7.217  1.00  0.00     0.027 C 
BRANCH  16  17
ATOM     17  C   UNL     1      37.138   0.566   6.632  1.00  0.00     0.004 C 
BRANCH  17  18
ATOM     18  C   UNL     1      36.049  -0.414   6.173  1.00  0.00     0.000 C 
BRANCH  18  19
ATOM     19  C   UNL     1      36.384  -1.083   4.831  1.00  0.00    -0.003 C 
ATOM     20  C   UNL     1      35.174  -1.181   3.901  1.00  0.00     0.004 C 
ENDBRANCH  18  19
ENDBRANCH  17  18
ENDBRANCH  16  17
ENDBRANCH  15  16
ENDBRANCH  13  14
ENDBRANCH  12  13
ENDBRANCH   1  11
TORSDOF 14
ENDMDL
MODEL 6
REMARK VINA RESULT:    -5.428      2.624      5.430
REMARK INTER + INTRA:         -12.882
REMARK INTER:                 -10.309
REMARK INTRA:                  -2.573
REMARK UNBOUND:                -3.012
REMARK SMILES CCCCCC=CCC=CCCCCCCCC(=O)[O-]
REMARK SMILES IDX 11 1 12 2 13 3 14 4 15 5 16 6 17 7 18 8 19 9 20 10 10 11
REMARK SMILES IDX 9 12 8 13 7 14 6 15 5 16 4 17 3 18 2 19 1 20
REMARK H PARENT
REMARK Flexibility Score: inf
ROOT
ATOM      1  C   UNL     1      33.498   3.677   6.377  1.00  0.00     0.027 C 
ENDROOT
BRANCH   1   2
ATOM      2  C   UNL     1      34.473   4.828   6.685  1.00  0.00     0.004 C 
BRANCH   2   3
ATOM      3  C   UNL     1      35.107   4.769   8.087  1.00  0.00     0.000 C 
BRANCH   3   4
ATOM      4  C   UNL     1      36.629   4.549   8.043  1.00  0.00     0.000 C 
BRANCH   4   5
ATOM      5  C   UNL     1      37.016   3.243   7.329  1.00  0.00     0.000 C 
BRANCH   5   6
ATOM      6  C   UNL     1      37.744   3.491   5.996  1.00  0.00     0.006 C 
BRANCH   6   7
ATOM      7  C   UNL     1      38.742   2.373   5.666  1.00  0.00     0.053 C 
BRANCH   7   8
ATOM      8  C   UNL     1      39.468   2.636   4.383  1.00  0.00     0.041 C 
ATOM      9  O   UNL     1      38.944   2.321   3.282  1.00  0.00    -0.550 OA
ATOM     10  O   UNL     1      40.713   3.249   4.400  1.00  0.00    -0.550 OA
ENDBRANCH   7   8
ENDBRANCH   6   7
ENDBRANCH   5   6
ENDBRANCH   4   5
ENDBRANCH   3   4
ENDBRANCH   2   3
ENDBRANCH   1   2
BRANCH   1  11
ATOM     11  C   UNL     1      32.924   3.771   4.984  1.00  0.00    -0.031 C 
ATOM     12  C   UNL     1      33.468   3.199   3.893  1.00  0.00    -0.027 C 
BRANCH  12  13
ATOM     13  C   UNL     1      34.693   2.322   3.913  1.00  0.00     0.054 C 
BRANCH  13  14
ATOM     14  C   UNL     1      34.494   1.092   3.062  1.00  0.00    -0.027 C 
ATOM     15  C   UNL     1      35.270  -0.004   3.143  1.00  0.00    -0.031 C 
BRANCH  15  16
ATOM     16  C   UNL     1      36.465  -0.136   4.052  1.00  0.00     0.027 C 
BRANCH  16  17
ATOM     17  C   UNL     1      36.177  -1.108   5.201  1.00  0.00     0.004 C 
BRANCH  17  18
ATOM     18  C   UNL     1      36.235  -0.389   6.556  1.00  0.00     0.000 C 
BRANCH  18  19
ATOM     19  C   UNL     1      34.945   0.383   6.870  1.00  0.00    -0.003 C 
ATOM     20  C   UNL     1      33.683  -0.416   6.543  1.00  0.00     0.004 C 
ENDBRANCH  18  19
ENDBRANCH  17  18
ENDBRANCH  16  17
ENDBRANCH  15  16
ENDBRANCH  13  14
ENDBRANCH  12  13
ENDBRANCH   1  11
TORSDOF 14
ENDMDL
MODEL 7
REMARK VINA RESULT:    -5.411      3.038      5.570
REMARK INTER + INTRA:         -12.851
REMARK INTER:                  -9.905
REMARK INTRA:                  -2.946
REMARK UNBOUND:                -3.012
REMARK SMILES CCCCCC=CCC=CCCCCCCCC(=O)[O-]
REMARK SMILES IDX 11 1 12 2 13 3 14 4 15 5 16 6 17 7 18 8 19 9 20 10 10 11
REMARK SMILES IDX 9 12 8 13 7 14 6 15 5 16 4 17 3 18 2 19 1 20
REMARK H PARENT
REMARK Flexibility Score: inf
ROOT
ATOM      1  C   UNL     1      36.503  -0.689   6.335  1.00  0.00     0.027 C 
ENDROOT
BRANCH   1   2
ATOM      2  C   UNL     1      37.377   0.457   6.876  1.00  0.00     0.004 C 
BRANCH   2   3
ATOM      3  C   UNL     1      36.691   1.836   6.878  1.00  0.00     0.000 C 
BRANCH   3   4
ATOM      4  C   UNL     1      37.577   2.943   6.282  1.00  0.00     0.000 C 
BRANCH   4   5
ATOM      5  C   UNL     1      37.574   2.937   4.744  1.00  0.00     0.000 C 
BRANCH   5   6
ATOM      6  C   UNL     1      38.037   4.277   4.146  1.00  0.00     0.006 C 
BRANCH   6   7
ATOM      7  C   UNL     1      36.879   5.271   3.989  1.00  0.00     0.053 C 
BRANCH   7   8
ATOM      8  C   UNL     1      36.578   5.552   2.549  1.00  0.00     0.041 C 
ATOM      9  O   UNL     1      35.761   4.828   1.919  1.00  0.00    -0.550 OA
ATOM     10  O   UNL     1      37.182   6.625   1.909  1.00  0.00    -0.550 OA
ENDBRANCH   7   8
ENDBRANCH   6   7
ENDBRANCH   5   6
ENDBRANCH   4   5
ENDBRANCH   3   4
ENDBRANCH   2   3
ENDBRANCH   1   2
BRANCH   1  11
ATOM     11  C   UNL     1      36.814  -1.014   4.895  1.00  0.00    -0.031 C 
ATOM     12  C   UNL     1      35.976  -0.797   3.864  1.00  0.00    -0.027 C 
BRANCH  12  13
ATOM     13  C   UNL     1      34.628  -0.134   3.987  1.00  0.00     0.054 C 
BRANCH  13  14
ATOM     14  C   UNL     1      34.548   1.096   3.116  1.00  0.00    -0.027 C 
ATOM     15  C   UNL     1      34.113   2.291   3.554  1.00  0.00    -0.031 C 
BRANCH  15  16
ATOM     16  C   UNL     1      33.602   2.553   4.949  1.00  0.00     0.027 C 
BRANCH  16  17
ATOM     17  C   UNL     1      33.779   4.027   5.330  1.00  0.00     0.004 C 
BRANCH  17  18
ATOM     18  C   UNL     1      33.787   4.202   6.855  1.00  0.00     0.000 C 
BRANCH  18  19
ATOM     19  C   UNL     1      34.818   5.240   7.324  1.00  0.00    -0.003 C 
ATOM     20  C   UNL     1      35.403   4.913   8.698  1.00  0.00     0.004 C 
ENDBRANCH  18  19
ENDBRANCH  17  18
ENDBRANCH  16  17
ENDBRANCH  15  16
ENDBRANCH  13  14
ENDBRANCH  12  13
ENDBRANCH   1  11
TORSDOF 14
ENDMDL
MODEL 8
REMARK VINA RESULT:    -5.406      3.214      5.753
REMARK INTER + INTRA:         -12.843
REMARK INTER:                  -9.878
REMARK INTRA:                  -2.965
REMARK UNBOUND:                -3.012
REMARK SMILES CCCCCC=CCC=CCCCCCCCC(=O)[O-]
REMARK SMILES IDX 11 1 12 2 13 3 14 4 15 5 16 6 17 7 18 8 19 9 20 10 10 11
REMARK SMILES IDX 9 12 8 13 7 14 6 15 5 16 4 17 3 18 2 19 1 20
REMARK H PARENT
REMARK Flexibility Score: inf
ROOT
ATOM      1  C   UNL     1      36.523  -0.375   6.269  1.00  0.00     0.027 C 
ENDROOT
BRANCH   1   2
ATOM      2  C   UNL     1      37.642   0.478   6.894  1.00  0.00     0.004 C 
BRANCH   2   3
ATOM      3  C   UNL     1      37.445   1.998   6.743  1.00  0.00     0.000 C 
BRANCH   3   4
ATOM      4  C   UNL     1      38.390   2.620   5.701  1.00  0.00     0.000 C 
BRANCH   4   5
ATOM      5  C   UNL     1      37.658   3.554   4.723  1.00  0.00     0.000 C 
BRANCH   5   6
ATOM      6  C   UNL     1      37.639   3.006   3.285  1.00  0.00     0.006 C 
BRANCH   6   7
ATOM      7  C   UNL     1      38.665   1.884   3.080  1.00  0.00     0.053 C 
BRANCH   7   8
ATOM      8  C   UNL     1      39.708   2.259   2.074  1.00  0.00     0.041 C 
ATOM      9  O   UNL     1      40.736   2.893   2.431  1.00  0.00    -0.550 OA
ATOM     10  O   UNL     1      39.555   1.890   0.744  1.00  0.00    -0.550 OA
ENDBRANCH   7   8
ENDBRANCH   6   7
ENDBRANCH   5   6
ENDBRANCH   4   5
ENDBRANCH   3   4
ENDBRANCH   2   3
ENDBRANCH   1   2
BRANCH   1  11
ATOM     11  C   UNL     1      36.902  -0.908   4.909  1.00  0.00    -0.031 C 
ATOM     12  C   UNL     1      36.063  -0.991   3.860  1.00  0.00    -0.027 C 
BRANCH  12  13
ATOM     13  C   UNL     1      34.638  -0.500   3.868  1.00  0.00     0.054 C 
BRANCH  13  14
ATOM     14  C   UNL     1      34.501   0.778   3.077  1.00  0.00    -0.027 C 
ATOM     15  C   UNL     1      34.272   1.979   3.638  1.00  0.00    -0.031 C 
BRANCH  15  16
ATOM     16  C   UNL     1      34.074   2.206   5.115  1.00  0.00     0.027 C 
BRANCH  16  17
ATOM     17  C   UNL     1      34.018   3.703   5.438  1.00  0.00     0.004 C 
BRANCH  17  18
ATOM     18  C   UNL     1      33.515   3.938   6.869  1.00  0.00     0.000 C 
BRANCH  18  19
ATOM     19  C   UNL     1      34.633   3.806   7.915  1.00  0.00    -0.003 C 
ATOM     20  C   UNL     1      35.559   5.023   7.948  1.00  0.00     0.004 C 
ENDBRANCH  18  19
ENDBRANCH  17  18
ENDBRANCH  16  17
ENDBRANCH  15  16
ENDBRANCH  13  14
ENDBRANCH  12  13
ENDBRANCH   1  11
TORSDOF 14
ENDMDL
MODEL 9
REMARK VINA RESULT:    -5.403      2.678      4.739
REMARK INTER + INTRA:         -12.837
REMARK INTER:                  -9.725
REMARK INTRA:                  -3.113
REMARK UNBOUND:                -3.012
REMARK SMILES CCCCCC=CCC=CCCCCCCCC(=O)[O-]
REMARK SMILES IDX 11 1 12 2 13 3 14 4 15 5 16 6 17 7 18 8 19 9 20 10 10 11
REMARK SMILES IDX 9 12 8 13 7 14 6 15 5 16 4 17 3 18 2 19 1 20
REMARK H PARENT
REMARK Flexibility Score: inf
ROOT
ATOM      1  C   UNL     1      36.829  -0.499   4.820  1.00  0.00     0.027 C 
ENDROOT
BRANCH   1   2
ATOM      2  C   UNL     1      35.424  -1.082   4.581  1.00  0.00     0.004 C 
BRANCH   2   3
ATOM      3  C   UNL     1      34.643  -0.413   3.434  1.00  0.00     0.000 C 
BRANCH   3   4
ATOM      4  C   UNL     1      35.011   1.068   3.247  1.00  0.00     0.000 C 
BRANCH   4   5
ATOM      5  C   UNL     1      33.998   2.016   3.910  1.00  0.00     0.000 C 
BRANCH   5   6
ATOM      6  C   UNL     1      34.495   3.472   3.960  1.00  0.00     0.006 C 
BRANCH   6   7
ATOM      7  C   UNL     1      35.696   3.704   3.034  1.00  0.00     0.053 C 
BRANCH   7   8
ATOM      8  C   UNL     1      36.343   5.031   3.283  1.00  0.00     0.041 C 
ATOM      9  O   UNL     1      37.064   5.563   2.397  1.00  0.00    -0.550 OA
ATOM     10  O   UNL     1      36.133   5.692   4.486  1.00  0.00    -0.550 OA
ENDBRANCH   7   8
ENDBRANCH   6   7
ENDBRANCH   5   6
ENDBRANCH   4   5
ENDBRANCH   3   4
ENDBRANCH   2   3
ENDBRANCH   1   2
BRANCH   1  11
ATOM     11  C   UNL     1      37.122  -0.295   6.286  1.00  0.00    -0.031 C 
ATOM     12  C   UNL     1      37.372   0.898   6.857  1.00  0.00    -0.027 C 
BRANCH  12  13
ATOM     13  C   UNL     1      37.328   2.217   6.129  1.00  0.00     0.054 C 
BRANCH  13  14
ATOM     14  C   UNL     1      37.617   3.364   7.066  1.00  0.00    -0.027 C 
ATOM     15  C   UNL     1      36.661   4.071   7.694  1.00  0.00    -0.031 C 
BRANCH  15  16
ATOM     16  C   UNL     1      35.181   3.851   7.513  1.00  0.00     0.027 C 
BRANCH  16  17
ATOM     17  C   UNL     1      34.541   3.338   8.808  1.00  0.00     0.004 C 
BRANCH  17  18
ATOM     18  C   UNL     1      34.274   1.828   8.727  1.00  0.00     0.000 C 
BRANCH  18  19
ATOM     19  C   UNL     1      33.884   1.373   7.313  1.00  0.00    -0.003 C 
ATOM     20  C   UNL     1      33.328  -0.051   7.283  1.00  0.00     0.004 C 
ENDBRANCH  18  19
ENDBRANCH  17  18
ENDBRANCH  16  17
ENDBRANCH  15  16
ENDBRANCH  13  14
ENDBRANCH  12  13
ENDBRANCH   1  11
TORSDOF 14
ENDMDL
