MODEL 1
REMARK VINA RESULT:    56.225      0.000      0.000
REMARK INTER + INTRA:          76.231
REMARK INTER:                  74.302
REMARK INTRA:                   1.929
REMARK UNBOUND:                 1.929
REMARK SMILES CC[C@@H](C=C[C@H](C)[C@H]1CC[C@@H]2[C@H]3CC=C4C[C@@H](O)CC[C@]4(C)[C@H]3CC[C@@]21C)C(C)C
REMARK SMILES IDX 6 1 7 2 5 3 4 4 3 5 2 6 1 7 28 8 29 9 30 10 8 11 9 12 26 13
REMARK SMILES IDX 10 14 11 15 25 16 27 17 12 18 24 19 23 20 13 21 21 22 14 23
REMARK SMILES IDX 15 24 20 25 22 26 16 27 19 28 17 29 18 30
REMARK H PARENT 18 31
REMARK Flexibility Score: inf
ROOT
ATOM      1  C   UNL     1     -27.993  27.829   4.187  1.00  0.00     0.012 C 
ATOM      2  C   UNL     1     -27.996  26.318   3.923  1.00  0.00     0.012 C 
ENDROOT
BRANCH   1   3
ATOM      3  C   UNL     1     -29.407  28.339   4.433  1.00  0.00    -0.028 C 
ATOM      4  C   UNL     1     -30.296  27.804   5.297  1.00  0.00    -0.027 C 
BRANCH   4   5
ATOM      5  C   UNL     1     -30.081  26.581   6.177  1.00  0.00     0.014 C 
BRANCH   5   6
ATOM      6  C   UNL     1     -30.567  25.321   5.415  1.00  0.00     0.004 C 
ATOM      7  C   UNL     1     -31.306  24.324   6.309  1.00  0.00     0.004 C 
ENDBRANCH   5   6
BRANCH   5   8
ATOM      8  C   UNL     1     -30.850  26.777   7.524  1.00  0.00    -0.011 C 
ATOM      9  C   UNL     1     -29.881  27.044   8.691  1.00  0.00     0.008 C 
ATOM     10  C   UNL     1     -31.735  25.571   7.886  1.00  0.00     0.008 C 
ENDBRANCH   5   8
ENDBRANCH   4   5
ENDBRANCH   1   3
BRANCH   1  11
ATOM     11  C   UNL     1     -26.922  28.282   5.251  1.00  0.00     0.002 C 
ATOM     12  C   UNL     1     -26.148  27.083   5.829  1.00  0.00     0.005 C 
ATOM     13  C   UNL     1     -25.847  29.392   4.958  1.00  0.00    -0.026 C 
ATOM     14  C   UNL     1     -24.712  27.538   6.048  1.00  0.00     0.005 C 
ATOM     15  C   UNL     1     -24.715  29.079   5.994  1.00  0.00    -0.001 C 
ATOM     16  C   UNL     1     -26.418  30.842   5.091  1.00  0.00     0.007 C 
ATOM     17  C   UNL     1     -25.234  29.272   3.536  1.00  0.00     0.012 C 
ATOM     18  C   UNL     1     -24.965  29.672   7.418  1.00  0.00     0.000 C 
ATOM     19  C   UNL     1     -26.606  31.374   6.519  1.00  0.00     0.005 C 
ATOM     20  C   UNL     1     -25.394  31.157   7.447  1.00  0.00     0.003 C 
ATOM     21  C   UNL     1     -23.809  29.439   8.414  1.00  0.00     0.031 C 
ATOM     22  C   UNL     1     -24.240  32.245   7.357  1.00  0.00    -0.008 C 
ATOM     23  C   UNL     1     -22.745  30.489   8.392  1.00  0.00    -0.027 C 
ATOM     24  C   UNL     1     -22.979  31.782   8.102  1.00  0.00    -0.065 C 
ATOM     25  C   UNL     1     -24.768  33.601   7.977  1.00  0.00     0.014 C 
ATOM     26  C   UNL     1     -23.796  32.521   5.899  1.00  0.00     0.016 C 
ATOM     27  C   UNL     1     -21.880  32.784   8.428  1.00  0.00     0.063 C 
ATOM     28  C   UNL     1     -23.873  34.213   9.068  1.00  0.00     0.033 C 
ATOM     29  C   UNL     1     -22.403  34.222   8.645  1.00  0.00     0.118 C 
BRANCH  29  30
ATOM     30  O   UNL     1     -22.250  34.997   7.483  1.00  0.00    -0.393 OA
ATOM     31  H   UNL     1     -21.278  35.176   7.382  1.00  0.00     0.210 HD
ENDBRANCH  29  30
ENDBRANCH   1  11
TORSDOF 6
ENDMDL
MODEL 2
REMARK VINA RESULT:    58.299     10.785     14.715
REMARK INTER + INTRA:          78.973
REMARK INTER:                  79.370
REMARK INTRA:                  -0.398
REMARK UNBOUND:                 1.929
REMARK SMILES CC[C@@H](C=C[C@H](C)[C@H]1CC[C@@H]2[C@H]3CC=C4C[C@@H](O)CC[C@]4(C)[C@H]3CC[C@@]21C)C(C)C
REMARK SMILES IDX 6 1 7 2 5 3 4 4 3 5 2 6 1 7 28 8 29 9 30 10 8 11 9 12 26 13
REMARK SMILES IDX 10 14 11 15 25 16 27 17 12 18 24 19 23 20 13 21 21 22 14 23
REMARK SMILES IDX 15 24 20 25 22 26 16 27 19 28 17 29 18 30
REMARK H PARENT 18 31
REMARK Flexibility Score: inf
ROOT
ATOM      1  C   UNL     1     -30.060  32.186  -3.298  1.00  0.00     0.012 C 
ATOM      2  C   UNL     1     -28.863  31.323  -2.880  1.00  0.00     0.012 C 
ENDROOT
BRANCH   1   3
ATOM      3  C   UNL     1     -30.223  32.188  -4.813  1.00  0.00    -0.028 C 
ATOM      4  C   UNL     1     -30.144  33.274  -5.610  1.00  0.00    -0.027 C 
BRANCH   4   5
ATOM      5  C   UNL     1     -29.898  34.709  -5.166  1.00  0.00     0.014 C 
BRANCH   5   6
ATOM      6  C   UNL     1     -30.629  35.669  -6.142  1.00  0.00     0.004 C 
ATOM      7  C   UNL     1     -30.453  35.282  -7.611  1.00  0.00     0.004 C 
ENDBRANCH   5   6
BRANCH   5   8
ATOM      8  C   UNL     1     -28.359  34.980  -5.130  1.00  0.00    -0.011 C 
ATOM      9  C   UNL     1     -27.908  35.471  -3.742  1.00  0.00     0.008 C 
ATOM     10  C   UNL     1     -27.910  36.006  -6.186  1.00  0.00     0.008 C 
ENDBRANCH   5   8
ENDBRANCH   4   5
ENDBRANCH   1   3
BRANCH   1  11
ATOM     11  C   UNL     1     -31.374  31.881  -2.484  1.00  0.00     0.002 C 
ATOM     12  C   UNL     1     -31.277  32.387  -1.033  1.00  0.00     0.005 C 
ATOM     13  C   UNL     1     -32.805  32.289  -2.991  1.00  0.00    -0.026 C 
ATOM     14  C   UNL     1     -32.657  32.897  -0.641  1.00  0.00     0.005 C 
ATOM     15  C   UNL     1     -33.654  32.336  -1.676  1.00  0.00    -0.001 C 
ATOM     16  C   UNL     1     -33.378  31.299  -4.057  1.00  0.00     0.007 C 
ATOM     17  C   UNL     1     -32.834  33.707  -3.624  1.00  0.00     0.012 C 
ATOM     18  C   UNL     1     -34.196  30.946  -1.210  1.00  0.00     0.000 C 
ATOM     19  C   UNL     1     -33.926  29.966  -3.526  1.00  0.00     0.005 C 
ATOM     20  C   UNL     1     -34.869  30.100  -2.314  1.00  0.00     0.003 C 
ATOM     21  C   UNL     1     -35.105  31.005   0.035  1.00  0.00     0.031 C 
ATOM     22  C   UNL     1     -36.391  30.418  -2.644  1.00  0.00    -0.008 C 
ATOM     23  C   UNL     1     -36.553  31.238  -0.258  1.00  0.00    -0.027 C 
ATOM     24  C   UNL     1     -37.166  30.806  -1.376  1.00  0.00    -0.065 C 
ATOM     25  C   UNL     1     -37.047  29.143  -3.310  1.00  0.00     0.014 C 
ATOM     26  C   UNL     1     -36.550  31.610  -3.621  1.00  0.00     0.016 C 
ATOM     27  C   UNL     1     -38.688  30.830  -1.395  1.00  0.00     0.063 C 
ATOM     28  C   UNL     1     -38.345  28.654  -2.646  1.00  0.00     0.033 C 
ATOM     29  C   UNL     1     -39.307  29.813  -2.378  1.00  0.00     0.118 C 
BRANCH  29  30
ATOM     30  O   UNL     1     -39.654  30.429  -3.593  1.00  0.00    -0.393 OA
ATOM     31  H   UNL     1     -40.645  30.394  -3.660  1.00  0.00     0.210 HD
ENDBRANCH  29  30
ENDBRANCH   1  11
TORSDOF 6
ENDMDL
