MODEL 1
REMARK VINA RESULT:    -9.052      0.000      0.000
REMARK INTER + INTRA:         -11.174
REMARK INTER:                 -10.904
REMARK INTRA:                  -0.269
REMARK UNBOUND:                -0.269
REMARK SMILES Oc1cc(O)c2c(c1)O[C@H](c1ccc(O)c(O)c1)[C@@H](O)C2
REMARK SMILES IDX 21 1 19 2 10 3 9 4 7 5 8 6 2 7 3 8 4 9 6 10 20 11 11 13
REMARK SMILES IDX 18 14 12 15 16 16 13 17 14 18 17 19 15 21 5 23 1 25
REMARK H PARENT 20 12 17 20 15 22 5 24 1 26
REMARK Flexibility Score: inf
ROOT
ATOM      1  C   UNL     1     112.502 112.097 114.973  1.00  0.00     0.079 C 
ATOM      2  C   UNL     1     112.058 111.797 113.529  1.00  0.00     0.164 C 
ATOM      3  C   UNL     1     110.565 112.147 113.350  1.00  0.00     0.232 C 
ATOM      4  O   UNL     1     109.780 111.444 114.315  1.00  0.00    -0.482 OA
ATOM      5  C   UNL     1     110.226 111.208 115.620  1.00  0.00     0.131 A 
ATOM      6  C   UNL     1     109.341 110.668 116.558  1.00  0.00     0.093 A 
ATOM      7  C   UNL     1     109.765 110.425 117.870  1.00  0.00     0.122 A 
ATOM      8  C   UNL     1     111.078 110.725 118.243  1.00  0.00     0.092 A 
ATOM      9  C   UNL     1     111.977 111.264 117.310  1.00  0.00     0.126 A 
ATOM     10  C   UNL     1     111.559 111.490 115.985  1.00  0.00     0.039 A 
ENDROOT
BRANCH   2  11
ATOM     11  O   UNL     1     112.862 112.494 112.609  1.00  0.00    -0.389 OA
ATOM     12  H   UNL     1     113.790 112.501 112.964  1.00  0.00     0.211 HD
ENDBRANCH   2  11
BRANCH   3  13
ATOM     13  C   UNL     1     110.089 111.804 111.958  1.00  0.00    -0.001 A 
ATOM     14  C   UNL     1     109.597 110.519 111.675  1.00  0.00     0.057 A 
ATOM     15  C   UNL     1     110.084 112.778 110.945  1.00  0.00     0.012 A 
ATOM     16  C   UNL     1     109.128 110.202 110.392  1.00  0.00     0.157 A 
ATOM     17  C   UNL     1     109.617 112.464 109.666  1.00  0.00     0.050 A 
ATOM     18  C   UNL     1     109.140 111.181 109.382  1.00  0.00     0.157 A 
BRANCH  16  19
ATOM     19  O   UNL     1     108.648 108.923 110.118  1.00  0.00    -0.504 OA
ATOM     20  H   UNL     1     108.874 108.133 110.710  1.00  0.00     0.293 HD
ENDBRANCH  16  19
BRANCH  18  21
ATOM     21  O   UNL     1     108.681 110.897 108.097  1.00  0.00    -0.504 OA
ATOM     22  H   UNL     1     107.740 111.129 107.799  1.00  0.00     0.293 HD
ENDBRANCH  18  21
ENDBRANCH   3  13
BRANCH   9  23
ATOM     23  O   UNL     1     113.280 111.574 117.697  1.00  0.00    -0.507 OA
ATOM     24  H   UNL     1     114.058 110.960 117.486  1.00  0.00     0.293 HD
ENDBRANCH   9  23
BRANCH   7  25
ATOM     25  O   UNL     1     108.890 109.887 118.811  1.00  0.00    -0.508 OA
ATOM     26  H   UNL     1     109.226 109.484 119.678  1.00  0.00     0.293 HD
ENDBRANCH   7  25
TORSDOF 6
ENDMDL
MODEL 2
REMARK VINA RESULT:    -9.030      2.268      3.589
REMARK INTER + INTRA:         -11.147
REMARK INTER:                 -10.874
REMARK INTRA:                  -0.273
REMARK UNBOUND:                -0.269
REMARK SMILES Oc1cc(O)c2c(c1)O[C@H](c1ccc(O)c(O)c1)[C@@H](O)C2
REMARK SMILES IDX 21 1 19 2 10 3 9 4 7 5 8 6 2 7 3 8 4 9 6 10 20 11 11 13
REMARK SMILES IDX 18 14 12 15 16 16 13 17 14 18 17 19 15 21 5 23 1 25
REMARK H PARENT 20 12 17 20 15 22 5 24 1 26
REMARK Flexibility Score: inf
ROOT
ATOM      1  C   UNL     1     109.580 110.375 115.001  1.00  0.00     0.079 C 
ATOM      2  C   UNL     1     110.039 110.617 113.551  1.00  0.00     0.164 C 
ATOM      3  C   UNL     1     111.511 110.180 113.382  1.00  0.00     0.232 C 
ATOM      4  O   UNL     1     112.333 110.862 114.331  1.00  0.00    -0.482 OA
ATOM      5  C   UNL     1     111.901 111.152 115.630  1.00  0.00     0.131 A 
ATOM      6  C   UNL     1     112.814 111.666 116.556  1.00  0.00     0.093 A 
ATOM      7  C   UNL     1     112.404 111.962 117.861  1.00  0.00     0.122 A 
ATOM      8  C   UNL     1     111.076 111.743 118.240  1.00  0.00     0.092 A 
ATOM      9  C   UNL     1     110.149 111.232 117.319  1.00  0.00     0.126 A 
ATOM     10  C   UNL     1     110.554 110.953 116.000  1.00  0.00     0.039 A 
ENDROOT
BRANCH   2  11
ATOM     11  O   UNL     1     109.198 109.943 112.647  1.00  0.00    -0.389 OA
ATOM     12  H   UNL     1     108.284 109.930 113.037  1.00  0.00     0.211 HD
ENDBRANCH   2  11
BRANCH   3  13
ATOM     13  C   UNL     1     112.005 110.465 111.983  1.00  0.00    -0.001 A 
ATOM     14  C   UNL     1     112.557 111.717 111.668  1.00  0.00     0.057 A 
ATOM     15  C   UNL     1     111.965 109.466 110.996  1.00  0.00     0.012 A 
ATOM     16  C   UNL     1     113.043 111.978 110.378  1.00  0.00     0.157 A 
ATOM     17  C   UNL     1     112.449 109.724 109.710  1.00  0.00     0.050 A 
ATOM     18  C   UNL     1     112.987 110.975 109.395  1.00  0.00     0.157 A 
BRANCH  16  19
ATOM     19  O   UNL     1     113.583 113.226 110.073  1.00  0.00    -0.504 OA
ATOM     20  H   UNL     1     113.624 113.969 110.760  1.00  0.00     0.293 HD
ENDBRANCH  16  19
BRANCH  18  21
ATOM     21  O   UNL     1     113.461 111.203 108.104  1.00  0.00    -0.504 OA
ATOM     22  H   UNL     1     114.064 110.542 107.628  1.00  0.00     0.293 HD
ENDBRANCH  18  21
ENDBRANCH   3  13
BRANCH   9  23
ATOM     23  O   UNL     1     108.831 111.003 117.711  1.00  0.00    -0.507 OA
ATOM     24  H   UNL     1     108.468 110.066 117.836  1.00  0.00     0.293 HD
ENDBRANCH   9  23
BRANCH   7  25
ATOM     25  O   UNL     1     113.307 112.473 118.791  1.00  0.00    -0.508 OA
ATOM     26  H   UNL     1     114.281 112.190 118.794  1.00  0.00     0.293 HD
ENDBRANCH   7  25
TORSDOF 6
ENDMDL
MODEL 3
REMARK VINA RESULT:    -8.931      2.956      4.906
REMARK INTER + INTRA:         -11.027
REMARK INTER:                 -10.774
REMARK INTRA:                  -0.253
REMARK UNBOUND:                -0.269
REMARK SMILES Oc1cc(O)c2c(c1)O[C@H](c1ccc(O)c(O)c1)[C@@H](O)C2
REMARK SMILES IDX 21 1 19 2 10 3 9 4 7 5 8 6 2 7 3 8 4 9 6 10 20 11 11 13
REMARK SMILES IDX 18 14 12 15 16 16 13 17 14 18 17 19 15 21 5 23 1 25
REMARK H PARENT 20 12 17 20 15 22 5 24 1 26
REMARK Flexibility Score: inf
ROOT
ATOM      1  C   UNL     1     112.500 112.073 110.070  1.00  0.00     0.079 C 
ATOM      2  C   UNL     1     112.067 111.760 108.626  1.00  0.00     0.164 C 
ATOM      3  C   UNL     1     110.566 112.078 108.443  1.00  0.00     0.232 C 
ATOM      4  O   UNL     1     109.795 111.359 109.407  1.00  0.00    -0.482 OA
ATOM      5  C   UNL     1     110.243 111.136 110.714  1.00  0.00     0.131 A 
ATOM      6  C   UNL     1     109.369 110.577 111.651  1.00  0.00     0.093 A 
ATOM      7  C   UNL     1     109.795 110.346 112.964  1.00  0.00     0.122 A 
ATOM      8  C   UNL     1     111.100 110.676 113.340  1.00  0.00     0.092 A 
ATOM      9  C   UNL     1     111.989 111.233 112.408  1.00  0.00     0.126 A 
ATOM     10  C   UNL     1     111.569 111.448 111.082  1.00  0.00     0.039 A 
ENDROOT
BRANCH   2  11
ATOM     11  O   UNL     1     112.857 112.474 107.707  1.00  0.00    -0.389 OA
ATOM     12  H   UNL     1     113.737 112.015 107.645  1.00  0.00     0.211 HD
ENDBRANCH   2  11
BRANCH   3  13
ATOM     13  C   UNL     1     110.101 111.722 107.050  1.00  0.00    -0.001 A 
ATOM     14  C   UNL     1     109.611 110.435 106.775  1.00  0.00     0.057 A 
ATOM     15  C   UNL     1     110.106 112.686 106.029  1.00  0.00     0.012 A 
ATOM     16  C   UNL     1     109.151 110.106 105.492  1.00  0.00     0.157 A 
ATOM     17  C   UNL     1     109.649 112.360 104.748  1.00  0.00     0.050 A 
ATOM     18  C   UNL     1     109.172 111.075 104.473  1.00  0.00     0.157 A 
BRANCH  16  19
ATOM     19  O   UNL     1     108.672 108.825 105.226  1.00  0.00    -0.504 OA
ATOM     20  H   UNL     1     108.488 108.512 104.281  1.00  0.00     0.293 HD
ENDBRANCH  16  19
BRANCH  18  21
ATOM     21  O   UNL     1     108.723 110.780 103.187  1.00  0.00    -0.504 OA
ATOM     22  H   UNL     1     109.358 110.698 102.402  1.00  0.00     0.293 HD
ENDBRANCH  18  21
ENDBRANCH   3  13
BRANCH   9  23
ATOM     23  O   UNL     1     113.284 111.572 112.797  1.00  0.00    -0.507 OA
ATOM     24  H   UNL     1     114.084 111.009 112.534  1.00  0.00     0.293 HD
ENDBRANCH   9  23
BRANCH   7  25
ATOM     25  O   UNL     1     108.929 109.791 113.904  1.00  0.00    -0.508 OA
ATOM     26  H   UNL     1     108.211 110.345 114.356  1.00  0.00     0.293 HD
ENDBRANCH   7  25
TORSDOF 6
ENDMDL
MODEL 4
REMARK VINA RESULT:    -8.892      3.661      6.056
REMARK INTER + INTRA:         -10.981
REMARK INTER:                 -10.715
REMARK INTRA:                  -0.266
REMARK UNBOUND:                -0.269
REMARK SMILES Oc1cc(O)c2c(c1)O[C@H](c1ccc(O)c(O)c1)[C@@H](O)C2
REMARK SMILES IDX 21 1 19 2 10 3 9 4 7 5 8 6 2 7 3 8 4 9 6 10 20 11 11 13
REMARK SMILES IDX 18 14 12 15 16 16 13 17 14 18 17 19 15 21 5 23 1 25
REMARK H PARENT 20 12 17 20 15 22 5 24 1 26
REMARK Flexibility Score: inf
ROOT
ATOM      1  C   UNL     1     109.596 110.381 110.095  1.00  0.00     0.079 C 
ATOM      2  C   UNL     1     110.058 110.650 108.651  1.00  0.00     0.164 C 
ATOM      3  C   UNL     1     111.537 110.237 108.482  1.00  0.00     0.232 C 
ATOM      4  O   UNL     1     112.346 110.916 109.445  1.00  0.00    -0.482 OA
ATOM      5  C   UNL     1     111.904 111.181 110.746  1.00  0.00     0.131 A 
ATOM      6  C   UNL     1     112.806 111.693 111.683  1.00  0.00     0.093 A 
ATOM      7  C   UNL     1     112.387 111.964 112.991  1.00  0.00     0.122 A 
ATOM      8  C   UNL     1     111.060 111.721 113.361  1.00  0.00     0.092 A 
ATOM      9  C   UNL     1     110.145 111.212 112.428  1.00  0.00     0.126 A 
ATOM     10  C   UNL     1     110.559 110.957 111.107  1.00  0.00     0.039 A 
ENDROOT
BRANCH   2  11
ATOM     11  O   UNL     1     109.230 109.979 107.734  1.00  0.00    -0.389 OA
ATOM     12  H   UNL     1     109.761 109.816 106.910  1.00  0.00     0.211 HD
ENDBRANCH   2  11
BRANCH   3  13
ATOM     13  C   UNL     1     112.032 110.548 107.089  1.00  0.00    -0.001 A 
ATOM     14  C   UNL     1     112.581 111.808 106.799  1.00  0.00     0.057 A 
ATOM     15  C   UNL     1     111.998 109.567 106.084  1.00  0.00     0.012 A 
ATOM     16  C   UNL     1     113.069 112.094 105.515  1.00  0.00     0.157 A 
ATOM     17  C   UNL     1     112.483 109.851 104.804  1.00  0.00     0.050 A 
ATOM     18  C   UNL     1     113.017 111.109 104.513  1.00  0.00     0.157 A 
BRANCH  16  19
ATOM     19  O   UNL     1     113.606 113.349 105.234  1.00  0.00    -0.504 OA
ATOM     20  H   UNL     1     113.913 113.973 105.970  1.00  0.00     0.293 HD
ENDBRANCH  16  19
BRANCH  18  21
ATOM     21  O   UNL     1     113.493 111.363 103.228  1.00  0.00    -0.504 OA
ATOM     22  H   UNL     1     114.340 111.894 103.063  1.00  0.00     0.293 HD
ENDBRANCH  18  21
ENDBRANCH   3  13
BRANCH   9  23
ATOM     23  O   UNL     1     108.828 110.960 112.811  1.00  0.00    -0.507 OA
ATOM     24  H   UNL     1     108.583 110.757 113.773  1.00  0.00     0.293 HD
ENDBRANCH   9  23
BRANCH   7  25
ATOM     25  O   UNL     1     113.279 112.474 113.931  1.00  0.00    -0.508 OA
ATOM     26  H   UNL     1     113.066 113.308 114.466  1.00  0.00     0.293 HD
ENDBRANCH   7  25
TORSDOF 6
ENDMDL
MODEL 5
REMARK VINA RESULT:    -8.646      3.037      8.027
REMARK INTER + INTRA:         -10.685
REMARK INTER:                 -10.306
REMARK INTRA:                  -0.379
REMARK UNBOUND:                -0.269
REMARK SMILES Oc1cc(O)c2c(c1)O[C@H](c1ccc(O)c(O)c1)[C@@H](O)C2
REMARK SMILES IDX 21 1 19 2 10 3 9 4 7 5 8 6 2 7 3 8 4 9 6 10 20 11 11 13
REMARK SMILES IDX 18 14 12 15 16 16 13 17 14 18 17 19 15 21 5 23 1 25
REMARK H PARENT 20 12 17 20 15 22 5 24 1 26
REMARK Flexibility Score: inf
ROOT
ATOM      1  C   UNL     1     112.865 111.911 107.605  1.00  0.00     0.079 C 
ATOM      2  C   UNL     1     112.454 112.311 109.034  1.00  0.00     0.164 C 
ATOM      3  C   UNL     1     111.883 111.087 109.783  1.00  0.00     0.232 C 
ATOM      4  O   UNL     1     110.795 110.527 109.044  1.00  0.00    -0.482 OA
ATOM      5  C   UNL     1     110.781 110.481 107.645  1.00  0.00     0.131 A 
ATOM      6  C   UNL     1     109.769 109.768 106.995  1.00  0.00     0.093 A 
ATOM      7  C   UNL     1     109.736 109.707 105.597  1.00  0.00     0.122 A 
ATOM      8  C   UNL     1     110.719 110.362 104.848  1.00  0.00     0.092 A 
ATOM      9  C   UNL     1     111.737 111.084 105.489  1.00  0.00     0.126 A 
ATOM     10  C   UNL     1     111.761 111.163 106.894  1.00  0.00     0.039 A 
ENDROOT
BRANCH   2  11
ATOM     11  O   UNL     1     113.545 112.870 109.724  1.00  0.00    -0.389 OA
ATOM     12  H   UNL     1     113.190 113.323 110.534  1.00  0.00     0.211 HD
ENDBRANCH   2  11
BRANCH   3  13
ATOM     13  C   UNL     1     111.415 111.466 111.168  1.00  0.00    -0.001 A 
ATOM     14  C   UNL     1     110.366 112.386 111.334  1.00  0.00     0.057 A 
ATOM     15  C   UNL     1     111.987 110.868 112.303  1.00  0.00     0.012 A 
ATOM     16  C   UNL     1     109.909 112.722 112.617  1.00  0.00     0.157 A 
ATOM     17  C   UNL     1     111.533 111.201 113.582  1.00  0.00     0.050 A 
ATOM     18  C   UNL     1     110.497 112.126 113.746  1.00  0.00     0.157 A 
BRANCH  16  19
ATOM     19  O   UNL     1     108.872 113.640 112.772  1.00  0.00    -0.504 OA
ATOM     20  H   UNL     1     109.036 114.569 113.140  1.00  0.00     0.293 HD
ENDBRANCH  16  19
BRANCH  18  21
ATOM     21  O   UNL     1     110.065 112.439 115.034  1.00  0.00    -0.504 OA
ATOM     22  H   UNL     1     109.836 113.388 115.309  1.00  0.00     0.293 HD
ENDBRANCH  18  21
ENDBRANCH   3  13
BRANCH   9  23
ATOM     23  O   UNL     1     112.721 111.720 104.734  1.00  0.00    -0.507 OA
ATOM     24  H   UNL     1     112.753 111.638 103.724  1.00  0.00     0.293 HD
ENDBRANCH   9  23
BRANCH   7  25
ATOM     25  O   UNL     1     108.732 108.999 104.941  1.00  0.00    -0.508 OA
ATOM     26  H   UNL     1     108.607 109.064 103.937  1.00  0.00     0.293 HD
ENDBRANCH   7  25
TORSDOF 6
ENDMDL
MODEL 6
REMARK VINA RESULT:    -8.634      1.838      6.669
REMARK INTER + INTRA:         -10.670
REMARK INTER:                 -10.291
REMARK INTRA:                  -0.379
REMARK UNBOUND:                -0.269
REMARK SMILES Oc1cc(O)c2c(c1)O[C@H](c1ccc(O)c(O)c1)[C@@H](O)C2
REMARK SMILES IDX 21 1 19 2 10 3 9 4 7 5 8 6 2 7 3 8 4 9 6 10 20 11 11 13
REMARK SMILES IDX 18 14 12 15 16 16 13 17 14 18 17 19 15 21 5 23 1 25
REMARK H PARENT 20 12 17 20 15 22 5 24 1 26
REMARK Flexibility Score: inf
ROOT
ATOM      1  C   UNL     1     112.934 111.775 112.510  1.00  0.00     0.079 C 
ATOM      2  C   UNL     1     112.518 112.185 113.935  1.00  0.00     0.164 C 
ATOM      3  C   UNL     1     111.874 110.987 114.665  1.00  0.00     0.232 C 
ATOM      4  O   UNL     1     110.773 110.487 113.903  1.00  0.00    -0.482 OA
ATOM      5  C   UNL     1     110.782 110.450 112.504  1.00  0.00     0.131 A 
ATOM      6  C   UNL     1     109.748 109.792 111.831  1.00  0.00     0.093 A 
ATOM      7  C   UNL     1     109.736 109.741 110.432  1.00  0.00     0.122 A 
ATOM      8  C   UNL     1     110.764 110.351 109.706  1.00  0.00     0.092 A 
ATOM      9  C   UNL     1     111.805 111.017 110.369  1.00  0.00     0.126 A 
ATOM     10  C   UNL     1     111.808 111.087 111.775  1.00  0.00     0.039 A 
ENDROOT
BRANCH   2  11
ATOM     11  O   UNL     1     113.623 112.686 114.647  1.00  0.00    -0.389 OA
ATOM     12  H   UNL     1     113.427 112.590 115.616  1.00  0.00     0.211 HD
ENDBRANCH   2  11
BRANCH   3  13
ATOM     13  C   UNL     1     111.401 111.381 116.045  1.00  0.00    -0.001 A 
ATOM     14  C   UNL     1     110.389 112.342 116.198  1.00  0.00     0.057 A 
ATOM     15  C   UNL     1     111.932 110.756 117.185  1.00  0.00     0.012 A 
ATOM     16  C   UNL     1     109.926 112.692 117.475  1.00  0.00     0.157 A 
ATOM     17  C   UNL     1     111.472 111.103 118.459  1.00  0.00     0.050 A 
ATOM     18  C   UNL     1     110.473 112.069 118.611  1.00  0.00     0.157 A 
BRANCH  16  19
ATOM     19  O   UNL     1     108.926 113.651 117.618  1.00  0.00    -0.504 OA
ATOM     20  H   UNL     1     107.994 113.405 117.930  1.00  0.00     0.293 HD
ENDBRANCH  16  19
BRANCH  18  21
ATOM     21  O   UNL     1     110.035 112.396 119.893  1.00  0.00    -0.504 OA
ATOM     22  H   UNL     1     109.306 113.082 120.054  1.00  0.00     0.293 HD
ENDBRANCH  18  21
ENDBRANCH   3  13
BRANCH   9  23
ATOM     23  O   UNL     1     112.832 111.608 109.635  1.00  0.00    -0.507 OA
ATOM     24  H   UNL     1     113.119 111.246 108.734  1.00  0.00     0.293 HD
ENDBRANCH   9  23
BRANCH   7  25
ATOM     25  O   UNL     1     108.710 109.087 109.754  1.00  0.00    -0.508 OA
ATOM     26  H   UNL     1     107.751 109.411 109.805  1.00  0.00     0.293 HD
ENDBRANCH   7  25
TORSDOF 6
ENDMDL
MODEL 7
REMARK VINA RESULT:    -8.628      3.200      8.445
REMARK INTER + INTRA:         -10.662
REMARK INTER:                 -10.288
REMARK INTRA:                  -0.375
REMARK UNBOUND:                -0.269
REMARK SMILES Oc1cc(O)c2c(c1)O[C@H](c1ccc(O)c(O)c1)[C@@H](O)C2
REMARK SMILES IDX 21 1 19 2 10 3 9 4 7 5 8 6 2 7 3 8 4 9 6 10 20 11 11 13
REMARK SMILES IDX 18 14 12 15 16 16 13 17 14 18 17 19 15 21 5 23 1 25
REMARK H PARENT 20 12 17 20 15 22 5 24 1 26
REMARK Flexibility Score: inf
ROOT
ATOM      1  C   UNL     1     109.477 110.282 107.479  1.00  0.00     0.079 C 
ATOM      2  C   UNL     1     109.839 109.931 108.934  1.00  0.00     0.164 C 
ATOM      3  C   UNL     1     110.339 111.191 109.674  1.00  0.00     0.232 C 
ATOM      4  O   UNL     1     111.439 111.767 108.967  1.00  0.00    -0.482 OA
ATOM      5  C   UNL     1     111.511 111.780 107.569  1.00  0.00     0.131 A 
ATOM      6  C   UNL     1     112.526 112.509 106.944  1.00  0.00     0.093 A 
ATOM      7  C   UNL     1     112.617 112.537 105.547  1.00  0.00     0.122 A 
ATOM      8  C   UNL     1     111.688 111.833 104.775  1.00  0.00     0.092 A 
ATOM      9  C   UNL     1     110.667 111.094 105.392  1.00  0.00     0.126 A 
ATOM     10  C   UNL     1     110.586 111.048 106.796  1.00  0.00     0.039 A 
ENDROOT
BRANCH   2  11
ATOM     11  O   UNL     1     108.738 109.353 109.592  1.00  0.00    -0.389 OA
ATOM     12  H   UNL     1     108.715 108.389 109.353  1.00  0.00     0.211 HD
ENDBRANCH   2  11
BRANCH   3  13
ATOM     13  C   UNL     1     110.759 110.860 111.087  1.00  0.00    -0.001 A 
ATOM     14  C   UNL     1     111.787 109.932 111.321  1.00  0.00     0.057 A 
ATOM     15  C   UNL     1     110.163 111.512 112.179  1.00  0.00     0.012 A 
ATOM     16  C   UNL     1     112.201 109.641 112.629  1.00  0.00     0.157 A 
ATOM     17  C   UNL     1     110.574 111.224 113.484  1.00  0.00     0.050 A 
ATOM     18  C   UNL     1     111.589 110.291 113.716  1.00  0.00     0.157 A 
BRANCH  16  19
ATOM     19  O   UNL     1     113.218 108.715 112.853  1.00  0.00    -0.504 OA
ATOM     20  H   UNL     1     114.059 108.961 113.361  1.00  0.00     0.293 HD
ENDBRANCH  16  19
BRANCH  18  21
ATOM     21  O   UNL     1     111.977 110.023 115.027  1.00  0.00    -0.504 OA
ATOM     22  H   UNL     1     112.571 110.656 115.552  1.00  0.00     0.293 HD
ENDBRANCH  18  21
ENDBRANCH   3  13
BRANCH   9  23
ATOM     23  O   UNL     1     109.736 110.408 104.612  1.00  0.00    -0.507 OA
ATOM     24  H   UNL     1     109.950 109.510 104.195  1.00  0.00     0.293 HD
ENDBRANCH   9  23
BRANCH   7  25
ATOM     25  O   UNL     1     113.625 113.262 104.916  1.00  0.00    -0.508 OA
ATOM     26  H   UNL     1     114.586 113.222 105.236  1.00  0.00     0.293 HD
ENDBRANCH   7  25
TORSDOF 6
ENDMDL
MODEL 8
REMARK VINA RESULT:    -8.626      1.880      7.125
REMARK INTER + INTRA:         -10.660
REMARK INTER:                 -10.286
REMARK INTRA:                  -0.374
REMARK UNBOUND:                -0.269
REMARK SMILES Oc1cc(O)c2c(c1)O[C@H](c1ccc(O)c(O)c1)[C@@H](O)C2
REMARK SMILES IDX 21 1 19 2 10 3 9 4 7 5 8 6 2 7 3 8 4 9 6 10 20 11 11 13
REMARK SMILES IDX 18 14 12 15 16 16 13 17 14 18 17 19 15 21 5 23 1 25
REMARK H PARENT 20 12 17 20 15 22 5 24 1 26
REMARK Flexibility Score: inf
ROOT
ATOM      1  C   UNL     1     109.468 110.313 112.389  1.00  0.00     0.079 C 
ATOM      2  C   UNL     1     109.833 109.964 113.844  1.00  0.00     0.164 C 
ATOM      3  C   UNL     1     110.370 111.216 114.571  1.00  0.00     0.232 C 
ATOM      4  O   UNL     1     111.478 111.760 113.850  1.00  0.00    -0.482 OA
ATOM      5  C   UNL     1     111.540 111.760 112.452  1.00  0.00     0.131 A 
ATOM      6  C   UNL     1     112.568 112.458 111.813  1.00  0.00     0.093 A 
ATOM      7  C   UNL     1     112.648 112.474 110.415  1.00  0.00     0.122 A 
ATOM      8  C   UNL     1     111.695 111.787 109.657  1.00  0.00     0.092 A 
ATOM      9  C   UNL     1     110.661 111.078 110.287  1.00  0.00     0.126 A 
ATOM     10  C   UNL     1     110.590 111.045 111.692  1.00  0.00     0.039 A 
ENDROOT
BRANCH   2  11
ATOM     11  O   UNL     1     108.723 109.419 114.515  1.00  0.00    -0.389 OA
ATOM     12  H   UNL     1     108.994 109.244 115.455  1.00  0.00     0.211 HD
ENDBRANCH   2  11
BRANCH   3  13
ATOM     13  C   UNL     1     110.793 110.886 115.983  1.00  0.00    -0.001 A 
ATOM     14  C   UNL     1     111.799 109.935 116.217  1.00  0.00     0.057 A 
ATOM     15  C   UNL     1     110.223 111.562 117.075  1.00  0.00     0.012 A 
ATOM     16  C   UNL     1     112.216 109.644 117.524  1.00  0.00     0.157 A 
ATOM     17  C   UNL     1     110.637 111.274 118.378  1.00  0.00     0.050 A 
ATOM     18  C   UNL     1     111.630 110.317 118.609  1.00  0.00     0.157 A 
BRANCH  16  19
ATOM     19  O   UNL     1     113.211 108.694 117.746  1.00  0.00    -0.504 OA
ATOM     20  H   UNL     1     114.194 108.941 117.737  1.00  0.00     0.293 HD
ENDBRANCH  16  19
BRANCH  18  21
ATOM     21  O   UNL     1     112.021 110.051 119.920  1.00  0.00    -0.504 OA
ATOM     22  H   UNL     1     112.263 109.116 120.230  1.00  0.00     0.293 HD
ENDBRANCH  18  21
ENDBRANCH   3  13
BRANCH   9  23
ATOM     23  O   UNL     1     109.708 110.410 109.520  1.00  0.00    -0.507 OA
ATOM     24  H   UNL     1     109.483 109.435 109.681  1.00  0.00     0.293 HD
ENDBRANCH   9  23
BRANCH   7  25
ATOM     25  O   UNL     1     113.669 113.168 109.770  1.00  0.00    -0.508 OA
ATOM     26  H   UNL     1     113.634 114.174 109.655  1.00  0.00     0.293 HD
ENDBRANCH   7  25
TORSDOF 6
ENDMDL
MODEL 9
REMARK VINA RESULT:    -8.534      2.021      7.124
REMARK INTER + INTRA:         -10.550
REMARK INTER:                 -10.180
REMARK INTRA:                  -0.370
REMARK UNBOUND:                -0.269
REMARK SMILES Oc1cc(O)c2c(c1)O[C@H](c1ccc(O)c(O)c1)[C@@H](O)C2
REMARK SMILES IDX 21 1 19 2 10 3 9 4 7 5 8 6 2 7 3 8 4 9 6 10 20 11 11 13
REMARK SMILES IDX 18 14 12 15 16 16 13 17 14 18 17 19 15 21 5 23 1 25
REMARK H PARENT 20 12 17 20 15 22 5 24 1 26
REMARK Flexibility Score: inf
ROOT
ATOM      1  C   UNL     1     112.175 109.432 110.644  1.00  0.00     0.079 C 
ATOM      2  C   UNL     1     112.654 109.880 112.037  1.00  0.00     0.164 C 
ATOM      3  C   UNL     1     111.470 110.455 112.845  1.00  0.00     0.232 C 
ATOM      4  O   UNL     1     110.854 111.519 112.117  1.00  0.00    -0.482 OA
ATOM      5  C   UNL     1     110.724 111.500 110.723  1.00  0.00     0.131 A 
ATOM      6  C   UNL     1     109.962 112.488 110.094  1.00  0.00     0.093 A 
ATOM      7  C   UNL     1     109.817 112.489 108.702  1.00  0.00     0.122 A 
ATOM      8  C   UNL     1     110.438 111.496 107.938  1.00  0.00     0.092 A 
ATOM      9  C   UNL     1     111.209 110.501 108.557  1.00  0.00     0.126 A 
ATOM     10  C   UNL     1     111.373 110.510 109.955  1.00  0.00     0.039 A 
ENDROOT
BRANCH   2  11
ATOM     11  O   UNL     1     113.267 108.811 112.717  1.00  0.00    -0.389 OA
ATOM     12  H   UNL     1     113.604 108.173 112.034  1.00  0.00     0.211 HD
ENDBRANCH   2  11
BRANCH   3  13
ATOM     13  C   UNL     1     111.925 110.958 114.194  1.00  0.00    -0.001 A 
ATOM     14  C   UNL     1     111.495 110.321 115.370  1.00  0.00     0.057 A 
ATOM     15  C   UNL     1     112.823 112.035 114.288  1.00  0.00     0.012 A 
ATOM     16  C   UNL     1     111.937 110.766 116.624  1.00  0.00     0.157 A 
ATOM     17  C   UNL     1     113.264 112.480 115.537  1.00  0.00     0.050 A 
ATOM     18  C   UNL     1     112.825 111.853 116.707  1.00  0.00     0.157 A 
BRANCH  16  19
ATOM     19  O   UNL     1     111.500 110.132 117.786  1.00  0.00    -0.504 OA
ATOM     20  H   UNL     1     111.927 110.319 118.686  1.00  0.00     0.293 HD
ENDBRANCH  16  19
BRANCH  18  21
ATOM     21  O   UNL     1     113.282 112.319 117.938  1.00  0.00    -0.504 OA
ATOM     22  H   UNL     1     113.510 113.295 118.093  1.00  0.00     0.293 HD
ENDBRANCH  18  21
ENDBRANCH   3  13
BRANCH   9  23
ATOM     23  O   UNL     1     111.811 109.507 107.787  1.00  0.00    -0.507 OA
ATOM     24  H   UNL     1     111.756 109.511 106.775  1.00  0.00     0.293 HD
ENDBRANCH   9  23
BRANCH   7  25
ATOM     25  O   UNL     1     109.058 113.470 108.067  1.00  0.00    -0.508 OA
ATOM     26  H   UNL     1     109.398 113.951 107.242  1.00  0.00     0.293 HD
ENDBRANCH   7  25
TORSDOF 6
ENDMDL
