MODEL 1
REMARK VINA RESULT:    16.138      0.000      0.000
REMARK INTER + INTRA:          41.834
REMARK INTER:                  40.667
REMARK INTRA:                   1.167
REMARK UNBOUND:                 1.167
REMARK SMILES CCCCCCCCCCCCCCCCCCCCCCCCCCCC(=O)[O-]
REMARK SMILES IDX 15 1 16 2 17 3 18 4 19 5 20 6 21 7 22 8 23 9 24 10 25 11
REMARK SMILES IDX 26 12 27 13 28 14 29 15 30 16 14 17 13 18 12 19 11 20 10 21
REMARK SMILES IDX 9 22 8 23 7 24 6 25 5 26 4 27 3 28 2 29 1 30
REMARK H PARENT
REMARK Flexibility Score: inf
ROOT
ATOM      1  C   UNL     1      82.346  67.337 104.910  1.00  0.00     0.000 C 
ENDROOT
BRANCH   1   2
ATOM      2  C   UNL     1      81.849  66.969 103.502  1.00  0.00     0.000 C 
BRANCH   2   3
ATOM      3  C   UNL     1      80.865  65.789 103.515  1.00  0.00     0.000 C 
BRANCH   3   4
ATOM      4  C   UNL     1      80.006  65.716 102.241  1.00  0.00     0.000 C 
BRANCH   4   5
ATOM      5  C   UNL     1      79.788  64.263 101.768  1.00  0.00     0.000 C 
BRANCH   5   6
ATOM      6  C   UNL     1      78.395  63.702 102.105  1.00  0.00     0.000 C 
BRANCH   6   7
ATOM      7  C   UNL     1      77.257  64.460 101.402  1.00  0.00     0.000 C 
BRANCH   7   8
ATOM      8  C   UNL     1      76.396  63.540 100.522  1.00  0.00     0.000 C 
BRANCH   8   9
ATOM      9  C   UNL     1      75.706  64.304  99.380  1.00  0.00     0.000 C 
BRANCH   9  10
ATOM     10  C   UNL     1      74.227  63.921  99.209  1.00  0.00     0.000 C 
BRANCH  10  11
ATOM     11  C   UNL     1      73.653  64.269  97.820  1.00  0.00     0.000 C 
BRANCH  11  12
ATOM     12  C   UNL     1      73.780  63.099  96.830  1.00  0.00     0.006 C 
BRANCH  12  13
ATOM     13  C   UNL     1      75.239  62.813  96.451  1.00  0.00     0.053 C 
BRANCH  13  14
ATOM     14  C   UNL     1      75.731  61.536  97.062  1.00  0.00     0.041 C 
ATOM     15  O   UNL     1      76.546  60.808  96.437  1.00  0.00    -0.550 OA
ATOM     16  O   UNL     1      75.266  61.135  98.307  1.00  0.00    -0.550 OA
ENDBRANCH  13  14
ENDBRANCH  12  13
ENDBRANCH  11  12
ENDBRANCH  10  11
ENDBRANCH   9  10
ENDBRANCH   8   9
ENDBRANCH   7   8
ENDBRANCH   6   7
ENDBRANCH   5   6
ENDBRANCH   4   5
ENDBRANCH   3   4
ENDBRANCH   2   3
ENDBRANCH   1   2
BRANCH   1  17
ATOM     17  C   UNL     1      83.841  67.030 105.121  1.00  0.00     0.000 C 
BRANCH  17  18
ATOM     18  C   UNL     1      84.179  66.238 106.398  1.00  0.00     0.000 C 
BRANCH  18  19
ATOM     19  C   UNL     1      85.652  65.812 106.546  1.00  0.00     0.000 C 
BRANCH  19  20
ATOM     20  C   UNL     1      85.910  64.807 107.689  1.00  0.00     0.000 C 
BRANCH  20  21
ATOM     21  C   UNL     1      87.338  64.896 108.262  1.00  0.00     0.000 C 
BRANCH  21  22
ATOM     22  C   UNL     1      87.695  63.695 109.152  1.00  0.00    -0.000 C 
BRANCH  22  23
ATOM     23  C   UNL     1      87.088  63.793 110.560  1.00  0.00    -0.000 C 
BRANCH  23  24
ATOM     24  C   UNL     1      86.981  65.257 111.006  1.00  0.00    -0.000 C 
BRANCH  24  25
ATOM     25  C   UNL     1      88.125  66.100 110.429  1.00  0.00    -0.000 C 
BRANCH  25  26
ATOM     26  C   UNL     1      88.095  67.526 110.999  1.00  0.00    -0.000 C 
BRANCH  26  27
ATOM     27  C   UNL     1      86.723  68.207 110.842  1.00  0.00    -0.000 C 
BRANCH  27  28
ATOM     28  C   UNL     1      85.518  67.250 110.869  1.00  0.00    -0.000 C 
BRANCH  28  29
ATOM     29  C   UNL     1      84.287  67.817 110.147  1.00  0.00    -0.003 C 
ATOM     30  C   UNL     1      83.387  68.583 111.112  1.00  0.00     0.004 C 
ENDBRANCH  28  29
ENDBRANCH  27  28
ENDBRANCH  26  27
ENDBRANCH  25  26
ENDBRANCH  24  25
ENDBRANCH  23  24
ENDBRANCH  22  23
ENDBRANCH  21  22
ENDBRANCH  20  21
ENDBRANCH  19  20
ENDBRANCH  18  19
ENDBRANCH  17  18
ENDBRANCH   1  17
TORSDOF 26
ENDMDL
MODEL 2
REMARK VINA RESULT:    17.244      1.741      3.199
REMARK INTER + INTRA:          44.620
REMARK INTER:                  45.380
REMARK INTRA:                  -0.760
REMARK UNBOUND:                 1.167
REMARK SMILES CCCCCCCCCCCCCCCCCCCCCCCCCCCC(=O)[O-]
REMARK SMILES IDX 15 1 16 2 17 3 18 4 19 5 20 6 21 7 22 8 23 9 24 10 25 11
REMARK SMILES IDX 26 12 27 13 28 14 29 15 30 16 14 17 13 18 12 19 11 20 10 21
REMARK SMILES IDX 9 22 8 23 7 24 6 25 5 26 4 27 3 28 2 29 1 30
REMARK H PARENT
REMARK Flexibility Score: inf
ROOT
ATOM      1  C   UNL     1      81.778  63.821 102.424  1.00  0.00     0.000 C 
ENDROOT
BRANCH   1   2
ATOM      2  C   UNL     1      80.516  63.941 101.553  1.00  0.00     0.000 C 
BRANCH   2   3
ATOM      3  C   UNL     1      79.378  64.690 102.265  1.00  0.00     0.000 C 
BRANCH   3   4
ATOM      4  C   UNL     1      78.073  63.878 102.316  1.00  0.00     0.000 C 
BRANCH   4   5
ATOM      5  C   UNL     1      77.537  63.546 100.908  1.00  0.00     0.000 C 
BRANCH   5   6
ATOM      6  C   UNL     1      76.067  63.946 100.691  1.00  0.00     0.000 C 
BRANCH   6   7
ATOM      7  C   UNL     1      75.524  63.513  99.319  1.00  0.00     0.000 C 
BRANCH   7   8
ATOM      8  C   UNL     1      74.000  63.687  99.212  1.00  0.00     0.000 C 
BRANCH   8   9
ATOM      9  C   UNL     1      73.605  64.720  98.145  1.00  0.00     0.000 C 
BRANCH   9  10
ATOM     10  C   UNL     1      74.494  64.658  96.891  1.00  0.00     0.000 C 
BRANCH  10  11
ATOM     11  C   UNL     1      74.384  63.326  96.119  1.00  0.00     0.000 C 
BRANCH  11  12
ATOM     12  C   UNL     1      75.753  62.825  95.629  1.00  0.00     0.006 C 
BRANCH  12  13
ATOM     13  C   UNL     1      75.869  61.296  95.691  1.00  0.00     0.053 C 
BRANCH  13  14
ATOM     14  C   UNL     1      75.924  60.800  97.105  1.00  0.00     0.041 C 
ATOM     15  O   UNL     1      77.028  60.718  97.704  1.00  0.00    -0.550 OA
ATOM     16  O   UNL     1      74.761  60.400  97.747  1.00  0.00    -0.550 OA
ENDBRANCH  13  14
ENDBRANCH  12  13
ENDBRANCH  11  12
ENDBRANCH  10  11
ENDBRANCH   9  10
ENDBRANCH   8   9
ENDBRANCH   7   8
ENDBRANCH   6   7
ENDBRANCH   5   6
ENDBRANCH   4   5
ENDBRANCH   3   4
ENDBRANCH   2   3
ENDBRANCH   1   2
BRANCH   1  17
ATOM     17  C   UNL     1      82.649  62.604 102.059  1.00  0.00     0.000 C 
BRANCH  17  18
ATOM     18  C   UNL     1      83.672  62.180 103.130  1.00  0.00     0.000 C 
BRANCH  18  19
ATOM     19  C   UNL     1      84.019  63.254 104.179  1.00  0.00     0.000 C 
BRANCH  19  20
ATOM     20  C   UNL     1      82.862  63.596 105.143  1.00  0.00     0.000 C 
BRANCH  20  21
ATOM     21  C   UNL     1      83.346  64.111 106.512  1.00  0.00     0.000 C 
BRANCH  21  22
ATOM     22  C   UNL     1      84.809  64.580 106.484  1.00  0.00    -0.000 C 
BRANCH  22  23
ATOM     23  C   UNL     1      85.786  63.523 107.021  1.00  0.00    -0.000 C 
BRANCH  23  24
ATOM     24  C   UNL     1      86.902  64.180 107.843  1.00  0.00    -0.000 C 
BRANCH  24  25
ATOM     25  C   UNL     1      86.868  63.712 109.302  1.00  0.00    -0.000 C 
BRANCH  25  26
ATOM     26  C   UNL     1      87.351  64.824 110.246  1.00  0.00    -0.000 C 
BRANCH  26  27
ATOM     27  C   UNL     1      86.752  66.201 109.906  1.00  0.00    -0.000 C 
BRANCH  27  28
ATOM     28  C   UNL     1      86.394  67.070 111.125  1.00  0.00    -0.000 C 
BRANCH  28  29
ATOM     29  C   UNL     1      86.633  68.568 110.882  1.00  0.00    -0.003 C 
ATOM     30  C   UNL     1      88.124  68.882 110.810  1.00  0.00     0.004 C 
ENDBRANCH  28  29
ENDBRANCH  27  28
ENDBRANCH  26  27
ENDBRANCH  25  26
ENDBRANCH  24  25
ENDBRANCH  23  24
ENDBRANCH  22  23
ENDBRANCH  21  22
ENDBRANCH  20  21
ENDBRANCH  19  20
ENDBRANCH  18  19
ENDBRANCH  17  18
ENDBRANCH   1  17
TORSDOF 26
ENDMDL
MODEL 3
REMARK VINA RESULT:    17.281      4.826     14.319
REMARK INTER + INTRA:          44.713
REMARK INTER:                  45.993
REMARK INTRA:                  -1.280
REMARK UNBOUND:                 1.167
REMARK SMILES CCCCCCCCCCCCCCCCCCCCCCCCCCCC(=O)[O-]
REMARK SMILES IDX 15 1 16 2 17 3 18 4 19 5 20 6 21 7 22 8 23 9 24 10 25 11
REMARK SMILES IDX 26 12 27 13 28 14 29 15 30 16 14 17 13 18 12 19 11 20 10 21
REMARK SMILES IDX 9 22 8 23 7 24 6 25 5 26 4 27 3 28 2 29 1 30
REMARK H PARENT
REMARK Flexibility Score: inf
ROOT
ATOM      1  C   UNL     1      80.623  63.774 102.167  1.00  0.00     0.000 C 
ENDROOT
BRANCH   1   2
ATOM      2  C   UNL     1      82.115  64.008 102.458  1.00  0.00     0.000 C 
BRANCH   2   3
ATOM      3  C   UNL     1      82.884  62.695 102.675  1.00  0.00     0.000 C 
BRANCH   3   4
ATOM      4  C   UNL     1      84.277  62.916 103.289  1.00  0.00     0.000 C 
BRANCH   4   5
ATOM      5  C   UNL     1      84.481  62.098 104.581  1.00  0.00     0.000 C 
BRANCH   5   6
ATOM      6  C   UNL     1      83.745  62.672 105.804  1.00  0.00     0.000 C 
BRANCH   6   7
ATOM      7  C   UNL     1      84.298  64.034 106.252  1.00  0.00     0.000 C 
BRANCH   7   8
ATOM      8  C   UNL     1      85.812  63.993 106.517  1.00  0.00     0.000 C 
BRANCH   8   9
ATOM      9  C   UNL     1      86.281  65.160 107.401  1.00  0.00     0.000 C 
BRANCH   9  10
ATOM     10  C   UNL     1      85.202  65.636 108.388  1.00  0.00     0.000 C 
BRANCH  10  11
ATOM     11  C   UNL     1      85.766  66.407 109.600  1.00  0.00     0.000 C 
BRANCH  11  12
ATOM     12  C   UNL     1      87.273  66.164 109.791  1.00  0.00     0.006 C 
BRANCH  12  13
ATOM     13  C   UNL     1      87.575  65.347 111.054  1.00  0.00     0.053 C 
BRANCH  13  14
ATOM     14  C   UNL     1      87.178  63.910 110.894  1.00  0.00     0.041 C 
ATOM     15  O   UNL     1      88.060  63.021 110.764  1.00  0.00    -0.550 OA
ATOM     16  O   UNL     1      85.836  63.559 110.859  1.00  0.00    -0.550 OA
ENDBRANCH  13  14
ENDBRANCH  12  13
ENDBRANCH  11  12
ENDBRANCH  10  11
ENDBRANCH   9  10
ENDBRANCH   8   9
ENDBRANCH   7   8
ENDBRANCH   6   7
ENDBRANCH   5   6
ENDBRANCH   4   5
ENDBRANCH   3   4
ENDBRANCH   2   3
ENDBRANCH   1   2
BRANCH   1  17
ATOM     17  C   UNL     1      79.887  65.055 101.729  1.00  0.00     0.000 C 
BRANCH  17  18
ATOM     18  C   UNL     1      78.436  65.185 102.230  1.00  0.00     0.000 C 
BRANCH  18  19
ATOM     19  C   UNL     1      77.680  63.857 102.430  1.00  0.00     0.000 C 
BRANCH  19  20
ATOM     20  C   UNL     1      76.699  63.508 101.290  1.00  0.00     0.000 C 
BRANCH  20  21
ATOM     21  C   UNL     1      77.324  63.649  99.889  1.00  0.00     0.000 C 
BRANCH  21  22
ATOM     22  C   UNL     1      76.314  63.390  98.760  1.00  0.00    -0.000 C 
BRANCH  22  23
ATOM     23  C   UNL     1      74.862  63.343  99.258  1.00  0.00    -0.000 C 
BRANCH  23  24
ATOM     24  C   UNL     1      74.083  64.575  98.781  1.00  0.00    -0.000 C 
BRANCH  24  25
ATOM     25  C   UNL     1      74.433  64.929  97.331  1.00  0.00    -0.000 C 
BRANCH  25  26
ATOM     26  C   UNL     1      74.074  63.775  96.383  1.00  0.00    -0.000 C 
BRANCH  26  27
ATOM     27  C   UNL     1      75.216  63.415  95.416  1.00  0.00    -0.000 C 
BRANCH  27  28
ATOM     28  C   UNL     1      76.124  62.263  95.885  1.00  0.00    -0.000 C 
BRANCH  28  29
ATOM     29  C   UNL     1      75.334  61.049  96.394  1.00  0.00    -0.003 C 
ATOM     30  C   UNL     1      76.251  60.052  97.098  1.00  0.00     0.004 C 
ENDBRANCH  28  29
ENDBRANCH  27  28
ENDBRANCH  26  27
ENDBRANCH  25  26
ENDBRANCH  24  25
ENDBRANCH  23  24
ENDBRANCH  22  23
ENDBRANCH  21  22
ENDBRANCH  20  21
ENDBRANCH  19  20
ENDBRANCH  18  19
ENDBRANCH  17  18
ENDBRANCH   1  17
TORSDOF 26
ENDMDL
MODEL 4
REMARK VINA RESULT:    17.310      1.896      4.098
REMARK INTER + INTRA:          44.787
REMARK INTER:                  45.051
REMARK INTRA:                  -0.264
REMARK UNBOUND:                 1.167
REMARK SMILES CCCCCCCCCCCCCCCCCCCCCCCCCCCC(=O)[O-]
REMARK SMILES IDX 15 1 16 2 17 3 18 4 19 5 20 6 21 7 22 8 23 9 24 10 25 11
REMARK SMILES IDX 26 12 27 13 28 14 29 15 30 16 14 17 13 18 12 19 11 20 10 21
REMARK SMILES IDX 9 22 8 23 7 24 6 25 5 26 4 27 3 28 2 29 1 30
REMARK H PARENT
REMARK Flexibility Score: inf
ROOT
ATOM      1  C   UNL     1      79.943  64.678 101.905  1.00  0.00     0.000 C 
ENDROOT
BRANCH   1   2
ATOM      2  C   UNL     1      78.823  63.978 102.693  1.00  0.00     0.000 C 
BRANCH   2   3
ATOM      3  C   UNL     1      77.564  64.850 102.828  1.00  0.00     0.000 C 
BRANCH   3   4
ATOM      4  C   UNL     1      76.410  64.372 101.930  1.00  0.00     0.000 C 
BRANCH   4   5
ATOM      5  C   UNL     1      76.885  63.375 100.852  1.00  0.00     0.000 C 
BRANCH   5   6
ATOM      6  C   UNL     1      75.893  63.195  99.690  1.00  0.00     0.000 C 
BRANCH   6   7
ATOM      7  C   UNL     1      74.741  64.212  99.722  1.00  0.00     0.000 C 
BRANCH   7   8
ATOM      8  C   UNL     1      74.162  64.486  98.324  1.00  0.00     0.000 C 
BRANCH   8   9
ATOM      9  C   UNL     1      75.195  64.249  97.210  1.00  0.00     0.000 C 
BRANCH   9  10
ATOM     10  C   UNL     1      74.549  63.960  95.844  1.00  0.00     0.000 C 
BRANCH  10  11
ATOM     11  C   UNL     1      75.515  63.322  94.825  1.00  0.00     0.000 C 
BRANCH  11  12
ATOM     12  C   UNL     1      76.227  62.084  95.396  1.00  0.00     0.006 C 
BRANCH  12  13
ATOM     13  C   UNL     1      75.241  61.059  95.970  1.00  0.00     0.053 C 
BRANCH  13  14
ATOM     14  C   UNL     1      75.839  60.292  97.111  1.00  0.00     0.041 C 
ATOM     15  O   UNL     1      75.107  59.877  98.047  1.00  0.00    -0.550 OA
ATOM     16  O   UNL     1      77.208  60.066  97.156  1.00  0.00    -0.550 OA
ENDBRANCH  13  14
ENDBRANCH  12  13
ENDBRANCH  11  12
ENDBRANCH  10  11
ENDBRANCH   9  10
ENDBRANCH   8   9
ENDBRANCH   7   8
ENDBRANCH   6   7
ENDBRANCH   5   6
ENDBRANCH   4   5
ENDBRANCH   3   4
ENDBRANCH   2   3
ENDBRANCH   1   2
BRANCH   1  17
ATOM     17  C   UNL     1      81.337  64.086 102.185  1.00  0.00     0.000 C 
BRANCH  17  18
ATOM     18  C   UNL     1      81.420  62.548 102.149  1.00  0.00     0.000 C 
BRANCH  18  19
ATOM     19  C   UNL     1      82.843  61.959 102.152  1.00  0.00     0.000 C 
BRANCH  19  20
ATOM     20  C   UNL     1      83.927  62.923 102.682  1.00  0.00     0.000 C 
BRANCH  20  21
ATOM     21  C   UNL     1      84.531  62.474 104.027  1.00  0.00     0.000 C 
BRANCH  21  22
ATOM     22  C   UNL     1      83.901  63.195 105.229  1.00  0.00    -0.000 C 
BRANCH  22  23
ATOM     23  C   UNL     1      84.917  63.505 106.339  1.00  0.00    -0.000 C 
BRANCH  23  24
ATOM     24  C   UNL     1      84.625  64.868 106.979  1.00  0.00    -0.000 C 
BRANCH  24  25
ATOM     25  C   UNL     1      85.917  65.653 107.232  1.00  0.00    -0.000 C 
BRANCH  25  26
ATOM     26  C   UNL     1      86.495  65.325 108.617  1.00  0.00    -0.000 C 
BRANCH  26  27
ATOM     27  C   UNL     1      85.822  66.121 109.751  1.00  0.00    -0.000 C 
BRANCH  27  28
ATOM     28  C   UNL     1      86.727  66.417 110.960  1.00  0.00    -0.000 C 
BRANCH  28  29
ATOM     29  C   UNL     1      87.918  65.453 111.067  1.00  0.00    -0.003 C 
ATOM     30  C   UNL     1      87.567  64.081 110.498  1.00  0.00     0.004 C 
ENDBRANCH  28  29
ENDBRANCH  27  28
ENDBRANCH  26  27
ENDBRANCH  25  26
ENDBRANCH  24  25
ENDBRANCH  23  24
ENDBRANCH  22  23
ENDBRANCH  21  22
ENDBRANCH  20  21
ENDBRANCH  19  20
ENDBRANCH  18  19
ENDBRANCH  17  18
ENDBRANCH   1  17
TORSDOF 26
ENDMDL
MODEL 5
REMARK VINA RESULT:    17.656      2.099      4.351
REMARK INTER + INTRA:          45.659
REMARK INTER:                  45.877
REMARK INTRA:                  -0.217
REMARK UNBOUND:                 1.167
REMARK SMILES CCCCCCCCCCCCCCCCCCCCCCCCCCCC(=O)[O-]
REMARK SMILES IDX 15 1 16 2 17 3 18 4 19 5 20 6 21 7 22 8 23 9 24 10 25 11
REMARK SMILES IDX 26 12 27 13 28 14 29 15 30 16 14 17 13 18 12 19 11 20 10 21
REMARK SMILES IDX 9 22 8 23 7 24 6 25 5 26 4 27 3 28 2 29 1 30
REMARK H PARENT
REMARK Flexibility Score: inf
ROOT
ATOM      1  C   UNL     1      79.388  64.327 101.694  1.00  0.00     0.000 C 
ENDROOT
BRANCH   1   2
ATOM      2  C   UNL     1      78.147  64.453 102.594  1.00  0.00     0.000 C 
BRANCH   2   3
ATOM      3  C   UNL     1      76.906  63.784 101.981  1.00  0.00     0.000 C 
BRANCH   3   4
ATOM      4  C   UNL     1      76.986  63.672 100.449  1.00  0.00     0.000 C 
BRANCH   4   5
ATOM      5  C   UNL     1      75.628  63.294  99.821  1.00  0.00     0.000 C 
BRANCH   5   6
ATOM      6  C   UNL     1      75.746  62.407  98.569  1.00  0.00     0.000 C 
BRANCH   6   7
ATOM      7  C   UNL     1      74.895  61.130  98.657  1.00  0.00     0.000 C 
BRANCH   7   8
ATOM      8  C   UNL     1      75.139  60.182  97.472  1.00  0.00     0.000 C 
BRANCH   8   9
ATOM      9  C   UNL     1      76.631  60.055  97.125  1.00  0.00     0.000 C 
BRANCH   9  10
ATOM     10  C   UNL     1      76.980  60.643  95.748  1.00  0.00     0.000 C 
BRANCH  10  11
ATOM     11  C   UNL     1      75.818  61.417  95.092  1.00  0.00     0.000 C 
BRANCH  11  12
ATOM     12  C   UNL     1      75.883  62.925  95.390  1.00  0.00     0.006 C 
BRANCH  12  13
ATOM     13  C   UNL     1      74.491  63.563  95.471  1.00  0.00     0.053 C 
BRANCH  13  14
ATOM     14  C   UNL     1      74.277  64.264  96.779  1.00  0.00     0.041 C 
ATOM     15  O   UNL     1      73.267  63.999  97.481  1.00  0.00    -0.550 OA
ATOM     16  O   UNL     1      75.176  65.232  97.205  1.00  0.00    -0.550 OA
ENDBRANCH  13  14
ENDBRANCH  12  13
ENDBRANCH  11  12
ENDBRANCH  10  11
ENDBRANCH   9  10
ENDBRANCH   8   9
ENDBRANCH   7   8
ENDBRANCH   6   7
ENDBRANCH   5   6
ENDBRANCH   4   5
ENDBRANCH   3   4
ENDBRANCH   2   3
ENDBRANCH   1   2
BRANCH   1  17
ATOM     17  C   UNL     1      80.709  64.540 102.457  1.00  0.00     0.000 C 
BRANCH  17  18
ATOM     18  C   UNL     1      81.730  63.391 102.341  1.00  0.00     0.000 C 
BRANCH  18  19
ATOM     19  C   UNL     1      83.181  63.753 102.712  1.00  0.00     0.000 C 
BRANCH  19  20
ATOM     20  C   UNL     1      84.018  62.564 103.232  1.00  0.00     0.000 C 
BRANCH  20  21
ATOM     21  C   UNL     1      84.001  62.437 104.767  1.00  0.00     0.000 C 
BRANCH  21  22
ATOM     22  C   UNL     1      85.271  63.000 105.423  1.00  0.00    -0.000 C 
BRANCH  22  23
ATOM     23  C   UNL     1      85.006  64.266 106.251  1.00  0.00    -0.000 C 
BRANCH  23  24
ATOM     24  C   UNL     1      85.367  64.039 107.724  1.00  0.00    -0.000 C 
BRANCH  24  25
ATOM     25  C   UNL     1      86.619  63.166 107.863  1.00  0.00    -0.000 C 
BRANCH  25  26
ATOM     26  C   UNL     1      87.526  63.683 108.989  1.00  0.00    -0.000 C 
BRANCH  26  27
ATOM     27  C   UNL     1      87.244  65.151 109.360  1.00  0.00    -0.000 C 
BRANCH  27  28
ATOM     28  C   UNL     1      86.345  65.346 110.594  1.00  0.00    -0.000 C 
BRANCH  28  29
ATOM     29  C   UNL     1      86.358  66.788 111.122  1.00  0.00    -0.003 C 
ATOM     30  C   UNL     1      84.962  67.403 111.075  1.00  0.00     0.004 C 
ENDBRANCH  28  29
ENDBRANCH  27  28
ENDBRANCH  26  27
ENDBRANCH  25  26
ENDBRANCH  24  25
ENDBRANCH  23  24
ENDBRANCH  22  23
ENDBRANCH  21  22
ENDBRANCH  20  21
ENDBRANCH  19  20
ENDBRANCH  18  19
ENDBRANCH  17  18
ENDBRANCH   1  17
TORSDOF 26
ENDMDL
MODEL 6
REMARK VINA RESULT:    17.802      3.842     12.159
REMARK INTER + INTRA:          46.027
REMARK INTER:                  46.391
REMARK INTRA:                  -0.363
REMARK UNBOUND:                 1.167
REMARK SMILES CCCCCCCCCCCCCCCCCCCCCCCCCCCC(=O)[O-]
REMARK SMILES IDX 15 1 16 2 17 3 18 4 19 5 20 6 21 7 22 8 23 9 24 10 25 11
REMARK SMILES IDX 26 12 27 13 28 14 29 15 30 16 14 17 13 18 12 19 11 20 10 21
REMARK SMILES IDX 9 22 8 23 7 24 6 25 5 26 4 27 3 28 2 29 1 30
REMARK H PARENT
REMARK Flexibility Score: inf
ROOT
ATOM      1  C   UNL     1      82.221  66.100 104.072  1.00  0.00     0.000 C 
ENDROOT
BRANCH   1   2
ATOM      2  C   UNL     1      82.633  67.516 104.510  1.00  0.00     0.000 C 
BRANCH   2   3
ATOM      3  C   UNL     1      83.239  67.542 105.923  1.00  0.00     0.000 C 
BRANCH   3   4
ATOM      4  C   UNL     1      84.620  66.867 105.989  1.00  0.00     0.000 C 
BRANCH   4   5
ATOM      5  C   UNL     1      84.620  65.628 106.909  1.00  0.00     0.000 C 
BRANCH   5   6
ATOM      6  C   UNL     1      83.754  64.467 106.388  1.00  0.00     0.000 C 
BRANCH   6   7
ATOM      7  C   UNL     1      84.540  63.482 105.507  1.00  0.00     0.000 C 
BRANCH   7   8
ATOM      8  C   UNL     1      83.620  62.503 104.759  1.00  0.00     0.000 C 
BRANCH   8   9
ATOM      9  C   UNL     1      84.231  62.029 103.430  1.00  0.00     0.000 C 
BRANCH   9  10
ATOM     10  C   UNL     1      83.766  62.862 102.224  1.00  0.00     0.000 C 
BRANCH  10  11
ATOM     11  C   UNL     1      84.626  62.656 100.960  1.00  0.00     0.000 C 
BRANCH  11  12
ATOM     12  C   UNL     1      85.646  63.789 100.760  1.00  0.00     0.006 C 
BRANCH  12  13
ATOM     13  C   UNL     1      85.741  64.235  99.295  1.00  0.00     0.053 C 
BRANCH  13  14
ATOM     14  C   UNL     1      86.046  63.085  98.383  1.00  0.00     0.041 C 
ATOM     15  O   UNL     1      86.666  62.080  98.818  1.00  0.00    -0.550 OA
ATOM     16  O   UNL     1      85.673  63.139  97.047  1.00  0.00    -0.550 OA
ENDBRANCH  13  14
ENDBRANCH  12  13
ENDBRANCH  11  12
ENDBRANCH  10  11
ENDBRANCH   9  10
ENDBRANCH   8   9
ENDBRANCH   7   8
ENDBRANCH   6   7
ENDBRANCH   5   6
ENDBRANCH   4   5
ENDBRANCH   3   4
ENDBRANCH   2   3
ENDBRANCH   1   2
BRANCH   1  17
ATOM     17  C   UNL     1      81.205  66.099 102.915  1.00  0.00     0.000 C 
BRANCH  17  18
ATOM     18  C   UNL     1      80.677  64.712 102.502  1.00  0.00     0.000 C 
BRANCH  18  19
ATOM     19  C   UNL     1      79.321  64.708 101.770  1.00  0.00     0.000 C 
BRANCH  19  20
ATOM     20  C   UNL     1      78.154  64.130 102.600  1.00  0.00     0.000 C 
BRANCH  20  21
ATOM     21  C   UNL     1      76.777  64.357 101.948  1.00  0.00     0.000 C 
BRANCH  21  22
ATOM     22  C   UNL     1      76.489  63.364 100.811  1.00  0.00    -0.000 C 
BRANCH  22  23
ATOM     23  C   UNL     1      75.324  63.806  99.913  1.00  0.00    -0.000 C 
BRANCH  23  24
ATOM     24  C   UNL     1      75.592  63.431  98.450  1.00  0.00    -0.000 C 
BRANCH  24  25
ATOM     25  C   UNL     1      74.865  64.380  97.489  1.00  0.00    -0.000 C 
BRANCH  25  26
ATOM     26  C   UNL     1      74.770  63.769  96.083  1.00  0.00    -0.000 C 
BRANCH  26  27
ATOM     27  C   UNL     1      75.594  62.477  95.933  1.00  0.00    -0.000 C 
BRANCH  27  28
ATOM     28  C   UNL     1      75.192  61.337  96.886  1.00  0.00    -0.000 C 
BRANCH  28  29
ATOM     29  C   UNL     1      76.288  60.272  97.041  1.00  0.00    -0.003 C 
ATOM     30  C   UNL     1      77.083  60.110  95.748  1.00  0.00     0.004 C 
ENDBRANCH  28  29
ENDBRANCH  27  28
ENDBRANCH  26  27
ENDBRANCH  25  26
ENDBRANCH  24  25
ENDBRANCH  23  24
ENDBRANCH  22  23
ENDBRANCH  21  22
ENDBRANCH  20  21
ENDBRANCH  19  20
ENDBRANCH  18  19
ENDBRANCH  17  18
ENDBRANCH   1  17
TORSDOF 26
ENDMDL
MODEL 7
REMARK VINA RESULT:    18.027      4.650     12.702
REMARK INTER + INTRA:          46.593
REMARK INTER:                  45.750
REMARK INTRA:                   0.844
REMARK UNBOUND:                 1.167
REMARK SMILES CCCCCCCCCCCCCCCCCCCCCCCCCCCC(=O)[O-]
REMARK SMILES IDX 15 1 16 2 17 3 18 4 19 5 20 6 21 7 22 8 23 9 24 10 25 11
REMARK SMILES IDX 26 12 27 13 28 14 29 15 30 16 14 17 13 18 12 19 11 20 10 21
REMARK SMILES IDX 9 22 8 23 7 24 6 25 5 26 4 27 3 28 2 29 1 30
REMARK H PARENT
REMARK Flexibility Score: inf
ROOT
ATOM      1  C   UNL     1      79.440  64.347 101.908  1.00  0.00     0.000 C 
ENDROOT
BRANCH   1   2
ATOM      2  C   UNL     1      80.335  65.598 101.956  1.00  0.00     0.000 C 
BRANCH   2   3
ATOM      3  C   UNL     1      80.845  65.903 103.373  1.00  0.00     0.000 C 
BRANCH   3   4
ATOM      4  C   UNL     1      81.835  67.079 103.409  1.00  0.00     0.000 C 
BRANCH   4   5
ATOM      5  C   UNL     1      82.458  67.274 104.807  1.00  0.00     0.000 C 
BRANCH   5   6
ATOM      6  C   UNL     1      83.266  66.062 105.303  1.00  0.00     0.000 C 
BRANCH   6   7
ATOM      7  C   UNL     1      83.211  64.868 104.337  1.00  0.00     0.000 C 
BRANCH   7   8
ATOM      8  C   UNL     1      83.574  63.542 105.024  1.00  0.00     0.000 C 
BRANCH   8   9
ATOM      9  C   UNL     1      84.267  62.560 104.065  1.00  0.00     0.000 C 
BRANCH   9  10
ATOM     10  C   UNL     1      83.321  62.004 102.987  1.00  0.00     0.000 C 
BRANCH  10  11
ATOM     11  C   UNL     1      83.543  62.619 101.590  1.00  0.00     0.000 C 
BRANCH  11  12
ATOM     12  C   UNL     1      85.022  62.950 101.330  1.00  0.00     0.006 C 
BRANCH  12  13
ATOM     13  C   UNL     1      85.489  62.479  99.946  1.00  0.00     0.053 C 
BRANCH  13  14
ATOM     14  C   UNL     1      85.636  63.623  98.990  1.00  0.00     0.041 C 
ATOM     15  O   UNL     1      85.826  64.790  99.424  1.00  0.00    -0.550 OA
ATOM     16  O   UNL     1      85.533  63.405  97.623  1.00  0.00    -0.550 OA
ENDBRANCH  13  14
ENDBRANCH  12  13
ENDBRANCH  11  12
ENDBRANCH  10  11
ENDBRANCH   9  10
ENDBRANCH   8   9
ENDBRANCH   7   8
ENDBRANCH   6   7
ENDBRANCH   5   6
ENDBRANCH   4   5
ENDBRANCH   3   4
ENDBRANCH   2   3
ENDBRANCH   1   2
BRANCH   1  17
ATOM     17  C   UNL     1      77.984  64.633 102.321  1.00  0.00     0.000 C 
BRANCH  17  18
ATOM     18  C   UNL     1      76.956  63.569 101.890  1.00  0.00     0.000 C 
BRANCH  18  19
ATOM     19  C   UNL     1      76.950  63.220 100.389  1.00  0.00     0.000 C 
BRANCH  19  20
ATOM     20  C   UNL     1      75.724  63.756  99.618  1.00  0.00     0.000 C 
BRANCH  20  21
ATOM     21  C   UNL     1      75.296  62.844  98.452  1.00  0.00     0.000 C 
BRANCH  21  22
ATOM     22  C   UNL     1      74.829  61.459  98.924  1.00  0.00    -0.000 C 
BRANCH  22  23
ATOM     23  C   UNL     1      75.230  60.332  97.961  1.00  0.00    -0.000 C 
BRANCH  23  24
ATOM     24  C   UNL     1      76.647  60.559  97.417  1.00  0.00    -0.000 C 
BRANCH  24  25
ATOM     25  C   UNL     1      76.715  60.286  95.910  1.00  0.00    -0.000 C 
BRANCH  25  26
ATOM     26  C   UNL     1      75.838  61.280  95.133  1.00  0.00    -0.000 C 
BRANCH  26  27
ATOM     27  C   UNL     1      76.219  62.748  95.393  1.00  0.00    -0.000 C 
BRANCH  27  28
ATOM     28  C   UNL     1      75.063  63.754  95.244  1.00  0.00    -0.000 C 
BRANCH  28  29
ATOM     29  C   UNL     1      74.301  63.988  96.556  1.00  0.00    -0.003 C 
ATOM     30  C   UNL     1      74.362  65.455  96.974  1.00  0.00     0.004 C 
ENDBRANCH  28  29
ENDBRANCH  27  28
ENDBRANCH  26  27
ENDBRANCH  25  26
ENDBRANCH  24  25
ENDBRANCH  23  24
ENDBRANCH  22  23
ENDBRANCH  21  22
ENDBRANCH  20  21
ENDBRANCH  19  20
ENDBRANCH  18  19
ENDBRANCH  17  18
ENDBRANCH   1  17
TORSDOF 26
ENDMDL
MODEL 8
REMARK VINA RESULT:    18.166      2.967      5.955
REMARK INTER + INTRA:          46.944
REMARK INTER:                  48.911
REMARK INTRA:                  -1.967
REMARK UNBOUND:                 1.167
REMARK SMILES CCCCCCCCCCCCCCCCCCCCCCCCCCCC(=O)[O-]
REMARK SMILES IDX 15 1 16 2 17 3 18 4 19 5 20 6 21 7 22 8 23 9 24 10 25 11
REMARK SMILES IDX 26 12 27 13 28 14 29 15 30 16 14 17 13 18 12 19 11 20 10 21
REMARK SMILES IDX 9 22 8 23 7 24 6 25 5 26 4 27 3 28 2 29 1 30
REMARK H PARENT
REMARK Flexibility Score: inf
ROOT
ATOM      1  C   UNL     1      81.606  66.449 103.232  1.00  0.00     0.000 C 
ENDROOT
BRANCH   1   2
ATOM      2  C   UNL     1      80.603  65.285 103.308  1.00  0.00     0.000 C 
BRANCH   2   3
ATOM      3  C   UNL     1      79.457  65.429 102.294  1.00  0.00     0.000 C 
BRANCH   3   4
ATOM      4  C   UNL     1      78.863  64.075 101.871  1.00  0.00     0.000 C 
BRANCH   4   5
ATOM      5  C   UNL     1      78.120  64.161 100.521  1.00  0.00     0.000 C 
BRANCH   5   6
ATOM      6  C   UNL     1      76.848  63.297 100.454  1.00  0.00     0.000 C 
BRANCH   6   7
ATOM      7  C   UNL     1      75.983  63.597  99.220  1.00  0.00     0.000 C 
BRANCH   7   8
ATOM      8  C   UNL     1      74.533  63.947  99.593  1.00  0.00     0.000 C 
BRANCH   8   9
ATOM      9  C   UNL     1      73.710  64.395  98.373  1.00  0.00     0.000 C 
BRANCH   9  10
ATOM     10  C   UNL     1      74.578  64.691  97.139  1.00  0.00     0.000 C 
BRANCH  10  11
ATOM     11  C   UNL     1      74.554  63.570  96.080  1.00  0.00     0.000 C 
BRANCH  11  12
ATOM     12  C   UNL     1      75.890  62.812  96.006  1.00  0.00     0.006 C 
BRANCH  12  13
ATOM     13  C   UNL     1      75.692  61.301  95.830  1.00  0.00     0.053 C 
BRANCH  13  14
ATOM     14  C   UNL     1      75.910  60.558  97.114  1.00  0.00     0.041 C 
ATOM     15  O   UNL     1      76.962  59.889  97.287  1.00  0.00    -0.550 OA
ATOM     16  O   UNL     1      74.938  60.581  98.105  1.00  0.00    -0.550 OA
ENDBRANCH  13  14
ENDBRANCH  12  13
ENDBRANCH  11  12
ENDBRANCH  10  11
ENDBRANCH   9  10
ENDBRANCH   8   9
ENDBRANCH   7   8
ENDBRANCH   6   7
ENDBRANCH   5   6
ENDBRANCH   4   5
ENDBRANCH   3   4
ENDBRANCH   2   3
ENDBRANCH   1   2
BRANCH   1  17
ATOM     17  C   UNL     1      81.907  67.074 104.608  1.00  0.00     0.000 C 
BRANCH  17  18
ATOM     18  C   UNL     1      83.276  67.772 104.729  1.00  0.00     0.000 C 
BRANCH  18  19
ATOM     19  C   UNL     1      84.408  66.913 105.326  1.00  0.00     0.000 C 
BRANCH  19  20
ATOM     20  C   UNL     1      83.991  66.080 106.557  1.00  0.00     0.000 C 
BRANCH  20  21
ATOM     21  C   UNL     1      84.479  64.620 106.494  1.00  0.00     0.000 C 
BRANCH  21  22
ATOM     22  C   UNL     1      83.766  63.804 105.405  1.00  0.00    -0.000 C 
BRANCH  22  23
ATOM     23  C   UNL     1      84.381  62.411 105.202  1.00  0.00    -0.000 C 
BRANCH  23  24
ATOM     24  C   UNL     1      84.291  61.985 103.731  1.00  0.00    -0.000 C 
BRANCH  24  25
ATOM     25  C   UNL     1      83.485  62.996 102.907  1.00  0.00    -0.000 C 
BRANCH  25  26
ATOM     26  C   UNL     1      83.010  62.371 101.586  1.00  0.00    -0.000 C 
BRANCH  26  27
ATOM     27  C   UNL     1      84.145  62.198 100.561  1.00  0.00    -0.000 C 
BRANCH  27  28
ATOM     28  C   UNL     1      85.341  63.149 100.752  1.00  0.00    -0.000 C 
BRANCH  28  29
ATOM     29  C   UNL     1      85.722  63.896  99.465  1.00  0.00    -0.003 C 
ATOM     30  C   UNL     1      86.030  62.919  98.333  1.00  0.00     0.004 C 
ENDBRANCH  28  29
ENDBRANCH  27  28
ENDBRANCH  26  27
ENDBRANCH  25  26
ENDBRANCH  24  25
ENDBRANCH  23  24
ENDBRANCH  22  23
ENDBRANCH  21  22
ENDBRANCH  20  21
ENDBRANCH  19  20
ENDBRANCH  18  19
ENDBRANCH  17  18
ENDBRANCH   1  17
TORSDOF 26
ENDMDL
MODEL 9
REMARK VINA RESULT:    18.311      3.810      6.829
REMARK INTER + INTRA:          47.311
REMARK INTER:                  47.670
REMARK INTRA:                  -0.359
REMARK UNBOUND:                 1.167
REMARK SMILES CCCCCCCCCCCCCCCCCCCCCCCCCCCC(=O)[O-]
REMARK SMILES IDX 15 1 16 2 17 3 18 4 19 5 20 6 21 7 22 8 23 9 24 10 25 11
REMARK SMILES IDX 26 12 27 13 28 14 29 15 30 16 14 17 13 18 12 19 11 20 10 21
REMARK SMILES IDX 9 22 8 23 7 24 6 25 5 26 4 27 3 28 2 29 1 30
REMARK H PARENT
REMARK Flexibility Score: inf
ROOT
ATOM      1  C   UNL     1      79.734  64.867 101.947  1.00  0.00     0.000 C 
ENDROOT
BRANCH   1   2
ATOM      2  C   UNL     1      78.226  64.693 102.199  1.00  0.00     0.000 C 
BRANCH   2   3
ATOM      3  C   UNL     1      77.645  63.471 101.471  1.00  0.00     0.000 C 
BRANCH   3   4
ATOM      4  C   UNL     1      76.407  63.815 100.625  1.00  0.00     0.000 C 
BRANCH   4   5
ATOM      5  C   UNL     1      76.480  63.203  99.211  1.00  0.00     0.000 C 
BRANCH   5   6
ATOM      6  C   UNL     1      75.355  62.197  98.909  1.00  0.00     0.000 C 
BRANCH   6   7
ATOM      7  C   UNL     1      75.876  60.864  98.348  1.00  0.00     0.000 C 
BRANCH   7   8
ATOM      8  C   UNL     1      75.070  60.387  97.129  1.00  0.00     0.000 C 
BRANCH   8   9
ATOM      9  C   UNL     1      75.803  60.656  95.804  1.00  0.00     0.000 C 
BRANCH   9  10
ATOM     10  C   UNL     1      76.392  62.075  95.721  1.00  0.00     0.000 C 
BRANCH  10  11
ATOM     11  C   UNL     1      75.489  63.078  94.974  1.00  0.00     0.000 C 
BRANCH  11  12
ATOM     12  C   UNL     1      75.002  64.214  95.889  1.00  0.00     0.006 C 
BRANCH  12  13
ATOM     13  C   UNL     1      73.856  63.769  96.808  1.00  0.00     0.053 C 
BRANCH  13  14
ATOM     14  C   UNL     1      73.790  64.600  98.054  1.00  0.00     0.041 C 
ATOM     15  O   UNL     1      74.579  65.568  98.212  1.00  0.00    -0.550 OA
ATOM     16  O   UNL     1      72.878  64.286  99.052  1.00  0.00    -0.550 OA
ENDBRANCH  13  14
ENDBRANCH  12  13
ENDBRANCH  11  12
ENDBRANCH  10  11
ENDBRANCH   9  10
ENDBRANCH   8   9
ENDBRANCH   7   8
ENDBRANCH   6   7
ENDBRANCH   5   6
ENDBRANCH   4   5
ENDBRANCH   3   4
ENDBRANCH   2   3
ENDBRANCH   1   2
BRANCH   1  17
ATOM     17  C   UNL     1      80.511  65.288 103.209  1.00  0.00     0.000 C 
BRANCH  17  18
ATOM     18  C   UNL     1      81.390  66.544 103.053  1.00  0.00     0.000 C 
BRANCH  18  19
ATOM     19  C   UNL     1      81.818  67.223 104.368  1.00  0.00     0.000 C 
BRANCH  19  20
ATOM     20  C   UNL     1      83.328  67.115 104.675  1.00  0.00     0.000 C 
BRANCH  20  21
ATOM     21  C   UNL     1      83.679  65.913 105.573  1.00  0.00     0.000 C 
BRANCH  21  22
ATOM     22  C   UNL     1      83.188  64.577 104.992  1.00  0.00    -0.000 C 
BRANCH  22  23
ATOM     23  C   UNL     1      84.110  63.399 105.343  1.00  0.00    -0.000 C 
BRANCH  23  24
ATOM     24  C   UNL     1      84.286  62.469 104.136  1.00  0.00    -0.000 C 
BRANCH  24  25
ATOM     25  C   UNL     1      83.425  62.923 102.952  1.00  0.00    -0.000 C 
BRANCH  25  26
ATOM     26  C   UNL     1      83.863  62.224 101.656  1.00  0.00    -0.000 C 
BRANCH  26  27
ATOM     27  C   UNL     1      84.693  63.135 100.734  1.00  0.00    -0.000 C 
BRANCH  27  28
ATOM     28  C   UNL     1      85.606  62.394  99.741  1.00  0.00    -0.000 C 
BRANCH  28  29
ATOM     29  C   UNL     1      86.419  63.346  98.851  1.00  0.00    -0.003 C 
ATOM     30  C   UNL     1      85.685  63.638  97.545  1.00  0.00     0.004 C 
ENDBRANCH  28  29
ENDBRANCH  27  28
ENDBRANCH  26  27
ENDBRANCH  25  26
ENDBRANCH  24  25
ENDBRANCH  23  24
ENDBRANCH  22  23
ENDBRANCH  21  22
ENDBRANCH  20  21
ENDBRANCH  19  20
ENDBRANCH  18  19
ENDBRANCH  17  18
ENDBRANCH   1  17
TORSDOF 26
ENDMDL
