MODEL 1
REMARK VINA RESULT:    -5.745      0.000      0.000
REMARK INTER + INTRA:         -11.841
REMARK INTER:                 -10.447
REMARK INTRA:                  -1.394
REMARK UNBOUND:                -1.394
REMARK SMILES CCCCCCCCCCCCCC[C@H](C)C(=O)[O-]
REMARK SMILES IDX 9 1 10 2 11 3 12 4 13 5 14 6 15 7 16 8 17 9 18 10 19 11 8 12
REMARK SMILES IDX 7 13 6 14 5 15 4 16 3 17 2 18 1 19
REMARK H PARENT
REMARK Flexibility Score: inf
ROOT
ATOM      1  C   UNL     1     -10.662  -0.938  -9.539  1.00  0.00     0.000 C 
ENDROOT
BRANCH   1   2
ATOM      2  C   UNL     1     -10.818  -2.469  -9.485  1.00  0.00     0.000 C 
BRANCH   2   3
ATOM      3  C   UNL     1      -9.494  -3.258  -9.515  1.00  0.00     0.000 C 
BRANCH   3   4
ATOM      4  C   UNL     1      -8.810  -3.435  -8.146  1.00  0.00     0.000 C 
BRANCH   4   5
ATOM      5  C   UNL     1      -9.792  -3.781  -7.005  1.00  0.00     0.001 C 
BRANCH   5   6
ATOM      6  C   UNL     1     -10.000  -5.300  -6.854  1.00  0.00     0.009 C 
BRANCH   6   7
ATOM      7  C   UNL     1     -11.481  -5.741  -6.845  1.00  0.00     0.032 C 
ATOM      8  C   UNL     1     -11.887  -6.431  -5.535  1.00  0.00     0.014 C 
BRANCH   7   9
ATOM      9  C   UNL     1     -11.811  -6.588  -8.047  1.00  0.00     0.044 C 
ATOM     10  O   UNL     1     -12.892  -7.234  -8.079  1.00  0.00    -0.550 OA
ATOM     11  O   UNL     1     -10.961  -6.627  -9.147  1.00  0.00    -0.550 OA
ENDBRANCH   7   9
ENDBRANCH   6   7
ENDBRANCH   5   6
ENDBRANCH   4   5
ENDBRANCH   3   4
ENDBRANCH   2   3
ENDBRANCH   1   2
BRANCH   1  12
ATOM     12  C   UNL     1     -11.515  -0.287 -10.639  1.00  0.00     0.000 C 
BRANCH  12  13
ATOM     13  C   UNL     1     -12.781  -1.113 -10.912  1.00  0.00    -0.000 C 
BRANCH  13  14
ATOM     14  C   UNL     1     -14.069  -0.281 -10.802  1.00  0.00    -0.000 C 
BRANCH  14  15
ATOM     15  C   UNL     1     -14.567  -0.154  -9.352  1.00  0.00    -0.000 C 
BRANCH  15  16
ATOM     16  C   UNL     1     -14.871   1.302  -8.959  1.00  0.00    -0.000 C 
BRANCH  16  17
ATOM     17  C   UNL     1     -14.071   2.320  -9.790  1.00  0.00    -0.000 C 
BRANCH  17  18
ATOM     18  C   UNL     1     -12.779   2.766  -9.089  1.00  0.00    -0.003 C 
ATOM     19  C   UNL     1     -12.904   4.144  -8.440  1.00  0.00     0.004 C 
ENDBRANCH  17  18
ENDBRANCH  16  17
ENDBRANCH  15  16
ENDBRANCH  14  15
ENDBRANCH  13  14
ENDBRANCH  12  13
ENDBRANCH   1  12
TORSDOF 14
ENDMDL
MODEL 2
REMARK VINA RESULT:    -5.554      3.753      7.996
REMARK INTER + INTRA:         -11.494
REMARK INTER:                 -10.359
REMARK INTRA:                  -1.135
REMARK UNBOUND:                -1.394
REMARK SMILES CCCCCCCCCCCCCC[C@H](C)C(=O)[O-]
REMARK SMILES IDX 9 1 10 2 11 3 12 4 13 5 14 6 15 7 16 8 17 9 18 10 19 11 8 12
REMARK SMILES IDX 7 13 6 14 5 15 4 16 3 17 2 18 1 19
REMARK H PARENT
REMARK Flexibility Score: inf
ROOT
ATOM      1  C   UNL     1     -11.809  -3.195  -9.928  1.00  0.00     0.000 C 
ENDROOT
BRANCH   1   2
ATOM      2  C   UNL     1     -12.309  -1.806 -10.366  1.00  0.00     0.000 C 
BRANCH   2   3
ATOM      3  C   UNL     1     -13.839  -1.683 -10.510  1.00  0.00     0.000 C 
BRANCH   3   4
ATOM      4  C   UNL     1     -14.364  -0.242 -10.661  1.00  0.00     0.000 C 
BRANCH   4   5
ATOM      5  C   UNL     1     -14.317   0.573  -9.350  1.00  0.00     0.001 C 
BRANCH   5   6
ATOM      6  C   UNL     1     -14.098   2.077  -9.606  1.00  0.00     0.009 C 
BRANCH   6   7
ATOM      7  C   UNL     1     -12.620   2.524  -9.549  1.00  0.00     0.032 C 
ATOM      8  C   UNL     1     -11.662   1.364  -9.244  1.00  0.00     0.014 C 
BRANCH   7   9
ATOM      9  C   UNL     1     -12.428   3.673  -8.595  1.00  0.00     0.044 C 
ATOM     10  O   UNL     1     -11.279   4.164  -8.428  1.00  0.00    -0.550 OA
ATOM     11  O   UNL     1     -13.511   4.236  -7.928  1.00  0.00    -0.550 OA
ENDBRANCH   7   9
ENDBRANCH   6   7
ENDBRANCH   5   6
ENDBRANCH   4   5
ENDBRANCH   3   4
ENDBRANCH   2   3
ENDBRANCH   1   2
BRANCH   1  12
ATOM     12  C   UNL     1     -10.296  -3.231  -9.661  1.00  0.00     0.000 C 
BRANCH  12  13
ATOM     13  C   UNL     1      -9.960  -2.559  -8.321  1.00  0.00    -0.000 C 
BRANCH  13  14
ATOM     14  C   UNL     1      -9.487  -3.561  -7.256  1.00  0.00    -0.000 C 
BRANCH  14  15
ATOM     15  C   UNL     1      -9.282  -4.976  -7.826  1.00  0.00    -0.000 C 
BRANCH  15  16
ATOM     16  C   UNL     1      -9.886  -6.067  -6.927  1.00  0.00    -0.000 C 
BRANCH  16  17
ATOM     17  C   UNL     1     -10.583  -5.490  -5.681  1.00  0.00    -0.000 C 
BRANCH  17  18
ATOM     18  C   UNL     1     -12.047  -5.940  -5.566  1.00  0.00    -0.003 C 
ATOM     19  C   UNL     1     -12.722  -6.112  -6.927  1.00  0.00     0.004 C 
ENDBRANCH  17  18
ENDBRANCH  16  17
ENDBRANCH  15  16
ENDBRANCH  14  15
ENDBRANCH  13  14
ENDBRANCH  12  13
ENDBRANCH   1  12
TORSDOF 14
ENDMDL
MODEL 3
REMARK VINA RESULT:    -5.512      3.234      7.589
REMARK INTER + INTRA:         -11.418
REMARK INTER:                  -9.839
REMARK INTRA:                  -1.579
REMARK UNBOUND:                -1.394
REMARK SMILES CCCCCCCCCCCCCC[C@H](C)C(=O)[O-]
REMARK SMILES IDX 9 1 10 2 11 3 12 4 13 5 14 6 15 7 16 8 17 9 18 10 19 11 8 12
REMARK SMILES IDX 7 13 6 14 5 15 4 16 3 17 2 18 1 19
REMARK H PARENT
REMARK Flexibility Score: inf
ROOT
ATOM      1  C   UNL     1      -9.965  -3.658  -6.992  1.00  0.00     0.000 C 
ENDROOT
BRANCH   1   2
ATOM      2  C   UNL     1      -8.885  -3.287  -8.025  1.00  0.00     0.000 C 
BRANCH   2   3
ATOM      3  C   UNL     1      -9.376  -3.228  -9.485  1.00  0.00     0.000 C 
BRANCH   3   4
ATOM      4  C   UNL     1     -10.729  -2.519  -9.689  1.00  0.00     0.000 C 
BRANCH   4   5
ATOM      5  C   UNL     1     -10.667  -0.992  -9.463  1.00  0.00     0.001 C 
BRANCH   5   6
ATOM      6  C   UNL     1     -11.561  -0.219 -10.451  1.00  0.00     0.009 C 
BRANCH   6   7
ATOM      7  C   UNL     1     -12.986   0.072  -9.928  1.00  0.00     0.032 C 
ATOM      8  C   UNL     1     -14.078  -0.551 -10.808  1.00  0.00     0.014 C 
BRANCH   7   9
ATOM      9  C   UNL     1     -13.207   1.547  -9.723  1.00  0.00     0.044 C 
ATOM     10  O   UNL     1     -14.371   2.023  -9.803  1.00  0.00    -0.550 OA
ATOM     11  O   UNL     1     -12.149   2.389  -9.395  1.00  0.00    -0.550 OA
ENDBRANCH   7   9
ENDBRANCH   6   7
ENDBRANCH   5   6
ENDBRANCH   4   5
ENDBRANCH   3   4
ENDBRANCH   2   3
ENDBRANCH   1   2
BRANCH   1  12
ATOM     12  C   UNL     1      -9.874  -5.119  -6.527  1.00  0.00     0.000 C 
BRANCH  12  13
ATOM     13  C   UNL     1     -11.082  -5.495  -5.657  1.00  0.00    -0.000 C 
BRANCH  13  14
ATOM     14  C   UNL     1     -11.228  -7.014  -5.467  1.00  0.00    -0.000 C 
BRANCH  14  15
ATOM     15  C   UNL     1     -10.459  -7.818  -6.529  1.00  0.00    -0.000 C 
BRANCH  15  16
ATOM     16  C   UNL     1     -11.315  -8.124  -7.770  1.00  0.00    -0.000 C 
BRANCH  16  17
ATOM     17  C   UNL     1     -10.825  -7.381  -9.026  1.00  0.00    -0.000 C 
BRANCH  17  18
ATOM     18  C   UNL     1     -11.969  -6.696  -9.788  1.00  0.00    -0.003 C 
ATOM     19  C   UNL     1     -12.714  -5.668  -8.936  1.00  0.00     0.004 C 
ENDBRANCH  17  18
ENDBRANCH  16  17
ENDBRANCH  15  16
ENDBRANCH  14  15
ENDBRANCH  13  14
ENDBRANCH  12  13
ENDBRANCH   1  12
TORSDOF 14
ENDMDL
MODEL 4
REMARK VINA RESULT:    -5.387      3.798      8.020
REMARK INTER + INTRA:         -11.190
REMARK INTER:                  -9.914
REMARK INTRA:                  -1.276
REMARK UNBOUND:                -1.394
REMARK SMILES CCCCCCCCCCCCCC[C@H](C)C(=O)[O-]
REMARK SMILES IDX 9 1 10 2 11 3 12 4 13 5 14 6 15 7 16 8 17 9 18 10 19 11 8 12
REMARK SMILES IDX 7 13 6 14 5 15 4 16 3 17 2 18 1 19
REMARK H PARENT
REMARK Flexibility Score: inf
ROOT
ATOM      1  C   UNL     1     -10.501  -3.786  -9.724  1.00  0.00     0.000 C 
ENDROOT
BRANCH   1   2
ATOM      2  C   UNL     1     -10.111  -2.531  -8.921  1.00  0.00     0.000 C 
BRANCH   2   3
ATOM      3  C   UNL     1     -10.601  -1.198  -9.520  1.00  0.00     0.000 C 
BRANCH   3   4
ATOM      4  C   UNL     1     -11.887  -1.297 -10.362  1.00  0.00     0.000 C 
BRANCH   4   5
ATOM      5  C   UNL     1     -12.783  -0.042 -10.272  1.00  0.00     0.001 C 
BRANCH   5   6
ATOM      6  C   UNL     1     -12.066   1.140  -9.590  1.00  0.00     0.009 C 
BRANCH   6   7
ATOM      7  C   UNL     1     -13.016   2.177  -8.950  1.00  0.00     0.032 C 
ATOM      8  C   UNL     1     -14.400   2.202  -9.614  1.00  0.00     0.014 C 
BRANCH   7   9
ATOM      9  C   UNL     1     -12.391   3.546  -8.910  1.00  0.00     0.044 C 
ATOM     10  O   UNL     1     -11.962   4.069  -9.973  1.00  0.00    -0.550 OA
ATOM     11  O   UNL     1     -12.326   4.267  -7.722  1.00  0.00    -0.550 OA
ENDBRANCH   7   9
ENDBRANCH   6   7
ENDBRANCH   5   6
ENDBRANCH   4   5
ENDBRANCH   3   4
ENDBRANCH   2   3
ENDBRANCH   1   2
BRANCH   1  12
ATOM     12  C   UNL     1     -11.125  -4.886  -8.852  1.00  0.00     0.000 C 
BRANCH  12  13
ATOM     13  C   UNL     1     -10.084  -5.956  -8.491  1.00  0.00    -0.000 C 
BRANCH  13  14
ATOM     14  C   UNL     1      -9.771  -5.996  -6.987  1.00  0.00    -0.000 C 
BRANCH  14  15
ATOM     15  C   UNL     1     -10.635  -5.013  -6.177  1.00  0.00    -0.000 C 
BRANCH  15  16
ATOM     16  C   UNL     1     -11.508  -5.721  -5.128  1.00  0.00    -0.000 C 
BRANCH  16  17
ATOM     17  C   UNL     1     -12.086  -7.053  -5.639  1.00  0.00    -0.000 C 
BRANCH  17  18
ATOM     18  C   UNL     1     -13.612  -7.006  -5.805  1.00  0.00    -0.003 C 
ATOM     19  C   UNL     1     -14.051  -6.143  -6.988  1.00  0.00     0.004 C 
ENDBRANCH  17  18
ENDBRANCH  16  17
ENDBRANCH  15  16
ENDBRANCH  14  15
ENDBRANCH  13  14
ENDBRANCH  12  13
ENDBRANCH   1  12
TORSDOF 14
ENDMDL
MODEL 5
REMARK VINA RESULT:    -5.378      1.582      1.968
REMARK INTER + INTRA:         -11.174
REMARK INTER:                 -10.195
REMARK INTRA:                  -0.978
REMARK UNBOUND:                -1.394
REMARK SMILES CCCCCCCCCCCCCC[C@H](C)C(=O)[O-]
REMARK SMILES IDX 9 1 10 2 11 3 12 4 13 5 14 6 15 7 16 8 17 9 18 10 19 11 8 12
REMARK SMILES IDX 7 13 6 14 5 15 4 16 3 17 2 18 1 19
REMARK H PARENT
REMARK Flexibility Score: inf
ROOT
ATOM      1  C   UNL     1     -10.527  -0.974  -9.298  1.00  0.00     0.000 C 
ENDROOT
BRANCH   1   2
ATOM      2  C   UNL     1      -9.837  -2.309  -9.634  1.00  0.00     0.000 C 
BRANCH   2   3
ATOM      3  C   UNL     1     -10.262  -3.499  -8.752  1.00  0.00     0.000 C 
BRANCH   3   4
ATOM      4  C   UNL     1     -11.475  -4.295  -9.273  1.00  0.00     0.000 C 
BRANCH   4   5
ATOM      5  C   UNL     1     -11.265  -5.824  -9.253  1.00  0.00     0.001 C 
BRANCH   5   6
ATOM      6  C   UNL     1     -10.071  -6.240  -8.371  1.00  0.00     0.009 C 
BRANCH   6   7
ATOM      7  C   UNL     1     -10.443  -7.167  -7.193  1.00  0.00     0.032 C 
ATOM      8  C   UNL     1     -11.594  -8.125  -7.533  1.00  0.00     0.014 C 
BRANCH   7   9
ATOM      9  C   UNL     1     -10.724  -6.380  -5.940  1.00  0.00     0.044 C 
ATOM     10  O   UNL     1     -11.349  -6.920  -4.988  1.00  0.00    -0.550 OA
ATOM     11  O   UNL     1     -10.258  -5.077  -5.796  1.00  0.00    -0.550 OA
ENDBRANCH   7   9
ENDBRANCH   6   7
ENDBRANCH   5   6
ENDBRANCH   4   5
ENDBRANCH   3   4
ENDBRANCH   2   3
ENDBRANCH   1   2
BRANCH   1  12
ATOM     12  C   UNL     1     -11.399  -0.444 -10.446  1.00  0.00     0.000 C 
BRANCH  12  13
ATOM     13  C   UNL     1     -12.744  -1.183 -10.500  1.00  0.00    -0.000 C 
BRANCH  13  14
ATOM     14  C   UNL     1     -13.917  -0.256 -10.859  1.00  0.00    -0.000 C 
BRANCH  14  15
ATOM     15  C   UNL     1     -14.511   0.448  -9.627  1.00  0.00    -0.000 C 
BRANCH  15  16
ATOM     16  C   UNL     1     -14.209   1.956  -9.607  1.00  0.00    -0.000 C 
BRANCH  16  17
ATOM     17  C   UNL     1     -12.791   2.270  -9.098  1.00  0.00    -0.000 C 
BRANCH  17  18
ATOM     18  C   UNL     1     -12.397   3.737  -9.323  1.00  0.00    -0.003 C 
ATOM     19  C   UNL     1     -12.859   4.653  -8.190  1.00  0.00     0.004 C 
ENDBRANCH  17  18
ENDBRANCH  16  17
ENDBRANCH  15  16
ENDBRANCH  14  15
ENDBRANCH  13  14
ENDBRANCH  12  13
ENDBRANCH   1  12
TORSDOF 14
ENDMDL
MODEL 6
REMARK VINA RESULT:    -5.181      1.605      2.761
REMARK INTER + INTRA:         -10.816
REMARK INTER:                  -9.721
REMARK INTRA:                  -1.094
REMARK UNBOUND:                -1.394
REMARK SMILES CCCCCCCCCCCCCC[C@H](C)C(=O)[O-]
REMARK SMILES IDX 9 1 10 2 11 3 12 4 13 5 14 6 15 7 16 8 17 9 18 10 19 11 8 12
REMARK SMILES IDX 7 13 6 14 5 15 4 16 3 17 2 18 1 19
REMARK H PARENT
REMARK Flexibility Score: inf
ROOT
ATOM      1  C   UNL     1      -9.856  -2.753  -8.102  1.00  0.00     0.000 C 
ENDROOT
BRANCH   1   2
ATOM      2  C   UNL     1     -10.350  -4.128  -7.614  1.00  0.00     0.000 C 
BRANCH   2   3
ATOM      3  C   UNL     1     -10.836  -5.076  -8.727  1.00  0.00     0.000 C 
BRANCH   3   4
ATOM      4  C   UNL     1     -10.215  -6.486  -8.699  1.00  0.00     0.000 C 
BRANCH   4   5
ATOM      5  C   UNL     1     -11.253  -7.621  -8.841  1.00  0.00     0.001 C 
BRANCH   5   6
ATOM      6  C   UNL     1     -11.824  -8.063  -7.480  1.00  0.00     0.009 C 
BRANCH   6   7
ATOM      7  C   UNL     1     -13.282  -7.617  -7.227  1.00  0.00     0.032 C 
ATOM      8  C   UNL     1     -13.969  -7.091  -8.495  1.00  0.00     0.014 C 
BRANCH   7   9
ATOM      9  C   UNL     1     -13.367  -6.627  -6.095  1.00  0.00     0.044 C 
ATOM     10  O   UNL     1     -14.491  -6.301  -5.631  1.00  0.00    -0.550 OA
ATOM     11  O   UNL     1     -12.214  -6.103  -5.518  1.00  0.00    -0.550 OA
ENDBRANCH   7   9
ENDBRANCH   6   7
ENDBRANCH   5   6
ENDBRANCH   4   5
ENDBRANCH   3   4
ENDBRANCH   2   3
ENDBRANCH   1   2
BRANCH   1  12
ATOM     12  C   UNL     1      -9.947  -2.590  -9.627  1.00  0.00     0.000 C 
BRANCH  12  13
ATOM     13  C   UNL     1     -10.219  -1.127 -10.007  1.00  0.00    -0.000 C 
BRANCH  13  14
ATOM     14  C   UNL     1     -11.716  -0.831 -10.198  1.00  0.00    -0.000 C 
BRANCH  14  15
ATOM     15  C   UNL     1     -12.091   0.604  -9.791  1.00  0.00    -0.000 C 
BRANCH  15  16
ATOM     16  C   UNL     1     -13.608   0.850  -9.829  1.00  0.00    -0.000 C 
BRANCH  16  17
ATOM     17  C   UNL     1     -13.992   2.265  -9.359  1.00  0.00    -0.000 C 
BRANCH  17  18
ATOM     18  C   UNL     1     -12.764   3.151  -9.099  1.00  0.00    -0.003 C 
ATOM     19  C   UNL     1     -13.087   4.366  -8.230  1.00  0.00     0.004 C 
ENDBRANCH  17  18
ENDBRANCH  16  17
ENDBRANCH  15  16
ENDBRANCH  14  15
ENDBRANCH  13  14
ENDBRANCH  12  13
ENDBRANCH   1  12
TORSDOF 14
ENDMDL
MODEL 7
REMARK VINA RESULT:    -5.115      1.892      2.905
REMARK INTER + INTRA:         -10.696
REMARK INTER:                  -9.530
REMARK INTRA:                  -1.166
REMARK UNBOUND:                -1.394
REMARK SMILES CCCCCCCCCCCCCC[C@H](C)C(=O)[O-]
REMARK SMILES IDX 9 1 10 2 11 3 12 4 13 5 14 6 15 7 16 8 17 9 18 10 19 11 8 12
REMARK SMILES IDX 7 13 6 14 5 15 4 16 3 17 2 18 1 19
REMARK H PARENT
REMARK Flexibility Score: inf
ROOT
ATOM      1  C   UNL     1     -12.593  -3.633  -9.646  1.00  0.00     0.000 C 
ENDROOT
BRANCH   1   2
ATOM      2  C   UNL     1     -13.836  -4.500  -9.373  1.00  0.00     0.000 C 
BRANCH   2   3
ATOM      3  C   UNL     1     -13.572  -5.771  -8.541  1.00  0.00     0.000 C 
BRANCH   3   4
ATOM      4  C   UNL     1     -12.436  -6.669  -9.068  1.00  0.00     0.000 C 
BRANCH   4   5
ATOM      5  C   UNL     1     -11.700  -7.449  -7.957  1.00  0.00     0.001 C 
BRANCH   5   6
ATOM      6  C   UNL     1     -10.210  -7.065  -7.863  1.00  0.00     0.009 C 
BRANCH   6   7
ATOM      7  C   UNL     1      -9.908  -5.925  -6.865  1.00  0.00     0.032 C 
ATOM      8  C   UNL     1     -11.021  -5.740  -5.824  1.00  0.00     0.014 C 
BRANCH   7   9
ATOM      9  C   UNL     1      -9.591  -4.637  -7.579  1.00  0.00     0.044 C 
ATOM     10  O   UNL     1      -9.866  -3.535  -7.033  1.00  0.00    -0.550 OA
ATOM     11  O   UNL     1      -8.951  -4.645  -8.814  1.00  0.00    -0.550 OA
ENDBRANCH   7   9
ENDBRANCH   6   7
ENDBRANCH   5   6
ENDBRANCH   4   5
ENDBRANCH   3   4
ENDBRANCH   2   3
ENDBRANCH   1   2
BRANCH   1  12
ATOM     12  C   UNL     1     -12.940  -2.255 -10.230  1.00  0.00     0.000 C 
BRANCH  12  13
ATOM     13  C   UNL     1     -14.451  -1.990 -10.150  1.00  0.00    -0.000 C 
BRANCH  13  14
ATOM     14  C   UNL     1     -14.781  -0.578  -9.640  1.00  0.00    -0.000 C 
BRANCH  14  15
ATOM     15  C   UNL     1     -13.892   0.503 -10.279  1.00  0.00    -0.000 C 
BRANCH  15  16
ATOM     16  C   UNL     1     -13.696   1.723  -9.363  1.00  0.00    -0.000 C 
BRANCH  16  17
ATOM     17  C   UNL     1     -12.242   2.227  -9.351  1.00  0.00    -0.000 C 
BRANCH  17  18
ATOM     18  C   UNL     1     -12.144   3.730  -9.049  1.00  0.00    -0.003 C 
ATOM     19  C   UNL     1     -13.279   4.229  -8.156  1.00  0.00     0.004 C 
ENDBRANCH  17  18
ENDBRANCH  16  17
ENDBRANCH  15  16
ENDBRANCH  14  15
ENDBRANCH  13  14
ENDBRANCH  12  13
ENDBRANCH   1  12
TORSDOF 14
ENDMDL
MODEL 8
REMARK VINA RESULT:    -5.049      1.540      4.138
REMARK INTER + INTRA:         -10.575
REMARK INTER:                  -9.021
REMARK INTRA:                  -1.554
REMARK UNBOUND:                -1.394
REMARK SMILES CCCCCCCCCCCCCC[C@H](C)C(=O)[O-]
REMARK SMILES IDX 9 1 10 2 11 3 12 4 13 5 14 6 15 7 16 8 17 9 18 10 19 11 8 12
REMARK SMILES IDX 7 13 6 14 5 15 4 16 3 17 2 18 1 19
REMARK H PARENT
REMARK Flexibility Score: inf
ROOT
ATOM      1  C   UNL     1     -10.256  -4.132  -6.963  1.00  0.00     0.000 C 
ENDROOT
BRANCH   1   2
ATOM      2  C   UNL     1     -10.232  -5.267  -5.922  1.00  0.00     0.000 C 
BRANCH   2   3
ATOM      3  C   UNL     1     -11.614  -5.839  -5.553  1.00  0.00     0.000 C 
BRANCH   3   4
ATOM      4  C   UNL     1     -11.665  -7.372  -5.400  1.00  0.00     0.000 C 
BRANCH   4   5
ATOM      5  C   UNL     1     -11.751  -8.125  -6.745  1.00  0.00     0.001 C 
BRANCH   5   6
ATOM      6  C   UNL     1     -13.113  -7.926  -7.440  1.00  0.00     0.009 C 
BRANCH   6   7
ATOM      7  C   UNL     1     -13.037  -7.167  -8.783  1.00  0.00     0.032 C 
ATOM      8  C   UNL     1     -11.622  -7.157  -9.379  1.00  0.00     0.014 C 
BRANCH   7   9
ATOM      9  C   UNL     1     -13.601  -5.775  -8.662  1.00  0.00     0.044 C 
ATOM     10  O   UNL     1     -13.265  -4.889  -9.492  1.00  0.00    -0.550 OA
ATOM     11  O   UNL     1     -14.529  -5.466  -7.674  1.00  0.00    -0.550 OA
ENDBRANCH   7   9
ENDBRANCH   6   7
ENDBRANCH   5   6
ENDBRANCH   4   5
ENDBRANCH   3   4
ENDBRANCH   2   3
ENDBRANCH   1   2
BRANCH   1  12
ATOM     12  C   UNL     1      -9.602  -4.527  -8.296  1.00  0.00     0.000 C 
BRANCH  12  13
ATOM     13  C   UNL     1      -9.400  -3.297  -9.193  1.00  0.00    -0.000 C 
BRANCH  13  14
ATOM     14  C   UNL     1     -10.705  -2.526  -9.448  1.00  0.00    -0.000 C 
BRANCH  14  15
ATOM     15  C   UNL     1     -10.478  -1.011  -9.591  1.00  0.00    -0.000 C 
BRANCH  15  16
ATOM     16  C   UNL     1     -11.615  -0.314 -10.357  1.00  0.00    -0.000 C 
BRANCH  16  17
ATOM     17  C   UNL     1     -12.876  -1.189 -10.472  1.00  0.00    -0.000 C 
BRANCH  17  18
ATOM     18  C   UNL     1     -14.170  -0.361 -10.447  1.00  0.00    -0.003 C 
ATOM     19  C   UNL     1     -14.035   0.922  -9.628  1.00  0.00     0.004 C 
ENDBRANCH  17  18
ENDBRANCH  16  17
ENDBRANCH  15  16
ENDBRANCH  14  15
ENDBRANCH  13  14
ENDBRANCH  12  13
ENDBRANCH   1  12
TORSDOF 14
ENDMDL
MODEL 9
REMARK VINA RESULT:    -4.931      2.393      4.475
REMARK INTER + INTRA:         -10.362
REMARK INTER:                  -8.593
REMARK INTRA:                  -1.768
REMARK UNBOUND:                -1.394
REMARK SMILES CCCCCCCCCCCCCC[C@H](C)C(=O)[O-]
REMARK SMILES IDX 9 1 10 2 11 3 12 4 13 5 14 6 15 7 16 8 17 9 18 10 19 11 8 12
REMARK SMILES IDX 7 13 6 14 5 15 4 16 3 17 2 18 1 19
REMARK H PARENT
REMARK Flexibility Score: inf
ROOT
ATOM      1  C   UNL     1     -14.007  -6.385  -7.613  1.00  0.00     0.000 C 
ENDROOT
BRANCH   1   2
ATOM      2  C   UNL     1     -13.889  -6.521  -6.084  1.00  0.00     0.000 C 
BRANCH   2   3
ATOM      3  C   UNL     1     -12.446  -6.534  -5.542  1.00  0.00     0.000 C 
BRANCH   3   4
ATOM      4  C   UNL     1     -11.450  -7.377  -6.362  1.00  0.00     0.000 C 
BRANCH   4   5
ATOM      5  C   UNL     1     -10.381  -6.536  -7.092  1.00  0.00     0.001 C 
BRANCH   5   6
ATOM      6  C   UNL     1     -10.451  -5.044  -6.711  1.00  0.00     0.009 C 
BRANCH   6   7
ATOM      7  C   UNL     1     -10.672  -4.092  -7.908  1.00  0.00     0.032 C 
ATOM      8  C   UNL     1     -10.988  -4.840  -9.211  1.00  0.00     0.014 C 
BRANCH   7   9
ATOM      9  C   UNL     1      -9.515  -3.142  -8.077  1.00  0.00     0.044 C 
ATOM     10  O   UNL     1      -9.563  -1.998  -7.552  1.00  0.00    -0.550 OA
ATOM     11  O   UNL     1      -8.369  -3.528  -8.765  1.00  0.00    -0.550 OA
ENDBRANCH   7   9
ENDBRANCH   6   7
ENDBRANCH   5   6
ENDBRANCH   4   5
ENDBRANCH   3   4
ENDBRANCH   2   3
ENDBRANCH   1   2
BRANCH   1  12
ATOM     12  C   UNL     1     -15.053  -5.345  -8.043  1.00  0.00     0.000 C 
BRANCH  12  13
ATOM     13  C   UNL     1     -14.776  -4.845  -9.469  1.00  0.00    -0.000 C 
BRANCH  13  14
ATOM     14  C   UNL     1     -14.589  -3.321  -9.538  1.00  0.00    -0.000 C 
BRANCH  14  15
ATOM     15  C   UNL     1     -14.299  -2.826 -10.966  1.00  0.00    -0.000 C 
BRANCH  15  16
ATOM     16  C   UNL     1     -13.338  -1.626 -10.991  1.00  0.00    -0.000 C 
BRANCH  16  17
ATOM     17  C   UNL     1     -13.851  -0.438 -10.158  1.00  0.00    -0.000 C 
BRANCH  17  18
ATOM     18  C   UNL     1     -12.755   0.602  -9.880  1.00  0.00    -0.003 C 
ATOM     19  C   UNL     1     -11.350   0.000  -9.905  1.00  0.00     0.004 C 
ENDBRANCH  17  18
ENDBRANCH  16  17
ENDBRANCH  15  16
ENDBRANCH  14  15
ENDBRANCH  13  14
ENDBRANCH  12  13
ENDBRANCH   1  12
TORSDOF 14
ENDMDL
