MODEL 1
REMARK VINA RESULT:    -6.248      0.000      0.000
REMARK INTER + INTRA:         -12.772
REMARK INTER:                 -10.814
REMARK INTRA:                  -1.958
REMARK UNBOUND:                -1.958
REMARK SMILES OC[C@@H]1O[C@H](O)[C@@H](O)[C@@H](O)[C@H]1O[C@H]1O[C@H](CO)[C@@H](O[C@@H]2O[C@H](CO)[C@@H](O)[C@@H](O)[C@@H]2O)[C@H](O)[C@H]1O
REMARK SMILES IDX 18 1 15 2 14 3 13 4 33 5 31 6 19 7 20 8 22 9 25 10 21 11
REMARK SMILES IDX 27 12 29 13 23 14 24 15 26 17 28 19 30 21 16 23 17 24 32 26
REMARK SMILES IDX 34 28 12 30 11 31 3 32 9 33 4 34 7 35 5 36 2 37 1 38 10 40
REMARK SMILES IDX 8 42 6 44
REMARK H PARENT 24 16 26 18 28 20 30 22 17 25 32 27 34 29 1 39 10 41 8 43 6 45
REMARK Flexibility Score: inf
ROOT
ATOM      1  C   UNL     1      11.391   4.069  41.646  1.00  0.00     0.184 C 
ATOM      2  C   UNL     1      12.268   5.033  40.810  1.00  0.00     0.178 C 
ATOM      3  O   UNL     1      12.345   6.317  41.409  1.00  0.00    -0.341 OA
ATOM      4  C   UNL     1      12.975   6.263  42.678  1.00  0.00     0.282 C 
ATOM      5  C   UNL     1      12.146   5.405  43.651  1.00  0.00     0.202 C 
ATOM      6  C   UNL     1      11.947   3.991  43.083  1.00  0.00     0.180 C 
ENDROOT
BRANCH   1   7
ATOM      7  O   UNL     1      11.448   2.791  41.034  1.00  0.00    -0.341 OA
BRANCH   7   8
ATOM      8  C   UNL     1      10.290   2.001  41.252  1.00  0.00     0.282 C 
ATOM      9  C   UNL     1      11.486  -0.071  41.404  1.00  0.00     0.178 C 
ATOM     10  C   UNL     1      11.064  -0.480  39.963  1.00  0.00     0.177 C 
ATOM     11  O   UNL     1      10.613   0.862  42.037  1.00  0.00    -0.341 OA
ATOM     12  C   UNL     1      10.613   0.718  39.110  1.00  0.00     0.179 C 
ATOM     13  C   UNL     1       9.652   1.610  39.905  1.00  0.00     0.202 C 
BRANCH   9  14
ATOM     14  C   UNL     1      12.985   0.281  41.576  1.00  0.00     0.191 C 
BRANCH  14  15
ATOM     15  O   UNL     1      13.748  -0.776  42.090  1.00  0.00    -0.394 OA
ATOM     16  H   UNL     1      13.755  -0.680  43.079  1.00  0.00     0.210 HD
ENDBRANCH  14  15
ENDBRANCH   9  14
BRANCH  10  17
ATOM     17  O   UNL     1      10.061  -1.466  40.002  1.00  0.00    -0.387 OA
ATOM     18  H   UNL     1      10.498  -2.338  40.175  1.00  0.00     0.211 HD
ENDBRANCH  10  17
BRANCH  12  19
ATOM     19  O   UNL     1       9.995   0.250  37.939  1.00  0.00    -0.387 OA
ATOM     20  H   UNL     1      10.288  -0.688  37.806  1.00  0.00     0.211 HD
ENDBRANCH  12  19
BRANCH  13  21
ATOM     21  O   UNL     1       9.362   2.763  39.157  1.00  0.00    -0.385 OA
ATOM     22  H   UNL     1      10.112   3.398  39.302  1.00  0.00     0.211 HD
ENDBRANCH  13  21
ENDBRANCH   7   8
ENDBRANCH   1   7
BRANCH   2  23
ATOM     23  C   UNL     1      11.726   5.193  39.379  1.00  0.00     0.191 C 
BRANCH  23  24
ATOM     24  O   UNL     1      12.308   6.291  38.729  1.00  0.00    -0.394 OA
ATOM     25  H   UNL     1      12.232   7.063  39.345  1.00  0.00     0.210 HD
ENDBRANCH  23  24
ENDBRANCH   2  23
BRANCH   6  26
ATOM     26  O   UNL     1      11.049   3.282  43.899  1.00  0.00    -0.387 OA
ATOM     27  H   UNL     1      11.336   3.430  44.839  1.00  0.00     0.211 HD
ENDBRANCH   6  26
BRANCH   5  28
ATOM     28  O   UNL     1      12.785   5.329  44.898  1.00  0.00    -0.385 OA
ATOM     29  H   UNL     1      13.162   4.414  44.970  1.00  0.00     0.211 HD
ENDBRANCH   5  28
BRANCH   4  30
ATOM     30  O   UNL     1      14.295   5.741  42.572  1.00  0.00    -0.341 OA
BRANCH  30  31
ATOM     31  C   UNL     1      15.282   6.757  42.517  1.00  0.00     0.184 C 
ATOM     32  C   UNL     1      16.486   6.337  43.399  1.00  0.00     0.178 C 
ATOM     33  C   UNL     1      15.737   7.011  41.057  1.00  0.00     0.180 C 
ATOM     34  O   UNL     1      17.521   7.305  43.325  1.00  0.00    -0.342 OA
ATOM     35  C   UNL     1      17.020   7.870  41.021  1.00  0.00     0.201 C 
ATOM     36  C   UNL     1      18.072   7.345  42.021  1.00  0.00     0.279 C 
BRANCH  32  37
ATOM     37  C   UNL     1      16.053   6.202  44.867  1.00  0.00     0.191 C 
BRANCH  37  38
ATOM     38  O   UNL     1      15.631   4.893  45.136  1.00  0.00    -0.394 OA
ATOM     39  H   UNL     1      14.657   4.855  44.934  1.00  0.00     0.210 HD
ENDBRANCH  37  38
ENDBRANCH  32  37
BRANCH  33  40
ATOM     40  O   UNL     1      15.897   5.809  40.339  1.00  0.00    -0.387 OA
ATOM     41  H   UNL     1      15.035   5.326  40.335  1.00  0.00     0.211 HD
ENDBRANCH  33  40
BRANCH  35  42
ATOM     42  O   UNL     1      17.536   7.962  39.715  1.00  0.00    -0.385 OA
ATOM     43  H   UNL     1      17.411   8.896  39.403  1.00  0.00     0.211 HD
ENDBRANCH  35  42
BRANCH  36  44
ATOM     44  O   UNL     1      19.168   8.219  42.018  1.00  0.00    -0.366 OA
ATOM     45  H   UNL     1      18.947   8.949  41.378  1.00  0.00     0.213 HD
ENDBRANCH  36  44
ENDBRANCH  30  31
ENDBRANCH   4  30
TORSDOF 18
ENDMDL
MODEL 2
REMARK VINA RESULT:    -6.194      1.653      8.323
REMARK INTER + INTRA:         -12.678
REMARK INTER:                 -10.678
REMARK INTRA:                  -2.000
REMARK UNBOUND:                -1.958
REMARK SMILES OC[C@@H]1O[C@H](O)[C@@H](O)[C@@H](O)[C@H]1O[C@H]1O[C@H](CO)[C@@H](O[C@@H]2O[C@H](CO)[C@@H](O)[C@@H](O)[C@@H]2O)[C@H](O)[C@H]1O
REMARK SMILES IDX 18 1 15 2 14 3 13 4 33 5 31 6 19 7 20 8 22 9 25 10 21 11
REMARK SMILES IDX 27 12 29 13 23 14 24 15 26 17 28 19 30 21 16 23 17 24 32 26
REMARK SMILES IDX 34 28 12 30 11 31 3 32 9 33 4 34 7 35 5 36 2 37 1 38 10 40
REMARK SMILES IDX 8 42 6 44
REMARK H PARENT 24 16 26 18 28 20 30 22 17 25 32 27 34 29 1 39 10 41 8 43 6 45
REMARK Flexibility Score: inf
ROOT
ATOM      1  C   UNL     1      12.184   5.051  41.657  1.00  0.00     0.184 C 
ATOM      2  C   UNL     1      11.440   3.957  42.460  1.00  0.00     0.178 C 
ATOM      3  O   UNL     1      10.069   3.888  42.098  1.00  0.00    -0.341 OA
ATOM      4  C   UNL     1       9.907   3.513  40.740  1.00  0.00     0.282 C 
ATOM      5  C   UNL     1      10.524   4.577  39.814  1.00  0.00     0.202 C 
ATOM      6  C   UNL     1      12.010   4.782  40.148  1.00  0.00     0.180 C 
ENDROOT
BRANCH   1   7
ATOM      7  O   UNL     1      13.556   4.987  42.005  1.00  0.00    -0.341 OA
BRANCH   7   8
ATOM      8  C   UNL     1      14.229   6.234  41.918  1.00  0.00     0.282 C 
ATOM      9  C   UNL     1      16.271   5.303  41.075  1.00  0.00     0.178 C 
ATOM     10  C   UNL     1      16.961   5.428  42.464  1.00  0.00     0.177 C 
ATOM     11  O   UNL     1      15.184   6.204  40.868  1.00  0.00    -0.341 OA
ATOM     12  C   UNL     1      15.956   5.562  43.621  1.00  0.00     0.179 C 
ATOM     13  C   UNL     1      14.871   6.588  43.272  1.00  0.00     0.202 C 
BRANCH   9  14
ATOM     14  C   UNL     1      15.957   3.854  40.624  1.00  0.00     0.191 C 
BRANCH  14  15
ATOM     15  O   UNL     1      16.982   3.277  39.859  1.00  0.00    -0.394 OA
ATOM     16  H   UNL     1      17.464   2.639  40.448  1.00  0.00     0.210 HD
ENDBRANCH  14  15
ENDBRANCH   9  14
BRANCH  10  17
ATOM     17  O   UNL     1      17.869   6.502  42.470  1.00  0.00    -0.387 OA
ATOM     18  H   UNL     1      17.903   6.879  41.555  1.00  0.00     0.211 HD
ENDBRANCH  10  17
BRANCH  12  19
ATOM     19  O   UNL     1      16.637   5.943  44.789  1.00  0.00    -0.387 OA
ATOM     20  H   UNL     1      16.920   6.886  44.669  1.00  0.00     0.211 HD
ENDBRANCH  12  19
BRANCH  13  21
ATOM     21  O   UNL     1      13.895   6.592  44.282  1.00  0.00    -0.385 OA
ATOM     22  H   UNL     1      13.086   7.025  43.901  1.00  0.00     0.211 HD
ENDBRANCH  13  21
ENDBRANCH   7   8
ENDBRANCH   1   7
BRANCH   2  23
ATOM     23  C   UNL     1      11.532   4.208  43.975  1.00  0.00     0.191 C 
BRANCH  23  24
ATOM     24  O   UNL     1      10.659   3.374  44.688  1.00  0.00    -0.394 OA
ATOM     25  H   UNL     1      10.025   3.965  45.169  1.00  0.00     0.210 HD
ENDBRANCH  23  24
ENDBRANCH   2  23
BRANCH   6  26
ATOM     26  O   UNL     1      12.508   5.872  39.412  1.00  0.00    -0.387 OA
ATOM     27  H   UNL     1      11.756   6.513  39.302  1.00  0.00     0.211 HD
ENDBRANCH   6  26
BRANCH   5  28
ATOM     28  O   UNL     1      10.389   4.191  38.472  1.00  0.00    -0.385 OA
ATOM     29  H   UNL     1      10.350   5.026  37.937  1.00  0.00     0.211 HD
ENDBRANCH   5  28
BRANCH   4  30
ATOM     30  O   UNL     1      10.500   2.244  40.486  1.00  0.00    -0.341 OA
BRANCH  30  31
ATOM     31  C   UNL     1       9.578   1.175  40.613  1.00  0.00     0.184 C 
ATOM     32  C   UNL     1       9.783   0.192  39.431  1.00  0.00     0.178 C 
ATOM     33  C   UNL     1       9.757   0.444  41.968  1.00  0.00     0.180 C 
ATOM     34  O   UNL     1       8.914  -0.923  39.553  1.00  0.00    -0.342 OA
ATOM     35  C   UNL     1       8.991  -0.897  41.976  1.00  0.00     0.201 C 
ATOM     36  C   UNL     1       9.258  -1.701  40.686  1.00  0.00     0.279 C 
BRANCH  32  37
ATOM     37  C   UNL     1       9.489   0.891  38.095  1.00  0.00     0.191 C 
BRANCH  37  38
ATOM     38  O   UNL     1      10.653   1.479  37.582  1.00  0.00    -0.394 OA
ATOM     39  H   UNL     1      10.503   1.617  36.608  1.00  0.00     0.210 HD
ENDBRANCH  37  38
ENDBRANCH  32  37
BRANCH  33  40
ATOM     40  O   UNL     1      11.116   0.268  42.295  1.00  0.00    -0.387 OA
ATOM     41  H   UNL     1      11.505   1.150  42.515  1.00  0.00     0.211 HD
ENDBRANCH  33  40
BRANCH  35  42
ATOM     42  O   UNL     1       9.285  -1.646  43.132  1.00  0.00    -0.385 OA
ATOM     43  H   UNL     1       9.493  -2.573  42.848  1.00  0.00     0.211 HD
ENDBRANCH  35  42
BRANCH  36  44
ATOM     44  O   UNL     1       8.463  -2.854  40.704  1.00  0.00    -0.366 OA
ATOM     45  H   UNL     1       8.836  -3.446  41.413  1.00  0.00     0.213 HD
ENDBRANCH  36  44
ENDBRANCH  30  31
ENDBRANCH   4  30
TORSDOF 18
ENDMDL
MODEL 3
REMARK VINA RESULT:    -6.131      4.953     11.018
REMARK INTER + INTRA:         -12.569
REMARK INTER:                  -9.851
REMARK INTRA:                  -2.718
REMARK UNBOUND:                -1.958
REMARK SMILES OC[C@@H]1O[C@H](O)[C@@H](O)[C@@H](O)[C@H]1O[C@H]1O[C@H](CO)[C@@H](O[C@@H]2O[C@H](CO)[C@@H](O)[C@@H](O)[C@@H]2O)[C@H](O)[C@H]1O
REMARK SMILES IDX 18 1 15 2 14 3 13 4 33 5 31 6 19 7 20 8 22 9 25 10 21 11
REMARK SMILES IDX 27 12 29 13 23 14 24 15 26 17 28 19 30 21 16 23 17 24 32 26
REMARK SMILES IDX 34 28 12 30 11 31 3 32 9 33 4 34 7 35 5 36 2 37 1 38 10 40
REMARK SMILES IDX 8 42 6 44
REMARK H PARENT 24 16 26 18 28 20 30 22 17 25 32 27 34 29 1 39 10 41 8 43 6 45
REMARK Flexibility Score: inf
ROOT
ATOM      1  C   UNL     1      20.175   7.993  46.826  1.00  0.00     0.184 C 
ATOM      2  C   UNL     1      19.000   6.987  46.781  1.00  0.00     0.178 C 
ATOM      3  O   UNL     1      17.756   7.648  46.603  1.00  0.00    -0.341 OA
ATOM      4  C   UNL     1      17.700   8.326  45.359  1.00  0.00     0.282 C 
ATOM      5  C   UNL     1      18.767   9.435  45.305  1.00  0.00     0.202 C 
ATOM      6  C   UNL     1      20.166   8.845  45.540  1.00  0.00     0.180 C 
ENDROOT
BRANCH   1   7
ATOM      7  O   UNL     1      21.379   7.250  46.906  1.00  0.00    -0.341 OA
BRANCH   7   8
ATOM      8  C   UNL     1      22.395   7.885  47.667  1.00  0.00     0.282 C 
ATOM      9  C   UNL     1      24.142   7.432  46.087  1.00  0.00     0.178 C 
ATOM     10  C   UNL     1      24.702   6.273  46.962  1.00  0.00     0.177 C 
ATOM     11  O   UNL     1      23.395   8.412  46.807  1.00  0.00    -0.341 OA
ATOM     12  C   UNL     1      23.676   5.739  47.976  1.00  0.00     0.179 C 
ATOM     13  C   UNL     1      22.981   6.901  48.697  1.00  0.00     0.202 C 
BRANCH   9  14
ATOM     14  C   UNL     1      23.458   6.990  44.769  1.00  0.00     0.191 C 
BRANCH  14  15
ATOM     15  O   UNL     1      22.717   5.807  44.898  1.00  0.00    -0.394 OA
ATOM     16  H   UNL     1      21.792   6.066  45.153  1.00  0.00     0.210 HD
ENDBRANCH  14  15
ENDBRANCH   9  14
BRANCH  10  17
ATOM     17  O   UNL     1      25.882   6.672  47.615  1.00  0.00    -0.387 OA
ATOM     18  H   UNL     1      25.684   6.753  48.582  1.00  0.00     0.211 HD
ENDBRANCH  10  17
BRANCH  12  19
ATOM     19  O   UNL     1      24.324   4.904  48.900  1.00  0.00    -0.387 OA
ATOM     20  H   UNL     1      23.837   4.983  49.760  1.00  0.00     0.211 HD
ENDBRANCH  12  19
BRANCH  13  21
ATOM     21  O   UNL     1      21.959   6.394  49.515  1.00  0.00    -0.385 OA
ATOM     22  H   UNL     1      21.097   6.634  49.084  1.00  0.00     0.211 HD
ENDBRANCH  13  21
ENDBRANCH   7   8
ENDBRANCH   1   7
BRANCH   2  23
ATOM     23  C   UNL     1      18.925   6.148  48.068  1.00  0.00     0.191 C 
BRANCH  23  24
ATOM     24  O   UNL     1      19.835   5.081  48.039  1.00  0.00    -0.394 OA
ATOM     25  H   UNL     1      19.434   4.376  47.469  1.00  0.00     0.210 HD
ENDBRANCH  23  24
ENDBRANCH   2  23
BRANCH   6  26
ATOM     26  O   UNL     1      21.100   9.889  45.658  1.00  0.00    -0.387 OA
ATOM     27  H   UNL     1      20.916  10.526  44.916  1.00  0.00     0.211 HD
ENDBRANCH   6  26
BRANCH   5  28
ATOM     28  O   UNL     1      18.730  10.086  44.063  1.00  0.00    -0.385 OA
ATOM     29  H   UNL     1      19.670  10.283  43.816  1.00  0.00     0.211 HD
ENDBRANCH   5  28
BRANCH   4  30
ATOM     30  O   UNL     1      17.884   7.422  44.275  1.00  0.00    -0.341 OA
BRANCH  30  31
ATOM     31  C   UNL     1      16.772   7.389  43.397  1.00  0.00     0.184 C 
ATOM     32  C   UNL     1      17.261   6.984  41.981  1.00  0.00     0.178 C 
ATOM     33  C   UNL     1      15.692   6.399  43.904  1.00  0.00     0.180 C 
ATOM     34  O   UNL     1      16.165   6.886  41.085  1.00  0.00    -0.342 OA
ATOM     35  C   UNL     1      14.641   6.120  42.807  1.00  0.00     0.201 C 
ATOM     36  C   UNL     1      15.315   5.814  41.453  1.00  0.00     0.279 C 
BRANCH  32  37
ATOM     37  C   UNL     1      18.242   8.033  41.434  1.00  0.00     0.191 C 
BRANCH  37  38
ATOM     38  O   UNL     1      19.461   7.971  42.124  1.00  0.00    -0.394 OA
ATOM     39  H   UNL     1      19.374   7.248  42.802  1.00  0.00     0.210 HD
ENDBRANCH  37  38
ENDBRANCH  32  37
BRANCH  33  40
ATOM     40  O   UNL     1      16.260   5.207  44.395  1.00  0.00    -0.387 OA
ATOM     41  H   UNL     1      15.740   4.442  44.047  1.00  0.00     0.211 HD
ENDBRANCH  33  40
BRANCH  35  42
ATOM     42  O   UNL     1      13.757   5.095  43.196  1.00  0.00    -0.385 OA
ATOM     43  H   UNL     1      13.438   5.301  44.113  1.00  0.00     0.211 HD
ENDBRANCH  35  42
BRANCH  36  44
ATOM     44  O   UNL     1      14.319   5.670  40.479  1.00  0.00    -0.366 OA
ATOM     45  H   UNL     1      13.506   5.342  40.951  1.00  0.00     0.213 HD
ENDBRANCH  36  44
ENDBRANCH  30  31
ENDBRANCH   4  30
TORSDOF 18
ENDMDL
MODEL 4
REMARK VINA RESULT:    -5.698      6.291      9.735
REMARK INTER + INTRA:         -11.820
REMARK INTER:                  -9.365
REMARK INTRA:                  -2.456
REMARK UNBOUND:                -1.958
REMARK SMILES OC[C@@H]1O[C@H](O)[C@@H](O)[C@@H](O)[C@H]1O[C@H]1O[C@H](CO)[C@@H](O[C@@H]2O[C@H](CO)[C@@H](O)[C@@H](O)[C@@H]2O)[C@H](O)[C@H]1O
REMARK SMILES IDX 18 1 15 2 14 3 13 4 33 5 31 6 19 7 20 8 22 9 25 10 21 11
REMARK SMILES IDX 27 12 29 13 23 14 24 15 26 17 28 19 30 21 16 23 17 24 32 26
REMARK SMILES IDX 34 28 12 30 11 31 3 32 9 33 4 34 7 35 5 36 2 37 1 38 10 40
REMARK SMILES IDX 8 42 6 44
REMARK H PARENT 24 16 26 18 28 20 30 22 17 25 32 27 34 29 1 39 10 41 8 43 6 45
REMARK Flexibility Score: inf
ROOT
ATOM      1  C   UNL     1      18.604   8.328  46.159  1.00  0.00     0.184 C 
ATOM      2  C   UNL     1      19.960   9.038  46.393  1.00  0.00     0.178 C 
ATOM      3  O   UNL     1      20.404   8.882  47.732  1.00  0.00    -0.341 OA
ATOM      4  C   UNL     1      20.649   7.520  48.045  1.00  0.00     0.282 C 
ATOM      5  C   UNL     1      19.346   6.707  47.946  1.00  0.00     0.202 C 
ATOM      6  C   UNL     1      18.735   6.840  46.542  1.00  0.00     0.180 C 
ENDROOT
BRANCH   1   7
ATOM      7  O   UNL     1      18.284   8.448  44.783  1.00  0.00    -0.341 OA
BRANCH   7   8
ATOM      8  C   UNL     1      16.898   8.327  44.505  1.00  0.00     0.282 C 
ATOM      9  C   UNL     1      17.202   6.973  42.550  1.00  0.00     0.178 C 
ATOM     10  C   UNL     1      16.925   8.180  41.608  1.00  0.00     0.177 C 
ATOM     11  O   UNL     1      16.633   7.094  43.853  1.00  0.00    -0.341 OA
ATOM     12  C   UNL     1      17.107   9.539  42.308  1.00  0.00     0.179 C 
ATOM     13  C   UNL     1      16.414   9.532  43.676  1.00  0.00     0.202 C 
BRANCH   9  14
ATOM     14  C   UNL     1      18.668   6.473  42.567  1.00  0.00     0.191 C 
BRANCH  14  15
ATOM     15  O   UNL     1      19.604   7.494  42.346  1.00  0.00    -0.394 OA
ATOM     16  H   UNL     1      19.116   8.357  42.401  1.00  0.00     0.210 HD
ENDBRANCH  14  15
ENDBRANCH   9  14
BRANCH  10  17
ATOM     17  O   UNL     1      15.642   8.083  41.041  1.00  0.00    -0.387 OA
ATOM     18  H   UNL     1      15.730   7.639  40.161  1.00  0.00     0.211 HD
ENDBRANCH  10  17
BRANCH  12  19
ATOM     19  O   UNL     1      16.582  10.556  41.495  1.00  0.00    -0.387 OA
ATOM     20  H   UNL     1      15.856  10.996  42.007  1.00  0.00     0.211 HD
ENDBRANCH  12  19
BRANCH  13  21
ATOM     21  O   UNL     1      16.708  10.729  44.350  1.00  0.00    -0.385 OA
ATOM     22  H   UNL     1      17.610  10.622  44.751  1.00  0.00     0.211 HD
ENDBRANCH  13  21
ENDBRANCH   7   8
ENDBRANCH   1   7
BRANCH   2  23
ATOM     23  C   UNL     1      19.872  10.541  46.080  1.00  0.00     0.191 C 
BRANCH  23  24
ATOM     24  O   UNL     1      19.655  10.770  44.714  1.00  0.00    -0.394 OA
ATOM     25  H   UNL     1      19.407   9.899  44.312  1.00  0.00     0.210 HD
ENDBRANCH  23  24
ENDBRANCH   2  23
BRANCH   6  26
ATOM     26  O   UNL     1      17.467   6.234  46.525  1.00  0.00    -0.387 OA
ATOM     27  H   UNL     1      17.615   5.258  46.405  1.00  0.00     0.211 HD
ENDBRANCH   6  26
BRANCH   5  28
ATOM     28  O   UNL     1      19.595   5.354  48.227  1.00  0.00    -0.385 OA
ATOM     29  H   UNL     1      19.515   4.865  47.368  1.00  0.00     0.211 HD
ENDBRANCH   5  28
BRANCH   4  30
ATOM     30  O   UNL     1      21.635   6.967  47.180  1.00  0.00    -0.341 OA
BRANCH  30  31
ATOM     31  C   UNL     1      22.956   7.291  47.581  1.00  0.00     0.184 C 
ATOM     32  C   UNL     1      23.718   5.980  47.908  1.00  0.00     0.178 C 
ATOM     33  C   UNL     1      23.693   8.088  46.474  1.00  0.00     0.180 C 
ATOM     34  O   UNL     1      25.064   6.260  48.260  1.00  0.00    -0.342 OA
ATOM     35  C   UNL     1      25.208   8.162  46.764  1.00  0.00     0.201 C 
ATOM     36  C   UNL     1      25.772   6.778  47.148  1.00  0.00     0.279 C 
BRANCH  32  37
ATOM     37  C   UNL     1      23.051   5.254  49.086  1.00  0.00     0.191 C 
BRANCH  37  38
ATOM     38  O   UNL     1      22.187   4.253  48.619  1.00  0.00    -0.394 OA
ATOM     39  H   UNL     1      22.178   4.318  47.626  1.00  0.00     0.210 HD
ENDBRANCH  37  38
ENDBRANCH  32  37
BRANCH  33  40
ATOM     40  O   UNL     1      23.434   7.568  45.190  1.00  0.00    -0.387 OA
ATOM     41  H   UNL     1      22.733   6.875  45.265  1.00  0.00     0.211 HD
ENDBRANCH  33  40
BRANCH  35  42
ATOM     42  O   UNL     1      25.907   8.733  45.683  1.00  0.00    -0.385 OA
ATOM     43  H   UNL     1      26.852   8.851  45.960  1.00  0.00     0.211 HD
ENDBRANCH  35  42
BRANCH  36  44
ATOM     44  O   UNL     1      27.121   6.925  47.496  1.00  0.00    -0.366 OA
ATOM     45  H   UNL     1      27.567   6.063  47.273  1.00  0.00     0.213 HD
ENDBRANCH  36  44
ENDBRANCH  30  31
ENDBRANCH   4  30
TORSDOF 18
ENDMDL
MODEL 5
REMARK VINA RESULT:    -5.587      3.147      7.982
REMARK INTER + INTRA:         -11.628
REMARK INTER:                  -8.806
REMARK INTRA:                  -2.822
REMARK UNBOUND:                -1.958
REMARK SMILES OC[C@@H]1O[C@H](O)[C@@H](O)[C@@H](O)[C@H]1O[C@H]1O[C@H](CO)[C@@H](O[C@@H]2O[C@H](CO)[C@@H](O)[C@@H](O)[C@@H]2O)[C@H](O)[C@H]1O
REMARK SMILES IDX 18 1 15 2 14 3 13 4 33 5 31 6 19 7 20 8 22 9 25 10 21 11
REMARK SMILES IDX 27 12 29 13 23 14 24 15 26 17 28 19 30 21 16 23 17 24 32 26
REMARK SMILES IDX 34 28 12 30 11 31 3 32 9 33 4 34 7 35 5 36 2 37 1 38 10 40
REMARK SMILES IDX 8 42 6 44
REMARK H PARENT 24 16 26 18 28 20 30 22 17 25 32 27 34 29 1 39 10 41 8 43 6 45
REMARK Flexibility Score: inf
ROOT
ATOM      1  C   UNL     1      13.899   7.507  41.588  1.00  0.00     0.184 C 
ATOM      2  C   UNL     1      12.874   8.104  42.583  1.00  0.00     0.178 C 
ATOM      3  O   UNL     1      11.540   7.841  42.177  1.00  0.00    -0.341 OA
ATOM      4  C   UNL     1      11.264   6.450  42.164  1.00  0.00     0.282 C 
ATOM      5  C   UNL     1      12.156   5.737  41.132  1.00  0.00     0.202 C 
ATOM      6  C   UNL     1      13.640   5.993  41.438  1.00  0.00     0.180 C 
ENDROOT
BRANCH   1   7
ATOM      7  O   UNL     1      15.196   7.727  42.116  1.00  0.00    -0.341 OA
BRANCH   7   8
ATOM      8  C   UNL     1      16.179   7.991  41.128  1.00  0.00     0.282 C 
ATOM      9  C   UNL     1      17.698   6.304  41.900  1.00  0.00     0.178 C 
ATOM     10  C   UNL     1      18.608   7.364  42.585  1.00  0.00     0.177 C 
ATOM     11  O   UNL     1      16.903   6.807  40.828  1.00  0.00    -0.341 OA
ATOM     12  C   UNL     1      17.885   8.698  42.840  1.00  0.00     0.179 C 
ATOM     13  C   UNL     1      17.105   9.131  41.592  1.00  0.00     0.202 C 
BRANCH   9  14
ATOM     14  C   UNL     1      16.907   5.390  42.870  1.00  0.00     0.191 C 
BRANCH  14  15
ATOM     15  O   UNL     1      16.507   4.179  42.288  1.00  0.00    -0.394 OA
ATOM     16  H   UNL     1      15.748   3.832  42.826  1.00  0.00     0.210 HD
ENDBRANCH  14  15
ENDBRANCH   9  14
BRANCH  10  17
ATOM     17  O   UNL     1      19.779   7.571  41.834  1.00  0.00    -0.387 OA
ATOM     18  H   UNL     1      20.273   8.328  42.239  1.00  0.00     0.211 HD
ENDBRANCH  10  17
BRANCH  12  19
ATOM     19  O   UNL     1      18.825   9.678  43.197  1.00  0.00    -0.387 OA
ATOM     20  H   UNL     1      18.329  10.524  43.341  1.00  0.00     0.211 HD
ENDBRANCH  12  19
BRANCH  13  21
ATOM     21  O   UNL     1      16.348  10.275  41.892  1.00  0.00    -0.385 OA
ATOM     22  H   UNL     1      15.409   9.977  42.012  1.00  0.00     0.211 HD
ENDBRANCH  13  21
ENDBRANCH   7   8
ENDBRANCH   1   7
BRANCH   2  23
ATOM     23  C   UNL     1      13.049   9.625  42.729  1.00  0.00     0.191 C 
BRANCH  23  24
ATOM     24  O   UNL     1      13.483  10.210  41.530  1.00  0.00    -0.394 OA
ATOM     25  H   UNL     1      13.162   9.628  40.794  1.00  0.00     0.210 HD
ENDBRANCH  23  24
ENDBRANCH   2  23
BRANCH   6  26
ATOM     26  O   UNL     1      14.428   5.480  40.394  1.00  0.00    -0.387 OA
ATOM     27  H   UNL     1      15.277   5.998  40.391  1.00  0.00     0.211 HD
ENDBRANCH   6  26
BRANCH   5  28
ATOM     28  O   UNL     1      11.902   4.357  41.141  1.00  0.00    -0.385 OA
ATOM     29  H   UNL     1      10.948   4.244  41.387  1.00  0.00     0.211 HD
ENDBRANCH   5  28
BRANCH   4  30
ATOM     30  O   UNL     1      11.458   5.879  43.453  1.00  0.00    -0.341 OA
BRANCH  30  31
ATOM     31  C   UNL     1      10.340   6.063  44.306  1.00  0.00     0.184 C 
ATOM     32  C   UNL     1      10.009   4.715  44.998  1.00  0.00     0.178 C 
ATOM     33  C   UNL     1      10.621   7.163  45.361  1.00  0.00     0.180 C 
ATOM     34  O   UNL     1       8.928   4.872  45.904  1.00  0.00    -0.342 OA
ATOM     35  C   UNL     1       9.552   7.143  46.476  1.00  0.00     0.201 C 
ATOM     36  C   UNL     1       9.302   5.708  46.985  1.00  0.00     0.279 C 
BRANCH  32  37
ATOM     37  C   UNL     1       9.616   3.659  43.953  1.00  0.00     0.191 C 
BRANCH  37  38
ATOM     38  O   UNL     1      10.753   2.989  43.481  1.00  0.00    -0.394 OA
ATOM     39  H   UNL     1      11.309   3.662  43.004  1.00  0.00     0.210 HD
ENDBRANCH  37  38
ENDBRANCH  32  37
BRANCH  33  40
ATOM     40  O   UNL     1      11.924   7.066  45.888  1.00  0.00    -0.387 OA
ATOM     41  H   UNL     1      12.285   7.978  46.010  1.00  0.00     0.211 HD
ENDBRANCH  33  40
BRANCH  35  42
ATOM     42  O   UNL     1       9.892   8.020  47.524  1.00  0.00    -0.385 OA
ATOM     43  H   UNL     1       9.985   7.483  48.352  1.00  0.00     0.211 HD
ENDBRANCH  35  42
BRANCH  36  44
ATOM     44  O   UNL     1       8.257   5.739  47.917  1.00  0.00    -0.366 OA
ATOM     45  H   UNL     1       8.139   4.806  48.243  1.00  0.00     0.213 HD
ENDBRANCH  36  44
ENDBRANCH  30  31
ENDBRANCH   4  30
TORSDOF 18
ENDMDL
MODEL 6
REMARK VINA RESULT:    -5.499      5.701      9.897
REMARK INTER + INTRA:         -11.476
REMARK INTER:                  -8.870
REMARK INTRA:                  -2.606
REMARK UNBOUND:                -1.958
REMARK SMILES OC[C@@H]1O[C@H](O)[C@@H](O)[C@@H](O)[C@H]1O[C@H]1O[C@H](CO)[C@@H](O[C@@H]2O[C@H](CO)[C@@H](O)[C@@H](O)[C@@H]2O)[C@H](O)[C@H]1O
REMARK SMILES IDX 18 1 15 2 14 3 13 4 33 5 31 6 19 7 20 8 22 9 25 10 21 11
REMARK SMILES IDX 27 12 29 13 23 14 24 15 26 17 28 19 30 21 16 23 17 24 32 26
REMARK SMILES IDX 34 28 12 30 11 31 3 32 9 33 4 34 7 35 5 36 2 37 1 38 10 40
REMARK SMILES IDX 8 42 6 44
REMARK H PARENT 24 16 26 18 28 20 30 22 17 25 32 27 34 29 1 39 10 41 8 43 6 45
REMARK Flexibility Score: inf
ROOT
ATOM      1  C   UNL     1      20.003   8.206  44.771  1.00  0.00     0.184 C 
ATOM      2  C   UNL     1      21.165   7.277  45.201  1.00  0.00     0.178 C 
ATOM      3  O   UNL     1      22.292   8.022  45.635  1.00  0.00    -0.341 OA
ATOM      4  C   UNL     1      21.997   8.790  46.789  1.00  0.00     0.282 C 
ATOM      5  C   UNL     1      20.911   9.835  46.473  1.00  0.00     0.202 C 
ATOM      6  C   UNL     1      19.644   9.147  45.940  1.00  0.00     0.180 C 
ENDROOT
BRANCH   1   7
ATOM      7  O   UNL     1      18.891   7.388  44.449  1.00  0.00    -0.341 OA
BRANCH   7   8
ATOM      8  C   UNL     1      18.177   7.818  43.301  1.00  0.00     0.282 C 
ATOM      9  C   UNL     1      16.031   7.776  44.371  1.00  0.00     0.178 C 
ATOM     10  C   UNL     1      15.652   6.439  43.671  1.00  0.00     0.177 C 
ATOM     11  O   UNL     1      17.019   8.545  43.687  1.00  0.00    -0.341 OA
ATOM     12  C   UNL     1      16.877   5.667  43.152  1.00  0.00     0.179 C 
ATOM     13  C   UNL     1      17.829   6.612  42.408  1.00  0.00     0.202 C 
BRANCH   9  14
ATOM     14  C   UNL     1      16.287   7.672  45.896  1.00  0.00     0.191 C 
BRANCH  14  15
ATOM     15  O   UNL     1      16.934   6.486  46.270  1.00  0.00    -0.394 OA
ATOM     16  H   UNL     1      16.253   5.763  46.256  1.00  0.00     0.210 HD
ENDBRANCH  14  15
ENDBRANCH   9  14
BRANCH  10  17
ATOM     17  O   UNL     1      14.733   6.667  42.632  1.00  0.00    -0.387 OA
ATOM     18  H   UNL     1      13.906   6.164  42.839  1.00  0.00     0.211 HD
ENDBRANCH  10  17
BRANCH  12  19
ATOM     19  O   UNL     1      16.451   4.631  42.305  1.00  0.00    -0.387 OA
ATOM     20  H   UNL     1      15.562   4.335  42.628  1.00  0.00     0.211 HD
ENDBRANCH  12  19
BRANCH  13  21
ATOM     21  O   UNL     1      18.998   5.915  42.063  1.00  0.00    -0.385 OA
ATOM     22  H   UNL     1      19.301   5.436  42.879  1.00  0.00     0.211 HD
ENDBRANCH  13  21
ENDBRANCH   7   8
ENDBRANCH   1   7
BRANCH   2  23
ATOM     23  C   UNL     1      21.603   6.353  44.053  1.00  0.00     0.191 C 
BRANCH  23  24
ATOM     24  O   UNL     1      21.548   7.009  42.815  1.00  0.00    -0.394 OA
ATOM     25  H   UNL     1      22.065   6.457  42.174  1.00  0.00     0.210 HD
ENDBRANCH  23  24
ENDBRANCH   2  23
BRANCH   6  26
ATOM     26  O   UNL     1      18.734  10.122  45.499  1.00  0.00    -0.387 OA
ATOM     27  H   UNL     1      19.229  10.983  45.459  1.00  0.00     0.211 HD
ENDBRANCH   6  26
BRANCH   5  28
ATOM     28  O   UNL     1      20.598  10.575  47.624  1.00  0.00    -0.385 OA
ATOM     29  H   UNL     1      19.737  11.032  47.444  1.00  0.00     0.211 HD
ENDBRANCH   5  28
BRANCH   4  30
ATOM     30  O   UNL     1      21.573   7.957  47.863  1.00  0.00    -0.341 OA
BRANCH  30  31
ATOM     31  C   UNL     1      22.627   7.169  48.391  1.00  0.00     0.184 C 
ATOM     32  C   UNL     1      22.744   7.442  49.913  1.00  0.00     0.178 C 
ATOM     33  C   UNL     1      22.381   5.662  48.125  1.00  0.00     0.180 C 
ATOM     34  O   UNL     1      23.754   6.628  50.490  1.00  0.00    -0.342 OA
ATOM     35  C   UNL     1      23.341   4.790  48.964  1.00  0.00     0.201 C 
ATOM     36  C   UNL     1      23.385   5.262  50.432  1.00  0.00     0.279 C 
BRANCH  32  37
ATOM     37  C   UNL     1      23.106   8.914  50.167  1.00  0.00     0.191 C 
BRANCH  37  38
ATOM     38  O   UNL     1      21.949   9.706  50.187  1.00  0.00    -0.394 OA
ATOM     39  H   UNL     1      22.247  10.651  50.283  1.00  0.00     0.210 HD
ENDBRANCH  37  38
ENDBRANCH  32  37
BRANCH  33  40
ATOM     40  O   UNL     1      21.035   5.303  48.335  1.00  0.00    -0.387 OA
ATOM     41  H   UNL     1      20.678   4.912  47.501  1.00  0.00     0.211 HD
ENDBRANCH  33  40
BRANCH  35  42
ATOM     42  O   UNL     1      23.013   3.425  48.860  1.00  0.00    -0.385 OA
ATOM     43  H   UNL     1      23.268   3.120  47.951  1.00  0.00     0.211 HD
ENDBRANCH  35  42
BRANCH  36  44
ATOM     44  O   UNL     1      24.342   4.504  51.118  1.00  0.00    -0.366 OA
ATOM     45  H   UNL     1      23.856   4.016  51.838  1.00  0.00     0.213 HD
ENDBRANCH  36  44
ENDBRANCH  30  31
ENDBRANCH   4  30
TORSDOF 18
ENDMDL
MODEL 7
REMARK VINA RESULT:    -5.416      2.977      5.372
REMARK INTER + INTRA:         -11.333
REMARK INTER:                  -8.950
REMARK INTRA:                  -2.383
REMARK UNBOUND:                -1.958
REMARK SMILES OC[C@@H]1O[C@H](O)[C@@H](O)[C@@H](O)[C@H]1O[C@H]1O[C@H](CO)[C@@H](O[C@@H]2O[C@H](CO)[C@@H](O)[C@@H](O)[C@@H]2O)[C@H](O)[C@H]1O
REMARK SMILES IDX 18 1 15 2 14 3 13 4 33 5 31 6 19 7 20 8 22 9 25 10 21 11
REMARK SMILES IDX 27 12 29 13 23 14 24 15 26 17 28 19 30 21 16 23 17 24 32 26
REMARK SMILES IDX 34 28 12 30 11 31 3 32 9 33 4 34 7 35 5 36 2 37 1 38 10 40
REMARK SMILES IDX 8 42 6 44
REMARK H PARENT 24 16 26 18 28 20 30 22 17 25 32 27 34 29 1 39 10 41 8 43 6 45
REMARK Flexibility Score: inf
ROOT
ATOM      1  C   UNL     1      14.675   6.975  41.533  1.00  0.00     0.184 C 
ATOM      2  C   UNL     1      15.999   6.176  41.473  1.00  0.00     0.178 C 
ATOM      3  O   UNL     1      17.025   6.919  40.833  1.00  0.00    -0.341 OA
ATOM      4  C   UNL     1      17.346   8.096  41.556  1.00  0.00     0.282 C 
ATOM      5  C   UNL     1      16.129   9.038  41.610  1.00  0.00     0.202 C 
ATOM      6  C   UNL     1      14.924   8.323  42.242  1.00  0.00     0.180 C 
ENDROOT
BRANCH   1   7
ATOM      7  O   UNL     1      13.738   6.207  42.270  1.00  0.00    -0.341 OA
BRANCH   7   8
ATOM      8  C   UNL     1      12.438   6.188  41.700  1.00  0.00     0.282 C 
ATOM      9  C   UNL     1      11.320   6.804  43.729  1.00  0.00     0.178 C 
ATOM     10  C   UNL     1      10.850   5.340  43.974  1.00  0.00     0.177 C 
ATOM     11  O   UNL     1      11.597   7.118  42.366  1.00  0.00    -0.341 OA
ATOM     12  C   UNL     1      11.678   4.307  43.190  1.00  0.00     0.179 C 
ATOM     13  C   UNL     1      11.862   4.760  41.737  1.00  0.00     0.202 C 
BRANCH   9  14
ATOM     14  C   UNL     1      12.405   7.319  44.708  1.00  0.00     0.191 C 
BRANCH  14  15
ATOM     15  O   UNL     1      13.286   6.316  45.137  1.00  0.00    -0.394 OA
ATOM     16  H   UNL     1      13.563   5.804  44.332  1.00  0.00     0.210 HD
ENDBRANCH  14  15
ENDBRANCH   9  14
BRANCH  10  17
ATOM     17  O   UNL     1       9.481   5.204  43.679  1.00  0.00    -0.387 OA
ATOM     18  H   UNL     1       9.107   6.111  43.543  1.00  0.00     0.211 HD
ENDBRANCH  10  17
BRANCH  12  19
ATOM     19  O   UNL     1      11.035   3.060  43.240  1.00  0.00    -0.387 OA
ATOM     20  H   UNL     1      10.066   3.233  43.360  1.00  0.00     0.211 HD
ENDBRANCH  12  19
BRANCH  13  21
ATOM     21  O   UNL     1      12.731   3.873  41.081  1.00  0.00    -0.385 OA
ATOM     22  H   UNL     1      12.578   3.984  40.107  1.00  0.00     0.211 HD
ENDBRANCH  13  21
ENDBRANCH   7   8
ENDBRANCH   1   7
BRANCH   2  23
ATOM     23  C   UNL     1      15.822   4.844  40.725  1.00  0.00     0.191 C 
BRANCH  23  24
ATOM     24  O   UNL     1      17.047   4.351  40.254  1.00  0.00    -0.394 OA
ATOM     25  H   UNL     1      17.319   4.932  39.498  1.00  0.00     0.210 HD
ENDBRANCH  23  24
ENDBRANCH   2  23
BRANCH   6  26
ATOM     26  O   UNL     1      13.785   9.137  42.126  1.00  0.00    -0.387 OA
ATOM     27  H   UNL     1      13.062   8.569  41.748  1.00  0.00     0.211 HD
ENDBRANCH   6  26
BRANCH   5  28
ATOM     28  O   UNL     1      16.438  10.189  42.351  1.00  0.00    -0.385 OA
ATOM     29  H   UNL     1      17.337  10.044  42.743  1.00  0.00     0.211 HD
ENDBRANCH   5  28
BRANCH   4  30
ATOM     30  O   UNL     1      17.778   7.783  42.876  1.00  0.00    -0.341 OA
BRANCH  30  31
ATOM     31  C   UNL     1      19.189   7.818  43.011  1.00  0.00     0.184 C 
ATOM     32  C   UNL     1      19.552   7.709  44.515  1.00  0.00     0.178 C 
ATOM     33  C   UNL     1      19.852   6.671  42.206  1.00  0.00     0.180 C 
ATOM     34  O   UNL     1      20.961   7.684  44.687  1.00  0.00    -0.342 OA
ATOM     35  C   UNL     1      21.336   6.507  42.601  1.00  0.00     0.201 C 
ATOM     36  C   UNL     1      21.508   6.500  44.135  1.00  0.00     0.279 C 
BRANCH  32  37
ATOM     37  C   UNL     1      18.992   8.912  45.289  1.00  0.00     0.191 C 
BRANCH  37  38
ATOM     38  O   UNL     1      18.808  10.006  44.431  1.00  0.00    -0.394 OA
ATOM     39  H   UNL     1      19.324   9.813  43.602  1.00  0.00     0.210 HD
ENDBRANCH  37  38
ENDBRANCH  32  37
BRANCH  33  40
ATOM     40  O   UNL     1      19.144   5.460  42.333  1.00  0.00    -0.387 OA
ATOM     41  H   UNL     1      19.353   5.061  43.213  1.00  0.00     0.211 HD
ENDBRANCH  33  40
BRANCH  35  42
ATOM     42  O   UNL     1      21.900   5.363  42.004  1.00  0.00    -0.385 OA
ATOM     43  H   UNL     1      21.287   5.063  41.284  1.00  0.00     0.211 HD
ENDBRANCH  35  42
BRANCH  36  44
ATOM     44  O   UNL     1      22.876   6.451  44.432  1.00  0.00    -0.366 OA
ATOM     45  H   UNL     1      23.179   7.394  44.535  1.00  0.00     0.213 HD
ENDBRANCH  36  44
ENDBRANCH  30  31
ENDBRANCH   4  30
TORSDOF 18
ENDMDL
MODEL 8
REMARK VINA RESULT:    -5.397      2.227      2.520
REMARK INTER + INTRA:         -11.299
REMARK INTER:                  -8.477
REMARK INTRA:                  -2.822
REMARK UNBOUND:                -1.958
REMARK SMILES OC[C@@H]1O[C@H](O)[C@@H](O)[C@@H](O)[C@H]1O[C@H]1O[C@H](CO)[C@@H](O[C@@H]2O[C@H](CO)[C@@H](O)[C@@H](O)[C@@H]2O)[C@H](O)[C@H]1O
REMARK SMILES IDX 18 1 15 2 14 3 13 4 33 5 31 6 19 7 20 8 22 9 25 10 21 11
REMARK SMILES IDX 27 12 29 13 23 14 24 15 26 17 28 19 30 21 16 23 17 24 32 26
REMARK SMILES IDX 34 28 12 30 11 31 3 32 9 33 4 34 7 35 5 36 2 37 1 38 10 40
REMARK SMILES IDX 8 42 6 44
REMARK H PARENT 24 16 26 18 28 20 30 22 17 25 32 27 34 29 1 39 10 41 8 43 6 45
REMARK Flexibility Score: inf
ROOT
ATOM      1  C   UNL     1      11.030   6.432  41.620  1.00  0.00     0.184 C 
ATOM      2  C   UNL     1      12.195   6.845  40.689  1.00  0.00     0.178 C 
ATOM      3  O   UNL     1      12.774   8.076  41.095  1.00  0.00    -0.341 OA
ATOM      4  C   UNL     1      13.358   7.976  42.384  1.00  0.00     0.282 C 
ATOM      5  C   UNL     1      12.281   7.661  43.437  1.00  0.00     0.202 C 
ATOM      6  C   UNL     1      11.539   6.365  43.075  1.00  0.00     0.180 C 
ENDROOT
BRANCH   1   7
ATOM      7  O   UNL     1      10.576   5.155  41.206  1.00  0.00    -0.341 OA
BRANCH   7   8
ATOM      8  C   UNL     1       9.163   5.048  41.122  1.00  0.00     0.282 C 
ATOM      9  C   UNL     1       9.028   3.079  42.483  1.00  0.00     0.178 C 
ATOM     10  C   UNL     1       8.818   2.171  41.237  1.00  0.00     0.177 C 
ATOM     11  O   UNL     1       8.646   4.441  42.296  1.00  0.00    -0.341 OA
ATOM     12  C   UNL     1       9.278   2.835  39.928  1.00  0.00     0.179 C 
ATOM     13  C   UNL     1       8.763   4.278  39.850  1.00  0.00     0.202 C 
BRANCH   9  14
ATOM     14  C   UNL     1      10.398   2.921  43.189  1.00  0.00     0.191 C 
BRANCH  14  15
ATOM     15  O   UNL     1      10.364   3.265  44.548  1.00  0.00    -0.394 OA
ATOM     16  H   UNL     1       9.676   3.974  44.654  1.00  0.00     0.210 HD
ENDBRANCH  14  15
ENDBRANCH   9  14
BRANCH  10  17
ATOM     17  O   UNL     1       7.474   1.765  41.141  1.00  0.00    -0.387 OA
ATOM     18  H   UNL     1       6.998   2.093  41.945  1.00  0.00     0.211 HD
ENDBRANCH  10  17
BRANCH  12  19
ATOM     19  O   UNL     1       8.811   2.086  38.836  1.00  0.00    -0.387 OA
ATOM     20  H   UNL     1       9.576   1.961  38.217  1.00  0.00     0.211 HD
ENDBRANCH  12  19
BRANCH  13  21
ATOM     21  O   UNL     1       9.306   4.903  38.716  1.00  0.00    -0.385 OA
ATOM     22  H   UNL     1       8.577   5.436  38.303  1.00  0.00     0.211 HD
ENDBRANCH  13  21
ENDBRANCH   7   8
ENDBRANCH   1   7
BRANCH   2  23
ATOM     23  C   UNL     1      11.729   6.984  39.229  1.00  0.00     0.191 C 
BRANCH  23  24
ATOM     24  O   UNL     1      11.965   5.810  38.501  1.00  0.00    -0.394 OA
ATOM     25  H   UNL     1      12.458   5.194  39.100  1.00  0.00     0.210 HD
ENDBRANCH  23  24
ENDBRANCH   2  23
BRANCH   6  26
ATOM     26  O   UNL     1      10.453   6.188  43.949  1.00  0.00    -0.387 OA
ATOM     27  H   UNL     1       9.982   7.061  44.004  1.00  0.00     0.211 HD
ENDBRANCH   6  26
BRANCH   5  28
ATOM     28  O   UNL     1      12.864   7.534  44.707  1.00  0.00    -0.385 OA
ATOM     29  H   UNL     1      12.133   7.641  45.369  1.00  0.00     0.211 HD
ENDBRANCH   5  28
BRANCH   4  30
ATOM     30  O   UNL     1      14.371   6.976  42.410  1.00  0.00    -0.341 OA
BRANCH  30  31
ATOM     31  C   UNL     1      15.677   7.524  42.470  1.00  0.00     0.184 C 
ATOM     32  C   UNL     1      16.616   6.507  43.171  1.00  0.00     0.178 C 
ATOM     33  C   UNL     1      16.204   7.864  41.053  1.00  0.00     0.180 C 
ATOM     34  O   UNL     1      17.948   6.996  43.201  1.00  0.00    -0.342 OA
ATOM     35  C   UNL     1      17.721   8.152  41.082  1.00  0.00     0.201 C 
ATOM     36  C   UNL     1      18.478   7.077  41.890  1.00  0.00     0.279 C 
BRANCH  32  37
ATOM     37  C   UNL     1      16.157   6.264  44.617  1.00  0.00     0.191 C 
BRANCH  37  38
ATOM     38  O   UNL     1      15.629   7.439  45.169  1.00  0.00    -0.394 OA
ATOM     39  H   UNL     1      15.932   8.191  44.592  1.00  0.00     0.210 HD
ENDBRANCH  37  38
ENDBRANCH  32  37
BRANCH  33  40
ATOM     40  O   UNL     1      15.884   6.860  40.117  1.00  0.00    -0.387 OA
ATOM     41  H   UNL     1      14.907   6.866  39.967  1.00  0.00     0.211 HD
ENDBRANCH  33  40
BRANCH  35  42
ATOM     42  O   UNL     1      18.239   8.293  39.781  1.00  0.00    -0.385 OA
ATOM     43  H   UNL     1      19.157   7.917  39.777  1.00  0.00     0.211 HD
ENDBRANCH  35  42
BRANCH  36  44
ATOM     44  O   UNL     1      19.828   7.443  41.968  1.00  0.00    -0.366 OA
ATOM     45  H   UNL     1      20.228   7.244  41.078  1.00  0.00     0.213 HD
ENDBRANCH  36  44
ENDBRANCH  30  31
ENDBRANCH   4  30
TORSDOF 18
ENDMDL
MODEL 9
REMARK VINA RESULT:    -5.341      1.702      2.212
REMARK INTER + INTRA:         -11.202
REMARK INTER:                 -10.046
REMARK INTRA:                  -1.155
REMARK UNBOUND:                -1.958
REMARK SMILES OC[C@@H]1O[C@H](O)[C@@H](O)[C@@H](O)[C@H]1O[C@H]1O[C@H](CO)[C@@H](O[C@@H]2O[C@H](CO)[C@@H](O)[C@@H](O)[C@@H]2O)[C@H](O)[C@H]1O
REMARK SMILES IDX 18 1 15 2 14 3 13 4 33 5 31 6 19 7 20 8 22 9 25 10 21 11
REMARK SMILES IDX 27 12 29 13 23 14 24 15 26 17 28 19 30 21 16 23 17 24 32 26
REMARK SMILES IDX 34 28 12 30 11 31 3 32 9 33 4 34 7 35 5 36 2 37 1 38 10 40
REMARK SMILES IDX 8 42 6 44
REMARK H PARENT 24 16 26 18 28 20 30 22 17 25 32 27 34 29 1 39 10 41 8 43 6 45
REMARK Flexibility Score: inf
ROOT
ATOM      1  C   UNL     1      10.426   3.439  41.337  1.00  0.00     0.184 C 
ATOM      2  C   UNL     1      11.175   4.230  40.238  1.00  0.00     0.178 C 
ATOM      3  O   UNL     1      11.531   5.530  40.685  1.00  0.00    -0.341 OA
ATOM      4  C   UNL     1      12.436   5.477  41.775  1.00  0.00     0.282 C 
ATOM      5  C   UNL     1      11.776   4.793  42.985  1.00  0.00     0.202 C 
ATOM      6  C   UNL     1      11.297   3.382  42.609  1.00  0.00     0.180 C 
ENDROOT
BRANCH   1   7
ATOM      7  O   UNL     1      10.197   2.128  40.848  1.00  0.00    -0.341 OA
BRANCH   7   8
ATOM      8  C   UNL     1       9.096   1.472  41.458  1.00  0.00     0.282 C 
ATOM      9  C   UNL     1      10.286  -0.565  41.883  1.00  0.00     0.178 C 
ATOM     10  C   UNL     1       9.594  -1.279  40.686  1.00  0.00     0.177 C 
ATOM     11  O   UNL     1       9.555   0.536  42.421  1.00  0.00    -0.341 OA
ATOM     12  C   UNL     1       8.997  -0.293  39.666  1.00  0.00     0.179 C 
ATOM     13  C   UNL     1       8.211   0.810  40.386  1.00  0.00     0.202 C 
BRANCH   9  14
ATOM     14  C   UNL     1      11.792  -0.261  41.687  1.00  0.00     0.191 C 
BRANCH  14  15
ATOM     15  O   UNL     1      12.519  -1.354  41.194  1.00  0.00    -0.394 OA
ATOM     16  H   UNL     1      12.485  -2.065  41.886  1.00  0.00     0.210 HD
ENDBRANCH  14  15
ENDBRANCH   9  14
BRANCH  10  17
ATOM     17  O   UNL     1       8.611  -2.174  41.145  1.00  0.00    -0.387 OA
ATOM     18  H   UNL     1       8.778  -2.346  42.105  1.00  0.00     0.211 HD
ENDBRANCH  10  17
BRANCH  12  19
ATOM     19  O   UNL     1       8.164  -0.991  38.777  1.00  0.00    -0.387 OA
ATOM     20  H   UNL     1       7.283  -0.534  38.779  1.00  0.00     0.211 HD
ENDBRANCH  12  19
BRANCH  13  21
ATOM     21  O   UNL     1       7.792   1.767  39.448  1.00  0.00    -0.385 OA
ATOM     22  H   UNL     1       7.384   2.515  39.959  1.00  0.00     0.211 HD
ENDBRANCH  13  21
ENDBRANCH   7   8
ENDBRANCH   1   7
BRANCH   2  23
ATOM     23  C   UNL     1      10.327   4.367  38.963  1.00  0.00     0.191 C 
BRANCH  23  24
ATOM     24  O   UNL     1       8.956   4.348  39.253  1.00  0.00    -0.394 OA
ATOM     25  H   UNL     1       8.479   4.528  38.402  1.00  0.00     0.210 HD
ENDBRANCH  23  24
ENDBRANCH   2  23
BRANCH   6  26
ATOM     26  O   UNL     1      10.550   2.844  43.671  1.00  0.00    -0.387 OA
ATOM     27  H   UNL     1      10.002   2.105  43.293  1.00  0.00     0.211 HD
ENDBRANCH   6  26
BRANCH   5  28
ATOM     28  O   UNL     1      12.683   4.715  44.054  1.00  0.00    -0.385 OA
ATOM     29  H   UNL     1      12.370   5.358  44.741  1.00  0.00     0.211 HD
ENDBRANCH   5  28
BRANCH   4  30
ATOM     30  O   UNL     1      13.629   4.788  41.416  1.00  0.00    -0.341 OA
BRANCH  30  31
ATOM     31  C   UNL     1      14.799   5.531  41.711  1.00  0.00     0.184 C 
ATOM     32  C   UNL     1      15.917   5.124  40.715  1.00  0.00     0.178 C 
ATOM     33  C   UNL     1      14.525   7.054  41.632  1.00  0.00     0.180 C 
ATOM     34  O   UNL     1      17.090   5.889  40.943  1.00  0.00    -0.342 OA
ATOM     35  C   UNL     1      15.847   7.853  41.632  1.00  0.00     0.201 C 
ATOM     36  C   UNL     1      16.863   7.253  40.637  1.00  0.00     0.279 C 
BRANCH  32  37
ATOM     37  C   UNL     1      16.268   3.638  40.882  1.00  0.00     0.191 C 
BRANCH  37  38
ATOM     38  O   UNL     1      17.038   3.191  39.798  1.00  0.00    -0.394 OA
ATOM     39  H   UNL     1      16.781   2.245  39.631  1.00  0.00     0.210 HD
ENDBRANCH  37  38
ENDBRANCH  32  37
BRANCH  33  40
ATOM     40  O   UNL     1      13.718   7.387  40.525  1.00  0.00    -0.387 OA
ATOM     41  H   UNL     1      13.207   8.205  40.741  1.00  0.00     0.211 HD
ENDBRANCH  33  40
BRANCH  35  42
ATOM     42  O   UNL     1      15.617   9.220  41.388  1.00  0.00    -0.385 OA
ATOM     43  H   UNL     1      15.441   9.659  42.260  1.00  0.00     0.211 HD
ENDBRANCH  35  42
BRANCH  36  44
ATOM     44  O   UNL     1      18.071   7.952  40.755  1.00  0.00    -0.366 OA
ATOM     45  H   UNL     1      18.660   7.627  40.021  1.00  0.00     0.213 HD
ENDBRANCH  36  44
ENDBRANCH  30  31
ENDBRANCH   4  30
TORSDOF 18
ENDMDL
