MODEL 1
REMARK VINA RESULT:    -5.479      0.000      0.000
REMARK INTER + INTRA:          -8.220
REMARK INTER:                  -7.721
REMARK INTRA:                  -0.499
REMARK UNBOUND:                -0.499
REMARK SMILES C=CCCCCCCC(=O)[O-]
REMARK SMILES IDX 6 1 7 2 8 3 9 4 10 5 11 6 5 7 4 8 3 9 2 10 1 11
REMARK H PARENT
REMARK Flexibility Score: inf
ROOT
ATOM      1  C   UNL     1      54.426  50.623   4.245  1.00  0.00     0.000 C 
ENDROOT
BRANCH   1   2
ATOM      2  C   UNL     1      54.250  51.954   4.998  1.00  0.00     0.006 C 
BRANCH   2   3
ATOM      3  C   UNL     1      55.094  52.011   6.277  1.00  0.00     0.053 C 
BRANCH   3   4
ATOM      4  C   UNL     1      54.275  51.716   7.497  1.00  0.00     0.041 C 
ATOM      5  O   UNL     1      53.854  52.658   8.220  1.00  0.00    -0.550 OA
ATOM      6  O   UNL     1      53.946  50.405   7.814  1.00  0.00    -0.550 OA
ENDBRANCH   3   4
ENDBRANCH   2   3
ENDBRANCH   1   2
BRANCH   1   7
ATOM      7  C   UNL     1      53.157  49.756   4.271  1.00  0.00     0.000 C 
BRANCH   7   8
ATOM      8  C   UNL     1      51.936  50.513   4.812  1.00  0.00     0.004 C 
BRANCH   8   9
ATOM      9  C   UNL     1      50.674  49.644   4.734  1.00  0.00     0.027 C 
BRANCH   9  10
ATOM     10  C   UNL     1      50.579  48.938   3.408  1.00  0.00    -0.035 C 
ATOM     11  C   UNL     1      49.695  49.309   2.476  1.00  0.00     0.004 C 
ENDBRANCH   9  10
ENDBRANCH   8   9
ENDBRANCH   7   8
ENDBRANCH   1   7
TORSDOF 7
ENDMDL
MODEL 2
REMARK VINA RESULT:    -5.205      3.502      5.776
REMARK INTER + INTRA:          -7.835
REMARK INTER:                  -7.483
REMARK INTRA:                  -0.351
REMARK UNBOUND:                -0.499
REMARK SMILES C=CCCCCCCC(=O)[O-]
REMARK SMILES IDX 6 1 7 2 8 3 9 4 10 5 11 6 5 7 4 8 3 9 2 10 1 11
REMARK H PARENT
REMARK Flexibility Score: inf
ROOT
ATOM      1  C   UNL     1      51.546  49.214   3.874  1.00  0.00     0.000 C 
ENDROOT
BRANCH   1   2
ATOM      2  C   UNL     1      50.080  48.766   3.734  1.00  0.00     0.006 C 
BRANCH   2   3
ATOM      3  C   UNL     1      49.424  49.323   2.464  1.00  0.00     0.053 C 
BRANCH   3   4
ATOM      4  C   UNL     1      48.420  50.389   2.779  1.00  0.00     0.041 C 
ATOM      5  O   UNL     1      48.763  51.406   3.439  1.00  0.00    -0.550 OA
ATOM      6  O   UNL     1      47.116  50.278   2.314  1.00  0.00    -0.550 OA
ENDBRANCH   3   4
ENDBRANCH   2   3
ENDBRANCH   1   2
BRANCH   1   7
ATOM      7  C   UNL     1      51.710  50.410   4.826  1.00  0.00     0.000 C 
BRANCH   7   8
ATOM      8  C   UNL     1      53.162  50.904   4.908  1.00  0.00     0.004 C 
BRANCH   8   9
ATOM      9  C   UNL     1      54.128  49.864   4.324  1.00  0.00     0.027 C 
BRANCH   9  10
ATOM     10  C   UNL     1      55.400  50.509   3.846  1.00  0.00    -0.035 C 
ATOM     11  C   UNL     1      55.728  51.758   4.192  1.00  0.00     0.004 C 
ENDBRANCH   9  10
ENDBRANCH   8   9
ENDBRANCH   7   8
ENDBRANCH   1   7
TORSDOF 7
ENDMDL
MODEL 3
REMARK VINA RESULT:    -5.182      4.211      6.399
REMARK INTER + INTRA:          -7.802
REMARK INTER:                  -7.533
REMARK INTRA:                  -0.270
REMARK UNBOUND:                -0.499
REMARK SMILES C=CCCCCCCC(=O)[O-]
REMARK SMILES IDX 6 1 7 2 8 3 9 4 10 5 11 6 5 7 4 8 3 9 2 10 1 11
REMARK H PARENT
REMARK Flexibility Score: inf
ROOT
ATOM      1  C   UNL     1      51.406  49.018   3.718  1.00  0.00     0.000 C 
ENDROOT
BRANCH   1   2
ATOM      2  C   UNL     1      49.942  48.558   3.610  1.00  0.00     0.006 C 
BRANCH   2   3
ATOM      3  C   UNL     1      49.223  49.193   2.412  1.00  0.00     0.053 C 
BRANCH   3   4
ATOM      4  C   UNL     1      48.070  48.356   1.949  1.00  0.00     0.041 C 
ATOM      5  O   UNL     1      47.139  48.876   1.278  1.00  0.00    -0.550 OA
ATOM      6  O   UNL     1      48.042  46.995   2.225  1.00  0.00    -0.550 OA
ENDBRANCH   3   4
ENDBRANCH   2   3
ENDBRANCH   1   2
BRANCH   1   7
ATOM      7  C   UNL     1      51.585  50.203   4.680  1.00  0.00     0.000 C 
BRANCH   7   8
ATOM      8  C   UNL     1      52.995  50.265   5.285  1.00  0.00     0.004 C 
BRANCH   8   9
ATOM      9  C   UNL     1      54.064  50.070   4.202  1.00  0.00     0.027 C 
BRANCH   9  10
ATOM     10  C   UNL     1      55.117  51.142   4.275  1.00  0.00    -0.035 C 
ATOM     11  C   UNL     1      54.832  52.379   4.693  1.00  0.00     0.004 C 
ENDBRANCH   9  10
ENDBRANCH   8   9
ENDBRANCH   7   8
ENDBRANCH   1   7
TORSDOF 7
ENDMDL
MODEL 4
REMARK VINA RESULT:    -5.181      2.107      3.034
REMARK INTER + INTRA:          -7.801
REMARK INTER:                  -7.396
REMARK INTRA:                  -0.405
REMARK UNBOUND:                -0.499
REMARK SMILES C=CCCCCCCC(=O)[O-]
REMARK SMILES IDX 6 1 7 2 8 3 9 4 10 5 11 6 5 7 4 8 3 9 2 10 1 11
REMARK H PARENT
REMARK Flexibility Score: inf
ROOT
ATOM      1  C   UNL     1      51.550  50.295   5.032  1.00  0.00     0.000 C 
ENDROOT
BRANCH   1   2
ATOM      2  C   UNL     1      52.719  51.295   5.024  1.00  0.00     0.006 C 
BRANCH   2   3
ATOM      3  C   UNL     1      54.045  50.632   4.629  1.00  0.00     0.053 C 
BRANCH   3   4
ATOM      4  C   UNL     1      55.129  51.644   4.410  1.00  0.00     0.041 C 
ATOM      5  O   UNL     1      56.216  51.302   3.875  1.00  0.00    -0.550 OA
ATOM      6  O   UNL     1      54.924  52.971   4.765  1.00  0.00    -0.550 OA
ENDBRANCH   3   4
ENDBRANCH   2   3
ENDBRANCH   1   2
BRANCH   1   7
ATOM      7  C   UNL     1      51.616  49.299   3.863  1.00  0.00     0.000 C 
BRANCH   7   8
ATOM      8  C   UNL     1      50.261  48.636   3.575  1.00  0.00     0.004 C 
BRANCH   8   9
ATOM      9  C   UNL     1      49.518  49.374   2.454  1.00  0.00     0.027 C 
BRANCH   9  10
ATOM     10  C   UNL     1      48.507  50.339   3.012  1.00  0.00    -0.035 C 
ATOM     11  C   UNL     1      48.762  51.648   3.105  1.00  0.00     0.004 C 
ENDBRANCH   9  10
ENDBRANCH   8   9
ENDBRANCH   7   8
ENDBRANCH   1   7
TORSDOF 7
ENDMDL
MODEL 5
REMARK VINA RESULT:    -5.145      3.259      5.578
REMARK INTER + INTRA:          -7.750
REMARK INTER:                  -7.381
REMARK INTRA:                  -0.369
REMARK UNBOUND:                -0.499
REMARK SMILES C=CCCCCCCC(=O)[O-]
REMARK SMILES IDX 6 1 7 2 8 3 9 4 10 5 11 6 5 7 4 8 3 9 2 10 1 11
REMARK H PARENT
REMARK Flexibility Score: inf
ROOT
ATOM      1  C   UNL     1      51.410  49.055   3.818  1.00  0.00     0.000 C 
ENDROOT
BRANCH   1   2
ATOM      2  C   UNL     1      49.972  48.699   3.403  1.00  0.00     0.006 C 
BRANCH   2   3
ATOM      3  C   UNL     1      49.004  49.872   3.607  1.00  0.00     0.053 C 
BRANCH   3   4
ATOM      4  C   UNL     1      47.955  49.557   4.629  1.00  0.00     0.041 C 
ATOM      5  O   UNL     1      46.927  48.907   4.302  1.00  0.00    -0.550 OA
ATOM      6  O   UNL     1      48.131  49.947   5.950  1.00  0.00    -0.550 OA
ENDBRANCH   3   4
ENDBRANCH   2   3
ENDBRANCH   1   2
BRANCH   1   7
ATOM      7  C   UNL     1      51.481  50.327   4.679  1.00  0.00     0.000 C 
BRANCH   7   8
ATOM      8  C   UNL     1      52.920  50.820   4.886  1.00  0.00     0.004 C 
BRANCH   8   9
ATOM      9  C   UNL     1      53.930  49.827   4.297  1.00  0.00     0.027 C 
BRANCH   9  10
ATOM     10  C   UNL     1      55.221  50.510   3.939  1.00  0.00    -0.035 C 
ATOM     11  C   UNL     1      55.494  51.754   4.342  1.00  0.00     0.004 C 
ENDBRANCH   9  10
ENDBRANCH   8   9
ENDBRANCH   7   8
ENDBRANCH   1   7
TORSDOF 7
ENDMDL
MODEL 6
REMARK VINA RESULT:    -5.129      2.733      5.046
REMARK INTER + INTRA:          -7.728
REMARK INTER:                  -7.168
REMARK INTRA:                  -0.559
REMARK UNBOUND:                -0.499
REMARK SMILES C=CCCCCCCC(=O)[O-]
REMARK SMILES IDX 6 1 7 2 8 3 9 4 10 5 11 6 5 7 4 8 3 9 2 10 1 11
REMARK H PARENT
REMARK Flexibility Score: inf
ROOT
ATOM      1  C   UNL     1      53.897  49.825   4.272  1.00  0.00     0.000 C 
ENDROOT
BRANCH   1   2
ATOM      2  C   UNL     1      52.438  50.099   4.678  1.00  0.00     0.006 C 
BRANCH   2   3
ATOM      3  C   UNL     1      51.447  49.229   3.895  1.00  0.00     0.053 C 
BRANCH   3   4
ATOM      4  C   UNL     1      50.026  49.594   4.200  1.00  0.00     0.041 C 
ATOM      5  O   UNL     1      49.358  48.909   5.019  1.00  0.00    -0.550 OA
ATOM      6  O   UNL     1      49.451  50.711   3.608  1.00  0.00    -0.550 OA
ENDBRANCH   3   4
ENDBRANCH   2   3
ENDBRANCH   1   2
BRANCH   1   7
ATOM      7  C   UNL     1      54.766  51.093   4.298  1.00  0.00     0.000 C 
BRANCH   7   8
ATOM      8  C   UNL     1      54.179  52.193   5.194  1.00  0.00     0.004 C 
BRANCH   8   9
ATOM      9  C   UNL     1      54.916  52.257   6.538  1.00  0.00     0.027 C 
BRANCH   9  10
ATOM     10  C   UNL     1      54.042  51.775   7.663  1.00  0.00    -0.035 C 
ATOM     11  C   UNL     1      54.024  50.494   8.041  1.00  0.00     0.004 C 
ENDBRANCH   9  10
ENDBRANCH   8   9
ENDBRANCH   7   8
ENDBRANCH   1   7
TORSDOF 7
ENDMDL
MODEL 7
REMARK VINA RESULT:    -5.098      1.339      2.000
REMARK INTER + INTRA:          -7.683
REMARK INTER:                  -7.224
REMARK INTRA:                  -0.458
REMARK UNBOUND:                -0.499
REMARK SMILES C=CCCCCCCC(=O)[O-]
REMARK SMILES IDX 6 1 7 2 8 3 9 4 10 5 11 6 5 7 4 8 3 9 2 10 1 11
REMARK H PARENT
REMARK Flexibility Score: inf
ROOT
ATOM      1  C   UNL     1      53.275  49.760   4.233  1.00  0.00     0.000 C 
ENDROOT
BRANCH   1   2
ATOM      2  C   UNL     1      53.962  51.095   4.574  1.00  0.00     0.006 C 
BRANCH   2   3
ATOM      3  C   UNL     1      53.030  52.047   5.333  1.00  0.00     0.053 C 
BRANCH   3   4
ATOM      4  C   UNL     1      53.571  52.392   6.687  1.00  0.00     0.041 C 
ATOM      5  O   UNL     1      54.763  52.113   6.983  1.00  0.00    -0.550 OA
ATOM      6  O   UNL     1      52.770  53.055   7.609  1.00  0.00    -0.550 OA
ENDBRANCH   3   4
ENDBRANCH   2   3
ENDBRANCH   1   2
BRANCH   1   7
ATOM      7  C   UNL     1      51.765  49.782   4.518  1.00  0.00     0.000 C 
BRANCH   7   8
ATOM      8  C   UNL     1      50.984  48.798   3.635  1.00  0.00     0.004 C 
BRANCH   8   9
ATOM      9  C   UNL     1      49.854  49.514   2.884  1.00  0.00     0.027 C 
BRANCH   9  10
ATOM     10  C   UNL     1      49.483  50.807   3.559  1.00  0.00    -0.035 C 
ATOM     11  C   UNL     1      48.403  51.505   3.197  1.00  0.00     0.004 C 
ENDBRANCH   9  10
ENDBRANCH   8   9
ENDBRANCH   7   8
ENDBRANCH   1   7
TORSDOF 7
ENDMDL
MODEL 8
REMARK VINA RESULT:    -5.022      2.263      3.115
REMARK INTER + INTRA:          -7.576
REMARK INTER:                  -6.851
REMARK INTRA:                  -0.726
REMARK UNBOUND:                -0.499
REMARK SMILES C=CCCCCCCC(=O)[O-]
REMARK SMILES IDX 6 1 7 2 8 3 9 4 10 5 11 6 5 7 4 8 3 9 2 10 1 11
REMARK H PARENT
REMARK Flexibility Score: inf
ROOT
ATOM      1  C   UNL     1      51.660  50.946   6.212  1.00  0.00     0.000 C 
ENDROOT
BRANCH   1   2
ATOM      2  C   UNL     1      53.118  50.463   6.109  1.00  0.00     0.006 C 
BRANCH   2   3
ATOM      3  C   UNL     1      53.488  50.039   4.682  1.00  0.00     0.053 C 
BRANCH   3   4
ATOM      4  C   UNL     1      54.711  50.752   4.191  1.00  0.00     0.041 C 
ATOM      5  O   UNL     1      55.592  50.126   3.544  1.00  0.00    -0.550 OA
ATOM      6  O   UNL     1      54.861  52.115   4.416  1.00  0.00    -0.550 OA
ENDBRANCH   3   4
ENDBRANCH   2   3
ENDBRANCH   1   2
BRANCH   1   7
ATOM      7  C   UNL     1      51.389  52.194   5.357  1.00  0.00     0.000 C 
BRANCH   7   8
ATOM      8  C   UNL     1      50.000  52.172   4.703  1.00  0.00     0.004 C 
BRANCH   8   9
ATOM      9  C   UNL     1      49.438  50.745   4.659  1.00  0.00     0.027 C 
BRANCH   9  10
ATOM     10  C   UNL     1      49.585  50.144   3.287  1.00  0.00    -0.035 C 
ATOM     11  C   UNL     1      50.255  49.005   3.086  1.00  0.00     0.004 C 
ENDBRANCH   9  10
ENDBRANCH   8   9
ENDBRANCH   7   8
ENDBRANCH   1   7
TORSDOF 7
ENDMDL
MODEL 9
REMARK VINA RESULT:    -4.961      3.154      5.207
REMARK INTER + INTRA:          -7.490
REMARK INTER:                  -6.852
REMARK INTRA:                  -0.638
REMARK UNBOUND:                -0.499
REMARK SMILES C=CCCCCCCC(=O)[O-]
REMARK SMILES IDX 6 1 7 2 8 3 9 4 10 5 11 6 5 7 4 8 3 9 2 10 1 11
REMARK H PARENT
REMARK Flexibility Score: inf
ROOT
ATOM      1  C   UNL     1      51.494  50.771   6.350  1.00  0.00     0.000 C 
ENDROOT
BRANCH   1   2
ATOM      2  C   UNL     1      51.007  50.733   4.891  1.00  0.00     0.006 C 
BRANCH   2   3
ATOM      3  C   UNL     1      51.618  49.564   4.108  1.00  0.00     0.053 C 
BRANCH   3   4
ATOM      4  C   UNL     1      50.569  48.765   3.395  1.00  0.00     0.041 C 
ATOM      5  O   UNL     1      50.312  47.588   3.761  1.00  0.00    -0.550 OA
ATOM      6  O   UNL     1      49.852  49.334   2.350  1.00  0.00    -0.550 OA
ENDBRANCH   3   4
ENDBRANCH   2   3
ENDBRANCH   1   2
BRANCH   1   7
ATOM      7  C   UNL     1      52.810  51.549   6.515  1.00  0.00     0.000 C 
BRANCH   7   8
ATOM      8  C   UNL     1      52.918  52.739   5.551  1.00  0.00     0.004 C 
BRANCH   8   9
ATOM      9  C   UNL     1      54.313  52.805   4.916  1.00  0.00     0.027 C 
BRANCH   9  10
ATOM     10  C   UNL     1      55.014  51.477   5.000  1.00  0.00    -0.035 C 
ATOM     11  C   UNL     1      55.524  50.881   3.918  1.00  0.00     0.004 C 
ENDBRANCH   9  10
ENDBRANCH   8   9
ENDBRANCH   7   8
ENDBRANCH   1   7
TORSDOF 7
ENDMDL
