MODEL 1
REMARK VINA RESULT:    -4.792      0.000      0.000
REMARK INTER + INTRA:          -7.382
REMARK INTER:                  -7.033
REMARK INTRA:                  -0.349
REMARK UNBOUND:                -0.349
REMARK SMILES O=C([O-])CCCCCCCC(=O)[O-]
REMARK SMILES IDX 7 1 6 2 5 3 4 4 2 5 1 6 3 7 8 8 9 9 10 10 11 11 12 12 13 13
REMARK H PARENT
REMARK Flexibility Score: inf
ROOT
ATOM      1  C   UNL     1      97.827 124.957 125.284  1.00  0.00     0.000 C 
ENDROOT
BRANCH   1   2
ATOM      2  C   UNL     1      96.590 124.742 124.393  1.00  0.00     0.000 C 
BRANCH   2   3
ATOM      3  C   UNL     1      96.171 123.267 124.300  1.00  0.00     0.006 C 
BRANCH   3   4
ATOM      4  C   UNL     1      95.345 123.012 123.036  1.00  0.00     0.053 C 
BRANCH   4   5
ATOM      5  C   UNL     1      94.006 122.445 123.391  1.00  0.00     0.041 C 
ATOM      6  O   UNL     1      93.573 122.537 124.570  1.00  0.00    -0.550 OA
ATOM      7  O   UNL     1      93.260 121.771 122.433  1.00  0.00    -0.550 OA
ENDBRANCH   4   5
ENDBRANCH   3   4
ENDBRANCH   2   3
ENDBRANCH   1   2
BRANCH   1   8
ATOM      8  C   UNL     1      97.989 123.943 126.435  1.00  0.00     0.000 C 
BRANCH   8   9
ATOM      9  C   UNL     1      99.168 122.965 126.281  1.00  0.00     0.006 C 
BRANCH   9  10
ATOM     10  C   UNL     1      98.715 121.515 126.069  1.00  0.00     0.053 C 
BRANCH  10  11
ATOM     11  C   UNL     1      99.865 120.577 126.254  1.00  0.00     0.041 C 
ATOM     12  O   UNL     1     100.346 120.384 127.402  1.00  0.00    -0.550 OA
ATOM     13  O   UNL     1     100.438 119.951 125.155  1.00  0.00    -0.550 OA
ENDBRANCH  10  11
ENDBRANCH   9  10
ENDBRANCH   8   9
ENDBRANCH   1   8
TORSDOF 8
ENDMDL
MODEL 2
REMARK VINA RESULT:    -4.781      0.578      5.703
REMARK INTER + INTRA:          -7.366
REMARK INTER:                  -6.966
REMARK INTRA:                  -0.400
REMARK UNBOUND:                -0.349
REMARK SMILES O=C([O-])CCCCCCCC(=O)[O-]
REMARK SMILES IDX 7 1 6 2 5 3 4 4 2 5 1 6 3 7 8 8 9 9 10 10 11 11 12 12 13 13
REMARK H PARENT
REMARK Flexibility Score: inf
ROOT
ATOM      1  C   UNL     1      97.252 124.017 125.740  1.00  0.00     0.000 C 
ENDROOT
BRANCH   1   2
ATOM      2  C   UNL     1      98.612 124.328 126.391  1.00  0.00     0.000 C 
BRANCH   2   3
ATOM      3  C   UNL     1      99.568 123.126 126.376  1.00  0.00     0.006 C 
BRANCH   3   4
ATOM      4  C   UNL     1      98.790 121.809 126.308  1.00  0.00     0.053 C 
BRANCH   4   5
ATOM      5  C   UNL     1      99.729 120.644 126.307  1.00  0.00     0.041 C 
ATOM      6  O   UNL     1      99.952 120.012 125.240  1.00  0.00    -0.550 OA
ATOM      7  O   UNL     1     100.319 120.225 127.492  1.00  0.00    -0.550 OA
ENDBRANCH   4   5
ENDBRANCH   3   4
ENDBRANCH   2   3
ENDBRANCH   1   2
BRANCH   1   8
ATOM      8  C   UNL     1      96.887 124.902 124.531  1.00  0.00     0.000 C 
BRANCH   8   9
ATOM      9  C   UNL     1      95.624 124.469 123.763  1.00  0.00     0.006 C 
BRANCH   9  10
ATOM     10  C   UNL     1      95.593 122.964 123.471  1.00  0.00     0.053 C 
BRANCH  10  11
ATOM     11  C   UNL     1      94.196 122.440 123.583  1.00  0.00     0.041 C 
ATOM     12  O   UNL     1      93.543 122.599 124.648  1.00  0.00    -0.550 OA
ATOM     13  O   UNL     1      93.632 121.732 122.529  1.00  0.00    -0.550 OA
ENDBRANCH  10  11
ENDBRANCH   9  10
ENDBRANCH   8   9
ENDBRANCH   1   8
TORSDOF 8
ENDMDL
MODEL 3
REMARK VINA RESULT:    -4.697      2.984      4.173
REMARK INTER + INTRA:          -7.243
REMARK INTER:                  -7.069
REMARK INTRA:                  -0.174
REMARK UNBOUND:                -0.349
REMARK SMILES O=C([O-])CCCCCCCC(=O)[O-]
REMARK SMILES IDX 7 1 6 2 5 3 4 4 2 5 1 6 3 7 8 8 9 9 10 10 11 11 12 12 13 13
REMARK H PARENT
REMARK Flexibility Score: inf
ROOT
ATOM      1  C   UNL     1      95.452 122.979 123.216  1.00  0.00     0.000 C 
ENDROOT
BRANCH   1   2
ATOM      2  C   UNL     1      93.962 122.590 123.204  1.00  0.00     0.000 C 
BRANCH   2   3
ATOM      3  C   UNL     1      93.586 121.712 122.001  1.00  0.00     0.006 C 
BRANCH   3   4
ATOM      4  C   UNL     1      92.804 122.518 120.960  1.00  0.00     0.053 C 
BRANCH   4   5
ATOM      5  C   UNL     1      93.238 122.147 119.577  1.00  0.00     0.041 C 
ATOM      6  O   UNL     1      92.557 122.508 118.581  1.00  0.00    -0.550 OA
ATOM      7  O   UNL     1      94.367 121.359 119.390  1.00  0.00    -0.550 OA
ENDBRANCH   4   5
ENDBRANCH   3   4
ENDBRANCH   2   3
ENDBRANCH   1   2
BRANCH   1   8
ATOM      8  C   UNL     1      95.805 124.192 124.101  1.00  0.00     0.000 C 
BRANCH   8   9
ATOM      9  C   UNL     1      96.984 123.973 125.066  1.00  0.00     0.006 C 
BRANCH   9  10
ATOM     10  C   UNL     1      97.790 125.253 125.322  1.00  0.00     0.053 C 
BRANCH  10  11
ATOM     11  C   UNL     1      98.566 125.135 126.595  1.00  0.00     0.041 C 
ATOM     12  O   UNL     1      98.421 125.991 127.507  1.00  0.00    -0.550 OA
ATOM     13  O   UNL     1      99.488 124.108 126.756  1.00  0.00    -0.550 OA
ENDBRANCH  10  11
ENDBRANCH   9  10
ENDBRANCH   8   9
ENDBRANCH   1   8
TORSDOF 8
ENDMDL
MODEL 4
REMARK VINA RESULT:    -4.672     10.486     12.524
REMARK INTER + INTRA:          -7.206
REMARK INTER:                  -6.675
REMARK INTRA:                  -0.531
REMARK UNBOUND:                -0.349
REMARK SMILES O=C([O-])CCCCCCCC(=O)[O-]
REMARK SMILES IDX 7 1 6 2 5 3 4 4 2 5 1 6 3 7 8 8 9 9 10 10 11 11 12 12 13 13
REMARK H PARENT
REMARK Flexibility Score: inf
ROOT
ATOM      1  C   UNL     1      86.634 125.218 128.825  1.00  0.00     0.000 C 
ENDROOT
BRANCH   1   2
ATOM      2  C   UNL     1      86.471 124.781 130.292  1.00  0.00     0.000 C 
BRANCH   2   3
ATOM      3  C   UNL     1      87.572 123.813 130.751  1.00  0.00     0.006 C 
BRANCH   3   4
ATOM      4  C   UNL     1      88.021 122.909 129.599  1.00  0.00     0.053 C 
BRANCH   4   5
ATOM      5  C   UNL     1      88.437 121.568 130.117  1.00  0.00     0.041 C 
ATOM      6  O   UNL     1      89.178 121.484 131.131  1.00  0.00    -0.550 OA
ATOM      7  O   UNL     1      88.047 120.413 129.450  1.00  0.00    -0.550 OA
ENDBRANCH   4   5
ENDBRANCH   3   4
ENDBRANCH   2   3
ENDBRANCH   1   2
BRANCH   1   8
ATOM      8  C   UNL     1      85.321 125.565 128.094  1.00  0.00     0.000 C 
BRANCH   8   9
ATOM      9  C   UNL     1      84.408 124.364 127.788  1.00  0.00     0.006 C 
BRANCH   9  10
ATOM     10  C   UNL     1      85.122 123.257 127.004  1.00  0.00     0.053 C 
BRANCH  10  11
ATOM     11  C   UNL     1      84.801 123.359 125.547  1.00  0.00     0.041 C 
ATOM     12  O   UNL     1      83.902 124.147 125.150  1.00  0.00    -0.550 OA
ATOM     13  O   UNL     1      85.460 122.550 124.630  1.00  0.00    -0.550 OA
ENDBRANCH  10  11
ENDBRANCH   9  10
ENDBRANCH   8   9
ENDBRANCH   1   8
TORSDOF 8
ENDMDL
MODEL 5
REMARK VINA RESULT:    -4.622     10.423     11.460
REMARK INTER + INTRA:          -7.132
REMARK INTER:                  -6.613
REMARK INTRA:                  -0.519
REMARK UNBOUND:                -0.349
REMARK SMILES O=C([O-])CCCCCCCC(=O)[O-]
REMARK SMILES IDX 7 1 6 2 5 3 4 4 2 5 1 6 3 7 8 8 9 9 10 10 11 11 12 12 13 13
REMARK H PARENT
REMARK Flexibility Score: inf
ROOT
ATOM      1  C   UNL     1      86.700 125.278 128.940  1.00  0.00     0.000 C 
ENDROOT
BRANCH   1   2
ATOM      2  C   UNL     1      85.472 125.769 128.152  1.00  0.00     0.000 C 
BRANCH   2   3
ATOM      3  C   UNL     1      84.344 124.727 128.097  1.00  0.00     0.006 C 
BRANCH   3   4
ATOM      4  C   UNL     1      84.162 124.192 126.674  1.00  0.00     0.053 C 
BRANCH   4   5
ATOM      5  C   UNL     1      84.983 122.959 126.469  1.00  0.00     0.041 C 
ATOM      6  O   UNL     1      85.318 122.250 127.454  1.00  0.00    -0.550 OA
ATOM      7  O   UNL     1      85.421 122.618 125.195  1.00  0.00    -0.550 OA
ENDBRANCH   4   5
ENDBRANCH   3   4
ENDBRANCH   2   3
ENDBRANCH   1   2
BRANCH   1   8
ATOM      8  C   UNL     1      86.393 124.686 130.330  1.00  0.00     0.000 C 
BRANCH   8   9
ATOM      9  C   UNL     1      87.447 123.700 130.867  1.00  0.00     0.006 C 
BRANCH   9  10
ATOM     10  C   UNL     1      88.204 122.972 129.750  1.00  0.00     0.053 C 
BRANCH  10  11
ATOM     11  C   UNL     1      88.542 121.577 130.172  1.00  0.00     0.041 C 
ATOM     12  O   UNL     1      88.044 120.593 129.564  1.00  0.00    -0.550 OA
ATOM     13  O   UNL     1      89.368 121.362 131.267  1.00  0.00    -0.550 OA
ENDBRANCH  10  11
ENDBRANCH   9  10
ENDBRANCH   8   9
ENDBRANCH   1   8
TORSDOF 8
ENDMDL
MODEL 6
REMARK VINA RESULT:    -4.594     10.933     11.839
REMARK INTER + INTRA:          -7.091
REMARK INTER:                  -6.515
REMARK INTRA:                  -0.576
REMARK UNBOUND:                -0.349
REMARK SMILES O=C([O-])CCCCCCCC(=O)[O-]
REMARK SMILES IDX 7 1 6 2 5 3 4 4 2 5 1 6 3 7 8 8 9 9 10 10 11 11 12 12 13 13
REMARK H PARENT
REMARK Flexibility Score: inf
ROOT
ATOM      1  C   UNL     1      88.295 123.563 130.957  1.00  0.00     0.000 C 
ENDROOT
BRANCH   1   2
ATOM      2  C   UNL     1      87.055 124.209 131.601  1.00  0.00     0.000 C 
BRANCH   2   3
ATOM      3  C   UNL     1      86.088 124.803 130.566  1.00  0.00     0.006 C 
BRANCH   3   4
ATOM      4  C   UNL     1      86.556 124.497 129.140  1.00  0.00     0.053 C 
BRANCH   4   5
ATOM      5  C   UNL     1      85.893 125.414 128.162  1.00  0.00     0.041 C 
ATOM      6  O   UNL     1      86.077 126.658 128.236  1.00  0.00    -0.550 OA
ATOM      7  O   UNL     1      85.031 124.902 127.201  1.00  0.00    -0.550 OA
ENDBRANCH   4   5
ENDBRANCH   3   4
ENDBRANCH   2   3
ENDBRANCH   1   2
BRANCH   1   8
ATOM      8  C   UNL     1      88.427 122.041 131.173  1.00  0.00     0.000 C 
BRANCH   8   9
ATOM      9  C   UNL     1      87.132 121.328 131.602  1.00  0.00     0.006 C 
BRANCH   9  10
ATOM     10  C   UNL     1      86.927 119.986 130.889  1.00  0.00     0.053 C 
BRANCH  10  11
ATOM     11  C   UNL     1      86.954 120.175 129.405  1.00  0.00     0.041 C 
ATOM     12  O   UNL     1      86.138 120.959 128.851  1.00  0.00    -0.550 OA
ATOM     13  O   UNL     1      87.846 119.448 128.627  1.00  0.00    -0.550 OA
ENDBRANCH  10  11
ENDBRANCH   9  10
ENDBRANCH   8   9
ENDBRANCH   1   8
TORSDOF 8
ENDMDL
MODEL 7
REMARK VINA RESULT:    -4.581     10.421     11.774
REMARK INTER + INTRA:          -7.072
REMARK INTER:                  -6.505
REMARK INTRA:                  -0.567
REMARK UNBOUND:                -0.349
REMARK SMILES O=C([O-])CCCCCCCC(=O)[O-]
REMARK SMILES IDX 7 1 6 2 5 3 4 4 2 5 1 6 3 7 8 8 9 9 10 10 11 11 12 12 13 13
REMARK H PARENT
REMARK Flexibility Score: inf
ROOT
ATOM      1  C   UNL     1      85.947 124.960 131.504  1.00  0.00     0.000 C 
ENDROOT
BRANCH   1   2
ATOM      2  C   UNL     1      84.824 124.554 130.532  1.00  0.00     0.000 C 
BRANCH   2   3
ATOM      3  C   UNL     1      84.586 125.595 129.429  1.00  0.00     0.006 C 
BRANCH   3   4
ATOM      4  C   UNL     1      85.584 125.416 128.282  1.00  0.00     0.053 C 
BRANCH   4   5
ATOM      5  C   UNL     1      85.141 124.317 127.368  1.00  0.00     0.041 C 
ATOM      6  O   UNL     1      85.584 123.148 127.522  1.00  0.00    -0.550 OA
ATOM      7  O   UNL     1      84.278 124.594 126.315  1.00  0.00    -0.550 OA
ENDBRANCH   4   5
ENDBRANCH   3   4
ENDBRANCH   2   3
ENDBRANCH   1   2
BRANCH   1   8
ATOM      8  C   UNL     1      86.918 123.827 131.894  1.00  0.00     0.000 C 
BRANCH   8   9
ATOM      9  C   UNL     1      88.258 123.826 131.134  1.00  0.00     0.006 C 
BRANCH   9  10
ATOM     10  C   UNL     1      88.219 122.972 129.861  1.00  0.00     0.053 C 
BRANCH  10  11
ATOM     11  C   UNL     1      88.615 121.562 130.165  1.00  0.00     0.041 C 
ATOM     12  O   UNL     1      88.106 120.608 129.520  1.00  0.00    -0.550 OA
ATOM     13  O   UNL     1      89.509 121.297 131.195  1.00  0.00    -0.550 OA
ENDBRANCH  10  11
ENDBRANCH   9  10
ENDBRANCH   8   9
ENDBRANCH   1   8
TORSDOF 8
ENDMDL
MODEL 8
REMARK VINA RESULT:    -4.560     10.817     12.573
REMARK INTER + INTRA:          -7.041
REMARK INTER:                  -6.429
REMARK INTRA:                  -0.612
REMARK UNBOUND:                -0.349
REMARK SMILES O=C([O-])CCCCCCCC(=O)[O-]
REMARK SMILES IDX 7 1 6 2 5 3 4 4 2 5 1 6 3 7 8 8 9 9 10 10 11 11 12 12 13 13
REMARK H PARENT
REMARK Flexibility Score: inf
ROOT
ATOM      1  C   UNL     1      87.992 123.963 131.253  1.00  0.00     0.000 C 
ENDROOT
BRANCH   1   2
ATOM      2  C   UNL     1      88.201 122.901 130.158  1.00  0.00     0.000 C 
BRANCH   2   3
ATOM      3  C   UNL     1      88.644 121.543 130.722  1.00  0.00     0.006 C 
BRANCH   3   4
ATOM      4  C   UNL     1      87.446 120.758 131.263  1.00  0.00     0.053 C 
BRANCH   4   5
ATOM      5  C   UNL     1      86.844 119.912 130.186  1.00  0.00     0.041 C 
ATOM      6  O   UNL     1      87.539 119.553 129.200  1.00  0.00    -0.550 OA
ATOM      7  O   UNL     1      85.500 119.563 130.245  1.00  0.00    -0.550 OA
ENDBRANCH   4   5
ENDBRANCH   3   4
ENDBRANCH   2   3
ENDBRANCH   1   2
BRANCH   1   8
ATOM      8  C   UNL     1      86.524 124.361 131.508  1.00  0.00     0.000 C 
BRANCH   8   9
ATOM      9  C   UNL     1      85.556 124.061 130.349  1.00  0.00     0.006 C 
BRANCH   9  10
ATOM     10  C   UNL     1      85.077 125.328 129.630  1.00  0.00     0.053 C 
BRANCH  10  11
ATOM     11  C   UNL     1      85.718 125.439 128.284  1.00  0.00     0.041 C 
ATOM     12  O   UNL     1      86.907 125.841 128.180  1.00  0.00    -0.550 OA
ATOM     13  O   UNL     1      84.989 125.145 127.139  1.00  0.00    -0.550 OA
ENDBRANCH  10  11
ENDBRANCH   9  10
ENDBRANCH   8   9
ENDBRANCH   1   8
TORSDOF 8
ENDMDL
MODEL 9
REMARK VINA RESULT:    -4.533     10.470     12.791
REMARK INTER + INTRA:          -7.003
REMARK INTER:                  -6.233
REMARK INTRA:                  -0.770
REMARK UNBOUND:                -0.349
REMARK SMILES O=C([O-])CCCCCCCC(=O)[O-]
REMARK SMILES IDX 7 1 6 2 5 3 4 4 2 5 1 6 3 7 8 8 9 9 10 10 11 11 12 12 13 13
REMARK H PARENT
REMARK Flexibility Score: inf
ROOT
ATOM      1  C   UNL     1      85.065 123.790 131.194  1.00  0.00     0.000 C 
ENDROOT
BRANCH   1   2
ATOM      2  C   UNL     1      86.317 122.992 131.598  1.00  0.00     0.000 C 
BRANCH   2   3
ATOM      3  C   UNL     1      87.623 123.669 131.157  1.00  0.00     0.006 C 
BRANCH   3   4
ATOM      4  C   UNL     1      88.217 122.967 129.933  1.00  0.00     0.053 C 
BRANCH   4   5
ATOM      5  C   UNL     1      88.606 121.563 130.271  1.00  0.00     0.041 C 
ATOM      6  O   UNL     1      89.410 121.339 131.214  1.00  0.00    -0.550 OA
ATOM      7  O   UNL     1      88.122 120.504 129.513  1.00  0.00    -0.550 OA
ENDBRANCH   4   5
ENDBRANCH   3   4
ENDBRANCH   2   3
ENDBRANCH   1   2
BRANCH   1   8
ATOM      8  C   UNL     1      85.320 125.265 130.823  1.00  0.00     0.000 C 
BRANCH   8   9
ATOM      9  C   UNL     1      84.797 125.688 129.437  1.00  0.00     0.006 C 
BRANCH   9  10
ATOM     10  C   UNL     1      85.769 125.340 128.303  1.00  0.00     0.053 C 
BRANCH  10  11
ATOM     11  C   UNL     1      85.205 124.248 127.450  1.00  0.00     0.041 C 
ATOM     12  O   UNL     1      85.512 123.047 127.673  1.00  0.00    -0.550 OA
ATOM     13  O   UNL     1      84.378 124.559 126.378  1.00  0.00    -0.550 OA
ENDBRANCH  10  11
ENDBRANCH   9  10
ENDBRANCH   8   9
ENDBRANCH   1   8
TORSDOF 8
ENDMDL
