MODEL 1
REMARK VINA RESULT:    -4.244      0.000      0.000
REMARK INTER + INTRA:          -9.865
REMARK INTER:                  -7.717
REMARK INTRA:                  -2.148
REMARK UNBOUND:                -2.148
REMARK SMILES CCCCCCCCCCCCCCCC(=O)[O-]
REMARK SMILES IDX 9 1 10 2 11 3 12 4 13 5 14 6 15 7 16 8 17 9 18 10 8 11 7 12
REMARK SMILES IDX 6 13 5 14 4 15 3 16 2 17 1 18
REMARK H PARENT
REMARK Flexibility Score: inf
ROOT
ATOM      1  C   UNL     1       8.669   4.637   0.728  1.00  0.00     0.000 C 
ENDROOT
BRANCH   1   2
ATOM      2  C   UNL     1       8.926   3.119   0.756  1.00  0.00     0.000 C 
BRANCH   2   3
ATOM      3  C   UNL     1      10.391   2.760   0.460  1.00  0.00     0.000 C 
BRANCH   3   4
ATOM      4  C   UNL     1      10.546   1.920  -0.818  1.00  0.00     0.000 C 
BRANCH   4   5
ATOM      5  C   UNL     1      11.934   2.069  -1.469  1.00  0.00     0.000 C 
BRANCH   5   6
ATOM      6  C   UNL     1      11.925   2.255  -3.000  1.00  0.00     0.006 C 
BRANCH   6   7
ATOM      7  C   UNL     1      11.244   1.118  -3.777  1.00  0.00     0.053 C 
BRANCH   7   8
ATOM      8  C   UNL     1      11.494   1.217  -5.251  1.00  0.00     0.041 C 
ATOM      9  O   UNL     1      11.789   0.188  -5.914  1.00  0.00    -0.550 OA
ATOM     10  O   UNL     1      11.434   2.451  -5.886  1.00  0.00    -0.550 OA
ENDBRANCH   7   8
ENDBRANCH   6   7
ENDBRANCH   5   6
ENDBRANCH   4   5
ENDBRANCH   3   4
ENDBRANCH   2   3
ENDBRANCH   1   2
BRANCH   1  11
ATOM     11  C   UNL     1       9.650   5.417   1.617  1.00  0.00     0.000 C 
BRANCH  11  12
ATOM     12  C   UNL     1      10.012   6.793   1.031  1.00  0.00    -0.000 C 
BRANCH  12  13
ATOM     13  C   UNL     1       9.492   6.979  -0.403  1.00  0.00    -0.000 C 
BRANCH  13  14
ATOM     14  C   UNL     1      10.625   6.995  -1.443  1.00  0.00    -0.000 C 
BRANCH  14  15
ATOM     15  C   UNL     1      10.858   5.617  -2.082  1.00  0.00    -0.000 C 
BRANCH  15  16
ATOM     16  C   UNL     1      10.570   5.612  -3.594  1.00  0.00    -0.000 C 
BRANCH  16  17
ATOM     17  C   UNL     1       9.120   5.220  -3.916  1.00  0.00    -0.003 C 
ATOM     18  C   UNL     1       8.536   4.235  -2.904  1.00  0.00     0.004 C 
ENDBRANCH  16  17
ENDBRANCH  15  16
ENDBRANCH  14  15
ENDBRANCH  13  14
ENDBRANCH  12  13
ENDBRANCH  11  12
ENDBRANCH   1  11
TORSDOF 14
ENDMDL
MODEL 2
REMARK VINA RESULT:    -4.129      3.528      6.051
REMARK INTER + INTRA:          -9.656
REMARK INTER:                  -7.594
REMARK INTRA:                  -2.062
REMARK UNBOUND:                -2.148
REMARK SMILES CCCCCCCCCCCCCCCC(=O)[O-]
REMARK SMILES IDX 9 1 10 2 11 3 12 4 13 5 14 6 15 7 16 8 17 9 18 10 8 11 7 12
REMARK SMILES IDX 6 13 5 14 4 15 3 16 2 17 1 18
REMARK H PARENT
REMARK Flexibility Score: inf
ROOT
ATOM      1  C   UNL     1      10.960   1.390  -3.054  1.00  0.00     0.000 C 
ENDROOT
BRANCH   1   2
ATOM      2  C   UNL     1      11.889   1.921  -1.947  1.00  0.00     0.000 C 
BRANCH   2   3
ATOM      3  C   UNL     1      11.192   2.013  -0.580  1.00  0.00     0.000 C 
BRANCH   3   4
ATOM      4  C   UNL     1       9.676   2.240  -0.705  1.00  0.00     0.000 C 
BRANCH   4   5
ATOM      5  C   UNL     1       9.072   2.944   0.524  1.00  0.00     0.000 C 
BRANCH   5   6
ATOM      6  C   UNL     1       9.945   4.056   1.140  1.00  0.00     0.006 C 
BRANCH   6   7
ATOM      7  C   UNL     1       9.215   5.389   1.368  1.00  0.00     0.053 C 
BRANCH   7   8
ATOM      8  C   UNL     1       9.842   6.192   2.467  1.00  0.00     0.041 C 
ATOM      9  O   UNL     1       9.320   7.277   2.835  1.00  0.00    -0.550 OA
ATOM     10  O   UNL     1      11.021   5.759   3.060  1.00  0.00    -0.550 OA
ENDBRANCH   7   8
ENDBRANCH   6   7
ENDBRANCH   5   6
ENDBRANCH   4   5
ENDBRANCH   3   4
ENDBRANCH   2   3
ENDBRANCH   1   2
BRANCH   1  11
ATOM     11  C   UNL     1      11.705   1.131  -4.372  1.00  0.00     0.000 C 
BRANCH  11  12
ATOM     12  C   UNL     1      11.290   2.109  -5.486  1.00  0.00    -0.000 C 
BRANCH  12  13
ATOM     13  C   UNL     1      11.165   3.556  -4.985  1.00  0.00    -0.000 C 
BRANCH  13  14
ATOM     14  C   UNL     1      10.100   4.356  -5.755  1.00  0.00    -0.000 C 
BRANCH  14  15
ATOM     15  C   UNL     1       9.207   5.194  -4.826  1.00  0.00    -0.000 C 
BRANCH  15  16
ATOM     16  C   UNL     1       9.122   4.609  -3.406  1.00  0.00    -0.000 C 
BRANCH  16  17
ATOM     17  C   UNL     1       9.467   5.642  -2.323  1.00  0.00    -0.003 C 
ATOM     18  C   UNL     1      10.968   5.729  -2.047  1.00  0.00     0.004 C 
ENDBRANCH  16  17
ENDBRANCH  15  16
ENDBRANCH  14  15
ENDBRANCH  13  14
ENDBRANCH  12  13
ENDBRANCH  11  12
ENDBRANCH   1  11
TORSDOF 14
ENDMDL
MODEL 3
REMARK VINA RESULT:    -4.094      1.020      1.774
REMARK INTER + INTRA:          -9.592
REMARK INTER:                  -7.405
REMARK INTRA:                  -2.187
REMARK UNBOUND:                -2.148
REMARK SMILES CCCCCCCCCCCCCCCC(=O)[O-]
REMARK SMILES IDX 9 1 10 2 11 3 12 4 13 5 14 6 15 7 16 8 17 9 18 10 8 11 7 12
REMARK SMILES IDX 6 13 5 14 4 15 3 16 2 17 1 18
REMARK H PARENT
REMARK Flexibility Score: inf
ROOT
ATOM      1  C   UNL     1      10.029   5.224   1.583  1.00  0.00     0.000 C 
ENDROOT
BRANCH   1   2
ATOM      2  C   UNL     1       8.672   4.530   1.368  1.00  0.00     0.000 C 
BRANCH   2   3
ATOM      3  C   UNL     1       8.815   3.107   0.805  1.00  0.00     0.000 C 
BRANCH   3   4
ATOM      4  C   UNL     1      10.260   2.778   0.394  1.00  0.00     0.000 C 
BRANCH   4   5
ATOM      5  C   UNL     1      10.342   1.999  -0.932  1.00  0.00     0.000 C 
BRANCH   5   6
ATOM      6  C   UNL     1      11.769   1.654  -1.404  1.00  0.00     0.006 C 
BRANCH   6   7
ATOM      7  C   UNL     1      12.235   2.430  -2.646  1.00  0.00     0.053 C 
BRANCH   7   8
ATOM      8  C   UNL     1      11.667   1.862  -3.910  1.00  0.00     0.041 C 
ATOM      9  O   UNL     1      11.528   0.617  -4.040  1.00  0.00    -0.550 OA
ATOM     10  O   UNL     1      11.322   2.705  -4.959  1.00  0.00    -0.550 OA
ENDBRANCH   7   8
ENDBRANCH   6   7
ENDBRANCH   5   6
ENDBRANCH   4   5
ENDBRANCH   3   4
ENDBRANCH   2   3
ENDBRANCH   1   2
BRANCH   1  11
ATOM     11  C   UNL     1       9.980   6.726   1.261  1.00  0.00     0.000 C 
BRANCH  11  12
ATOM     12  C   UNL     1       9.878   7.004  -0.249  1.00  0.00    -0.000 C 
BRANCH  12  13
ATOM     13  C   UNL     1      10.762   6.064  -1.083  1.00  0.00    -0.000 C 
BRANCH  13  14
ATOM     14  C   UNL     1      10.578   6.270  -2.596  1.00  0.00    -0.000 C 
BRANCH  14  15
ATOM     15  C   UNL     1       9.786   5.130  -3.255  1.00  0.00    -0.000 C 
BRANCH  15  16
ATOM     16  C   UNL     1       8.265   5.304  -3.103  1.00  0.00    -0.000 C 
BRANCH  16  17
ATOM     17  C   UNL     1       7.623   4.179  -2.276  1.00  0.00    -0.003 C 
ATOM     18  C   UNL     1       6.307   4.603  -1.624  1.00  0.00     0.004 C 
ENDBRANCH  16  17
ENDBRANCH  15  16
ENDBRANCH  14  15
ENDBRANCH  13  14
ENDBRANCH  12  13
ENDBRANCH  11  12
ENDBRANCH   1  11
TORSDOF 14
ENDMDL
MODEL 4
REMARK VINA RESULT:    -4.094      3.676      6.304
REMARK INTER + INTRA:          -9.592
REMARK INTER:                  -8.015
REMARK INTRA:                  -1.576
REMARK UNBOUND:                -2.148
REMARK SMILES CCCCCCCCCCCCCCCC(=O)[O-]
REMARK SMILES IDX 9 1 10 2 11 3 12 4 13 5 14 6 15 7 16 8 17 9 18 10 8 11 7 12
REMARK SMILES IDX 6 13 5 14 4 15 3 16 2 17 1 18
REMARK H PARENT
REMARK Flexibility Score: inf
ROOT
ATOM      1  C   UNL     1       8.773   4.177   0.542  1.00  0.00     0.000 C 
ENDROOT
BRANCH   1   2
ATOM      2  C   UNL     1       8.312   4.168  -0.927  1.00  0.00     0.000 C 
BRANCH   2   3
ATOM      3  C   UNL     1       8.918   5.319  -1.747  1.00  0.00     0.000 C 
BRANCH   3   4
ATOM      4  C   UNL     1       9.492   6.436  -0.859  1.00  0.00     0.000 C 
BRANCH   4   5
ATOM      5  C   UNL     1       8.434   7.478  -0.448  1.00  0.00     0.000 C 
BRANCH   5   6
ATOM      6  C   UNL     1       8.571   8.022   0.988  1.00  0.00     0.006 C 
BRANCH   6   7
ATOM      7  C   UNL     1       9.916   7.712   1.663  1.00  0.00     0.053 C 
BRANCH   7   8
ATOM      8  C   UNL     1       9.761   6.774   2.821  1.00  0.00     0.041 C 
ATOM      9  O   UNL     1       8.667   6.707   3.441  1.00  0.00    -0.550 OA
ATOM     10  O   UNL     1      10.837   6.000   3.238  1.00  0.00    -0.550 OA
ENDBRANCH   7   8
ENDBRANCH   6   7
ENDBRANCH   5   6
ENDBRANCH   4   5
ENDBRANCH   3   4
ENDBRANCH   2   3
ENDBRANCH   1   2
BRANCH   1  11
ATOM     11  C   UNL     1       9.923   3.194   0.803  1.00  0.00     0.000 C 
BRANCH  11  12
ATOM     12  C   UNL     1      10.129   2.203  -0.357  1.00  0.00    -0.000 C 
BRANCH  12  13
ATOM     13  C   UNL     1      11.523   1.556  -0.340  1.00  0.00    -0.000 C 
BRANCH  13  14
ATOM     14  C   UNL     1      12.326   1.854  -1.619  1.00  0.00    -0.000 C 
BRANCH  14  15
ATOM     15  C   UNL     1      11.699   2.976  -2.460  1.00  0.00    -0.000 C 
BRANCH  15  16
ATOM     16  C   UNL     1      11.426   2.542  -3.911  1.00  0.00    -0.000 C 
BRANCH  16  17
ATOM     17  C   UNL     1      11.545   1.022  -4.103  1.00  0.00    -0.003 C 
ATOM     18  C   UNL     1      11.609   0.617  -5.576  1.00  0.00     0.004 C 
ENDBRANCH  16  17
ENDBRANCH  15  16
ENDBRANCH  14  15
ENDBRANCH  13  14
ENDBRANCH  12  13
ENDBRANCH  11  12
ENDBRANCH   1  11
TORSDOF 14
ENDMDL
MODEL 5
REMARK VINA RESULT:    -4.078      1.276      4.105
REMARK INTER + INTRA:          -9.563
REMARK INTER:                  -7.478
REMARK INTRA:                  -2.085
REMARK UNBOUND:                -2.148
REMARK SMILES CCCCCCCCCCCCCCCC(=O)[O-]
REMARK SMILES IDX 9 1 10 2 11 3 12 4 13 5 14 6 15 7 16 8 17 9 18 10 8 11 7 12
REMARK SMILES IDX 6 13 5 14 4 15 3 16 2 17 1 18
REMARK H PARENT
REMARK Flexibility Score: inf
ROOT
ATOM      1  C   UNL     1       9.867   5.575   1.358  1.00  0.00     0.000 C 
ENDROOT
BRANCH   1   2
ATOM      2  C   UNL     1       9.946   6.941   0.653  1.00  0.00     0.000 C 
BRANCH   2   3
ATOM      3  C   UNL     1       9.812   6.829  -0.875  1.00  0.00     0.000 C 
BRANCH   3   4
ATOM      4  C   UNL     1      11.063   6.225  -1.533  1.00  0.00     0.000 C 
BRANCH   4   5
ATOM      5  C   UNL     1      10.730   5.117  -2.550  1.00  0.00     0.000 C 
BRANCH   5   6
ATOM      6  C   UNL     1       9.225   4.866  -2.779  1.00  0.00     0.006 C 
BRANCH   6   7
ATOM      7  C   UNL     1       8.760   5.059  -4.231  1.00  0.00     0.053 C 
BRANCH   7   8
ATOM      8  C   UNL     1       9.908   5.299  -5.162  1.00  0.00     0.041 C 
ATOM      9  O   UNL     1      10.220   6.473  -5.494  1.00  0.00    -0.550 OA
ATOM     10  O   UNL     1      10.611   4.225  -5.692  1.00  0.00    -0.550 OA
ENDBRANCH   7   8
ENDBRANCH   6   7
ENDBRANCH   5   6
ENDBRANCH   4   5
ENDBRANCH   3   4
ENDBRANCH   2   3
ENDBRANCH   1   2
BRANCH   1  11
ATOM     11  C   UNL     1       8.512   4.882   1.148  1.00  0.00     0.000 C 
BRANCH  11  12
ATOM     12  C   UNL     1       8.661   3.397   0.771  1.00  0.00    -0.000 C 
BRANCH  12  13
ATOM     13  C   UNL     1      10.130   2.967   0.634  1.00  0.00    -0.000 C 
BRANCH  13  14
ATOM     14  C   UNL     1      10.355   2.007  -0.548  1.00  0.00    -0.000 C 
BRANCH  14  15
ATOM     15  C   UNL     1      11.844   1.804  -0.866  1.00  0.00    -0.000 C 
BRANCH  15  16
ATOM     16  C   UNL     1      12.158   1.989  -2.360  1.00  0.00    -0.000 C 
BRANCH  16  17
ATOM     17  C   UNL     1      11.052   1.430  -3.268  1.00  0.00    -0.003 C 
ATOM     18  C   UNL     1      11.572   1.015  -4.645  1.00  0.00     0.004 C 
ENDBRANCH  16  17
ENDBRANCH  15  16
ENDBRANCH  14  15
ENDBRANCH  13  14
ENDBRANCH  12  13
ENDBRANCH  11  12
ENDBRANCH   1  11
TORSDOF 14
ENDMDL
MODEL 6
REMARK VINA RESULT:    -4.054      2.088      4.444
REMARK INTER + INTRA:          -9.519
REMARK INTER:                  -7.254
REMARK INTRA:                  -2.265
REMARK UNBOUND:                -2.148
REMARK SMILES CCCCCCCCCCCCCCCC(=O)[O-]
REMARK SMILES IDX 9 1 10 2 11 3 12 4 13 5 14 6 15 7 16 8 17 9 18 10 8 11 7 12
REMARK SMILES IDX 6 13 5 14 4 15 3 16 2 17 1 18
REMARK H PARENT
REMARK Flexibility Score: inf
ROOT
ATOM      1  C   UNL     1       8.365   5.300   0.973  1.00  0.00     0.000 C 
ENDROOT
BRANCH   1   2
ATOM      2  C   UNL     1       9.780   5.779   1.341  1.00  0.00     0.000 C 
BRANCH   2   3
ATOM      3  C   UNL     1      10.237   6.982   0.500  1.00  0.00     0.000 C 
BRANCH   3   4
ATOM      4  C   UNL     1       9.973   6.785  -1.002  1.00  0.00     0.000 C 
BRANCH   4   5
ATOM      5  C   UNL     1      10.980   5.828  -1.668  1.00  0.00     0.000 C 
BRANCH   5   6
ATOM      6  C   UNL     1      10.445   5.058  -2.892  1.00  0.00     0.006 C 
BRANCH   6   7
ATOM      7  C   UNL     1       8.919   4.882  -2.918  1.00  0.00     0.053 C 
BRANCH   7   8
ATOM      8  C   UNL     1       8.298   5.531  -4.117  1.00  0.00     0.041 C 
ATOM      9  O   UNL     1       8.697   6.661  -4.503  1.00  0.00    -0.550 OA
ATOM     10  O   UNL     1       7.256   4.903  -4.787  1.00  0.00    -0.550 OA
ENDBRANCH   7   8
ENDBRANCH   6   7
ENDBRANCH   5   6
ENDBRANCH   4   5
ENDBRANCH   3   4
ENDBRANCH   2   3
ENDBRANCH   1   2
BRANCH   1  11
ATOM     11  C   UNL     1       8.326   3.809   0.603  1.00  0.00     0.000 C 
BRANCH  11  12
ATOM     12  C   UNL     1       9.695   3.125   0.764  1.00  0.00    -0.000 C 
BRANCH  12  13
ATOM     13  C   UNL     1      10.051   2.228  -0.432  1.00  0.00    -0.000 C 
BRANCH  13  14
ATOM     14  C   UNL     1      11.531   1.806  -0.432  1.00  0.00    -0.000 C 
BRANCH  14  15
ATOM     15  C   UNL     1      12.104   1.667  -1.850  1.00  0.00    -0.000 C 
BRANCH  15  16
ATOM     16  C   UNL     1      11.005   1.561  -2.922  1.00  0.00    -0.000 C 
BRANCH  16  17
ATOM     17  C   UNL     1      11.542   1.796  -4.342  1.00  0.00    -0.003 C 
ATOM     18  C   UNL     1      11.623   0.510  -5.163  1.00  0.00     0.004 C 
ENDBRANCH  16  17
ENDBRANCH  15  16
ENDBRANCH  14  15
ENDBRANCH  13  14
ENDBRANCH  12  13
ENDBRANCH  11  12
ENDBRANCH   1  11
TORSDOF 14
ENDMDL
MODEL 7
REMARK VINA RESULT:    -3.997      1.149      3.199
REMARK INTER + INTRA:          -9.416
REMARK INTER:                  -7.391
REMARK INTRA:                  -2.025
REMARK UNBOUND:                -2.148
REMARK SMILES CCCCCCCCCCCCCCCC(=O)[O-]
REMARK SMILES IDX 9 1 10 2 11 3 12 4 13 5 14 6 15 7 16 8 17 9 18 10 8 11 7 12
REMARK SMILES IDX 6 13 5 14 4 15 3 16 2 17 1 18
REMARK H PARENT
REMARK Flexibility Score: inf
ROOT
ATOM      1  C   UNL     1       8.581   4.042  -1.770  1.00  0.00     0.000 C 
ENDROOT
BRANCH   1   2
ATOM      2  C   UNL     1       8.562   4.152  -0.234  1.00  0.00     0.000 C 
BRANCH   2   3
ATOM      3  C   UNL     1       9.306   2.996   0.453  1.00  0.00     0.000 C 
BRANCH   3   4
ATOM      4  C   UNL     1       9.925   2.012  -0.554  1.00  0.00     0.000 C 
BRANCH   4   5
ATOM      5  C   UNL     1      11.422   1.756  -0.298  1.00  0.00     0.000 C 
BRANCH   5   6
ATOM      6  C   UNL     1      12.280   1.554  -1.564  1.00  0.00     0.006 C 
BRANCH   6   7
ATOM      7  C   UNL     1      12.053   2.605  -2.663  1.00  0.00     0.053 C 
BRANCH   7   8
ATOM      8  C   UNL     1      11.509   1.996  -3.919  1.00  0.00     0.041 C 
ATOM      9  O   UNL     1      11.182   0.781  -3.944  1.00  0.00    -0.550 OA
ATOM     10  O   UNL     1      11.396   2.763  -5.072  1.00  0.00    -0.550 OA
ENDBRANCH   7   8
ENDBRANCH   6   7
ENDBRANCH   5   6
ENDBRANCH   4   5
ENDBRANCH   3   4
ENDBRANCH   2   3
ENDBRANCH   1   2
BRANCH   1  11
ATOM     11  C   UNL     1       9.123   5.313  -2.443  1.00  0.00     0.000 C 
BRANCH  11  12
ATOM     12  C   UNL     1      10.545   5.669  -1.975  1.00  0.00    -0.000 C 
BRANCH  12  13
ATOM     13  C   UNL     1      10.672   7.138  -1.541  1.00  0.00    -0.000 C 
BRANCH  13  14
ATOM     14  C   UNL     1       9.305   7.802  -1.302  1.00  0.00    -0.000 C 
BRANCH  14  15
ATOM     15  C   UNL     1       9.176   8.395   0.110  1.00  0.00    -0.000 C 
BRANCH  15  16
ATOM     16  C   UNL     1       8.813   7.335   1.163  1.00  0.00    -0.000 C 
BRANCH  16  17
ATOM     17  C   UNL     1       9.783   7.331   2.354  1.00  0.00    -0.003 C 
ATOM     18  C   UNL     1      10.423   5.963   2.590  1.00  0.00     0.004 C 
ENDBRANCH  16  17
ENDBRANCH  15  16
ENDBRANCH  14  15
ENDBRANCH  13  14
ENDBRANCH  12  13
ENDBRANCH  11  12
ENDBRANCH   1  11
TORSDOF 14
ENDMDL
MODEL 8
REMARK VINA RESULT:    -3.970      3.659      6.430
REMARK INTER + INTRA:          -9.367
REMARK INTER:                  -7.352
REMARK INTRA:                  -2.015
REMARK UNBOUND:                -2.148
REMARK SMILES CCCCCCCCCCCCCCCC(=O)[O-]
REMARK SMILES IDX 9 1 10 2 11 3 12 4 13 5 14 6 15 7 16 8 17 9 18 10 8 11 7 12
REMARK SMILES IDX 6 13 5 14 4 15 3 16 2 17 1 18
REMARK H PARENT
REMARK Flexibility Score: inf
ROOT
ATOM      1  C   UNL     1       9.573   4.948  -2.444  1.00  0.00     0.000 C 
ENDROOT
BRANCH   1   2
ATOM      2  C   UNL     1      10.793   5.772  -1.998  1.00  0.00     0.000 C 
BRANCH   2   3
ATOM      3  C   UNL     1      10.655   7.266  -2.333  1.00  0.00     0.000 C 
BRANCH   3   4
ATOM      4  C   UNL     1      10.346   8.122  -1.093  1.00  0.00     0.000 C 
BRANCH   4   5
ATOM      5  C   UNL     1       8.873   8.028  -0.651  1.00  0.00     0.000 C 
BRANCH   5   6
ATOM      6  C   UNL     1       8.632   8.165   0.866  1.00  0.00     0.006 C 
BRANCH   6   7
ATOM      7  C   UNL     1       9.869   7.894   1.736  1.00  0.00     0.053 C 
BRANCH   7   8
ATOM      8  C   UNL     1       9.614   6.829   2.758  1.00  0.00     0.041 C 
ATOM      9  O   UNL     1      10.577   6.203   3.274  1.00  0.00    -0.550 OA
ATOM     10  O   UNL     1       8.311   6.504   3.115  1.00  0.00    -0.550 OA
ENDBRANCH   7   8
ENDBRANCH   6   7
ENDBRANCH   5   6
ENDBRANCH   4   5
ENDBRANCH   3   4
ENDBRANCH   2   3
ENDBRANCH   1   2
BRANCH   1  11
ATOM     11  C   UNL     1       8.842   4.292  -1.262  1.00  0.00     0.000 C 
BRANCH  11  12
ATOM     12  C   UNL     1       9.628   4.407   0.056  1.00  0.00    -0.000 C 
BRANCH  12  13
ATOM     13  C   UNL     1      10.016   3.037   0.634  1.00  0.00    -0.000 C 
BRANCH  13  14
ATOM     14  C   UNL     1      10.276   1.988  -0.462  1.00  0.00    -0.000 C 
BRANCH  14  15
ATOM     15  C   UNL     1      11.772   1.689  -0.648  1.00  0.00    -0.000 C 
BRANCH  15  16
ATOM     16  C   UNL     1      12.235   1.881  -2.103  1.00  0.00    -0.000 C 
BRANCH  16  17
ATOM     17  C   UNL     1      11.083   1.741  -3.110  1.00  0.00    -0.003 C 
ATOM     18  C   UNL     1      11.481   0.946  -4.354  1.00  0.00     0.004 C 
ENDBRANCH  16  17
ENDBRANCH  15  16
ENDBRANCH  14  15
ENDBRANCH  13  14
ENDBRANCH  12  13
ENDBRANCH  11  12
ENDBRANCH   1  11
TORSDOF 14
ENDMDL
MODEL 9
REMARK VINA RESULT:    -3.909      3.538      6.038
REMARK INTER + INTRA:          -9.257
REMARK INTER:                  -7.377
REMARK INTRA:                  -1.880
REMARK UNBOUND:                -2.148
REMARK SMILES CCCCCCCCCCCCCCCC(=O)[O-]
REMARK SMILES IDX 9 1 10 2 11 3 12 4 13 5 14 6 15 7 16 8 17 9 18 10 8 11 7 12
REMARK SMILES IDX 6 13 5 14 4 15 3 16 2 17 1 18
REMARK H PARENT
REMARK Flexibility Score: inf
ROOT
ATOM      1  C   UNL     1      11.543   1.482  -0.310  1.00  0.00     0.000 C 
ENDROOT
BRANCH   1   2
ATOM      2  C   UNL     1      10.306   2.394  -0.399  1.00  0.00     0.000 C 
BRANCH   2   3
ATOM      3  C   UNL     1      10.013   3.127   0.920  1.00  0.00     0.000 C 
BRANCH   3   4
ATOM      4  C   UNL     1       8.533   3.520   1.059  1.00  0.00     0.000 C 
BRANCH   4   5
ATOM      5  C   UNL     1       8.057   4.467  -0.058  1.00  0.00     0.000 C 
BRANCH   5   6
ATOM      6  C   UNL     1       7.666   5.886   0.405  1.00  0.00     0.006 C 
BRANCH   6   7
ATOM      7  C   UNL     1       7.620   6.070   1.930  1.00  0.00     0.053 C 
BRANCH   7   8
ATOM      8  C   UNL     1       8.784   6.865   2.436  1.00  0.00     0.041 C 
ATOM      9  O   UNL     1       8.610   7.767   3.296  1.00  0.00    -0.550 OA
ATOM     10  O   UNL     1      10.058   6.632   1.931  1.00  0.00    -0.550 OA
ENDBRANCH   7   8
ENDBRANCH   6   7
ENDBRANCH   5   6
ENDBRANCH   4   5
ENDBRANCH   3   4
ENDBRANCH   2   3
ENDBRANCH   1   2
BRANCH   1  11
ATOM     11  C   UNL     1      12.300   1.385  -1.643  1.00  0.00     0.000 C 
BRANCH  11  12
ATOM     12  C   UNL     1      12.161   2.658  -2.495  1.00  0.00    -0.000 C 
BRANCH  12  13
ATOM     13  C   UNL     1      11.521   2.385  -3.865  1.00  0.00    -0.000 C 
BRANCH  13  14
ATOM     14  C   UNL     1      10.762   3.605  -4.416  1.00  0.00    -0.000 C 
BRANCH  14  15
ATOM     15  C   UNL     1       9.970   4.346  -3.328  1.00  0.00    -0.000 C 
BRANCH  15  16
ATOM     16  C   UNL     1      10.382   5.823  -3.201  1.00  0.00    -0.000 C 
BRANCH  16  17
ATOM     17  C   UNL     1      10.763   6.207  -1.764  1.00  0.00    -0.003 C 
ATOM     18  C   UNL     1      10.393   7.650  -1.420  1.00  0.00     0.004 C 
ENDBRANCH  16  17
ENDBRANCH  15  16
ENDBRANCH  14  15
ENDBRANCH  13  14
ENDBRANCH  12  13
ENDBRANCH  11  12
ENDBRANCH   1  11
TORSDOF 14
ENDMDL
