MODEL 1
REMARK VINA RESULT:    -4.285      0.000      0.000
REMARK INTER + INTRA:          -6.767
REMARK INTER:                  -6.540
REMARK INTRA:                  -0.227
REMARK UNBOUND:                -0.227
REMARK SMILES CC1=CCC[C@H](C)C(=O)C[C@@H](C(C)C)C(=O)C1
REMARK SMILES IDX 8 1 9 2 6 3 7 4 5 5 4 6 3 7 2 8 1 9 10 11 11 12 15 13 16 14
REMARK SMILES IDX 17 15 12 17 13 18 14 19
REMARK H PARENT
REMARK Flexibility Score: 70.00
ROOT
ATOM      1  C   UNL     1     -13.763  12.660 -30.559  1.00  0.00     0.136 C 
ATOM      2  O   UNL     1     -13.261  11.589 -30.870  1.00  0.00    -0.299 OA
ENDROOT
BRANCH   1   3
ATOM      3  C   UNL     1     -14.164  13.616 -31.672  1.00  0.00     0.053 C 
ATOM      4  C   UNL     1     -13.077  13.681 -32.754  1.00  0.00     0.016 C 
BRANCH   3   5
ATOM      5  C   UNL     1     -15.540  13.274 -32.293  1.00  0.00     0.015 C 
BRANCH   5   6
ATOM      6  C   UNL     1     -16.769  13.859 -31.563  1.00  0.00     0.028 C 
BRANCH   6   7
ATOM      7  C   UNL     1     -17.708  12.870 -30.910  1.00  0.00    -0.028 C 
ATOM      8  C   UNL     1     -17.700  12.492 -29.609  1.00  0.00    -0.070 CG0
ATOM      9  C   UNL     1     -18.619  11.370 -29.198  1.00  0.00     0.039 C 
ATOM     10  G   UNL     1     -16.873  13.174 -28.538  1.00  0.00     0.000 G0
ENDBRANCH   6   7
ENDBRANCH   5   6
ENDBRANCH   3   5
ENDBRANCH   1   3
BRANCH   1  11
ATOM     11  C   UNL     1     -13.978  12.943 -29.081  1.00  0.00     0.087 C 
BRANCH  11  12
ATOM     12  C   UNL     1     -14.658  11.783 -28.302  1.00  0.00     0.066 C 
BRANCH  12  13
ATOM     13  C   UNL     1     -16.021  12.187 -27.769  1.00  0.00     0.140 C 
ATOM     14  O   UNL     1     -16.413  11.740 -26.701  1.00  0.00    -0.299 OA
BRANCH  13  15
ATOM     15  C   UNL     1     -16.890  13.175 -28.514  1.00  0.00     0.106 CG0
ATOM     16  G   UNL     1     -17.678  12.465 -29.596  1.00  0.00     0.000 G0
ENDBRANCH  13  15
ENDBRANCH  12  13
BRANCH  12  17
ATOM     17  C   UNL     1     -13.758  11.147 -27.191  1.00  0.00    -0.006 C 
ATOM     18  C   UNL     1     -12.828  12.138 -26.469  1.00  0.00     0.008 C 
ATOM     19  C   UNL     1     -12.929   9.976 -27.743  1.00  0.00     0.008 C 
ENDBRANCH  12  17
ENDBRANCH  11  12
ENDBRANCH   1  11
TORSDOF 1
ENDMDL
MODEL 2
REMARK VINA RESULT:    -4.123      1.626      3.843
REMARK INTER + INTRA:          -6.519
REMARK INTER:                  -6.698
REMARK INTRA:                   0.179
REMARK UNBOUND:                -0.227
REMARK SMILES CC1=CCC[C@H](C)C(=O)C[C@@H](C(C)C)C(=O)C1
REMARK SMILES IDX 8 1 9 2 6 3 7 4 5 5 4 6 3 7 2 8 1 9 10 11 11 12 15 13 16 14
REMARK SMILES IDX 17 15 12 17 13 18 14 19
REMARK H PARENT
REMARK Flexibility Score: 70.00
ROOT
ATOM      1  C   UNL     1     -16.905  12.327 -28.681  1.00  0.00     0.136 C 
ATOM      2  O   UNL     1     -17.178  13.376 -28.115  1.00  0.00    -0.299 OA
ENDROOT
BRANCH   1   3
ATOM      3  C   UNL     1     -17.770  11.899 -29.857  1.00  0.00     0.053 C 
ATOM      4  C   UNL     1     -19.129  11.375 -29.372  1.00  0.00     0.016 C 
BRANCH   3   5
ATOM      5  C   UNL     1     -17.954  13.019 -30.909  1.00  0.00     0.015 C 
BRANCH   5   6
ATOM      6  C   UNL     1     -16.713  13.338 -31.773  1.00  0.00     0.028 C 
BRANCH   6   7
ATOM      7  C   UNL     1     -15.796  14.430 -31.271  1.00  0.00    -0.028 C 
ATOM      8  C   UNL     1     -14.507  14.281 -30.883  1.00  0.00    -0.070 CG0
ATOM      9  C   UNL     1     -13.819  15.470 -30.261  1.00  0.00     0.039 C 
ATOM     10  G   UNL     1     -13.701  13.016 -31.098  1.00  0.00     0.000 G0
ENDBRANCH   6   7
ENDBRANCH   5   6
ENDBRANCH   3   5
ENDBRANCH   1   3
BRANCH   1  11
ATOM     11  C   UNL     1     -15.700  11.542 -28.187  1.00  0.00     0.087 C 
BRANCH  11  12
ATOM     12  C   UNL     1     -14.336  12.070 -28.715  1.00  0.00     0.066 C 
BRANCH  12  13
ATOM     13  C   UNL     1     -14.210  11.894 -30.217  1.00  0.00     0.140 C 
ATOM     14  O   UNL     1     -14.568  10.848 -30.739  1.00  0.00    -0.299 OA
BRANCH  13  15
ATOM     15  C   UNL     1     -13.692  13.011 -31.094  1.00  0.00     0.106 CG0
ATOM     16  G   UNL     1     -14.516  14.265 -30.882  1.00  0.00     0.000 G0
ENDBRANCH  13  15
ENDBRANCH  12  13
BRANCH  12  17
ATOM     17  C   UNL     1     -13.094  11.502 -27.951  1.00  0.00    -0.006 C 
ATOM     18  C   UNL     1     -13.238  10.044 -27.477  1.00  0.00     0.008 C 
ATOM     19  C   UNL     1     -12.716  12.394 -26.757  1.00  0.00     0.008 C 
ENDBRANCH  12  17
ENDBRANCH  11  12
ENDBRANCH   1  11
TORSDOF 1
ENDMDL
MODEL 3
REMARK VINA RESULT:    -3.977      1.743      4.022
REMARK INTER + INTRA:          -6.296
REMARK INTER:                  -6.312
REMARK INTRA:                   0.016
REMARK UNBOUND:                -0.227
REMARK SMILES CC1=CCC[C@H](C)C(=O)C[C@@H](C(C)C)C(=O)C1
REMARK SMILES IDX 8 1 9 2 6 3 7 4 5 5 4 6 3 7 2 8 1 9 10 11 11 12 15 13 16 14
REMARK SMILES IDX 17 15 12 17 13 18 14 19
REMARK H PARENT
REMARK Flexibility Score: 70.00
ROOT
ATOM      1  C   UNL     1     -13.854  12.103 -28.635  1.00  0.00     0.136 C 
ATOM      2  O   UNL     1     -13.532  13.062 -27.948  1.00  0.00    -0.299 OA
ENDROOT
BRANCH   1   3
ATOM      3  C   UNL     1     -13.716  10.712 -28.036  1.00  0.00     0.053 C 
ATOM      4  C   UNL     1     -12.874  10.751 -26.752  1.00  0.00     0.016 C 
BRANCH   3   5
ATOM      5  C   UNL     1     -15.081  10.028 -27.779  1.00  0.00     0.015 C 
BRANCH   5   6
ATOM      6  C   UNL     1     -16.260  10.979 -27.477  1.00  0.00     0.028 C 
BRANCH   6   7
ATOM      7  C   UNL     1     -17.463  10.883 -28.387  1.00  0.00    -0.028 C 
ATOM      8  C   UNL     1     -18.081  11.912 -29.014  1.00  0.00    -0.070 CG0
ATOM      9  C   UNL     1     -19.366  11.619 -29.748  1.00  0.00     0.039 C 
ATOM     10  G   UNL     1     -17.523  13.320 -29.076  1.00  0.00     0.000 G0
ENDBRANCH   6   7
ENDBRANCH   5   6
ENDBRANCH   3   5
ENDBRANCH   1   3
BRANCH   1  11
ATOM     11  C   UNL     1     -14.400  12.375 -30.028  1.00  0.00     0.087 C 
BRANCH  11  12
ATOM     12  C   UNL     1     -15.158  13.725 -30.162  1.00  0.00     0.066 C 
BRANCH  12  13
ATOM     13  C   UNL     1     -16.656  13.517 -30.297  1.00  0.00     0.140 C 
ATOM     14  O   UNL     1     -17.163  13.451 -31.407  1.00  0.00    -0.299 OA
BRANCH  13  15
ATOM     15  C   UNL     1     -17.533  13.342 -29.078  1.00  0.00     0.106 CG0
ATOM     16  G   UNL     1     -18.065  11.925 -29.018  1.00  0.00     0.000 G0
ENDBRANCH  13  15
ENDBRANCH  12  13
BRANCH  12  17
ATOM     17  C   UNL     1     -14.593  14.664 -31.279  1.00  0.00    -0.006 C 
ATOM     18  C   UNL     1     -13.606  13.991 -32.251  1.00  0.00     0.008 C 
ATOM     19  C   UNL     1     -13.942  15.921 -30.678  1.00  0.00     0.008 C 
ENDBRANCH  12  17
ENDBRANCH  11  12
ENDBRANCH   1  11
TORSDOF 1
ENDMDL
MODEL 4
REMARK VINA RESULT:    -3.768      1.874      4.452
REMARK INTER + INTRA:          -5.977
REMARK INTER:                  -6.146
REMARK INTRA:                   0.168
REMARK UNBOUND:                -0.227
REMARK SMILES CC1=CCC[C@H](C)C(=O)C[C@@H](C(C)C)C(=O)C1
REMARK SMILES IDX 8 1 9 2 6 3 7 4 5 5 4 6 3 7 2 8 1 9 10 11 11 12 15 13 16 14
REMARK SMILES IDX 17 15 12 17 13 18 14 19
REMARK H PARENT
REMARK Flexibility Score: 70.00
ROOT
ATOM      1  C   UNL     1     -15.191  11.653 -27.026  1.00  0.00     0.136 C 
ATOM      2  O   UNL     1     -15.073  10.953 -26.031  1.00  0.00    -0.299 OA
ENDROOT
BRANCH   1   3
ATOM      3  C   UNL     1     -13.929  12.074 -27.764  1.00  0.00     0.053 C 
ATOM      4  C   UNL     1     -12.747  12.200 -26.793  1.00  0.00     0.016 C 
BRANCH   3   5
ATOM      5  C   UNL     1     -13.578  11.132 -28.942  1.00  0.00     0.015 C 
BRANCH   5   6
ATOM      6  C   UNL     1     -13.475  11.805 -30.329  1.00  0.00     0.028 C 
BRANCH   6   7
ATOM      7  C   UNL     1     -13.475  13.316 -30.355  1.00  0.00    -0.028 C 
ATOM      8  C   UNL     1     -14.513  14.115 -30.702  1.00  0.00    -0.070 CG0
ATOM      9  C   UNL     1     -14.253  15.595 -30.819  1.00  0.00     0.039 C 
ATOM     10  G   UNL     1     -15.928  13.615 -30.913  1.00  0.00     0.000 G0
ENDBRANCH   6   7
ENDBRANCH   5   6
ENDBRANCH   3   5
ENDBRANCH   1   3
BRANCH   1  11
ATOM     11  C   UNL     1     -16.597  12.025 -27.473  1.00  0.00     0.087 C 
BRANCH  11  12
ATOM     12  C   UNL     1     -16.795  12.031 -29.014  1.00  0.00     0.066 C 
BRANCH  12  13
ATOM     13  C   UNL     1     -16.632  13.424 -29.596  1.00  0.00     0.140 C 
ATOM     14  O   UNL     1     -17.030  14.395 -28.969  1.00  0.00    -0.299 OA
BRANCH  13  15
ATOM     15  C   UNL     1     -15.941  13.641 -30.923  1.00  0.00     0.106 CG0
ATOM     16  G   UNL     1     -14.519  14.113 -30.699  1.00  0.00     0.000 G0
ENDBRANCH  13  15
ENDBRANCH  12  13
BRANCH  12  17
ATOM     17  C   UNL     1     -18.119  11.347 -29.489  1.00  0.00    -0.006 C 
ATOM     18  C   UNL     1     -19.286  12.315 -29.756  1.00  0.00     0.008 C 
ATOM     19  C   UNL     1     -18.573  10.258 -28.503  1.00  0.00     0.008 C 
ENDBRANCH  12  17
ENDBRANCH  11  12
ENDBRANCH   1  11
TORSDOF 1
ENDMDL
MODEL 5
REMARK VINA RESULT:    -3.582      1.931      4.267
REMARK INTER + INTRA:          -5.694
REMARK INTER:                  -5.753
REMARK INTRA:                   0.059
REMARK UNBOUND:                -0.227
REMARK SMILES CC1=CCC[C@H](C)C(=O)C[C@@H](C(C)C)C(=O)C1
REMARK SMILES IDX 8 1 9 2 6 3 7 4 5 5 4 6 3 7 2 8 1 9 10 11 11 12 15 13 16 14
REMARK SMILES IDX 17 15 12 17 13 18 14 19
REMARK H PARENT
REMARK Flexibility Score: 70.00
ROOT
ATOM      1  C   UNL     1     -13.964  12.016 -28.148  1.00  0.00     0.136 C 
ATOM      2  O   UNL     1     -13.538  12.868 -27.380  1.00  0.00    -0.299 OA
ENDROOT
BRANCH   1   3
ATOM      3  C   UNL     1     -15.336  11.419 -27.869  1.00  0.00     0.053 C 
ATOM      4  C   UNL     1     -15.269  10.419 -26.707  1.00  0.00     0.016 C 
BRANCH   3   5
ATOM      5  C   UNL     1     -16.420  12.494 -27.611  1.00  0.00     0.015 C 
BRANCH   5   6
ATOM      6  C   UNL     1     -16.953  13.222 -28.864  1.00  0.00     0.028 C 
BRANCH   6   7
ATOM      7  C   UNL     1     -16.242  14.494 -29.267  1.00  0.00    -0.028 C 
ATOM      8  C   UNL     1     -15.498  14.682 -30.383  1.00  0.00    -0.070 CG0
ATOM      9  C   UNL     1     -14.740  15.979 -30.514  1.00  0.00     0.039 C 
ATOM     10  G   UNL     1     -15.438  13.695 -31.531  1.00  0.00     0.000 G0
ENDBRANCH   6   7
ENDBRANCH   5   6
ENDBRANCH   3   5
ENDBRANCH   1   3
BRANCH   1  11
ATOM     11  C   UNL     1     -13.104  11.640 -29.344  1.00  0.00     0.087 C 
BRANCH  11  12
ATOM     12  C   UNL     1     -13.262  12.588 -30.565  1.00  0.00     0.066 C 
BRANCH  12  13
ATOM     13  C   UNL     1     -14.641  12.473 -31.190  1.00  0.00     0.140 C 
ATOM     14  O   UNL     1     -15.142  11.372 -31.361  1.00  0.00    -0.299 OA
BRANCH  13  15
ATOM     15  C   UNL     1     -15.435  13.705 -31.562  1.00  0.00     0.106 CG0
ATOM     16  G   UNL     1     -15.487  14.666 -30.391  1.00  0.00     0.000 G0
ENDBRANCH  13  15
ENDBRANCH  12  13
BRANCH  12  17
ATOM     17  C   UNL     1     -12.123  12.452 -31.629  1.00  0.00    -0.006 C 
ATOM     18  C   UNL     1     -10.946  11.555 -31.204  1.00  0.00     0.008 C 
ATOM     19  C   UNL     1     -11.589  13.829 -32.057  1.00  0.00     0.008 C 
ENDBRANCH  12  17
ENDBRANCH  11  12
ENDBRANCH   1  11
TORSDOF 1
ENDMDL
MODEL 6
REMARK VINA RESULT:    -3.577      1.876      4.610
REMARK INTER + INTRA:          -5.686
REMARK INTER:                  -6.104
REMARK INTRA:                   0.419
REMARK UNBOUND:                -0.227
REMARK SMILES CC1=CCC[C@H](C)C(=O)C[C@@H](C(C)C)C(=O)C1
REMARK SMILES IDX 8 1 9 2 6 3 7 4 5 5 4 6 3 7 2 8 1 9 10 11 11 12 15 13 16 14
REMARK SMILES IDX 17 15 12 17 13 18 14 19
REMARK H PARENT
REMARK Flexibility Score: 70.00
ROOT
ATOM      1  C   UNL     1     -17.098  13.346 -30.459  1.00  0.00     0.136 C 
ATOM      2  O   UNL     1     -17.479  13.369 -31.620  1.00  0.00    -0.299 OA
ENDROOT
BRANCH   1   3
ATOM      3  C   UNL     1     -18.022  12.742 -29.411  1.00  0.00     0.053 C 
ATOM      4  C   UNL     1     -19.013  11.764 -30.057  1.00  0.00     0.016 C 
BRANCH   3   5
ATOM      5  C   UNL     1     -17.255  12.064 -28.250  1.00  0.00     0.015 C 
BRANCH   5   6
ATOM      6  C   UNL     1     -16.700  10.654 -28.549  1.00  0.00     0.028 C 
BRANCH   6   7
ATOM      7  C   UNL     1     -15.465  10.232 -27.786  1.00  0.00    -0.028 C 
ATOM      8  C   UNL     1     -14.255  10.842 -27.813  1.00  0.00    -0.070 CG0
ATOM      9  C   UNL     1     -13.110  10.164 -27.104  1.00  0.00     0.039 C 
ATOM     10  G   UNL     1     -14.006  12.192 -28.454  1.00  0.00     0.000 G0
ENDBRANCH   6   7
ENDBRANCH   5   6
ENDBRANCH   3   5
ENDBRANCH   1   3
BRANCH   1  11
ATOM     11  C   UNL     1     -15.713  13.893 -30.151  1.00  0.00     0.087 C 
BRANCH  11  12
ATOM     12  C   UNL     1     -14.557  13.139 -30.865  1.00  0.00     0.066 C 
BRANCH  12  13
ATOM     13  C   UNL     1     -13.946  12.074 -29.973  1.00  0.00     0.140 C 
ATOM     14  O   UNL     1     -13.368  11.120 -30.473  1.00  0.00    -0.299 OA
BRANCH  13  15
ATOM     15  C   UNL     1     -13.995  12.195 -28.466  1.00  0.00     0.106 CG0
ATOM     16  G   UNL     1     -14.248  10.837 -27.843  1.00  0.00     0.000 G0
ENDBRANCH  13  15
ENDBRANCH  12  13
BRANCH  12  17
ATOM     17  C   UNL     1     -13.471  14.079 -31.486  1.00  0.00    -0.006 C 
ATOM     18  C   UNL     1     -13.853  15.570 -31.525  1.00  0.00     0.008 C 
ATOM     19  C   UNL     1     -13.071  13.616 -32.897  1.00  0.00     0.008 C 
ENDBRANCH  12  17
ENDBRANCH  11  12
ENDBRANCH   1  11
TORSDOF 1
ENDMDL
MODEL 7
REMARK VINA RESULT:    -3.543      1.958      5.040
REMARK INTER + INTRA:          -5.635
REMARK INTER:                  -5.606
REMARK INTRA:                  -0.029
REMARK UNBOUND:                -0.227
REMARK SMILES CC1=CCC[C@H](C)C(=O)C[C@@H](C(C)C)C(=O)C1
REMARK SMILES IDX 8 1 9 2 6 3 7 4 5 5 4 6 3 7 2 8 1 9 10 11 11 12 15 13 16 14
REMARK SMILES IDX 17 15 12 17 13 18 14 19
REMARK H PARENT
REMARK Flexibility Score: 70.00
ROOT
ATOM      1  C   UNL     1     -16.357  11.245 -27.531  1.00  0.00     0.136 C 
ATOM      2  O   UNL     1     -17.205  10.377 -27.385  1.00  0.00    -0.299 OA
ENDROOT
BRANCH   1   3
ATOM      3  C   UNL     1     -14.902  10.879 -27.277  1.00  0.00     0.053 C 
ATOM      4  C   UNL     1     -14.775   9.977 -26.041  1.00  0.00     0.016 C 
BRANCH   3   5
ATOM      5  C   UNL     1     -14.221  10.230 -28.506  1.00  0.00     0.015 C 
BRANCH   5   6
ATOM      6  C   UNL     1     -12.900  10.887 -28.965  1.00  0.00     0.028 C 
BRANCH   6   7
ATOM      7  C   UNL     1     -12.929  11.629 -30.281  1.00  0.00    -0.028 C 
ATOM      8  C   UNL     1     -13.462  12.855 -30.501  1.00  0.00    -0.070 CG0
ATOM      9  C   UNL     1     -13.531  13.347 -31.925  1.00  0.00     0.039 C 
ATOM     10  G   UNL     1     -13.927  13.783 -29.397  1.00  0.00     0.000 G0
ENDBRANCH   6   7
ENDBRANCH   5   6
ENDBRANCH   3   5
ENDBRANCH   1   3
BRANCH   1  11
ATOM     11  C   UNL     1     -16.816  12.621 -27.988  1.00  0.00     0.087 C 
BRANCH  11  12
ATOM     12  C   UNL     1     -16.450  12.958 -29.461  1.00  0.00     0.066 C 
BRANCH  12  13
ATOM     13  C   UNL     1     -15.420  14.071 -29.543  1.00  0.00     0.140 C 
ATOM     14  O   UNL     1     -15.786  15.228 -29.690  1.00  0.00    -0.299 OA
BRANCH  13  15
ATOM     15  C   UNL     1     -13.943  13.782 -29.397  1.00  0.00     0.106 CG0
ATOM     16  G   UNL     1     -13.482  12.857 -30.506  1.00  0.00     0.000 G0
ENDBRANCH  13  15
ENDBRANCH  12  13
BRANCH  12  17
ATOM     17  C   UNL     1     -17.686  13.234 -30.378  1.00  0.00    -0.006 C 
ATOM     18  C   UNL     1     -18.801  12.175 -30.294  1.00  0.00     0.008 C 
ATOM     19  C   UNL     1     -17.266  13.419 -31.845  1.00  0.00     0.008 C 
ENDBRANCH  12  17
ENDBRANCH  11  12
ENDBRANCH   1  11
TORSDOF 1
ENDMDL
MODEL 8
REMARK VINA RESULT:    -3.373      1.645      2.086
REMARK INTER + INTRA:          -5.374
REMARK INTER:                  -5.810
REMARK INTRA:                   0.436
REMARK UNBOUND:                -0.227
REMARK SMILES CC1=CCC[C@H](C)C(=O)C[C@@H](C(C)C)C(=O)C1
REMARK SMILES IDX 8 1 9 2 6 3 7 4 5 5 4 6 3 7 2 8 1 9 10 11 11 12 15 13 16 14
REMARK SMILES IDX 17 15 12 17 13 18 14 19
REMARK H PARENT
REMARK Flexibility Score: 70.00
ROOT
ATOM      1  C   UNL     1     -14.037  13.123 -31.181  1.00  0.00     0.136 C 
ATOM      2  O   UNL     1     -14.616  12.703 -32.172  1.00  0.00    -0.299 OA
ENDROOT
BRANCH   1   3
ATOM      3  C   UNL     1     -14.395  14.513 -30.674  1.00  0.00     0.053 C 
ATOM      4  C   UNL     1     -13.714  15.595 -31.523  1.00  0.00     0.016 C 
BRANCH   3   5
ATOM      5  C   UNL     1     -15.923  14.751 -30.600  1.00  0.00     0.015 C 
BRANCH   5   6
ATOM      6  C   UNL     1     -16.629  14.190 -29.346  1.00  0.00     0.028 C 
BRANCH   6   7
ATOM      7  C   UNL     1     -17.074  12.746 -29.403  1.00  0.00    -0.028 C 
ATOM      8  C   UNL     1     -16.520  11.706 -28.734  1.00  0.00    -0.070 CG0
ATOM      9  C   UNL     1     -17.013  10.319 -29.058  1.00  0.00     0.039 C 
ATOM     10  G   UNL     1     -15.487  11.864 -27.637  1.00  0.00     0.000 G0
ENDBRANCH   6   7
ENDBRANCH   5   6
ENDBRANCH   3   5
ENDBRANCH   1   3
BRANCH   1  11
ATOM     11  C   UNL     1     -13.023  12.212 -30.507  1.00  0.00     0.087 C 
BRANCH  11  12
ATOM     12  C   UNL     1     -13.623  11.302 -29.399  1.00  0.00     0.066 C 
BRANCH  12  13
ATOM     13  C   UNL     1     -14.119  12.112 -28.214  1.00  0.00     0.140 C 
ATOM     14  O   UNL     1     -13.419  12.998 -27.748  1.00  0.00    -0.299 OA
BRANCH  13  15
ATOM     15  C   UNL     1     -15.491  11.874 -27.626  1.00  0.00     0.106 CG0
ATOM     16  G   UNL     1     -16.509  11.690 -28.734  1.00  0.00     0.000 G0
ENDBRANCH  13  15
ENDBRANCH  12  13
BRANCH  12  17
ATOM     17  C   UNL     1     -12.682  10.132 -28.958  1.00  0.00    -0.006 C 
ATOM     18  C   UNL     1     -12.622   9.891 -27.438  1.00  0.00     0.008 C 
ATOM     19  C   UNL     1     -11.258  10.322 -29.503  1.00  0.00     0.008 C 
ENDBRANCH  12  17
ENDBRANCH  11  12
ENDBRANCH   1  11
TORSDOF 1
ENDMDL
MODEL 9
REMARK VINA RESULT:    -3.218      1.872      4.093
REMARK INTER + INTRA:          -5.137
REMARK INTER:                  -5.595
REMARK INTRA:                   0.458
REMARK UNBOUND:                -0.227
REMARK SMILES CC1=CCC[C@H](C)C(=O)C[C@@H](C(C)C)C(=O)C1
REMARK SMILES IDX 8 1 9 2 6 3 7 4 5 5 4 6 3 7 2 8 1 9 10 11 11 12 15 13 16 14
REMARK SMILES IDX 17 15 12 17 13 18 14 19
REMARK H PARENT
REMARK Flexibility Score: 70.00
ROOT
ATOM      1  C   UNL     1     -15.548  13.805 -30.040  1.00  0.00     0.136 C 
ATOM      2  O   UNL     1     -15.614  14.444 -29.000  1.00  0.00    -0.299 OA
ENDROOT
BRANCH   1   3
ATOM      3  C   UNL     1     -14.596  14.290 -31.123  1.00  0.00     0.053 C 
ATOM      4  C   UNL     1     -14.384  15.807 -31.023  1.00  0.00     0.016 C 
BRANCH   3   5
ATOM      5  C   UNL     1     -13.240  13.542 -31.113  1.00  0.00     0.015 C 
BRANCH   5   6
ATOM      6  C   UNL     1     -13.303  12.046 -30.735  1.00  0.00     0.028 C 
BRANCH   6   7
ATOM      7  C   UNL     1     -12.930  11.685 -29.315  1.00  0.00    -0.028 C 
ATOM      8  C   UNL     1     -13.717  11.053 -28.412  1.00  0.00    -0.070 CG0
ATOM      9  C   UNL     1     -13.209  10.934 -26.998  1.00  0.00     0.039 C 
ATOM     10  G   UNL     1     -15.042  10.403 -28.757  1.00  0.00     0.000 G0
ENDBRANCH   6   7
ENDBRANCH   5   6
ENDBRANCH   3   5
ENDBRANCH   1   3
BRANCH   1  11
ATOM     11  C   UNL     1     -16.400  12.551 -30.161  1.00  0.00     0.087 C 
BRANCH  11  12
ATOM     12  C   UNL     1     -17.063  12.101 -28.830  1.00  0.00     0.066 C 
BRANCH  12  13
ATOM     13  C   UNL     1     -16.185  11.126 -28.066  1.00  0.00     0.140 C 
ATOM     14  O   UNL     1     -16.418  10.891 -26.890  1.00  0.00    -0.299 OA
BRANCH  13  15
ATOM     15  C   UNL     1     -15.048  10.398 -28.749  1.00  0.00     0.106 CG0
ATOM     16  G   UNL     1     -13.728  11.060 -28.411  1.00  0.00     0.000 G0
ENDBRANCH  13  15
ENDBRANCH  12  13
BRANCH  12  17
ATOM     17  C   UNL     1     -18.525  11.568 -28.995  1.00  0.00    -0.006 C 
ATOM     18  C   UNL     1     -18.635  10.172 -29.635  1.00  0.00     0.008 C 
ATOM     19  C   UNL     1     -19.398  12.561 -29.779  1.00  0.00     0.008 C 
ENDBRANCH  12  17
ENDBRANCH  11  12
ENDBRANCH   1  11
TORSDOF 1
ENDMDL
