MODEL 1
REMARK VINA RESULT:    -4.214      0.000      0.000
REMARK INTER + INTRA:         -16.097
REMARK INTER:                 -10.620
REMARK INTRA:                  -5.478
REMARK UNBOUND:                -5.478
REMARK SMILES CCCCCCCCCCCCCCCCCCCCCCCCCCCC(=O)[O-]
REMARK SMILES IDX 15 1 16 2 17 3 18 4 19 5 20 6 21 7 22 8 23 9 24 10 25 11
REMARK SMILES IDX 26 12 27 13 28 14 29 15 30 16 14 17 13 18 12 19 11 20 10 21
REMARK SMILES IDX 9 22 8 23 7 24 6 25 5 26 4 27 3 28 2 29 1 30
REMARK H PARENT
REMARK Flexibility Score: inf
ROOT
ATOM      1  C   UNL     1     -14.760 -32.821  19.815  1.00  0.00     0.000 C 
ENDROOT
BRANCH   1   2
ATOM      2  C   UNL     1     -15.688 -33.578  20.787  1.00  0.00     0.000 C 
BRANCH   2   3
ATOM      3  C   UNL     1     -16.298 -32.685  21.890  1.00  0.00     0.000 C 
BRANCH   3   4
ATOM      4  C   UNL     1     -17.836 -32.724  21.913  1.00  0.00     0.000 C 
BRANCH   4   5
ATOM      5  C   UNL     1     -18.457 -31.555  21.129  1.00  0.00     0.000 C 
BRANCH   5   6
ATOM      6  C   UNL     1     -19.534 -32.016  20.130  1.00  0.00     0.000 C 
BRANCH   6   7
ATOM      7  C   UNL     1     -19.330 -33.433  19.561  1.00  0.00     0.000 C 
BRANCH   7   8
ATOM      8  C   UNL     1     -18.413 -33.454  18.326  1.00  0.00     0.000 C 
BRANCH   8   9
ATOM      9  C   UNL     1     -18.509 -32.164  17.496  1.00  0.00     0.000 C 
BRANCH   9  10
ATOM     10  C   UNL     1     -17.275 -31.935  16.608  1.00  0.00     0.000 C 
BRANCH  10  11
ATOM     11  C   UNL     1     -16.709 -30.522  16.814  1.00  0.00     0.000 C 
BRANCH  11  12
ATOM     12  C   UNL     1     -16.681 -30.097  18.293  1.00  0.00     0.006 C 
BRANCH  12  13
ATOM     13  C   UNL     1     -16.692 -28.576  18.517  1.00  0.00     0.053 C 
BRANCH  13  14
ATOM     14  C   UNL     1     -18.036 -28.083  18.958  1.00  0.00     0.041 C 
ATOM     15  O   UNL     1     -18.165 -26.919  19.419  1.00  0.00    -0.550 OA
ATOM     16  O   UNL     1     -19.152 -28.899  18.830  1.00  0.00    -0.550 OA
ENDBRANCH  13  14
ENDBRANCH  12  13
ENDBRANCH  11  12
ENDBRANCH  10  11
ENDBRANCH   9  10
ENDBRANCH   8   9
ENDBRANCH   7   8
ENDBRANCH   6   7
ENDBRANCH   5   6
ENDBRANCH   4   5
ENDBRANCH   3   4
ENDBRANCH   2   3
ENDBRANCH   1   2
BRANCH   1  17
ATOM     17  C   UNL     1     -14.079 -33.725  18.762  1.00  0.00     0.000 C 
BRANCH  17  18
ATOM     18  C   UNL     1     -14.032 -33.152  17.331  1.00  0.00     0.000 C 
BRANCH  18  19
ATOM     19  C   UNL     1     -12.699 -32.496  16.922  1.00  0.00     0.000 C 
BRANCH  19  20
ATOM     20  C   UNL     1     -12.815 -30.977  16.694  1.00  0.00     0.000 C 
BRANCH  20  21
ATOM     21  C   UNL     1     -12.951 -30.193  18.013  1.00  0.00     0.000 C 
BRANCH  21  22
ATOM     22  C   UNL     1     -13.197 -28.685  17.824  1.00  0.00    -0.000 C 
BRANCH  22  23
ATOM     23  C   UNL     1     -12.266 -27.824  18.696  1.00  0.00    -0.000 C 
BRANCH  23  24
ATOM     24  C   UNL     1     -10.832 -27.755  18.129  1.00  0.00    -0.000 C 
BRANCH  24  25
ATOM     25  C   UNL     1      -9.820 -28.633  18.885  1.00  0.00    -0.000 C 
BRANCH  25  26
ATOM     26  C   UNL     1      -9.228 -29.749  18.014  1.00  0.00    -0.000 C 
BRANCH  26  27
ATOM     27  C   UNL     1      -9.427 -31.123  18.670  1.00  0.00    -0.000 C 
BRANCH  27  28
ATOM     28  C   UNL     1     -10.136 -31.037  20.033  1.00  0.00    -0.000 C 
BRANCH  28  29
ATOM     29  C   UNL     1     -11.079 -32.227  20.316  1.00  0.00    -0.003 C 
ATOM     30  C   UNL     1     -10.457 -33.567  19.921  1.00  0.00     0.004 C 
ENDBRANCH  28  29
ENDBRANCH  27  28
ENDBRANCH  26  27
ENDBRANCH  25  26
ENDBRANCH  24  25
ENDBRANCH  23  24
ENDBRANCH  22  23
ENDBRANCH  21  22
ENDBRANCH  20  21
ENDBRANCH  19  20
ENDBRANCH  18  19
ENDBRANCH  17  18
ENDBRANCH   1  17
TORSDOF 26
ENDMDL
MODEL 2
REMARK VINA RESULT:    -4.212      2.867      7.802
REMARK INTER + INTRA:         -16.092
REMARK INTER:                 -12.065
REMARK INTRA:                  -4.027
REMARK UNBOUND:                -5.478
REMARK SMILES CCCCCCCCCCCCCCCCCCCCCCCCCCCC(=O)[O-]
REMARK SMILES IDX 15 1 16 2 17 3 18 4 19 5 20 6 21 7 22 8 23 9 24 10 25 11
REMARK SMILES IDX 26 12 27 13 28 14 29 15 30 16 14 17 13 18 12 19 11 20 10 21
REMARK SMILES IDX 9 22 8 23 7 24 6 25 5 26 4 27 3 28 2 29 1 30
REMARK H PARENT
REMARK Flexibility Score: inf
ROOT
ATOM      1  C   UNL     1     -15.626 -31.754  16.861  1.00  0.00     0.000 C 
ENDROOT
BRANCH   1   2
ATOM      2  C   UNL     1     -14.137 -31.786  16.461  1.00  0.00     0.000 C 
BRANCH   2   3
ATOM      3  C   UNL     1     -13.333 -30.561  16.951  1.00  0.00     0.000 C 
BRANCH   3   4
ATOM      4  C   UNL     1     -13.298 -30.437  18.485  1.00  0.00     0.000 C 
BRANCH   4   5
ATOM      5  C   UNL     1     -12.050 -31.102  19.092  1.00  0.00     0.000 C 
BRANCH   5   6
ATOM      6  C   UNL     1     -10.890 -31.215  18.086  1.00  0.00     0.000 C 
BRANCH   6   7
ATOM      7  C   UNL     1      -9.529 -30.710  18.602  1.00  0.00     0.000 C 
BRANCH   7   8
ATOM      8  C   UNL     1      -9.547 -29.214  18.964  1.00  0.00     0.000 C 
BRANCH   8   9
ATOM      9  C   UNL     1     -10.248 -28.356  17.899  1.00  0.00     0.000 C 
BRANCH   9  10
ATOM     10  C   UNL     1     -10.689 -26.985  18.436  1.00  0.00     0.000 C 
BRANCH  10  11
ATOM     11  C   UNL     1     -11.107 -26.056  17.285  1.00  0.00     0.000 C 
BRANCH  11  12
ATOM     12  C   UNL     1     -10.407 -24.687  17.335  1.00  0.00     0.006 C 
BRANCH  12  13
ATOM     13  C   UNL     1     -10.244 -24.007  15.965  1.00  0.00     0.053 C 
BRANCH  13  14
ATOM     14  C   UNL     1     -11.387 -23.090  15.653  1.00  0.00     0.041 C 
ATOM     15  O   UNL     1     -12.004 -22.506  16.582  1.00  0.00    -0.550 OA
ATOM     16  O   UNL     1     -11.750 -22.856  14.334  1.00  0.00    -0.550 OA
ENDBRANCH  13  14
ENDBRANCH  12  13
ENDBRANCH  11  12
ENDBRANCH  10  11
ENDBRANCH   9  10
ENDBRANCH   8   9
ENDBRANCH   7   8
ENDBRANCH   6   7
ENDBRANCH   5   6
ENDBRANCH   4   5
ENDBRANCH   3   4
ENDBRANCH   2   3
ENDBRANCH   1   2
BRANCH   1  17
ATOM     17  C   UNL     1     -16.076 -32.965  17.710  1.00  0.00     0.000 C 
BRANCH  17  18
ATOM     18  C   UNL     1     -14.938 -33.770  18.369  1.00  0.00     0.000 C 
BRANCH  18  19
ATOM     19  C   UNL     1     -14.823 -33.625  19.898  1.00  0.00     0.000 C 
BRANCH  19  20
ATOM     20  C   UNL     1     -15.677 -32.473  20.463  1.00  0.00     0.000 C 
BRANCH  20  21
ATOM     21  C   UNL     1     -16.479 -32.893  21.709  1.00  0.00     0.000 C 
BRANCH  21  22
ATOM     22  C   UNL     1     -17.991 -32.620  21.603  1.00  0.00    -0.000 C 
BRANCH  22  23
ATOM     23  C   UNL     1     -18.660 -33.438  20.484  1.00  0.00    -0.000 C 
BRANCH  23  24
ATOM     24  C   UNL     1     -19.303 -32.539  19.407  1.00  0.00    -0.000 C 
BRANCH  24  25
ATOM     25  C   UNL     1     -20.035 -31.311  19.976  1.00  0.00    -0.000 C 
BRANCH  25  26
ATOM     26  C   UNL     1     -19.835 -30.049  19.127  1.00  0.00    -0.000 C 
BRANCH  26  27
ATOM     27  C   UNL     1     -18.389 -29.950  18.620  1.00  0.00    -0.000 C 
BRANCH  27  28
ATOM     28  C   UNL     1     -17.415 -29.434  19.692  1.00  0.00    -0.000 C 
BRANCH  28  29
ATOM     29  C   UNL     1     -17.026 -27.951  19.512  1.00  0.00    -0.003 C 
ATOM     30  C   UNL     1     -15.871 -27.768  18.525  1.00  0.00     0.004 C 
ENDBRANCH  28  29
ENDBRANCH  27  28
ENDBRANCH  26  27
ENDBRANCH  25  26
ENDBRANCH  24  25
ENDBRANCH  23  24
ENDBRANCH  22  23
ENDBRANCH  21  22
ENDBRANCH  20  21
ENDBRANCH  19  20
ENDBRANCH  18  19
ENDBRANCH  17  18
ENDBRANCH   1  17
TORSDOF 26
ENDMDL
MODEL 3
REMARK VINA RESULT:    -3.987      2.865      7.367
REMARK INTER + INTRA:         -15.525
REMARK INTER:                 -10.745
REMARK INTRA:                  -4.779
REMARK UNBOUND:                -5.478
REMARK SMILES CCCCCCCCCCCCCCCCCCCCCCCCCCCC(=O)[O-]
REMARK SMILES IDX 15 1 16 2 17 3 18 4 19 5 20 6 21 7 22 8 23 9 24 10 25 11
REMARK SMILES IDX 26 12 27 13 28 14 29 15 30 16 14 17 13 18 12 19 11 20 10 21
REMARK SMILES IDX 9 22 8 23 7 24 6 25 5 26 4 27 3 28 2 29 1 30
REMARK H PARENT
REMARK Flexibility Score: inf
ROOT
ATOM      1  C   UNL     1     -17.354 -32.437  15.537  1.00  0.00     0.000 C 
ENDROOT
BRANCH   1   2
ATOM      2  C   UNL     1     -17.501 -32.804  14.046  1.00  0.00     0.000 C 
BRANCH   2   3
ATOM      3  C   UNL     1     -16.677 -31.907  13.097  1.00  0.00     0.000 C 
BRANCH   3   4
ATOM      4  C   UNL     1     -15.857 -30.837  13.840  1.00  0.00     0.000 C 
BRANCH   4   5
ATOM      5  C   UNL     1     -14.522 -30.538  13.136  1.00  0.00     0.000 C 
BRANCH   5   6
ATOM      6  C   UNL     1     -13.303 -30.795  14.041  1.00  0.00     0.000 C 
BRANCH   6   7
ATOM      7  C   UNL     1     -13.426 -32.022  14.965  1.00  0.00     0.000 C 
BRANCH   7   8
ATOM      8  C   UNL     1     -12.761 -31.805  16.336  1.00  0.00     0.000 C 
BRANCH   8   9
ATOM      9  C   UNL     1     -13.045 -30.410  16.917  1.00  0.00     0.000 C 
BRANCH   9  10
ATOM     10  C   UNL     1     -13.092 -30.405  18.453  1.00  0.00     0.000 C 
BRANCH  10  11
ATOM     11  C   UNL     1     -12.120 -31.444  19.033  1.00  0.00     0.000 C 
BRANCH  11  12
ATOM     12  C   UNL     1     -10.945 -30.806  19.794  1.00  0.00     0.006 C 
BRANCH  12  13
ATOM     13  C   UNL     1     -11.063 -29.285  19.984  1.00  0.00     0.053 C 
BRANCH  13  14
ATOM     14  C   UNL     1      -9.987 -28.541  19.253  1.00  0.00     0.041 C 
ATOM     15  O   UNL     1      -8.801 -28.960  19.273  1.00  0.00    -0.550 OA
ATOM     16  O   UNL     1     -10.303 -27.403  18.523  1.00  0.00    -0.550 OA
ENDBRANCH  13  14
ENDBRANCH  12  13
ENDBRANCH  11  12
ENDBRANCH  10  11
ENDBRANCH   9  10
ENDBRANCH   8   9
ENDBRANCH   7   8
ENDBRANCH   6   7
ENDBRANCH   5   6
ENDBRANCH   4   5
ENDBRANCH   3   4
ENDBRANCH   2   3
ENDBRANCH   1   2
BRANCH   1  17
ATOM     17  C   UNL     1     -18.011 -33.448  16.503  1.00  0.00     0.000 C 
BRANCH  17  18
ATOM     18  C   UNL     1     -17.072 -34.052  17.567  1.00  0.00     0.000 C 
BRANCH  18  19
ATOM     19  C   UNL     1     -15.783 -33.253  17.843  1.00  0.00     0.000 C 
BRANCH  19  20
ATOM     20  C   UNL     1     -15.321 -33.338  19.311  1.00  0.00     0.000 C 
BRANCH  20  21
ATOM     21  C   UNL     1     -15.877 -32.187  20.170  1.00  0.00     0.000 C 
BRANCH  21  22
ATOM     22  C   UNL     1     -16.541 -32.648  21.481  1.00  0.00    -0.000 C 
BRANCH  22  23
ATOM     23  C   UNL     1     -18.008 -32.194  21.589  1.00  0.00    -0.000 C 
BRANCH  23  24
ATOM     24  C   UNL     1     -18.722 -32.198  20.220  1.00  0.00    -0.000 C 
BRANCH  24  25
ATOM     25  C   UNL     1     -19.943 -31.264  20.152  1.00  0.00    -0.000 C 
BRANCH  25  26
ATOM     26  C   UNL     1     -20.026 -30.483  18.834  1.00  0.00    -0.000 C 
BRANCH  26  27
ATOM     27  C   UNL     1     -18.978 -29.362  18.792  1.00  0.00    -0.000 C 
BRANCH  27  28
ATOM     28  C   UNL     1     -17.792 -29.686  17.868  1.00  0.00    -0.000 C 
BRANCH  28  29
ATOM     29  C   UNL     1     -16.448 -29.108  18.359  1.00  0.00    -0.003 C 
ATOM     30  C   UNL     1     -16.540 -28.553  19.782  1.00  0.00     0.004 C 
ENDBRANCH  28  29
ENDBRANCH  27  28
ENDBRANCH  26  27
ENDBRANCH  25  26
ENDBRANCH  24  25
ENDBRANCH  23  24
ENDBRANCH  22  23
ENDBRANCH  21  22
ENDBRANCH  20  21
ENDBRANCH  19  20
ENDBRANCH  18  19
ENDBRANCH  17  18
ENDBRANCH   1  17
TORSDOF 26
ENDMDL
MODEL 4
REMARK VINA RESULT:    -3.931      3.023      7.556
REMARK INTER + INTRA:         -15.384
REMARK INTER:                 -10.475
REMARK INTRA:                  -4.910
REMARK UNBOUND:                -5.478
REMARK SMILES CCCCCCCCCCCCCCCCCCCCCCCCCCCC(=O)[O-]
REMARK SMILES IDX 15 1 16 2 17 3 18 4 19 5 20 6 21 7 22 8 23 9 24 10 25 11
REMARK SMILES IDX 26 12 27 13 28 14 29 15 30 16 14 17 13 18 12 19 11 20 10 21
REMARK SMILES IDX 9 22 8 23 7 24 6 25 5 26 4 27 3 28 2 29 1 30
REMARK H PARENT
REMARK Flexibility Score: inf
ROOT
ATOM      1  C   UNL     1     -14.549 -32.821  20.382  1.00  0.00     0.000 C 
ENDROOT
BRANCH   1   2
ATOM      2  C   UNL     1     -14.705 -33.714  19.135  1.00  0.00     0.000 C 
BRANCH   2   3
ATOM      3  C   UNL     1     -13.729 -33.365  17.990  1.00  0.00     0.000 C 
BRANCH   3   4
ATOM      4  C   UNL     1     -12.830 -32.158  18.312  1.00  0.00     0.000 C 
BRANCH   4   5
ATOM      5  C   UNL     1     -12.364 -31.428  17.040  1.00  0.00     0.000 C 
BRANCH   5   6
ATOM      6  C   UNL     1     -12.879 -29.979  16.964  1.00  0.00     0.000 C 
BRANCH   6   7
ATOM      7  C   UNL     1     -13.183 -29.325  18.326  1.00  0.00     0.000 C 
BRANCH   7   8
ATOM      8  C   UNL     1     -12.858 -27.821  18.351  1.00  0.00     0.000 C 
BRANCH   8   9
ATOM      9  C   UNL     1     -11.439 -27.515  17.844  1.00  0.00     0.000 C 
BRANCH   9  10
ATOM     10  C   UNL     1     -10.359 -27.781  18.905  1.00  0.00     0.000 C 
BRANCH  10  11
ATOM     11  C   UNL     1      -9.546 -29.038  18.553  1.00  0.00     0.000 C 
BRANCH  11  12
ATOM     12  C   UNL     1      -9.057 -29.802  19.796  1.00  0.00     0.006 C 
BRANCH  12  13
ATOM     13  C   UNL     1      -9.831 -31.097  20.090  1.00  0.00     0.053 C 
BRANCH  13  14
ATOM     14  C   UNL     1      -9.126 -31.959  21.093  1.00  0.00     0.041 C 
ATOM     15  O   UNL     1      -9.491 -31.959  22.297  1.00  0.00    -0.550 OA
ATOM     16  O   UNL     1      -8.085 -32.785  20.689  1.00  0.00    -0.550 OA
ENDBRANCH  13  14
ENDBRANCH  12  13
ENDBRANCH  11  12
ENDBRANCH  10  11
ENDBRANCH   9  10
ENDBRANCH   8   9
ENDBRANCH   7   8
ENDBRANCH   6   7
ENDBRANCH   5   6
ENDBRANCH   4   5
ENDBRANCH   3   4
ENDBRANCH   2   3
ENDBRANCH   1   2
BRANCH   1  17
ATOM     17  C   UNL     1     -15.547 -33.142  21.517  1.00  0.00     0.000 C 
BRANCH  17  18
ATOM     18  C   UNL     1     -16.959 -33.559  21.057  1.00  0.00     0.000 C 
BRANCH  18  19
ATOM     19  C   UNL     1     -18.105 -32.638  21.518  1.00  0.00     0.000 C 
BRANCH  19  20
ATOM     20  C   UNL     1     -19.051 -32.228  20.372  1.00  0.00     0.000 C 
BRANCH  20  21
ATOM     21  C   UNL     1     -19.615 -33.443  19.612  1.00  0.00     0.000 C 
BRANCH  21  22
ATOM     22  C   UNL     1     -19.563 -33.303  18.079  1.00  0.00    -0.000 C 
BRANCH  22  23
ATOM     23  C   UNL     1     -18.163 -33.594  17.509  1.00  0.00    -0.000 C 
BRANCH  23  24
ATOM     24  C   UNL     1     -17.894 -32.822  16.199  1.00  0.00    -0.000 C 
BRANCH  24  25
ATOM     25  C   UNL     1     -16.490 -32.199  16.121  1.00  0.00    -0.000 C 
BRANCH  25  26
ATOM     26  C   UNL     1     -16.459 -30.735  16.579  1.00  0.00    -0.000 C 
BRANCH  26  27
ATOM     27  C   UNL     1     -16.500 -30.637  18.111  1.00  0.00    -0.000 C 
BRANCH  27  28
ATOM     28  C   UNL     1     -17.417 -29.510  18.614  1.00  0.00    -0.000 C 
BRANCH  28  29
ATOM     29  C   UNL     1     -16.913 -28.830  19.904  1.00  0.00    -0.003 C 
ATOM     30  C   UNL     1     -16.430 -27.399  19.657  1.00  0.00     0.004 C 
ENDBRANCH  28  29
ENDBRANCH  27  28
ENDBRANCH  26  27
ENDBRANCH  25  26
ENDBRANCH  24  25
ENDBRANCH  23  24
ENDBRANCH  22  23
ENDBRANCH  21  22
ENDBRANCH  20  21
ENDBRANCH  19  20
ENDBRANCH  18  19
ENDBRANCH  17  18
ENDBRANCH   1  17
TORSDOF 26
ENDMDL
MODEL 5
REMARK VINA RESULT:    -3.918      1.519      3.265
REMARK INTER + INTRA:         -15.350
REMARK INTER:                 -11.033
REMARK INTRA:                  -4.317
REMARK UNBOUND:                -5.478
REMARK SMILES CCCCCCCCCCCCCCCCCCCCCCCCCCCC(=O)[O-]
REMARK SMILES IDX 15 1 16 2 17 3 18 4 19 5 20 6 21 7 22 8 23 9 24 10 25 11
REMARK SMILES IDX 26 12 27 13 28 14 29 15 30 16 14 17 13 18 12 19 11 20 10 21
REMARK SMILES IDX 9 22 8 23 7 24 6 25 5 26 4 27 3 28 2 29 1 30
REMARK H PARENT
REMARK Flexibility Score: inf
ROOT
ATOM      1  C   UNL     1     -14.001 -31.797  19.103  1.00  0.00     0.000 C 
ENDROOT
BRANCH   1   2
ATOM      2  C   UNL     1     -14.756 -33.022  19.657  1.00  0.00     0.000 C 
BRANCH   2   3
ATOM      3  C   UNL     1     -15.755 -33.645  18.657  1.00  0.00     0.000 C 
BRANCH   3   4
ATOM      4  C   UNL     1     -17.056 -34.125  19.325  1.00  0.00     0.000 C 
BRANCH   4   5
ATOM      5  C   UNL     1     -17.137 -33.706  20.803  1.00  0.00     0.000 C 
BRANCH   5   6
ATOM      6  C   UNL     1     -18.460 -32.998  21.148  1.00  0.00     0.000 C 
BRANCH   6   7
ATOM      7  C   UNL     1     -19.364 -32.684  19.941  1.00  0.00     0.000 C 
BRANCH   7   8
ATOM      8  C   UNL     1     -20.006 -31.288  20.024  1.00  0.00     0.000 C 
BRANCH   8   9
ATOM      9  C   UNL     1     -19.690 -30.418  18.796  1.00  0.00     0.000 C 
BRANCH   9  10
ATOM     10  C   UNL     1     -18.542 -30.985  17.945  1.00  0.00     0.000 C 
BRANCH  10  11
ATOM     11  C   UNL     1     -17.210 -30.305  18.302  1.00  0.00     0.000 C 
BRANCH  11  12
ATOM     12  C   UNL     1     -16.680 -29.399  17.178  1.00  0.00     0.006 C 
BRANCH  12  13
ATOM     13  C   UNL     1     -17.249 -27.970  17.194  1.00  0.00     0.053 C 
BRANCH  13  14
ATOM     14  C   UNL     1     -17.295 -27.399  18.579  1.00  0.00     0.041 C 
ATOM     15  O   UNL     1     -16.229 -27.101  19.178  1.00  0.00    -0.550 OA
ATOM     16  O   UNL     1     -18.518 -27.167  19.194  1.00  0.00    -0.550 OA
ENDBRANCH  13  14
ENDBRANCH  12  13
ENDBRANCH  11  12
ENDBRANCH  10  11
ENDBRANCH   9  10
ENDBRANCH   8   9
ENDBRANCH   7   8
ENDBRANCH   6   7
ENDBRANCH   5   6
ENDBRANCH   4   5
ENDBRANCH   3   4
ENDBRANCH   2   3
ENDBRANCH   1   2
BRANCH   1  17
ATOM     17  C   UNL     1     -13.386 -32.015  17.702  1.00  0.00     0.000 C 
BRANCH  17  18
ATOM     18  C   UNL     1     -11.857 -32.210  17.675  1.00  0.00     0.000 C 
BRANCH  18  19
ATOM     19  C   UNL     1     -11.203 -32.517  19.036  1.00  0.00     0.000 C 
BRANCH  19  20
ATOM     20  C   UNL     1      -9.809 -33.160  18.907  1.00  0.00     0.000 C 
BRANCH  20  21
ATOM     21  C   UNL     1      -9.036 -33.160  20.240  1.00  0.00     0.000 C 
BRANCH  21  22
ATOM     22  C   UNL     1      -9.818 -32.549  21.418  1.00  0.00    -0.000 C 
BRANCH  22  23
ATOM     23  C   UNL     1      -8.961 -31.585  22.256  1.00  0.00    -0.000 C 
BRANCH  23  24
ATOM     24  C   UNL     1      -8.018 -30.731  21.381  1.00  0.00    -0.000 C 
BRANCH  24  25
ATOM     25  C   UNL     1      -8.177 -29.215  21.591  1.00  0.00    -0.000 C 
BRANCH  25  26
ATOM     26  C   UNL     1      -8.665 -28.485  20.333  1.00  0.00    -0.000 C 
BRANCH  26  27
ATOM     27  C   UNL     1      -9.143 -29.483  19.268  1.00  0.00    -0.000 C 
BRANCH  27  28
ATOM     28  C   UNL     1     -10.254 -28.913  18.370  1.00  0.00    -0.000 C 
BRANCH  28  29
ATOM     29  C   UNL     1     -11.597 -28.706  19.103  1.00  0.00    -0.003 C 
ATOM     30  C   UNL     1     -12.700 -28.210  18.166  1.00  0.00     0.004 C 
ENDBRANCH  28  29
ENDBRANCH  27  28
ENDBRANCH  26  27
ENDBRANCH  25  26
ENDBRANCH  24  25
ENDBRANCH  23  24
ENDBRANCH  22  23
ENDBRANCH  21  22
ENDBRANCH  20  21
ENDBRANCH  19  20
ENDBRANCH  18  19
ENDBRANCH  17  18
ENDBRANCH   1  17
TORSDOF 26
ENDMDL
MODEL 6
REMARK VINA RESULT:    -3.917      3.308      8.179
REMARK INTER + INTRA:         -15.349
REMARK INTER:                 -11.625
REMARK INTRA:                  -3.724
REMARK UNBOUND:                -5.478
REMARK SMILES CCCCCCCCCCCCCCCCCCCCCCCCCCCC(=O)[O-]
REMARK SMILES IDX 15 1 16 2 17 3 18 4 19 5 20 6 21 7 22 8 23 9 24 10 25 11
REMARK SMILES IDX 26 12 27 13 28 14 29 15 30 16 14 17 13 18 12 19 11 20 10 21
REMARK SMILES IDX 9 22 8 23 7 24 6 25 5 26 4 27 3 28 2 29 1 30
REMARK H PARENT
REMARK Flexibility Score: inf
ROOT
ATOM      1  C   UNL     1     -15.329 -30.792  16.642  1.00  0.00     0.000 C 
ENDROOT
BRANCH   1   2
ATOM      2  C   UNL     1     -13.800 -30.600  16.582  1.00  0.00     0.000 C 
BRANCH   2   3
ATOM      3  C   UNL     1     -13.174 -30.154  17.921  1.00  0.00     0.000 C 
BRANCH   3   4
ATOM      4  C   UNL     1     -12.028 -31.070  18.386  1.00  0.00     0.000 C 
BRANCH   4   5
ATOM      5  C   UNL     1     -10.963 -30.304  19.189  1.00  0.00     0.000 C 
BRANCH   5   6
ATOM      6  C   UNL     1     -11.357 -28.839  19.451  1.00  0.00     0.000 C 
BRANCH   6   7
ATOM      7  C   UNL     1     -10.349 -27.792  18.939  1.00  0.00     0.000 C 
BRANCH   7   8
ATOM      8  C   UNL     1     -10.751 -27.193  17.580  1.00  0.00     0.000 C 
BRANCH   8   9
ATOM      9  C   UNL     1     -10.850 -25.659  17.615  1.00  0.00     0.000 C 
BRANCH   9  10
ATOM     10  C   UNL     1     -10.553 -25.013  16.253  1.00  0.00     0.000 C 
BRANCH  10  11
ATOM     11  C   UNL     1      -9.621 -23.801  16.414  1.00  0.00     0.000 C 
BRANCH  11  12
ATOM     12  C   UNL     1      -9.264 -23.512  17.883  1.00  0.00     0.006 C 
BRANCH  12  13
ATOM     13  C   UNL     1      -9.239 -22.018  18.247  1.00  0.00     0.053 C 
BRANCH  13  14
ATOM     14  C   UNL     1     -10.608 -21.491  18.554  1.00  0.00     0.041 C 
ATOM     15  O   UNL     1     -11.034 -21.482  19.738  1.00  0.00    -0.550 OA
ATOM     16  O   UNL     1     -11.401 -20.982  17.534  1.00  0.00    -0.550 OA
ENDBRANCH  13  14
ENDBRANCH  12  13
ENDBRANCH  11  12
ENDBRANCH  10  11
ENDBRANCH   9  10
ENDBRANCH   8   9
ENDBRANCH   7   8
ENDBRANCH   6   7
ENDBRANCH   5   6
ENDBRANCH   4   5
ENDBRANCH   3   4
ENDBRANCH   2   3
ENDBRANCH   1   2
BRANCH   1  17
ATOM     17  C   UNL     1     -15.798 -31.788  17.726  1.00  0.00     0.000 C 
BRANCH  17  18
ATOM     18  C   UNL     1     -15.277 -33.231  17.567  1.00  0.00     0.000 C 
BRANCH  18  19
ATOM     19  C   UNL     1     -14.632 -33.845  18.824  1.00  0.00     0.000 C 
BRANCH  19  20
ATOM     20  C   UNL     1     -14.663 -32.903  20.043  1.00  0.00     0.000 C 
BRANCH  20  21
ATOM     21  C   UNL     1     -15.585 -33.420  21.163  1.00  0.00     0.000 C 
BRANCH  21  22
ATOM     22  C   UNL     1     -16.980 -32.767  21.178  1.00  0.00    -0.000 C 
BRANCH  22  23
ATOM     23  C   UNL     1     -18.036 -33.618  20.452  1.00  0.00    -0.000 C 
BRANCH  23  24
ATOM     24  C   UNL     1     -19.278 -32.792  20.051  1.00  0.00    -0.000 C 
BRANCH  24  25
ATOM     25  C   UNL     1     -19.132 -31.283  20.311  1.00  0.00    -0.000 C 
BRANCH  25  26
ATOM     26  C   UNL     1     -19.562 -30.426  19.113  1.00  0.00    -0.000 C 
BRANCH  26  27
ATOM     27  C   UNL     1     -18.451 -29.446  18.710  1.00  0.00    -0.000 C 
BRANCH  27  28
ATOM     28  C   UNL     1     -17.353 -29.316  19.779  1.00  0.00    -0.000 C 
BRANCH  28  29
ATOM     29  C   UNL     1     -16.443 -28.084  19.586  1.00  0.00    -0.003 C 
ATOM     30  C   UNL     1     -16.394 -27.621  18.128  1.00  0.00     0.004 C 
ENDBRANCH  28  29
ENDBRANCH  27  28
ENDBRANCH  26  27
ENDBRANCH  25  26
ENDBRANCH  24  25
ENDBRANCH  23  24
ENDBRANCH  22  23
ENDBRANCH  21  22
ENDBRANCH  20  21
ENDBRANCH  19  20
ENDBRANCH  18  19
ENDBRANCH  17  18
ENDBRANCH   1  17
TORSDOF 26
ENDMDL
MODEL 7
REMARK VINA RESULT:    -3.910      3.227      8.066
REMARK INTER + INTRA:         -15.330
REMARK INTER:                 -11.773
REMARK INTRA:                  -3.556
REMARK UNBOUND:                -5.478
REMARK SMILES CCCCCCCCCCCCCCCCCCCCCCCCCCCC(=O)[O-]
REMARK SMILES IDX 15 1 16 2 17 3 18 4 19 5 20 6 21 7 22 8 23 9 24 10 25 11
REMARK SMILES IDX 26 12 27 13 28 14 29 15 30 16 14 17 13 18 12 19 11 20 10 21
REMARK SMILES IDX 9 22 8 23 7 24 6 25 5 26 4 27 3 28 2 29 1 30
REMARK H PARENT
REMARK Flexibility Score: inf
ROOT
ATOM      1  C   UNL     1     -16.239 -27.351  19.188  1.00  0.00     0.000 C 
ENDROOT
BRANCH   1   2
ATOM      2  C   UNL     1     -15.263 -28.542  19.098  1.00  0.00     0.000 C 
BRANCH   2   3
ATOM      3  C   UNL     1     -14.007 -28.258  18.246  1.00  0.00     0.000 C 
BRANCH   3   4
ATOM      4  C   UNL     1     -13.147 -29.510  18.004  1.00  0.00     0.000 C 
BRANCH   4   5
ATOM      5  C   UNL     1     -12.012 -29.641  19.034  1.00  0.00     0.000 C 
BRANCH   5   6
ATOM      6  C   UNL     1     -10.620 -29.421  18.416  1.00  0.00     0.000 C 
BRANCH   6   7
ATOM      7  C   UNL     1      -9.837 -28.222  18.984  1.00  0.00     0.000 C 
BRANCH   7   8
ATOM      8  C   UNL     1     -10.563 -26.882  18.773  1.00  0.00     0.000 C 
BRANCH   8   9
ATOM      9  C   UNL     1     -10.880 -26.607  17.294  1.00  0.00     0.000 C 
BRANCH   9  10
ATOM     10  C   UNL     1     -10.543 -25.168  16.872  1.00  0.00     0.000 C 
BRANCH  10  11
ATOM     11  C   UNL     1      -9.883 -24.400  18.028  1.00  0.00     0.000 C 
BRANCH  11  12
ATOM     12  C   UNL     1     -10.230 -22.901  18.027  1.00  0.00     0.006 C 
BRANCH  12  13
ATOM     13  C   UNL     1     -11.208 -22.477  16.920  1.00  0.00     0.053 C 
BRANCH  13  14
ATOM     14  C   UNL     1     -12.011 -21.274  17.309  1.00  0.00     0.041 C 
ATOM     15  O   UNL     1     -11.501 -20.375  18.028  1.00  0.00    -0.550 OA
ATOM     16  O   UNL     1     -13.315 -21.130  16.852  1.00  0.00    -0.550 OA
ENDBRANCH  13  14
ENDBRANCH  12  13
ENDBRANCH  11  12
ENDBRANCH  10  11
ENDBRANCH   9  10
ENDBRANCH   8   9
ENDBRANCH   7   8
ENDBRANCH   6   7
ENDBRANCH   5   6
ENDBRANCH   4   5
ENDBRANCH   3   4
ENDBRANCH   2   3
ENDBRANCH   1   2
BRANCH   1  17
ATOM     17  C   UNL     1     -17.730 -27.758  19.216  1.00  0.00     0.000 C 
BRANCH  17  18
ATOM     18  C   UNL     1     -17.999 -29.274  19.306  1.00  0.00     0.000 C 
BRANCH  18  19
ATOM     19  C   UNL     1     -18.753 -29.885  18.109  1.00  0.00     0.000 C 
BRANCH  19  20
ATOM     20  C   UNL     1     -19.444 -31.220  18.445  1.00  0.00     0.000 C 
BRANCH  20  21
ATOM     21  C   UNL     1     -19.494 -31.491  19.961  1.00  0.00     0.000 C 
BRANCH  21  22
ATOM     22  C   UNL     1     -19.243 -32.962  20.344  1.00  0.00    -0.000 C 
BRANCH  22  23
ATOM     23  C   UNL     1     -18.073 -33.121  21.331  1.00  0.00    -0.000 C 
BRANCH  23  24
ATOM     24  C   UNL     1     -16.925 -33.969  20.743  1.00  0.00    -0.000 C 
BRANCH  24  25
ATOM     25  C   UNL     1     -15.588 -33.215  20.630  1.00  0.00    -0.000 C 
BRANCH  25  26
ATOM     26  C   UNL     1     -15.617 -32.103  19.573  1.00  0.00    -0.000 C 
BRANCH  26  27
ATOM     27  C   UNL     1     -16.072 -32.649  18.212  1.00  0.00    -0.000 C 
BRANCH  27  28
ATOM     28  C   UNL     1     -15.528 -31.829  17.029  1.00  0.00    -0.000 C 
BRANCH  28  29
ATOM     29  C   UNL     1     -16.577 -31.561  15.929  1.00  0.00    -0.003 C 
ATOM     30  C   UNL     1     -15.935 -31.287  14.567  1.00  0.00     0.004 C 
ENDBRANCH  28  29
ENDBRANCH  27  28
ENDBRANCH  26  27
ENDBRANCH  25  26
ENDBRANCH  24  25
ENDBRANCH  23  24
ENDBRANCH  22  23
ENDBRANCH  21  22
ENDBRANCH  20  21
ENDBRANCH  19  20
ENDBRANCH  18  19
ENDBRANCH  17  18
ENDBRANCH   1  17
TORSDOF 26
ENDMDL
MODEL 8
REMARK VINA RESULT:    -3.808      3.942      8.841
REMARK INTER + INTRA:         -15.075
REMARK INTER:                 -11.767
REMARK INTRA:                  -3.307
REMARK UNBOUND:                -5.478
REMARK SMILES CCCCCCCCCCCCCCCCCCCCCCCCCCCC(=O)[O-]
REMARK SMILES IDX 15 1 16 2 17 3 18 4 19 5 20 6 21 7 22 8 23 9 24 10 25 11
REMARK SMILES IDX 26 12 27 13 28 14 29 15 30 16 14 17 13 18 12 19 11 20 10 21
REMARK SMILES IDX 9 22 8 23 7 24 6 25 5 26 4 27 3 28 2 29 1 30
REMARK H PARENT
REMARK Flexibility Score: inf
ROOT
ATOM      1  C   UNL     1     -16.770 -27.561  18.245  1.00  0.00     0.000 C 
ENDROOT
BRANCH   1   2
ATOM      2  C   UNL     1     -15.730 -28.544  18.820  1.00  0.00     0.000 C 
BRANCH   2   3
ATOM      3  C   UNL     1     -14.267 -28.152  18.520  1.00  0.00     0.000 C 
BRANCH   3   4
ATOM      4  C   UNL     1     -13.385 -29.355  18.142  1.00  0.00     0.000 C 
BRANCH   4   5
ATOM      5  C   UNL     1     -12.137 -29.462  19.035  1.00  0.00     0.000 C 
BRANCH   5   6
ATOM      6  C   UNL     1     -10.830 -29.515  18.223  1.00  0.00     0.000 C 
BRANCH   6   7
ATOM      7  C   UNL     1      -9.878 -28.324  18.442  1.00  0.00     0.000 C 
BRANCH   7   8
ATOM      8  C   UNL     1     -10.625 -26.998  18.674  1.00  0.00     0.000 C 
BRANCH   8   9
ATOM      9  C   UNL     1     -11.160 -26.385  17.369  1.00  0.00     0.000 C 
BRANCH   9  10
ATOM     10  C   UNL     1     -10.669 -24.946  17.145  1.00  0.00     0.000 C 
BRANCH  10  11
ATOM     11  C   UNL     1      -9.611 -24.561  18.191  1.00  0.00     0.000 C 
BRANCH  11  12
ATOM     12  C   UNL     1      -9.628 -23.061  18.537  1.00  0.00     0.006 C 
BRANCH  12  13
ATOM     13  C   UNL     1      -8.378 -22.291  18.080  1.00  0.00     0.053 C 
BRANCH  13  14
ATOM     14  C   UNL     1      -7.250 -22.420  19.059  1.00  0.00     0.041 C 
ATOM     15  O   UNL     1      -6.355 -23.287  18.885  1.00  0.00    -0.550 OA
ATOM     16  O   UNL     1      -7.172 -21.559  20.146  1.00  0.00    -0.550 OA
ENDBRANCH  13  14
ENDBRANCH  12  13
ENDBRANCH  11  12
ENDBRANCH  10  11
ENDBRANCH   9  10
ENDBRANCH   8   9
ENDBRANCH   7   8
ENDBRANCH   6   7
ENDBRANCH   5   6
ENDBRANCH   4   5
ENDBRANCH   3   4
ENDBRANCH   2   3
ENDBRANCH   1   2
BRANCH   1  17
ATOM     17  C   UNL     1     -18.236 -28.010  18.436  1.00  0.00     0.000 C 
BRANCH  17  18
ATOM     18  C   UNL     1     -18.457 -29.536  18.498  1.00  0.00     0.000 C 
BRANCH  18  19
ATOM     19  C   UNL     1     -19.882 -29.984  18.874  1.00  0.00     0.000 C 
BRANCH  19  20
ATOM     20  C   UNL     1     -19.906 -31.125  19.908  1.00  0.00     0.000 C 
BRANCH  20  21
ATOM     21  C   UNL     1     -18.611 -31.192  20.740  1.00  0.00     0.000 C 
BRANCH  21  22
ATOM     22  C   UNL     1     -18.299 -32.591  21.304  1.00  0.00    -0.000 C 
BRANCH  22  23
ATOM     23  C   UNL     1     -16.787 -32.871  21.378  1.00  0.00    -0.000 C 
BRANCH  23  24
ATOM     24  C   UNL     1     -16.241 -33.480  20.069  1.00  0.00    -0.000 C 
BRANCH  24  25
ATOM     25  C   UNL     1     -15.769 -32.433  19.044  1.00  0.00    -0.000 C 
BRANCH  25  26
ATOM     26  C   UNL     1     -16.561 -32.482  17.731  1.00  0.00    -0.000 C 
BRANCH  26  27
ATOM     27  C   UNL     1     -17.375 -33.780  17.628  1.00  0.00    -0.000 C 
BRANCH  27  28
ATOM     28  C   UNL     1     -18.886 -33.527  17.488  1.00  0.00    -0.000 C 
BRANCH  28  29
ATOM     29  C   UNL     1     -19.261 -32.691  16.246  1.00  0.00    -0.003 C 
ATOM     30  C   UNL     1     -18.847 -33.372  14.940  1.00  0.00     0.004 C 
ENDBRANCH  28  29
ENDBRANCH  27  28
ENDBRANCH  26  27
ENDBRANCH  25  26
ENDBRANCH  24  25
ENDBRANCH  23  24
ENDBRANCH  22  23
ENDBRANCH  21  22
ENDBRANCH  20  21
ENDBRANCH  19  20
ENDBRANCH  18  19
ENDBRANCH  17  18
ENDBRANCH   1  17
TORSDOF 26
ENDMDL
MODEL 9
REMARK VINA RESULT:    -3.736      3.345      7.765
REMARK INTER + INTRA:         -14.891
REMARK INTER:                 -10.709
REMARK INTRA:                  -4.183
REMARK UNBOUND:                -5.478
REMARK SMILES CCCCCCCCCCCCCCCCCCCCCCCCCCCC(=O)[O-]
REMARK SMILES IDX 15 1 16 2 17 3 18 4 19 5 20 6 21 7 22 8 23 9 24 10 25 11
REMARK SMILES IDX 26 12 27 13 28 14 29 15 30 16 14 17 13 18 12 19 11 20 10 21
REMARK SMILES IDX 9 22 8 23 7 24 6 25 5 26 4 27 3 28 2 29 1 30
REMARK H PARENT
REMARK Flexibility Score: inf
ROOT
ATOM      1  C   UNL     1     -15.862 -31.207  16.489  1.00  0.00     0.000 C 
ENDROOT
BRANCH   1   2
ATOM      2  C   UNL     1     -14.697 -31.738  17.348  1.00  0.00     0.000 C 
BRANCH   2   3
ATOM      3  C   UNL     1     -14.979 -31.712  18.866  1.00  0.00     0.000 C 
BRANCH   3   4
ATOM      4  C   UNL     1     -14.261 -32.838  19.632  1.00  0.00     0.000 C 
BRANCH   4   5
ATOM      5  C   UNL     1     -12.789 -32.497  19.917  1.00  0.00     0.000 C 
BRANCH   5   6
ATOM      6  C   UNL     1     -11.814 -33.526  19.317  1.00  0.00     0.000 C 
BRANCH   6   7
ATOM      7  C   UNL     1     -11.084 -33.065  18.042  1.00  0.00     0.000 C 
BRANCH   7   8
ATOM      8  C   UNL     1     -11.140 -31.540  17.841  1.00  0.00     0.000 C 
BRANCH   8   9
ATOM      9  C   UNL     1      -9.880 -30.828  18.361  1.00  0.00     0.000 C 
BRANCH   9  10
ATOM     10  C   UNL     1     -10.174 -29.418  18.897  1.00  0.00     0.000 C 
BRANCH  10  11
ATOM     11  C   UNL     1      -9.861 -29.329  20.399  1.00  0.00     0.000 C 
BRANCH  11  12
ATOM     12  C   UNL     1      -9.885 -30.700  21.098  1.00  0.00     0.006 C 
BRANCH  12  13
ATOM     13  C   UNL     1      -8.575 -31.071  21.812  1.00  0.00     0.053 C 
BRANCH  13  14
ATOM     14  C   UNL     1      -8.786 -32.110  22.870  1.00  0.00     0.041 C 
ATOM     15  O   UNL     1      -9.726 -32.940  22.766  1.00  0.00    -0.550 OA
ATOM     16  O   UNL     1      -7.923 -32.181  23.956  1.00  0.00    -0.550 OA
ENDBRANCH  13  14
ENDBRANCH  12  13
ENDBRANCH  11  12
ENDBRANCH  10  11
ENDBRANCH   9  10
ENDBRANCH   8   9
ENDBRANCH   7   8
ENDBRANCH   6   7
ENDBRANCH   5   6
ENDBRANCH   4   5
ENDBRANCH   3   4
ENDBRANCH   2   3
ENDBRANCH   1   2
BRANCH   1  17
ATOM     17  C   UNL     1     -16.310 -32.172  15.368  1.00  0.00     0.000 C 
BRANCH  17  18
ATOM     18  C   UNL     1     -17.797 -32.583  15.405  1.00  0.00     0.000 C 
BRANCH  18  19
ATOM     19  C   UNL     1     -18.409 -32.728  16.811  1.00  0.00     0.000 C 
BRANCH  19  20
ATOM     20  C   UNL     1     -17.889 -33.961  17.575  1.00  0.00     0.000 C 
BRANCH  20  21
ATOM     21  C   UNL     1     -17.881 -33.747  19.100  1.00  0.00     0.000 C 
BRANCH  21  22
ATOM     22  C   UNL     1     -19.242 -33.316  19.680  1.00  0.00    -0.000 C 
BRANCH  22  23
ATOM     23  C   UNL     1     -19.176 -31.946  20.377  1.00  0.00    -0.000 C 
BRANCH  23  24
ATOM     24  C   UNL     1     -20.315 -31.007  19.927  1.00  0.00    -0.000 C 
BRANCH  24  25
ATOM     25  C   UNL     1     -19.890 -29.974  18.869  1.00  0.00    -0.000 C 
BRANCH  25  26
ATOM     26  C   UNL     1     -18.379 -29.708  18.867  1.00  0.00    -0.000 C 
BRANCH  26  27
ATOM     27  C   UNL     1     -18.084 -28.212  18.683  1.00  0.00    -0.000 C 
BRANCH  27  28
ATOM     28  C   UNL     1     -16.681 -27.947  18.109  1.00  0.00    -0.000 C 
BRANCH  28  29
ATOM     29  C   UNL     1     -15.549 -28.100  19.147  1.00  0.00    -0.003 C 
ATOM     30  C   UNL     1     -14.164 -28.127  18.496  1.00  0.00     0.004 C 
ENDBRANCH  28  29
ENDBRANCH  27  28
ENDBRANCH  26  27
ENDBRANCH  25  26
ENDBRANCH  24  25
ENDBRANCH  23  24
ENDBRANCH  22  23
ENDBRANCH  21  22
ENDBRANCH  20  21
ENDBRANCH  19  20
ENDBRANCH  18  19
ENDBRANCH  17  18
ENDBRANCH   1  17
TORSDOF 26
ENDMDL
