MODEL 1
REMARK VINA RESULT:    -3.987      0.000      0.000
REMARK INTER + INTRA:          -5.965
REMARK INTER:                  -5.385
REMARK INTRA:                  -0.580
REMARK UNBOUND:                -0.580
REMARK SMILES [NH3+]CCCC[C@H]([NH3+])C(=O)[O-]
REMARK SMILES IDX 4 1 3 2 2 3 1 4 5 8 6 9 7 10 8 14 9 15 10 16
REMARK H PARENT 1 5 1 6 1 7 7 11 7 12 7 13
REMARK Flexibility Score: inf
ROOT
ATOM      1  C   UNL     1     161.838 153.782 231.415  1.00  0.00     0.012 C 
ENDROOT
BRANCH   1   2
ATOM      2  C   UNL     1     161.114 154.845 232.256  1.00  0.00     0.061 C 
BRANCH   2   3
ATOM      3  C   UNL     1     159.584 154.757 232.135  1.00  0.00     0.258 C 
BRANCH   3   4
ATOM      4  N   UNL     1     159.198 154.027 230.929  1.00  0.00    -0.358 N 
ATOM      5  H   UNL     1     159.453 153.016 231.024  1.00  0.00     0.344 HD
ATOM      6  H   UNL     1     158.168 154.118 230.767  1.00  0.00     0.344 HD
ATOM      7  H   UNL     1     159.706 154.428 230.108  1.00  0.00     0.344 HD
ENDBRANCH   3   4
ENDBRANCH   2   3
ENDBRANCH   1   2
BRANCH   1   8
ATOM      8  C   UNL     1     162.415 152.641 232.273  1.00  0.00     0.072 C 
BRANCH   8   9
ATOM      9  C   UNL     1     161.792 151.270 231.931  1.00  0.00     0.227 C 
BRANCH   9  10
ATOM     10  N   UNL     1     161.583 151.113 230.485  1.00  0.00    -0.350 N 
ATOM     11  H   UNL     1     161.891 151.980 229.985  1.00  0.00     0.345 HD
ATOM     12  H   UNL     1     162.123 150.296 230.117  1.00  0.00     0.345 HD
ATOM     13  H   UNL     1     160.567 150.977 230.281  1.00  0.00     0.345 HD
ENDBRANCH   9  10
BRANCH   9  14
ATOM     14  C   UNL     1     160.482 151.117 232.660  1.00  0.00     0.099 C 
ATOM     15  O   UNL     1     159.395 151.173 232.026  1.00  0.00    -0.544 OA
ATOM     16  O   UNL     1     160.466 150.890 234.031  1.00  0.00    -0.544 OA
ENDBRANCH   9  14
ENDBRANCH   8   9
ENDBRANCH   1   8
TORSDOF 7
ENDMDL
MODEL 2
REMARK VINA RESULT:    -3.987      2.299      2.610
REMARK INTER + INTRA:          -5.965
REMARK INTER:                  -5.821
REMARK INTRA:                  -0.143
REMARK UNBOUND:                -0.580
REMARK SMILES [NH3+]CCCC[C@H]([NH3+])C(=O)[O-]
REMARK SMILES IDX 4 1 3 2 2 3 1 4 5 8 6 9 7 10 8 14 9 15 10 16
REMARK H PARENT 1 5 1 6 1 7 7 11 7 12 7 13
REMARK Flexibility Score: inf
ROOT
ATOM      1  C   UNL     1     161.779 154.708 231.052  1.00  0.00     0.012 C 
ENDROOT
BRANCH   1   2
ATOM      2  C   UNL     1     161.630 156.223 231.265  1.00  0.00     0.061 C 
BRANCH   2   3
ATOM      3  C   UNL     1     162.593 157.042 230.389  1.00  0.00     0.258 C 
BRANCH   3   4
ATOM      4  N   UNL     1     163.525 156.167 229.681  1.00  0.00    -0.358 N 
ATOM      5  H   UNL     1     164.479 156.237 230.106  1.00  0.00     0.344 HD
ATOM      6  H   UNL     1     163.191 155.176 229.723  1.00  0.00     0.344 HD
ATOM      7  H   UNL     1     163.579 156.463 228.680  1.00  0.00     0.344 HD
ENDBRANCH   3   4
ENDBRANCH   2   3
ENDBRANCH   1   2
BRANCH   1   8
ATOM      8  C   UNL     1     161.526 153.902 232.339  1.00  0.00     0.072 C 
BRANCH   8   9
ATOM      9  C   UNL     1     161.929 152.418 232.198  1.00  0.00     0.227 C 
BRANCH   9  10
ATOM     10  N   UNL     1     163.209 152.268 231.491  1.00  0.00    -0.350 N 
ATOM     11  H   UNL     1     163.036 152.131 230.468  1.00  0.00     0.345 HD
ATOM     12  H   UNL     1     163.810 153.113 231.626  1.00  0.00     0.345 HD
ATOM     13  H   UNL     1     163.715 151.424 231.840  1.00  0.00     0.345 HD
ENDBRANCH   9  10
BRANCH   9  14
ATOM     14  C   UNL     1     160.846 151.670 231.465  1.00  0.00     0.099 C 
ATOM     15  O   UNL     1     161.104 151.083 230.381  1.00  0.00    -0.544 OA
ATOM     16  O   UNL     1     159.562 151.604 231.991  1.00  0.00    -0.544 OA
ENDBRANCH   9  14
ENDBRANCH   8   9
ENDBRANCH   1   8
TORSDOF 7
ENDMDL
MODEL 3
REMARK VINA RESULT:    -3.953     11.447     13.149
REMARK INTER + INTRA:          -5.920
REMARK INTER:                  -5.771
REMARK INTRA:                  -0.149
REMARK UNBOUND:                -0.580
REMARK SMILES [NH3+]CCCC[C@H]([NH3+])C(=O)[O-]
REMARK SMILES IDX 4 1 3 2 2 3 1 4 5 8 6 9 7 10 8 14 9 15 10 16
REMARK H PARENT 1 5 1 6 1 7 7 11 7 12 7 13
REMARK Flexibility Score: inf
ROOT
ATOM      1  C   UNL     1     156.195 163.218 231.042  1.00  0.00     0.012 C 
ENDROOT
BRANCH   1   2
ATOM      2  C   UNL     1     156.402 161.707 231.227  1.00  0.00     0.061 C 
BRANCH   2   3
ATOM      3  C   UNL     1     155.389 160.868 230.430  1.00  0.00     0.258 C 
BRANCH   3   4
ATOM      4  N   UNL     1     154.482 161.728 229.672  1.00  0.00    -0.358 N 
ATOM      5  H   UNL     1     154.308 161.322 228.724  1.00  0.00     0.344 HD
ATOM      6  H   UNL     1     153.575 161.834 230.184  1.00  0.00     0.344 HD
ATOM      7  H   UNL     1     154.918 162.672 229.561  1.00  0.00     0.344 HD
ENDBRANCH   3   4
ENDBRANCH   2   3
ENDBRANCH   1   2
BRANCH   1   8
ATOM      8  C   UNL     1     156.401 164.008 232.347  1.00  0.00     0.072 C 
BRANCH   8   9
ATOM      9  C   UNL     1     156.065 165.507 232.193  1.00  0.00     0.227 C 
BRANCH   9  10
ATOM     10  N   UNL     1     154.770 165.707 231.527  1.00  0.00    -0.350 N 
ATOM     11  H   UNL     1     154.903 165.728 230.489  1.00  0.00     0.345 HD
ATOM     12  H   UNL     1     154.104 164.938 231.770  1.00  0.00     0.345 HD
ATOM     13  H   UNL     1     154.358 166.624 231.809  1.00  0.00     0.345 HD
ENDBRANCH   9  10
BRANCH   9  14
ATOM     14  C   UNL     1     157.156 166.189 231.410  1.00  0.00     0.099 C 
ATOM     15  O   UNL     1     156.870 166.890 230.404  1.00  0.00    -0.544 OA
ATOM     16  O   UNL     1     158.482 166.068 231.807  1.00  0.00    -0.544 OA
ENDBRANCH   9  14
ENDBRANCH   8   9
ENDBRANCH   1   8
TORSDOF 7
ENDMDL
MODEL 4
REMARK VINA RESULT:    -3.951     12.148     13.922
REMARK INTER + INTRA:          -5.916
REMARK INTER:                  -5.363
REMARK INTRA:                  -0.553
REMARK UNBOUND:                -0.580
REMARK SMILES [NH3+]CCCC[C@H]([NH3+])C(=O)[O-]
REMARK SMILES IDX 4 1 3 2 2 3 1 4 5 8 6 9 7 10 8 14 9 15 10 16
REMARK H PARENT 1 5 1 6 1 7 7 11 7 12 7 13
REMARK Flexibility Score: inf
ROOT
ATOM      1  C   UNL     1     156.252 164.239 231.544  1.00  0.00     0.012 C 
ENDROOT
BRANCH   1   2
ATOM      2  C   UNL     1     157.049 163.352 232.512  1.00  0.00     0.061 C 
BRANCH   2   3
ATOM      3  C   UNL     1     158.522 163.195 232.097  1.00  0.00     0.258 C 
BRANCH   3   4
ATOM      4  N   UNL     1     158.829 164.036 230.941  1.00  0.00    -0.358 N 
ATOM      5  H   UNL     1     158.199 164.870 230.925  1.00  0.00     0.344 HD
ATOM      6  H   UNL     1     159.828 164.347 230.978  1.00  0.00     0.344 HD
ATOM      7  H   UNL     1     158.680 163.482 230.066  1.00  0.00     0.344 HD
ENDBRANCH   3   4
ENDBRANCH   2   3
ENDBRANCH   1   2
BRANCH   1   8
ATOM      8  C   UNL     1     155.568 165.423 232.251  1.00  0.00     0.072 C 
BRANCH   8   9
ATOM      9  C   UNL     1     156.217 166.780 231.898  1.00  0.00     0.227 C 
BRANCH   9  10
ATOM     10  N   UNL     1     156.443 166.913 230.452  1.00  0.00    -0.350 N 
ATOM     11  H   UNL     1     156.182 167.876 230.138  1.00  0.00     0.345 HD
ATOM     12  H   UNL     1     157.447 166.737 230.215  1.00  0.00     0.345 HD
ATOM     13  H   UNL     1     155.840 166.238 229.930  1.00  0.00     0.345 HD
ENDBRANCH   9  10
BRANCH   9  14
ATOM     14  C   UNL     1     157.521 166.922 232.639  1.00  0.00     0.099 C 
ATOM     15  O   UNL     1     158.612 166.886 232.011  1.00  0.00    -0.544 OA
ATOM     16  O   UNL     1     157.527 167.115 234.014  1.00  0.00    -0.544 OA
ENDBRANCH   9  14
ENDBRANCH   8   9
ENDBRANCH   1   8
TORSDOF 7
ENDMDL
MODEL 5
REMARK VINA RESULT:    -3.945     11.192     12.704
REMARK INTER + INTRA:          -5.908
REMARK INTER:                  -5.367
REMARK INTRA:                  -0.542
REMARK UNBOUND:                -0.580
REMARK SMILES [NH3+]CCCC[C@H]([NH3+])C(=O)[O-]
REMARK SMILES IDX 4 1 3 2 2 3 1 4 5 8 6 9 7 10 8 14 9 15 10 16
REMARK H PARENT 1 5 1 6 1 7 7 11 7 12 7 13
REMARK Flexibility Score: inf
ROOT
ATOM      1  C   UNL     1     158.727 165.519 232.843  1.00  0.00     0.012 C 
ENDROOT
BRANCH   1   2
ATOM      2  C   UNL     1     158.198 166.859 232.308  1.00  0.00     0.061 C 
BRANCH   2   3
ATOM      3  C   UNL     1     157.860 166.808 230.809  1.00  0.00     0.258 C 
BRANCH   3   4
ATOM      4  N   UNL     1     156.420 166.936 230.594  1.00  0.00    -0.358 N 
ATOM      5  H   UNL     1     156.190 166.773 229.587  1.00  0.00     0.344 HD
ATOM      6  H   UNL     1     155.905 166.248 231.191  1.00  0.00     0.344 HD
ATOM      7  H   UNL     1     156.120 167.902 230.858  1.00  0.00     0.344 HD
ENDBRANCH   3   4
ENDBRANCH   2   3
ENDBRANCH   1   2
BRANCH   1   8
ATOM      8  C   UNL     1     157.604 164.498 233.098  1.00  0.00     0.072 C 
BRANCH   8   9
ATOM      9  C   UNL     1     157.670 163.290 232.137  1.00  0.00     0.227 C 
BRANCH   9  10
ATOM     10  N   UNL     1     158.800 163.402 231.203  1.00  0.00    -0.350 N 
ATOM     11  H   UNL     1     158.888 164.389 230.868  1.00  0.00     0.345 HD
ATOM     12  H   UNL     1     159.694 163.116 231.664  1.00  0.00     0.345 HD
ATOM     13  H   UNL     1     158.634 162.800 230.365  1.00  0.00     0.345 HD
ENDBRANCH   9  10
BRANCH   9  14
ATOM     14  C   UNL     1     156.377 163.185 231.372  1.00  0.00     0.099 C 
ATOM     15  O   UNL     1     155.625 164.188 231.258  1.00  0.00    -0.544 OA
ATOM     16  O   UNL     1     156.018 161.986 230.767  1.00  0.00    -0.544 OA
ENDBRANCH   9  14
ENDBRANCH   8   9
ENDBRANCH   1   8
TORSDOF 7
ENDMDL
MODEL 6
REMARK VINA RESULT:    -3.893     12.786     13.830
REMARK INTER + INTRA:          -5.839
REMARK INTER:                  -5.373
REMARK INTRA:                  -0.466
REMARK UNBOUND:                -0.580
REMARK SMILES [NH3+]CCCC[C@H]([NH3+])C(=O)[O-]
REMARK SMILES IDX 4 1 3 2 2 3 1 4 5 8 6 9 7 10 8 14 9 15 10 16
REMARK H PARENT 1 5 1 6 1 7 7 11 7 12 7 13
REMARK Flexibility Score: inf
ROOT
ATOM      1  C   UNL     1     158.212 164.941 233.776  1.00  0.00     0.012 C 
ENDROOT
BRANCH   1   2
ATOM      2  C   UNL     1     157.591 166.137 234.514  1.00  0.00     0.061 C 
BRANCH   2   3
ATOM      3  C   UNL     1     158.023 167.489 233.921  1.00  0.00     0.258 C 
BRANCH   3   4
ATOM      4  N   UNL     1     159.167 167.323 233.027  1.00  0.00    -0.358 N 
ATOM      5  H   UNL     1     159.652 166.418 233.226  1.00  0.00     0.344 HD
ATOM      6  H   UNL     1     158.850 167.342 232.029  1.00  0.00     0.344 HD
ATOM      7  H   UNL     1     159.839 168.109 233.182  1.00  0.00     0.344 HD
ENDBRANCH   3   4
ENDBRANCH   2   3
ENDBRANCH   1   2
BRANCH   1   8
ATOM      8  C   UNL     1     157.159 164.079 233.056  1.00  0.00     0.072 C 
BRANCH   8   9
ATOM      9  C   UNL     1     157.100 164.360 231.538  1.00  0.00     0.227 C 
BRANCH   9  10
ATOM     10  N   UNL     1     158.442 164.393 230.939  1.00  0.00    -0.350 N 
ATOM     11  H   UNL     1     158.703 163.438 230.600  1.00  0.00     0.345 HD
ATOM     12  H   UNL     1     158.475 165.062 230.137  1.00  0.00     0.345 HD
ATOM     13  H   UNL     1     159.148 164.675 231.655  1.00  0.00     0.345 HD
ENDBRANCH   9  10
BRANCH   9  14
ATOM     14  C   UNL     1     156.397 165.670 231.297  1.00  0.00     0.099 C 
ATOM     15  O   UNL     1     155.231 165.854 231.738  1.00  0.00    -0.544 OA
ATOM     16  O   UNL     1     157.037 166.691 230.606  1.00  0.00    -0.544 OA
ENDBRANCH   9  14
ENDBRANCH   8   9
ENDBRANCH   1   8
TORSDOF 7
ENDMDL
MODEL 7
REMARK VINA RESULT:    -3.885      2.174      3.366
REMARK INTER + INTRA:          -5.828
REMARK INTER:                  -5.351
REMARK INTRA:                  -0.477
REMARK UNBOUND:                -0.580
REMARK SMILES [NH3+]CCCC[C@H]([NH3+])C(=O)[O-]
REMARK SMILES IDX 4 1 3 2 2 3 1 4 5 8 6 9 7 10 8 14 9 15 10 16
REMARK H PARENT 1 5 1 6 1 7 7 11 7 12 7 13
REMARK Flexibility Score: inf
ROOT
ATOM      1  C   UNL     1     159.805 153.078 233.800  1.00  0.00     0.012 C 
ENDROOT
BRANCH   1   2
ATOM      2  C   UNL     1     160.422 151.881 234.540  1.00  0.00     0.061 C 
BRANCH   2   3
ATOM      3  C   UNL     1     159.987 150.530 233.949  1.00  0.00     0.258 C 
BRANCH   3   4
ATOM      4  N   UNL     1     158.854 150.700 233.041  1.00  0.00    -0.358 N 
ATOM      5  H   UNL     1     158.772 151.702 232.751  1.00  0.00     0.344 HD
ATOM      6  H   UNL     1     158.977 150.095 232.195  1.00  0.00     0.344 HD
ATOM      7  H   UNL     1     157.975 150.417 233.533  1.00  0.00     0.344 HD
ENDBRANCH   3   4
ENDBRANCH   2   3
ENDBRANCH   1   2
BRANCH   1   8
ATOM      8  C   UNL     1     160.863 153.949 233.098  1.00  0.00     0.072 C 
BRANCH   8   9
ATOM      9  C   UNL     1     160.935 153.683 231.579  1.00  0.00     0.227 C 
BRANCH   9  10
ATOM     10  N   UNL     1     159.599 153.660 230.967  1.00  0.00    -0.350 N 
ATOM     11  H   UNL     1     159.014 154.433 231.361  1.00  0.00     0.345 HD
ATOM     12  H   UNL     1     159.663 153.774 229.929  1.00  0.00     0.345 HD
ATOM     13  H   UNL     1     159.118 152.759 231.188  1.00  0.00     0.345 HD
ENDBRANCH   9  10
BRANCH   9  14
ATOM     14  C   UNL     1     161.638 152.374 231.330  1.00  0.00     0.099 C 
ATOM     15  O   UNL     1     162.808 152.192 231.759  1.00  0.00    -0.544 OA
ATOM     16  O   UNL     1     160.991 151.351 230.647  1.00  0.00    -0.544 OA
ENDBRANCH   9  14
ENDBRANCH   8   9
ENDBRANCH   1   8
TORSDOF 7
ENDMDL
MODEL 8
REMARK VINA RESULT:    -3.875      2.365      3.177
REMARK INTER + INTRA:          -5.814
REMARK INTER:                  -5.363
REMARK INTRA:                  -0.451
REMARK UNBOUND:                -0.580
REMARK SMILES [NH3+]CCCC[C@H]([NH3+])C(=O)[O-]
REMARK SMILES IDX 4 1 3 2 2 3 1 4 5 8 6 9 7 10 8 14 9 15 10 16
REMARK H PARENT 1 5 1 6 1 7 7 11 7 12 7 13
REMARK Flexibility Score: inf
ROOT
ATOM      1  C   UNL     1     160.596 150.597 233.192  1.00  0.00     0.012 C 
ENDROOT
BRANCH   1   2
ATOM      2  C   UNL     1     160.608 151.416 234.493  1.00  0.00     0.061 C 
BRANCH   2   3
ATOM      3  C   UNL     1     159.500 152.481 234.533  1.00  0.00     0.258 C 
BRANCH   3   4
ATOM      4  N   UNL     1     160.070 153.822 234.656  1.00  0.00    -0.358 N 
ATOM      5  H   UNL     1     159.360 154.480 235.054  1.00  0.00     0.344 HD
ATOM      6  H   UNL     1     160.915 153.798 235.273  1.00  0.00     0.344 HD
ATOM      7  H   UNL     1     160.352 154.162 233.709  1.00  0.00     0.344 HD
ENDBRANCH   3   4
ENDBRANCH   2   3
ENDBRANCH   1   2
BRANCH   1   8
ATOM      8  C   UNL     1     159.699 151.221 232.108  1.00  0.00     0.072 C 
BRANCH   8   9
ATOM      9  C   UNL     1     160.511 151.835 230.948  1.00  0.00     0.227 C 
BRANCH   9  10
ATOM     10  N   UNL     1     161.582 150.934 230.498  1.00  0.00    -0.350 N 
ATOM     11  H   UNL     1     161.600 150.076 231.096  1.00  0.00     0.345 HD
ATOM     12  H   UNL     1     161.437 150.653 229.501  1.00  0.00     0.345 HD
ATOM     13  H   UNL     1     162.511 151.403 230.594  1.00  0.00     0.345 HD
ENDBRANCH   9  10
BRANCH   9  14
ATOM     14  C   UNL     1     161.098 153.152 231.386  1.00  0.00     0.099 C 
ATOM     15  O   UNL     1     160.370 154.178 231.452  1.00  0.00    -0.544 OA
ATOM     16  O   UNL     1     162.438 153.238 231.741  1.00  0.00    -0.544 OA
ENDBRANCH   9  14
ENDBRANCH   8   9
ENDBRANCH   1   8
TORSDOF 7
ENDMDL
MODEL 9
REMARK VINA RESULT:    -3.807     12.196     13.432
REMARK INTER + INTRA:          -5.722
REMARK INTER:                  -5.245
REMARK INTRA:                  -0.477
REMARK UNBOUND:                -0.580
REMARK SMILES [NH3+]CCCC[C@H]([NH3+])C(=O)[O-]
REMARK SMILES IDX 4 1 3 2 2 3 1 4 5 8 6 9 7 10 8 14 9 15 10 16
REMARK H PARENT 1 5 1 6 1 7 7 11 7 12 7 13
REMARK Flexibility Score: inf
ROOT
ATOM      1  C   UNL     1     157.332 163.037 232.192  1.00  0.00     0.012 C 
ENDROOT
BRANCH   1   2
ATOM      2  C   UNL     1     157.522 163.701 233.565  1.00  0.00     0.061 C 
BRANCH   2   3
ATOM      3  C   UNL     1     159.003 163.911 233.923  1.00  0.00     0.258 C 
BRANCH   3   4
ATOM      4  N   UNL     1     159.807 164.102 232.718  1.00  0.00    -0.358 N 
ATOM      5  H   UNL     1     159.874 163.205 232.184  1.00  0.00     0.344 HD
ATOM      6  H   UNL     1     159.380 164.842 232.113  1.00  0.00     0.344 HD
ATOM      7  H   UNL     1     160.769 164.405 232.993  1.00  0.00     0.344 HD
ENDBRANCH   3   4
ENDBRANCH   2   3
ENDBRANCH   1   2
BRANCH   1   8
ATOM      8  C   UNL     1     156.533 163.918 231.215  1.00  0.00     0.072 C 
BRANCH   8   9
ATOM      9  C   UNL     1     156.187 165.300 231.810  1.00  0.00     0.227 C 
BRANCH   9  10
ATOM     10  N   UNL     1     154.791 165.673 231.541  1.00  0.00    -0.350 N 
ATOM     11  H   UNL     1     154.226 164.816 231.339  1.00  0.00     0.345 HD
ATOM     12  H   UNL     1     154.375 166.172 232.360  1.00  0.00     0.345 HD
ATOM     13  H   UNL     1     154.739 166.288 230.698  1.00  0.00     0.345 HD
ENDBRANCH   9  10
BRANCH   9  14
ATOM     14  C   UNL     1     157.116 166.340 231.240  1.00  0.00     0.099 C 
ATOM     15  O   UNL     1     156.821 166.935 230.170  1.00  0.00    -0.544 OA
ATOM     16  O   UNL     1     158.293 166.665 231.903  1.00  0.00    -0.544 OA
ENDBRANCH   9  14
ENDBRANCH   8   9
ENDBRANCH   1   8
TORSDOF 7
ENDMDL
