MODEL 1
REMARK VINA RESULT:    -3.176      0.000      0.000
REMARK INTER + INTRA:          -3.757
REMARK INTER:                  -3.733
REMARK INTRA:                  -0.024
REMARK UNBOUND:                -0.024
REMARK SMILES CCCCC(=O)[O-]
REMARK SMILES IDX 4 1 5 2 6 3 7 4 3 5 2 6 1 7
REMARK H PARENT
REMARK Flexibility Score: inf
ROOT
ATOM      1  C   UNL     1      -0.380   5.707   6.463  1.00  0.00     0.053 C 
ENDROOT
BRANCH   1   2
ATOM      2  C   UNL     1      -0.516   5.982   4.997  1.00  0.00     0.041 C 
ATOM      3  O   UNL     1       0.002   5.201   4.156  1.00  0.00    -0.550 OA
ATOM      4  O   UNL     1      -1.186   7.118   4.561  1.00  0.00    -0.550 OA
ENDBRANCH   1   2
BRANCH   1   5
ATOM      5  C   UNL     1       0.579   4.540   6.737  1.00  0.00     0.006 C 
BRANCH   5   6
ATOM      6  C   UNL     1       0.310   3.875   8.095  1.00  0.00    -0.003 C 
ATOM      7  C   UNL     1       1.018   2.527   8.196  1.00  0.00     0.004 C 
ENDBRANCH   5   6
ENDBRANCH   1   5
TORSDOF 3
ENDMDL
MODEL 2
REMARK VINA RESULT:    -3.132      0.317      1.265
REMARK INTER + INTRA:          -3.705
REMARK INTER:                  -3.684
REMARK INTRA:                  -0.021
REMARK UNBOUND:                -0.024
REMARK SMILES CCCCC(=O)[O-]
REMARK SMILES IDX 4 1 5 2 6 3 7 4 3 5 2 6 1 7
REMARK H PARENT
REMARK Flexibility Score: inf
ROOT
ATOM      1  C   UNL     1      -0.456   5.966   6.506  1.00  0.00     0.053 C 
ENDROOT
BRANCH   1   2
ATOM      2  C   UNL     1      -0.593   6.139   5.025  1.00  0.00     0.041 C 
ATOM      3  O   UNL     1      -1.258   7.101   4.559  1.00  0.00    -0.550 OA
ATOM      4  O   UNL     1      -0.015   5.218   4.160  1.00  0.00    -0.550 OA
ENDBRANCH   1   2
BRANCH   1   5
ATOM      5  C   UNL     1       0.377   4.728   6.861  1.00  0.00     0.006 C 
BRANCH   5   6
ATOM      6  C   UNL     1       0.089   4.221   8.281  1.00  0.00    -0.003 C 
ATOM      7  C   UNL     1       0.722   2.853   8.517  1.00  0.00     0.004 C 
ENDBRANCH   5   6
ENDBRANCH   1   5
TORSDOF 3
ENDMDL
MODEL 3
REMARK VINA RESULT:    -2.858      7.798      8.399
REMARK INTER + INTRA:          -3.383
REMARK INTER:                  -3.354
REMARK INTRA:                  -0.029
REMARK UNBOUND:                -0.024
REMARK SMILES CCCCC(=O)[O-]
REMARK SMILES IDX 4 1 5 2 6 3 7 4 3 5 2 6 1 7
REMARK H PARENT
REMARK Flexibility Score: inf
ROOT
ATOM      1  C   UNL     1      -4.759  -1.865   4.314  1.00  0.00     0.053 C 
ENDROOT
BRANCH   1   2
ATOM      2  C   UNL     1      -3.443  -2.132   3.650  1.00  0.00     0.041 C 
ATOM      3  O   UNL     1      -2.487  -1.325   3.792  1.00  0.00    -0.550 OA
ATOM      4  O   UNL     1      -3.284  -3.254   2.846  1.00  0.00    -0.550 OA
ENDBRANCH   1   2
BRANCH   1   5
ATOM      5  C   UNL     1      -4.693  -0.643   5.239  1.00  0.00     0.006 C 
BRANCH   5   6
ATOM      6  C   UNL     1      -5.436  -0.875   6.562  1.00  0.00    -0.003 C 
ATOM      7  C   UNL     1      -6.178   0.383   7.004  1.00  0.00     0.004 C 
ENDBRANCH   5   6
ENDBRANCH   1   5
TORSDOF 3
ENDMDL
MODEL 4
REMARK VINA RESULT:    -2.813     12.353     12.824
REMARK INTER + INTRA:          -3.330
REMARK INTER:                  -3.308
REMARK INTRA:                  -0.023
REMARK UNBOUND:                -0.024
REMARK SMILES CCCCC(=O)[O-]
REMARK SMILES IDX 4 1 5 2 6 3 7 4 3 5 2 6 1 7
REMARK H PARENT
REMARK Flexibility Score: inf
ROOT
ATOM      1  C   UNL     1      -0.743  -3.532  -3.931  1.00  0.00     0.053 C 
ENDROOT
BRANCH   1   2
ATOM      2  C   UNL     1      -1.284  -2.250  -4.485  1.00  0.00     0.041 C 
ATOM      3  O   UNL     1      -0.837  -1.145  -4.078  1.00  0.00    -0.550 OA
ATOM      4  O   UNL     1      -2.306  -2.275  -5.426  1.00  0.00    -0.550 OA
ENDBRANCH   1   2
BRANCH   1   5
ATOM      5  C   UNL     1      -0.882  -3.597  -2.405  1.00  0.00     0.006 C 
BRANCH   5   6
ATOM      6  C   UNL     1      -0.464  -4.962  -1.841  1.00  0.00    -0.003 C 
ATOM      7  C   UNL     1       0.941  -5.340  -2.300  1.00  0.00     0.004 C 
ENDBRANCH   5   6
ENDBRANCH   1   5
TORSDOF 3
ENDMDL
MODEL 5
REMARK VINA RESULT:    -2.764      8.538      8.895
REMARK INTER + INTRA:          -3.273
REMARK INTER:                  -3.196
REMARK INTRA:                  -0.077
REMARK UNBOUND:                -0.024
REMARK SMILES CCCCC(=O)[O-]
REMARK SMILES IDX 4 1 5 2 6 3 7 4 3 5 2 6 1 7
REMARK H PARENT
REMARK Flexibility Score: inf
ROOT
ATOM      1  C   UNL     1      -2.820  -1.716   3.753  1.00  0.00     0.053 C 
ENDROOT
BRANCH   1   2
ATOM      2  C   UNL     1      -2.947  -3.192   3.533  1.00  0.00     0.041 C 
ATOM      3  O   UNL     1      -3.679  -3.633   2.608  1.00  0.00    -0.550 OA
ATOM      4  O   UNL     1      -2.284  -4.080   4.370  1.00  0.00    -0.550 OA
ENDBRANCH   1   2
BRANCH   1   5
ATOM      5  C   UNL     1      -4.152  -1.086   4.181  1.00  0.00     0.006 C 
BRANCH   5   6
ATOM      6  C   UNL     1      -4.542  -1.470   5.616  1.00  0.00    -0.003 C 
ATOM      7  C   UNL     1      -5.422  -0.399   6.252  1.00  0.00     0.004 C 
ENDBRANCH   5   6
ENDBRANCH   1   5
TORSDOF 3
ENDMDL
MODEL 6
REMARK VINA RESULT:    -2.756      6.868      7.572
REMARK INTER + INTRA:          -3.263
REMARK INTER:                  -3.222
REMARK INTRA:                  -0.040
REMARK UNBOUND:                -0.024
REMARK SMILES CCCCC(=O)[O-]
REMARK SMILES IDX 4 1 5 2 6 3 7 4 3 5 2 6 1 7
REMARK H PARENT
REMARK Flexibility Score: inf
ROOT
ATOM      1  C   UNL     1      -1.477  -2.726   4.496  1.00  0.00     0.053 C 
ENDROOT
BRANCH   1   2
ATOM      2  C   UNL     1      -2.766  -1.966   4.564  1.00  0.00     0.041 C 
ATOM      3  O   UNL     1      -3.144  -1.271   3.585  1.00  0.00    -0.550 OA
ATOM      4  O   UNL     1      -3.533  -2.000   5.722  1.00  0.00    -0.550 OA
ENDBRANCH   1   2
BRANCH   1   5
ATOM      5  C   UNL     1      -0.549  -2.382   5.668  1.00  0.00     0.006 C 
BRANCH   5   6
ATOM      6  C   UNL     1       0.521  -1.352   5.279  1.00  0.00    -0.003 C 
ATOM      7  C   UNL     1       1.920  -1.955   5.360  1.00  0.00     0.004 C 
ENDBRANCH   5   6
ENDBRANCH   1   5
TORSDOF 3
ENDMDL
MODEL 7
REMARK VINA RESULT:    -2.733      7.429      8.025
REMARK INTER + INTRA:          -3.236
REMARK INTER:                  -3.208
REMARK INTRA:                  -0.028
REMARK UNBOUND:                -0.024
REMARK SMILES CCCCC(=O)[O-]
REMARK SMILES IDX 4 1 5 2 6 3 7 4 3 5 2 6 1 7
REMARK H PARENT
REMARK Flexibility Score: inf
ROOT
ATOM      1  C   UNL     1       2.187  -2.399   5.921  1.00  0.00     0.053 C 
ENDROOT
BRANCH   1   2
ATOM      2  C   UNL     1       3.545  -2.112   5.358  1.00  0.00     0.041 C 
ATOM      3  O   UNL     1       3.785  -2.330   4.141  1.00  0.00    -0.550 OA
ATOM      4  O   UNL     1       4.555  -1.635   6.185  1.00  0.00    -0.550 OA
ENDBRANCH   1   2
BRANCH   1   5
ATOM      5  C   UNL     1       1.160  -1.341   5.499  1.00  0.00     0.006 C 
BRANCH   5   6
ATOM      6  C   UNL     1      -0.191  -1.962   5.115  1.00  0.00    -0.003 C 
ATOM      7  C   UNL     1      -0.878  -2.578   6.330  1.00  0.00     0.004 C 
ENDBRANCH   5   6
ENDBRANCH   1   5
TORSDOF 3
ENDMDL
MODEL 8
REMARK VINA RESULT:    -2.721      6.678      7.608
REMARK INTER + INTRA:          -3.222
REMARK INTER:                  -3.118
REMARK INTRA:                  -0.104
REMARK UNBOUND:                -0.024
REMARK SMILES CCCCC(=O)[O-]
REMARK SMILES IDX 4 1 5 2 6 3 7 4 3 5 2 6 1 7
REMARK H PARENT
REMARK Flexibility Score: inf
ROOT
ATOM      1  C   UNL     1       2.132  -2.518   5.873  1.00  0.00     0.053 C 
ENDROOT
BRANCH   1   2
ATOM      2  C   UNL     1       1.046  -1.567   5.475  1.00  0.00     0.041 C 
ATOM      3  O   UNL     1       1.222  -0.325   5.582  1.00  0.00    -0.550 OA
ATOM      4  O   UNL     1      -0.173  -2.053   5.019  1.00  0.00    -0.550 OA
ENDBRANCH   1   2
BRANCH   1   5
ATOM      5  C   UNL     1       3.259  -2.564   4.832  1.00  0.00     0.006 C 
BRANCH   5   6
ATOM      6  C   UNL     1       4.492  -1.765   5.277  1.00  0.00    -0.003 C 
ATOM      7  C   UNL     1       4.623  -1.755   6.797  1.00  0.00     0.004 C 
ENDBRANCH   5   6
ENDBRANCH   1   5
TORSDOF 3
ENDMDL
MODEL 9
REMARK VINA RESULT:    -2.704      7.577      8.352
REMARK INTER + INTRA:          -3.202
REMARK INTER:                  -3.154
REMARK INTRA:                  -0.048
REMARK UNBOUND:                -0.024
REMARK SMILES CCCCC(=O)[O-]
REMARK SMILES IDX 4 1 5 2 6 3 7 4 3 5 2 6 1 7
REMARK H PARENT
REMARK Flexibility Score: inf
ROOT
ATOM      1  C   UNL     1      -2.509  -2.474   5.324  1.00  0.00     0.053 C 
ENDROOT
BRANCH   1   2
ATOM      2  C   UNL     1      -1.041  -2.599   5.592  1.00  0.00     0.041 C 
ATOM      3  O   UNL     1      -0.229  -1.802   5.052  1.00  0.00    -0.550 OA
ATOM      4  O   UNL     1      -0.567  -3.615   6.412  1.00  0.00    -0.550 OA
ENDBRANCH   1   2
BRANCH   1   5
ATOM      5  C   UNL     1      -2.788  -1.707   4.025  1.00  0.00     0.006 C 
BRANCH   5   6
ATOM      6  C   UNL     1      -4.186  -1.072   4.014  1.00  0.00    -0.003 C 
ATOM      7  C   UNL     1      -4.757  -0.973   5.425  1.00  0.00     0.004 C 
ENDBRANCH   5   6
ENDBRANCH   1   5
TORSDOF 3
ENDMDL
