MODEL 1
REMARK VINA RESULT:    -3.461      0.000      0.000
REMARK INTER + INTRA:          -4.132
REMARK INTER:                  -4.068
REMARK INTRA:                  -0.064
REMARK UNBOUND:                -0.064
REMARK SMILES O=C([O-])CCC(=O)[O-]
REMARK SMILES IDX 4 1 2 2 1 3 3 4 5 5 6 6 7 7 8 8
REMARK H PARENT
REMARK Flexibility Score: inf
ROOT
ATOM      1  C   UNL     1       2.994  28.436  56.686  1.00  0.00     0.059 C 
ENDROOT
BRANCH   1   2
ATOM      2  C   UNL     1       3.864  27.533  57.501  1.00  0.00     0.042 C 
ATOM      3  O   UNL     1       5.022  27.242  57.102  1.00  0.00    -0.550 OA
ATOM      4  O   UNL     1       3.379  26.973  58.675  1.00  0.00    -0.550 OA
ENDBRANCH   1   2
BRANCH   1   5
ATOM      5  C   UNL     1       1.704  28.761  57.441  1.00  0.00     0.059 C 
BRANCH   5   6
ATOM      6  C   UNL     1       0.524  28.674  56.525  1.00  0.00     0.042 C 
ATOM      7  O   UNL     1      -0.581  29.174  56.864  1.00  0.00    -0.550 OA
ATOM      8  O   UNL     1       0.631  27.997  55.317  1.00  0.00    -0.550 OA
ENDBRANCH   5   6
ENDBRANCH   1   5
TORSDOF 3
ENDMDL
MODEL 2
REMARK VINA RESULT:    -3.461      0.308      3.983
REMARK INTER + INTRA:          -4.132
REMARK INTER:                  -4.062
REMARK INTRA:                  -0.070
REMARK UNBOUND:                -0.064
REMARK SMILES O=C([O-])CCC(=O)[O-]
REMARK SMILES IDX 4 1 2 2 1 3 3 4 5 5 6 6 7 7 8 8
REMARK H PARENT
REMARK Flexibility Score: inf
ROOT
ATOM      1  C   UNL     1       1.727  28.599  57.482  1.00  0.00     0.059 C 
ENDROOT
BRANCH   1   2
ATOM      2  C   UNL     1       0.718  28.558  56.378  1.00  0.00     0.042 C 
ATOM      3  O   UNL     1       0.987  27.972  55.297  1.00  0.00    -0.550 OA
ATOM      4  O   UNL     1      -0.500  29.208  56.525  1.00  0.00    -0.550 OA
ENDBRANCH   1   2
BRANCH   1   5
ATOM      5  C   UNL     1       3.135  28.375  56.928  1.00  0.00     0.059 C 
BRANCH   5   6
ATOM      6  C   UNL     1       3.887  27.405  57.786  1.00  0.00     0.042 C 
ATOM      7  O   UNL     1       3.344  26.910  58.808  1.00  0.00    -0.550 OA
ATOM      8  O   UNL     1       5.205  27.088  57.483  1.00  0.00    -0.550 OA
ENDBRANCH   5   6
ENDBRANCH   1   5
TORSDOF 3
ENDMDL
MODEL 3
REMARK VINA RESULT:    -3.441      0.455      1.663
REMARK INTER + INTRA:          -4.108
REMARK INTER:                  -4.043
REMARK INTRA:                  -0.065
REMARK UNBOUND:                -0.064
REMARK SMILES O=C([O-])CCC(=O)[O-]
REMARK SMILES IDX 4 1 2 2 1 3 3 4 5 5 6 6 7 7 8 8
REMARK H PARENT
REMARK Flexibility Score: inf
ROOT
ATOM      1  C   UNL     1       3.203  28.287  56.935  1.00  0.00     0.059 C 
ENDROOT
BRANCH   1   2
ATOM      2  C   UNL     1       3.913  27.355  57.864  1.00  0.00     0.042 C 
ATOM      3  O   UNL     1       3.304  26.857  58.848  1.00  0.00    -0.550 OA
ATOM      4  O   UNL     1       5.259  27.075  57.675  1.00  0.00    -0.550 OA
ENDBRANCH   1   2
BRANCH   1   5
ATOM      5  C   UNL     1       1.766  28.520  57.404  1.00  0.00     0.059 C 
BRANCH   5   6
ATOM      6  C   UNL     1       0.830  28.538  56.236  1.00  0.00     0.042 C 
ATOM      7  O   UNL     1       1.132  27.938  55.172  1.00  0.00    -0.550 OA
ATOM      8  O   UNL     1      -0.355  29.260  56.307  1.00  0.00    -0.550 OA
ENDBRANCH   5   6
ENDBRANCH   1   5
TORSDOF 3
ENDMDL
MODEL 4
REMARK VINA RESULT:    -3.412      0.622      1.295
REMARK INTER + INTRA:          -4.074
REMARK INTER:                  -4.007
REMARK INTRA:                  -0.067
REMARK UNBOUND:                -0.064
REMARK SMILES O=C([O-])CCC(=O)[O-]
REMARK SMILES IDX 4 1 2 2 1 3 3 4 5 5 6 6 7 7 8 8
REMARK H PARENT
REMARK Flexibility Score: inf
ROOT
ATOM      1  C   UNL     1       3.371  28.454  57.063  1.00  0.00     0.059 C 
ENDROOT
BRANCH   1   2
ATOM      2  C   UNL     1       4.064  27.379  57.837  1.00  0.00     0.042 C 
ATOM      3  O   UNL     1       3.475  26.805  58.791  1.00  0.00    -0.550 OA
ATOM      4  O   UNL     1       5.378  27.043  57.538  1.00  0.00    -0.550 OA
ENDBRANCH   1   2
BRANCH   1   5
ATOM      5  C   UNL     1       1.881  28.485  57.406  1.00  0.00     0.059 C 
BRANCH   5   6
ATOM      6  C   UNL     1       1.056  28.534  56.158  1.00  0.00     0.042 C 
ATOM      7  O   UNL     1      -0.107  29.014  56.185  1.00  0.00    -0.550 OA
ATOM      8  O   UNL     1       1.555  28.004  54.975  1.00  0.00    -0.550 OA
ENDBRANCH   5   6
ENDBRANCH   1   5
TORSDOF 3
ENDMDL
MODEL 5
REMARK VINA RESULT:    -3.238      1.916      4.042
REMARK INTER + INTRA:          -3.870
REMARK INTER:                  -3.745
REMARK INTRA:                  -0.125
REMARK UNBOUND:                -0.064
REMARK SMILES O=C([O-])CCC(=O)[O-]
REMARK SMILES IDX 4 1 2 2 1 3 3 4 5 5 6 6 7 7 8 8
REMARK H PARENT
REMARK Flexibility Score: inf
ROOT
ATOM      1  C   UNL     1       2.881  28.436  55.893  1.00  0.00     0.059 C 
ENDROOT
BRANCH   1   2
ATOM      2  C   UNL     1       2.260  28.456  57.253  1.00  0.00     0.042 C 
ATOM      3  O   UNL     1       2.668  27.668  58.147  1.00  0.00    -0.550 OA
ATOM      4  O   UNL     1       1.197  29.308  57.520  1.00  0.00    -0.550 OA
ENDBRANCH   1   2
BRANCH   1   5
ATOM      5  C   UNL     1       4.308  27.890  55.964  1.00  0.00     0.059 C 
BRANCH   5   6
ATOM      6  C   UNL     1       5.288  29.007  56.148  1.00  0.00     0.042 C 
ATOM      7  O   UNL     1       5.767  29.602  55.147  1.00  0.00    -0.550 OA
ATOM      8  O   UNL     1       5.709  29.358  57.425  1.00  0.00    -0.550 OA
ENDBRANCH   5   6
ENDBRANCH   1   5
TORSDOF 3
ENDMDL
MODEL 6
REMARK VINA RESULT:    -3.180      7.984     10.009
REMARK INTER + INTRA:          -3.801
REMARK INTER:                  -3.682
REMARK INTRA:                  -0.119
REMARK UNBOUND:                -0.064
REMARK SMILES O=C([O-])CCC(=O)[O-]
REMARK SMILES IDX 4 1 2 2 1 3 3 4 5 5 6 6 7 7 8 8
REMARK H PARENT
REMARK Flexibility Score: inf
ROOT
ATOM      1  C   UNL     1      -6.815  32.081  58.294  1.00  0.00     0.059 C 
ENDROOT
BRANCH   1   2
ATOM      2  C   UNL     1      -7.867  31.209  57.687  1.00  0.00     0.042 C 
ATOM      3  O   UNL     1      -7.542  30.278  56.903  1.00  0.00    -0.550 OA
ATOM      4  O   UNL     1      -9.209  31.453  57.946  1.00  0.00    -0.550 OA
ENDBRANCH   1   2
BRANCH   1   5
ATOM      5  C   UNL     1      -6.343  31.501  59.628  1.00  0.00     0.059 C 
BRANCH   5   6
ATOM      6  C   UNL     1      -4.954  30.958  59.501  1.00  0.00     0.042 C 
ATOM      7  O   UNL     1      -4.002  31.498  60.125  1.00  0.00    -0.550 OA
ATOM      8  O   UNL     1      -4.702  29.886  58.654  1.00  0.00    -0.550 OA
ENDBRANCH   5   6
ENDBRANCH   1   5
TORSDOF 3
ENDMDL
MODEL 7
REMARK VINA RESULT:    -3.175      1.572      4.271
REMARK INTER + INTRA:          -3.796
REMARK INTER:                  -3.722
REMARK INTRA:                  -0.074
REMARK UNBOUND:                -0.064
REMARK SMILES O=C([O-])CCC(=O)[O-]
REMARK SMILES IDX 4 1 2 2 1 3 3 4 5 5 6 6 7 7 8 8
REMARK H PARENT
REMARK Flexibility Score: inf
ROOT
ATOM      1  C   UNL     1       0.909  28.132  55.227  1.00  0.00     0.059 C 
ENDROOT
BRANCH   1   2
ATOM      2  C   UNL     1       0.074  29.353  55.444  1.00  0.00     0.042 C 
ATOM      3  O   UNL     1      -0.630  29.462  56.483  1.00  0.00    -0.550 OA
ATOM      4  O   UNL     1       0.033  30.349  54.478  1.00  0.00    -0.550 OA
ENDBRANCH   1   2
BRANCH   1   5
ATOM      5  C   UNL     1       2.382  28.513  55.063  1.00  0.00     0.059 C 
BRANCH   5   6
ATOM      6  C   UNL     1       3.151  28.176  56.302  1.00  0.00     0.042 C 
ATOM      7  O   UNL     1       2.729  28.541  57.430  1.00  0.00    -0.550 OA
ATOM      8  O   UNL     1       4.362  27.500  56.205  1.00  0.00    -0.550 OA
ENDBRANCH   5   6
ENDBRANCH   1   5
TORSDOF 3
ENDMDL
MODEL 8
REMARK VINA RESULT:    -3.148      2.267      3.869
REMARK INTER + INTRA:          -3.764
REMARK INTER:                  -3.641
REMARK INTRA:                  -0.123
REMARK UNBOUND:                -0.064
REMARK SMILES O=C([O-])CCC(=O)[O-]
REMARK SMILES IDX 4 1 2 2 1 3 3 4 5 5 6 6 7 7 8 8
REMARK H PARENT
REMARK Flexibility Score: inf
ROOT
ATOM      1  C   UNL     1       1.297  28.198  55.318  1.00  0.00     0.059 C 
ENDROOT
BRANCH   1   2
ATOM      2  C   UNL     1       0.986  28.742  56.676  1.00  0.00     0.042 C 
ATOM      3  O   UNL     1       1.916  28.972  57.493  1.00  0.00    -0.550 OA
ATOM      4  O   UNL     1      -0.332  28.950  57.057  1.00  0.00    -0.550 OA
ENDBRANCH   1   2
BRANCH   1   5
ATOM      5  C   UNL     1       2.296  29.101  54.594  1.00  0.00     0.059 C 
BRANCH   5   6
ATOM      6  C   UNL     1       3.576  28.369  54.339  1.00  0.00     0.042 C 
ATOM      7  O   UNL     1       4.098  28.383  53.193  1.00  0.00    -0.550 OA
ATOM      8  O   UNL     1       4.167  27.630  55.356  1.00  0.00    -0.550 OA
ENDBRANCH   5   6
ENDBRANCH   1   5
TORSDOF 3
ENDMDL
