MODEL 1
REMARK VINA RESULT:    -5.310      0.000      0.000
REMARK INTER + INTRA:         -10.955
REMARK INTER:                  -9.967
REMARK INTRA:                  -0.988
REMARK UNBOUND:                -0.988
REMARK SMILES CCCCCCCCC=CCCCCCCCC(=O)[O-]
REMARK SMILES IDX 10 1 9 2 11 3 12 4 13 5 14 6 15 7 16 8 17 9 18 10 19 11
REMARK SMILES IDX 20 12 8 13 7 14 6 15 5 16 4 17 3 18 2 19 1 20
REMARK H PARENT
REMARK Flexibility Score: inf
ROOT
ATOM      1  C   UNL     1      -0.091  -2.460   9.733  1.00  0.00    -0.031 C 
ATOM      2  C   UNL     1       0.744  -3.489   9.530  1.00  0.00    -0.031 C 
ENDROOT
BRANCH   1   3
ATOM      3  C   UNL     1       0.415  -1.097  10.125  1.00  0.00     0.027 C 
BRANCH   3   4
ATOM      4  C   UNL     1      -0.107   0.010   9.196  1.00  0.00     0.004 C 
BRANCH   4   5
ATOM      5  C   UNL     1      -0.776  -0.562   7.934  1.00  0.00     0.000 C 
BRANCH   5   6
ATOM      6  C   UNL     1      -1.359   0.532   7.027  1.00  0.00     0.000 C 
BRANCH   6   7
ATOM      7  C   UNL     1      -1.146   0.239   5.534  1.00  0.00     0.000 C 
BRANCH   7   8
ATOM      8  C   UNL     1      -1.461  -1.227   5.213  1.00  0.00     0.006 C 
BRANCH   8   9
ATOM      9  C   UNL     1      -1.573  -1.448   3.701  1.00  0.00     0.053 C 
BRANCH   9  10
ATOM     10  C   UNL     1      -1.446  -2.901   3.373  1.00  0.00     0.041 C 
ATOM     11  O   UNL     1      -1.525  -3.766   4.285  1.00  0.00    -0.550 OA
ATOM     12  O   UNL     1      -1.292  -3.306   2.053  1.00  0.00    -0.550 OA
ENDBRANCH   9  10
ENDBRANCH   8   9
ENDBRANCH   7   8
ENDBRANCH   6   7
ENDBRANCH   5   6
ENDBRANCH   4   5
ENDBRANCH   3   4
ENDBRANCH   1   3
BRANCH   2  13
ATOM     13  C   UNL     1       0.237  -4.851   9.135  1.00  0.00     0.027 C 
BRANCH  13  14
ATOM     14  C   UNL     1       0.453  -5.144   7.643  1.00  0.00     0.004 C 
BRANCH  14  15
ATOM     15  C   UNL     1      -0.784  -5.782   6.993  1.00  0.00     0.000 C 
BRANCH  15  16
ATOM     16  C   UNL     1      -0.802  -7.298   7.218  1.00  0.00     0.000 C 
BRANCH  16  17
ATOM     17  C   UNL     1      -2.006  -7.714   8.077  1.00  0.00    -0.000 C 
BRANCH  17  18
ATOM     18  C   UNL     1      -2.187  -9.246   8.128  1.00  0.00    -0.000 C 
BRANCH  18  19
ATOM     19  C   UNL     1      -3.651  -9.686   8.293  1.00  0.00    -0.003 C 
ATOM     20  C   UNL     1      -4.649  -8.671   7.736  1.00  0.00     0.004 C 
ENDBRANCH  18  19
ENDBRANCH  17  18
ENDBRANCH  16  17
ENDBRANCH  15  16
ENDBRANCH  14  15
ENDBRANCH  13  14
ENDBRANCH   2  13
TORSDOF 15
ENDMDL
MODEL 2
REMARK VINA RESULT:    -5.252      1.109      2.187
REMARK INTER + INTRA:         -10.845
REMARK INTER:                  -9.635
REMARK INTRA:                  -1.210
REMARK UNBOUND:                -0.988
REMARK SMILES CCCCCCCCC=CCCCCCCCC(=O)[O-]
REMARK SMILES IDX 10 1 9 2 11 3 12 4 13 5 14 6 15 7 16 8 17 9 18 10 19 11
REMARK SMILES IDX 20 12 8 13 7 14 6 15 5 16 4 17 3 18 2 19 1 20
REMARK H PARENT
REMARK Flexibility Score: inf
ROOT
ATOM      1  C   UNL     1      -0.042  -4.039   8.439  1.00  0.00    -0.031 C 
ATOM      2  C   UNL     1       0.305  -5.300   8.141  1.00  0.00    -0.031 C 
ENDROOT
BRANCH   1   3
ATOM      3  C   UNL     1       0.397  -3.380   9.720  1.00  0.00     0.027 C 
BRANCH   3   4
ATOM      4  C   UNL     1       0.346  -1.847   9.637  1.00  0.00     0.004 C 
BRANCH   4   5
ATOM      5  C   UNL     1      -0.846  -1.353   8.799  1.00  0.00     0.000 C 
BRANCH   5   6
ATOM      6  C   UNL     1      -0.639   0.070   8.258  1.00  0.00     0.000 C 
BRANCH   6   7
ATOM      7  C   UNL     1      -1.114   0.226   6.805  1.00  0.00     0.000 C 
BRANCH   7   8
ATOM      8  C   UNL     1      -1.397  -1.141   6.171  1.00  0.00     0.006 C 
BRANCH   8   9
ATOM      9  C   UNL     1      -1.578  -1.017   4.655  1.00  0.00     0.053 C 
BRANCH   9  10
ATOM     10  C   UNL     1      -1.540  -2.367   4.011  1.00  0.00     0.041 C 
ATOM     11  O   UNL     1      -1.369  -2.471   2.768  1.00  0.00    -0.550 OA
ATOM     12  O   UNL     1      -1.644  -3.512   4.790  1.00  0.00    -0.550 OA
ENDBRANCH   9  10
ENDBRANCH   8   9
ENDBRANCH   7   8
ENDBRANCH   6   7
ENDBRANCH   5   6
ENDBRANCH   4   5
ENDBRANCH   3   4
ENDBRANCH   1   3
BRANCH   2  13
ATOM     13  C   UNL     1      -0.132  -5.957   6.859  1.00  0.00     0.027 C 
BRANCH  13  14
ATOM     14  C   UNL     1      -0.730  -7.353   7.092  1.00  0.00     0.004 C 
BRANCH  14  15
ATOM     15  C   UNL     1      -1.982  -7.306   7.980  1.00  0.00     0.000 C 
BRANCH  15  16
ATOM     16  C   UNL     1      -2.320  -8.697   8.527  1.00  0.00     0.000 C 
BRANCH  16  17
ATOM     17  C   UNL     1      -3.812  -9.015   8.340  1.00  0.00    -0.000 C 
BRANCH  17  18
ATOM     18  C   UNL     1      -4.618  -7.786   7.869  1.00  0.00    -0.000 C 
BRANCH  18  19
ATOM     19  C   UNL     1      -5.849  -7.488   8.741  1.00  0.00    -0.003 C 
ATOM     20  C   UNL     1      -6.429  -6.094   8.502  1.00  0.00     0.004 C 
ENDBRANCH  18  19
ENDBRANCH  17  18
ENDBRANCH  16  17
ENDBRANCH  15  16
ENDBRANCH  14  15
ENDBRANCH  13  14
ENDBRANCH   2  13
TORSDOF 15
ENDMDL
MODEL 3
REMARK VINA RESULT:    -5.156      2.412      6.411
REMARK INTER + INTRA:         -10.666
REMARK INTER:                  -8.608
REMARK INTRA:                  -2.058
REMARK UNBOUND:                -0.988
REMARK SMILES CCCCCCCCC=CCCCCCCCC(=O)[O-]
REMARK SMILES IDX 10 1 9 2 11 3 12 4 13 5 14 6 15 7 16 8 17 9 18 10 19 11
REMARK SMILES IDX 20 12 8 13 7 14 6 15 5 16 4 17 3 18 2 19 1 20
REMARK H PARENT
REMARK Flexibility Score: inf
ROOT
ATOM      1  C   UNL     1      -1.086  -1.564   6.355  1.00  0.00    -0.031 C 
ATOM      2  C   UNL     1      -1.445  -0.302   6.629  1.00  0.00    -0.031 C 
ENDROOT
BRANCH   1   3
ATOM      3  C   UNL     1      -1.475  -2.234   5.064  1.00  0.00     0.027 C 
BRANCH   3   4
ATOM      4  C   UNL     1      -1.522  -3.765   5.190  1.00  0.00     0.004 C 
BRANCH   4   5
ATOM      5  C   UNL     1      -0.868  -4.258   6.492  1.00  0.00     0.000 C 
BRANCH   5   6
ATOM      6  C   UNL     1      -0.209  -5.637   6.337  1.00  0.00     0.000 C 
BRANCH   6   7
ATOM      7  C   UNL     1      -0.163  -6.423   7.657  1.00  0.00     0.000 C 
BRANCH   7   8
ATOM      8  C   UNL     1      -1.164  -5.853   8.670  1.00  0.00     0.006 C 
BRANCH   8   9
ATOM      9  C   UNL     1      -1.892  -6.976   9.415  1.00  0.00     0.053 C 
BRANCH   9  10
ATOM     10  C   UNL     1      -2.637  -7.845   8.454  1.00  0.00     0.041 C 
ATOM     11  O   UNL     1      -2.339  -9.063   8.339  1.00  0.00    -0.550 OA
ATOM     12  O   UNL     1      -3.695  -7.324   7.720  1.00  0.00    -0.550 OA
ENDBRANCH   9  10
ENDBRANCH   8   9
ENDBRANCH   7   8
ENDBRANCH   6   7
ENDBRANCH   5   6
ENDBRANCH   4   5
ENDBRANCH   3   4
ENDBRANCH   1   3
BRANCH   2  13
ATOM     13  C   UNL     1      -1.053   0.369   7.919  1.00  0.00     0.027 C 
BRANCH  13  14
ATOM     14  C   UNL     1      -0.683  -0.642   9.014  1.00  0.00     0.004 C 
BRANCH  14  15
ATOM     15  C   UNL     1       0.585  -0.232   9.777  1.00  0.00     0.000 C 
BRANCH  15  16
ATOM     16  C   UNL     1       1.443  -1.456  10.116  1.00  0.00     0.000 C 
BRANCH  16  17
ATOM     17  C   UNL     1       0.760  -2.753   9.654  1.00  0.00    -0.000 C 
BRANCH  17  18
ATOM     18  C   UNL     1       1.552  -4.011  10.069  1.00  0.00    -0.000 C 
BRANCH  18  19
ATOM     19  C   UNL     1       2.947  -4.099   9.427  1.00  0.00    -0.003 C 
ATOM     20  C   UNL     1       3.083  -5.262   8.446  1.00  0.00     0.004 C 
ENDBRANCH  18  19
ENDBRANCH  17  18
ENDBRANCH  16  17
ENDBRANCH  15  16
ENDBRANCH  14  15
ENDBRANCH  13  14
ENDBRANCH   2  13
TORSDOF 15
ENDMDL
MODEL 4
REMARK VINA RESULT:    -5.094      2.617      4.374
REMARK INTER + INTRA:         -10.549
REMARK INTER:                  -9.098
REMARK INTRA:                  -1.450
REMARK UNBOUND:                -0.988
REMARK SMILES CCCCCCCCC=CCCCCCCCC(=O)[O-]
REMARK SMILES IDX 10 1 9 2 11 3 12 4 13 5 14 6 15 7 16 8 17 9 18 10 19 11
REMARK SMILES IDX 20 12 8 13 7 14 6 15 5 16 4 17 3 18 2 19 1 20
REMARK H PARENT
REMARK Flexibility Score: inf
ROOT
ATOM      1  C   UNL     1      -1.197  -1.803   5.620  1.00  0.00    -0.031 C 
ATOM      2  C   UNL     1      -1.575  -2.813   4.822  1.00  0.00    -0.031 C 
ENDROOT
BRANCH   1   3
ATOM      3  C   UNL     1      -1.508  -0.370   5.281  1.00  0.00     0.027 C 
BRANCH   3   4
ATOM      4  C   UNL     1      -1.106   0.598   6.405  1.00  0.00     0.004 C 
BRANCH   4   5
ATOM      5  C   UNL     1      -1.494   0.062   7.794  1.00  0.00     0.000 C 
BRANCH   5   6
ATOM      6  C   UNL     1      -0.307   0.033   8.769  1.00  0.00     0.000 C 
BRANCH   6   7
ATOM      7  C   UNL     1      -0.429  -1.084   9.818  1.00  0.00     0.000 C 
BRANCH   7   8
ATOM      8  C   UNL     1       0.864  -1.904   9.899  1.00  0.00     0.006 C 
BRANCH   8   9
ATOM      9  C   UNL     1       0.575  -3.402   9.759  1.00  0.00     0.053 C 
BRANCH   9  10
ATOM     10  C   UNL     1       1.850  -4.170   9.611  1.00  0.00     0.041 C 
ATOM     11  O   UNL     1       2.942  -3.562   9.457  1.00  0.00    -0.550 OA
ATOM     12  O   UNL     1       1.840  -5.556   9.692  1.00  0.00    -0.550 OA
ENDBRANCH   9  10
ENDBRANCH   8   9
ENDBRANCH   7   8
ENDBRANCH   6   7
ENDBRANCH   5   6
ENDBRANCH   4   5
ENDBRANCH   3   4
ENDBRANCH   1   3
BRANCH   2  13
ATOM     13  C   UNL     1      -1.268  -4.247   5.163  1.00  0.00     0.027 C 
BRANCH  13  14
ATOM     14  C   UNL     1      -0.646  -4.395   6.560  1.00  0.00     0.004 C 
BRANCH  14  15
ATOM     15  C   UNL     1      -0.089  -5.805   6.800  1.00  0.00     0.000 C 
BRANCH  15  16
ATOM     16  C   UNL     1      -0.986  -6.595   7.759  1.00  0.00     0.000 C 
BRANCH  16  17
ATOM     17  C   UNL     1      -1.101  -8.064   7.323  1.00  0.00    -0.000 C 
BRANCH  17  18
ATOM     18  C   UNL     1      -2.285  -8.785   8.002  1.00  0.00    -0.000 C 
BRANCH  18  19
ATOM     19  C   UNL     1      -3.273  -7.829   8.691  1.00  0.00    -0.003 C 
ATOM     20  C   UNL     1      -4.661  -7.838   8.051  1.00  0.00     0.004 C 
ENDBRANCH  18  19
ENDBRANCH  17  18
ENDBRANCH  16  17
ENDBRANCH  15  16
ENDBRANCH  14  15
ENDBRANCH  13  14
ENDBRANCH   2  13
TORSDOF 15
ENDMDL
MODEL 5
REMARK VINA RESULT:    -4.956      3.378      4.983
REMARK INTER + INTRA:         -10.290
REMARK INTER:                  -9.323
REMARK INTRA:                  -0.967
REMARK UNBOUND:                -0.988
REMARK SMILES CCCCCCCCC=CCCCCCCCC(=O)[O-]
REMARK SMILES IDX 10 1 9 2 11 3 12 4 13 5 14 6 15 7 16 8 17 9 18 10 19 11
REMARK SMILES IDX 20 12 8 13 7 14 6 15 5 16 4 17 3 18 2 19 1 20
REMARK H PARENT
REMARK Flexibility Score: inf
ROOT
ATOM      1  C   UNL     1      -1.048  -1.840   6.211  1.00  0.00    -0.031 C 
ATOM      2  C   UNL     1      -1.528  -2.695   5.296  1.00  0.00    -0.031 C 
ENDROOT
BRANCH   1   3
ATOM      3  C   UNL     1      -1.411  -0.380   6.196  1.00  0.00     0.027 C 
BRANCH   3   4
ATOM      4  C   UNL     1      -1.215   0.286   7.567  1.00  0.00     0.004 C 
BRANCH   4   5
ATOM      5  C   UNL     1      -0.581  -0.672   8.589  1.00  0.00     0.000 C 
BRANCH   5   6
ATOM      6  C   UNL     1       0.197   0.068   9.689  1.00  0.00     0.000 C 
BRANCH   6   7
ATOM      7  C   UNL     1       1.514  -0.634  10.057  1.00  0.00     0.000 C 
BRANCH   7   8
ATOM      8  C   UNL     1       2.688   0.353  10.026  1.00  0.00     0.006 C 
BRANCH   8   9
ATOM      9  C   UNL     1       4.012  -0.376   9.782  1.00  0.00     0.053 C 
BRANCH   9  10
ATOM     10  C   UNL     1       4.821   0.339   8.747  1.00  0.00     0.041 C 
ATOM     11  O   UNL     1       4.519   1.513   8.406  1.00  0.00    -0.550 OA
ATOM     12  O   UNL     1       5.939  -0.273   8.193  1.00  0.00    -0.550 OA
ENDBRANCH   9  10
ENDBRANCH   8   9
ENDBRANCH   7   8
ENDBRANCH   6   7
ENDBRANCH   5   6
ENDBRANCH   4   5
ENDBRANCH   3   4
ENDBRANCH   1   3
BRANCH   2  13
ATOM     13  C   UNL     1      -1.167  -4.157   5.313  1.00  0.00     0.027 C 
BRANCH  13  14
ATOM     14  C   UNL     1      -0.688  -4.623   6.696  1.00  0.00     0.004 C 
BRANCH  14  15
ATOM     15  C   UNL     1       0.082  -5.950   6.625  1.00  0.00     0.000 C 
BRANCH  15  16
ATOM     16  C   UNL     1      -0.813  -7.127   7.026  1.00  0.00     0.000 C 
BRANCH  16  17
ATOM     17  C   UNL     1      -1.602  -6.809   8.305  1.00  0.00    -0.000 C 
BRANCH  17  18
ATOM     18  C   UNL     1      -2.166  -8.079   8.976  1.00  0.00    -0.000 C 
BRANCH  18  19
ATOM     19  C   UNL     1      -3.407  -8.649   8.270  1.00  0.00    -0.003 C 
ATOM     20  C   UNL     1      -4.497  -7.603   8.036  1.00  0.00     0.004 C 
ENDBRANCH  18  19
ENDBRANCH  17  18
ENDBRANCH  16  17
ENDBRANCH  15  16
ENDBRANCH  14  15
ENDBRANCH  13  14
ENDBRANCH   2  13
TORSDOF 15
ENDMDL
MODEL 6
REMARK VINA RESULT:    -4.812      2.354      6.671
REMARK INTER + INTRA:         -10.020
REMARK INTER:                  -9.043
REMARK INTRA:                  -0.978
REMARK UNBOUND:                -0.988
REMARK SMILES CCCCCCCCC=CCCCCCCCC(=O)[O-]
REMARK SMILES IDX 10 1 9 2 11 3 12 4 13 5 14 6 15 7 16 8 17 9 18 10 19 11
REMARK SMILES IDX 20 12 8 13 7 14 6 15 5 16 4 17 3 18 2 19 1 20
REMARK H PARENT
REMARK Flexibility Score: inf
ROOT
ATOM      1  C   UNL     1       1.013  -2.351   9.707  1.00  0.00    -0.031 C 
ATOM      2  C   UNL     1      -0.148  -1.768   9.372  1.00  0.00    -0.031 C 
ENDROOT
BRANCH   1   3
ATOM      3  C   UNL     1       1.184  -3.847   9.676  1.00  0.00     0.027 C 
BRANCH   3   4
ATOM      4  C   UNL     1      -0.160  -4.590   9.713  1.00  0.00     0.004 C 
BRANCH   4   5
ATOM      5  C   UNL     1      -0.108  -5.917   8.936  1.00  0.00     0.000 C 
BRANCH   5   6
ATOM      6  C   UNL     1      -1.404  -6.731   9.070  1.00  0.00     0.000 C 
BRANCH   6   7
ATOM      7  C   UNL     1      -1.808  -7.420   7.757  1.00  0.00     0.000 C 
BRANCH   7   8
ATOM      8  C   UNL     1      -2.511  -8.755   8.031  1.00  0.00     0.006 C 
BRANCH   8   9
ATOM      9  C   UNL     1      -3.805  -8.543   8.822  1.00  0.00     0.053 C 
BRANCH   9  10
ATOM     10  C   UNL     1      -4.945  -8.265   7.894  1.00  0.00     0.041 C 
ATOM     11  O   UNL     1      -5.689  -9.203   7.505  1.00  0.00    -0.550 OA
ATOM     12  O   UNL     1      -5.218  -6.962   7.498  1.00  0.00    -0.550 OA
ENDBRANCH   9  10
ENDBRANCH   8   9
ENDBRANCH   7   8
ENDBRANCH   6   7
ENDBRANCH   5   6
ENDBRANCH   4   5
ENDBRANCH   3   4
ENDBRANCH   1   3
BRANCH   2  13
ATOM     13  C   UNL     1      -0.317  -0.272   9.399  1.00  0.00     0.027 C 
BRANCH  13  14
ATOM     14  C   UNL     1      -1.067   0.253   8.166  1.00  0.00     0.004 C 
BRANCH  14  15
ATOM     15  C   UNL     1      -1.057  -0.756   7.009  1.00  0.00     0.000 C 
BRANCH  15  16
ATOM     16  C   UNL     1      -1.377  -0.068   5.677  1.00  0.00     0.000 C 
BRANCH  16  17
ATOM     17  C   UNL     1      -1.297  -1.063   4.509  1.00  0.00    -0.000 C 
BRANCH  17  18
ATOM     18  C   UNL     1      -1.688  -2.495   4.932  1.00  0.00    -0.000 C 
BRANCH  18  19
ATOM     19  C   UNL     1      -1.347  -3.562   3.878  1.00  0.00    -0.003 C 
ATOM     20  C   UNL     1      -1.383  -3.025   2.448  1.00  0.00     0.004 C 
ENDBRANCH  18  19
ENDBRANCH  17  18
ENDBRANCH  16  17
ENDBRANCH  15  16
ENDBRANCH  14  15
ENDBRANCH  13  14
ENDBRANCH   2  13
TORSDOF 15
ENDMDL
MODEL 7
REMARK VINA RESULT:    -4.654      4.294      7.844
REMARK INTER + INTRA:          -9.723
REMARK INTER:                  -9.039
REMARK INTRA:                  -0.683
REMARK UNBOUND:                -0.988
REMARK SMILES CCCCCCCCC=CCCCCCCCC(=O)[O-]
REMARK SMILES IDX 10 1 9 2 11 3 12 4 13 5 14 6 15 7 16 8 17 9 18 10 19 11
REMARK SMILES IDX 20 12 8 13 7 14 6 15 5 16 4 17 3 18 2 19 1 20
REMARK H PARENT
REMARK Flexibility Score: inf
ROOT
ATOM      1  C   UNL     1       2.053  -3.727   9.592  1.00  0.00    -0.031 C 
ATOM      2  C   UNL     1       3.218  -3.110   9.838  1.00  0.00    -0.031 C 
ENDROOT
BRANCH   1   3
ATOM      3  C   UNL     1       1.985  -5.204   9.310  1.00  0.00     0.027 C 
BRANCH   3   4
ATOM      4  C   UNL     1       0.597  -5.644   8.822  1.00  0.00     0.004 C 
BRANCH   4   5
ATOM      5  C   UNL     1       0.512  -5.693   7.287  1.00  0.00     0.000 C 
BRANCH   5   6
ATOM      6  C   UNL     1      -0.689  -4.909   6.736  1.00  0.00     0.000 C 
BRANCH   6   7
ATOM      7  C   UNL     1      -0.649  -3.420   7.116  1.00  0.00     0.000 C 
BRANCH   7   8
ATOM      8  C   UNL     1      -1.103  -2.543   5.943  1.00  0.00     0.006 C 
BRANCH   8   9
ATOM      9  C   UNL     1      -1.536  -3.400   4.750  1.00  0.00     0.053 C 
BRANCH   9  10
ATOM     10  C   UNL     1      -1.432  -2.619   3.478  1.00  0.00     0.041 C 
ATOM     11  O   UNL     1      -1.522  -1.364   3.496  1.00  0.00    -0.550 OA
ATOM     12  O   UNL     1      -1.186  -3.274   2.278  1.00  0.00    -0.550 OA
ENDBRANCH   9  10
ENDBRANCH   8   9
ENDBRANCH   7   8
ENDBRANCH   6   7
ENDBRANCH   5   6
ENDBRANCH   4   5
ENDBRANCH   3   4
ENDBRANCH   1   3
BRANCH   2  13
ATOM     13  C   UNL     1       3.284  -1.632  10.123  1.00  0.00     0.027 C 
BRANCH  13  14
ATOM     14  C   UNL     1       4.678  -1.047   9.852  1.00  0.00     0.004 C 
BRANCH  14  15
ATOM     15  C   UNL     1       4.637   0.473   9.642  1.00  0.00     0.000 C 
BRANCH  15  16
ATOM     16  C   UNL     1       5.602   0.900   8.529  1.00  0.00     0.000 C 
BRANCH  16  17
ATOM     17  C   UNL     1       6.475  -0.279   8.074  1.00  0.00    -0.000 C 
BRANCH  17  18
ATOM     18  C   UNL     1       7.722  -0.462   8.964  1.00  0.00    -0.000 C 
BRANCH  18  19
ATOM     19  C   UNL     1       8.966   0.274   8.438  1.00  0.00    -0.003 C 
ATOM     20  C   UNL     1       8.895   0.578   6.942  1.00  0.00     0.004 C 
ENDBRANCH  18  19
ENDBRANCH  17  18
ENDBRANCH  16  17
ENDBRANCH  15  16
ENDBRANCH  14  15
ENDBRANCH  13  14
ENDBRANCH   2  13
TORSDOF 15
ENDMDL
MODEL 8
REMARK VINA RESULT:    -4.585      4.480      8.768
REMARK INTER + INTRA:          -9.593
REMARK INTER:                  -9.110
REMARK INTRA:                  -0.483
REMARK UNBOUND:                -0.988
REMARK SMILES CCCCCCCCC=CCCCCCCCC(=O)[O-]
REMARK SMILES IDX 10 1 9 2 11 3 12 4 13 5 14 6 15 7 16 8 17 9 18 10 19 11
REMARK SMILES IDX 20 12 8 13 7 14 6 15 5 16 4 17 3 18 2 19 1 20
REMARK H PARENT
REMARK Flexibility Score: inf
ROOT
ATOM      1  C   UNL     1       2.186  -4.822   8.929  1.00  0.00    -0.031 C 
ATOM      2  C   UNL     1       2.208  -3.809   9.808  1.00  0.00    -0.031 C 
ENDROOT
BRANCH   1   3
ATOM      3  C   UNL     1       0.915  -5.563   8.609  1.00  0.00     0.027 C 
BRANCH   3   4
ATOM      4  C   UNL     1       0.018  -4.791   7.629  1.00  0.00     0.004 C 
BRANCH   4   5
ATOM      5  C   UNL     1      -0.798  -5.734   6.728  1.00  0.00     0.000 C 
BRANCH   5   6
ATOM      6  C   UNL     1      -0.717  -7.200   7.179  1.00  0.00     0.000 C 
BRANCH   6   7
ATOM      7  C   UNL     1      -1.765  -7.550   8.247  1.00  0.00     0.000 C 
BRANCH   7   8
ATOM      8  C   UNL     1      -2.609  -8.755   7.813  1.00  0.00     0.006 C 
BRANCH   8   9
ATOM      9  C   UNL     1      -3.883  -8.867   8.655  1.00  0.00     0.053 C 
BRANCH   9  10
ATOM     10  C   UNL     1      -5.062  -8.352   7.893  1.00  0.00     0.041 C 
ATOM     11  O   UNL     1      -5.071  -7.168   7.464  1.00  0.00    -0.550 OA
ATOM     12  O   UNL     1      -6.130  -9.194   7.612  1.00  0.00    -0.550 OA
ENDBRANCH   9  10
ENDBRANCH   8   9
ENDBRANCH   7   8
ENDBRANCH   6   7
ENDBRANCH   5   6
ENDBRANCH   4   5
ENDBRANCH   3   4
ENDBRANCH   1   3
BRANCH   2  13
ATOM     13  C   UNL     1       3.479  -3.066  10.125  1.00  0.00     0.027 C 
BRANCH  13  14
ATOM     14  C   UNL     1       3.292  -1.542  10.077  1.00  0.00     0.004 C 
BRANCH  14  15
ATOM     15  C   UNL     1       4.631  -0.792  10.115  1.00  0.00     0.000 C 
BRANCH  15  16
ATOM     16  C   UNL     1       4.678   0.303   9.044  1.00  0.00     0.000 C 
BRANCH  16  17
ATOM     17  C   UNL     1       5.718  -0.027   7.962  1.00  0.00    -0.000 C 
BRANCH  17  18
ATOM     18  C   UNL     1       7.140  -0.175   8.543  1.00  0.00    -0.000 C 
BRANCH  18  19
ATOM     19  C   UNL     1       8.236  -0.271   7.468  1.00  0.00    -0.003 C 
ATOM     20  C   UNL     1       9.600  -0.661   8.037  1.00  0.00     0.004 C 
ENDBRANCH  18  19
ENDBRANCH  17  18
ENDBRANCH  16  17
ENDBRANCH  15  16
ENDBRANCH  14  15
ENDBRANCH  13  14
ENDBRANCH   2  13
TORSDOF 15
ENDMDL
MODEL 9
REMARK VINA RESULT:    -4.446      3.755      8.452
REMARK INTER + INTRA:          -9.333
REMARK INTER:                  -8.367
REMARK INTRA:                  -0.967
REMARK UNBOUND:                -0.988
REMARK SMILES CCCCCCCCC=CCCCCCCCC(=O)[O-]
REMARK SMILES IDX 10 1 9 2 11 3 12 4 13 5 14 6 15 7 16 8 17 9 18 10 19 11
REMARK SMILES IDX 20 12 8 13 7 14 6 15 5 16 4 17 3 18 2 19 1 20
REMARK H PARENT
REMARK Flexibility Score: inf
ROOT
ATOM      1  C   UNL     1       0.199  -5.254   8.035  1.00  0.00    -0.031 C 
ATOM      2  C   UNL     1       1.537  -5.336   8.056  1.00  0.00    -0.031 C 
ENDROOT
BRANCH   1   3
ATOM      3  C   UNL     1      -0.612  -5.853   6.917  1.00  0.00     0.027 C 
BRANCH   3   4
ATOM      4  C   UNL     1      -0.792  -7.371   7.073  1.00  0.00     0.004 C 
BRANCH   4   5
ATOM      5  C   UNL     1      -1.675  -7.727   8.281  1.00  0.00     0.000 C 
BRANCH   5   6
ATOM      6  C   UNL     1      -2.346  -9.102   8.137  1.00  0.00     0.000 C 
BRANCH   6   7
ATOM      7  C   UNL     1      -2.882  -9.641   9.473  1.00  0.00     0.000 C 
BRANCH   7   8
ATOM      8  C   UNL     1      -3.920  -8.685  10.073  1.00  0.00     0.006 C 
BRANCH   8   9
ATOM      9  C   UNL     1      -5.207  -8.678   9.243  1.00  0.00     0.053 C 
BRANCH   9  10
ATOM     10  C   UNL     1      -5.474  -7.310   8.702  1.00  0.00     0.041 C 
ATOM     11  O   UNL     1      -5.246  -7.051   7.491  1.00  0.00    -0.550 OA
ATOM     12  O   UNL     1      -6.021  -6.332   9.523  1.00  0.00    -0.550 OA
ENDBRANCH   9  10
ENDBRANCH   8   9
ENDBRANCH   7   8
ENDBRANCH   6   7
ENDBRANCH   5   6
ENDBRANCH   4   5
ENDBRANCH   3   4
ENDBRANCH   1   3
BRANCH   2  13
ATOM     13  C   UNL     1       2.347  -4.739   9.176  1.00  0.00     0.027 C 
BRANCH  13  14
ATOM     14  C   UNL     1       1.500  -3.857  10.105  1.00  0.00     0.004 C 
BRANCH  14  15
ATOM     15  C   UNL     1       1.986  -2.401  10.125  1.00  0.00     0.000 C 
BRANCH  15  16
ATOM     16  C   UNL     1       3.517  -2.333  10.120  1.00  0.00     0.000 C 
BRANCH  16  17
ATOM     17  C   UNL     1       4.006  -0.916   9.785  1.00  0.00    -0.000 C 
BRANCH  17  18
ATOM     18  C   UNL     1       5.527  -0.757   9.992  1.00  0.00    -0.000 C 
BRANCH  18  19
ATOM     19  C   UNL     1       6.206   0.111   8.919  1.00  0.00    -0.003 C 
ATOM     20  C   UNL     1       5.671  -0.147   7.512  1.00  0.00     0.004 C 
ENDBRANCH  18  19
ENDBRANCH  17  18
ENDBRANCH  16  17
ENDBRANCH  15  16
ENDBRANCH  14  15
ENDBRANCH  13  14
ENDBRANCH   2  13
TORSDOF 15
ENDMDL
