MODEL 1
REMARK VINA RESULT:    -2.637      0.000      0.000
REMARK INTER + INTRA:          -4.485
REMARK INTER:                  -3.716
REMARK INTRA:                  -0.768
REMARK UNBOUND:                -0.768
REMARK SMILES CCCCCCCCC(=O)[O-]
REMARK SMILES IDX 6 1 7 2 8 3 9 4 10 5 11 6 5 7 4 8 3 9 2 10 1 11
REMARK H PARENT
REMARK Flexibility Score: inf
ROOT
ATOM      1  C   UNL     1     166.543 170.500 149.510  1.00  0.00     0.000 C 
ENDROOT
BRANCH   1   2
ATOM      2  C   UNL     1     165.055 170.351 149.843  1.00  0.00     0.006 C 
BRANCH   2   3
ATOM      3  C   UNL     1     164.754 170.855 151.258  1.00  0.00     0.053 C 
BRANCH   3   4
ATOM      4  C   UNL     1     164.351 169.720 152.145  1.00  0.00     0.041 C 
ATOM      5  O   UNL     1     164.090 169.928 153.359  1.00  0.00    -0.550 OA
ATOM      6  O   UNL     1     164.314 168.425 151.644  1.00  0.00    -0.550 OA
ENDBRANCH   3   4
ENDBRANCH   2   3
ENDBRANCH   1   2
BRANCH   1   7
ATOM      7  C   UNL     1     167.327 169.247 149.917  1.00  0.00     0.000 C 
BRANCH   7   8
ATOM      8  C   UNL     1     168.444 169.593 150.909  1.00  0.00    -0.000 C 
BRANCH   8   9
ATOM      9  C   UNL     1     168.096 169.108 152.321  1.00  0.00    -0.000 C 
BRANCH   9  10
ATOM     10  C   UNL     1     167.887 170.291 153.273  1.00  0.00    -0.003 C 
ATOM     11  C   UNL     1     167.529 169.814 154.677  1.00  0.00     0.004 C 
ENDBRANCH   9  10
ENDBRANCH   8   9
ENDBRANCH   7   8
ENDBRANCH   1   7
TORSDOF 7
ENDMDL
MODEL 2
REMARK VINA RESULT:    -2.618      2.200      3.462
REMARK INTER + INTRA:          -4.458
REMARK INTER:                  -3.661
REMARK INTRA:                  -0.797
REMARK UNBOUND:                -0.768
REMARK SMILES CCCCCCCCC(=O)[O-]
REMARK SMILES IDX 6 1 7 2 8 3 9 4 10 5 11 6 5 7 4 8 3 9 2 10 1 11
REMARK H PARENT
REMARK Flexibility Score: inf
ROOT
ATOM      1  C   UNL     1     167.380 168.791 152.663  1.00  0.00     0.000 C 
ENDROOT
BRANCH   1   2
ATOM      2  C   UNL     1     166.145 168.980 151.775  1.00  0.00     0.006 C 
BRANCH   2   3
ATOM      3  C   UNL     1     165.877 170.464 151.514  1.00  0.00     0.053 C 
BRANCH   3   4
ATOM      4  C   UNL     1     165.965 170.765 150.051  1.00  0.00     0.041 C 
ATOM      5  O   UNL     1     167.085 170.961 149.511  1.00  0.00    -0.550 OA
ATOM      6  O   UNL     1     164.805 170.879 149.294  1.00  0.00    -0.550 OA
ENDBRANCH   3   4
ENDBRANCH   2   3
ENDBRANCH   1   2
BRANCH   1   7
ATOM      7  C   UNL     1     167.855 170.129 153.239  1.00  0.00     0.000 C 
BRANCH   7   8
ATOM      8  C   UNL     1     167.757 170.137 154.769  1.00  0.00    -0.000 C 
BRANCH   8   9
ATOM      9  C   UNL     1     166.490 170.864 155.236  1.00  0.00    -0.000 C 
BRANCH   9  10
ATOM     10  C   UNL     1     165.474 169.877 155.823  1.00  0.00    -0.003 C 
ATOM     11  C   UNL     1     164.247 169.751 154.926  1.00  0.00     0.004 C 
ENDBRANCH   9  10
ENDBRANCH   8   9
ENDBRANCH   7   8
ENDBRANCH   1   7
TORSDOF 7
ENDMDL
MODEL 3
REMARK VINA RESULT:    -2.613     17.148     18.359
REMARK INTER + INTRA:          -4.451
REMARK INTER:                  -3.685
REMARK INTRA:                  -0.766
REMARK UNBOUND:                -0.768
REMARK SMILES CCCCCCCCC(=O)[O-]
REMARK SMILES IDX 6 1 7 2 8 3 9 4 10 5 11 6 5 7 4 8 3 9 2 10 1 11
REMARK H PARENT
REMARK Flexibility Score: inf
ROOT
ATOM      1  C   UNL     1     170.686 152.229 153.526  1.00  0.00     0.000 C 
ENDROOT
BRANCH   1   2
ATOM      2  C   UNL     1     171.820 152.055 152.510  1.00  0.00     0.006 C 
BRANCH   2   3
ATOM      3  C   UNL     1     173.095 152.758 152.982  1.00  0.00     0.053 C 
BRANCH   3   4
ATOM      4  C   UNL     1     172.959 154.242 152.844  1.00  0.00     0.041 C 
ATOM      5  O   UNL     1     173.124 154.989 153.844  1.00  0.00    -0.550 OA
ATOM      6  O   UNL     1     172.598 154.796 151.622  1.00  0.00    -0.550 OA
ENDBRANCH   3   4
ENDBRANCH   2   3
ENDBRANCH   1   2
BRANCH   1   7
ATOM      7  C   UNL     1     170.666 151.073 154.532  1.00  0.00     0.000 C 
BRANCH   7   8
ATOM      8  C   UNL     1     170.893 151.582 155.961  1.00  0.00    -0.000 C 
BRANCH   8   9
ATOM      9  C   UNL     1     172.380 151.540 156.332  1.00  0.00    -0.000 C 
BRANCH   9  10
ATOM     10  C   UNL     1     172.845 152.890 156.890  1.00  0.00    -0.003 C 
ATOM     11  C   UNL     1     171.679 153.864 157.024  1.00  0.00     0.004 C 
ENDBRANCH   9  10
ENDBRANCH   8   9
ENDBRANCH   7   8
ENDBRANCH   1   7
TORSDOF 7
ENDMDL
MODEL 4
REMARK VINA RESULT:    -2.610      2.027      3.293
REMARK INTER + INTRA:          -4.446
REMARK INTER:                  -3.772
REMARK INTRA:                  -0.674
REMARK UNBOUND:                -0.768
REMARK SMILES CCCCCCCCC(=O)[O-]
REMARK SMILES IDX 6 1 7 2 8 3 9 4 10 5 11 6 5 7 4 8 3 9 2 10 1 11
REMARK H PARENT
REMARK Flexibility Score: inf
ROOT
ATOM      1  C   UNL     1     165.431 169.579 152.303  1.00  0.00     0.000 C 
ENDROOT
BRANCH   1   2
ATOM      2  C   UNL     1     164.582 170.061 151.121  1.00  0.00     0.006 C 
BRANCH   2   3
ATOM      3  C   UNL     1     165.453 170.731 150.055  1.00  0.00     0.053 C 
BRANCH   3   4
ATOM      4  C   UNL     1     165.951 169.719 149.072  1.00  0.00     0.041 C 
ATOM      5  O   UNL     1     167.087 169.853 148.546  1.00  0.00    -0.550 OA
ATOM      6  O   UNL     1     165.141 168.654 148.699  1.00  0.00    -0.550 OA
ENDBRANCH   3   4
ENDBRANCH   2   3
ENDBRANCH   1   2
BRANCH   1   7
ATOM      7  C   UNL     1     166.320 170.707 152.838  1.00  0.00     0.000 C 
BRANCH   7   8
ATOM      8  C   UNL     1     167.721 170.187 153.183  1.00  0.00    -0.000 C 
BRANCH   8   9
ATOM      9  C   UNL     1     168.662 170.295 151.977  1.00  0.00    -0.000 C 
BRANCH   9  10
ATOM     10  C   UNL     1     168.983 168.910 151.404  1.00  0.00    -0.003 C 
ATOM     11  C   UNL     1     170.133 168.978 150.405  1.00  0.00     0.004 C 
ENDBRANCH   9  10
ENDBRANCH   8   9
ENDBRANCH   7   8
ENDBRANCH   1   7
TORSDOF 7
ENDMDL
MODEL 5
REMARK VINA RESULT:    -2.596      4.215      5.293
REMARK INTER + INTRA:          -4.427
REMARK INTER:                  -4.044
REMARK INTRA:                  -0.384
REMARK UNBOUND:                -0.768
REMARK SMILES CCCCCCCCC(=O)[O-]
REMARK SMILES IDX 6 1 7 2 8 3 9 4 10 5 11 6 5 7 4 8 3 9 2 10 1 11
REMARK H PARENT
REMARK Flexibility Score: inf
ROOT
ATOM      1  C   UNL     1     169.377 170.354 150.877  1.00  0.00     0.000 C 
ENDROOT
BRANCH   1   2
ATOM      2  C   UNL     1     169.858 168.959 150.462  1.00  0.00     0.006 C 
BRANCH   2   3
ATOM      3  C   UNL     1     171.306 169.001 149.967  1.00  0.00     0.053 C 
BRANCH   3   4
ATOM      4  C   UNL     1     171.432 169.910 148.785  1.00  0.00     0.041 C 
ATOM      5  O   UNL     1     172.186 170.917 148.837  1.00  0.00    -0.550 OA
ATOM      6  O   UNL     1     170.676 169.674 147.643  1.00  0.00    -0.550 OA
ENDBRANCH   3   4
ENDBRANCH   2   3
ENDBRANCH   1   2
BRANCH   1   7
ATOM      7  C   UNL     1     168.596 170.297 152.194  1.00  0.00     0.000 C 
BRANCH   7   8
ATOM      8  C   UNL     1     167.949 168.921 152.393  1.00  0.00    -0.000 C 
BRANCH   8   9
ATOM      9  C   UNL     1     167.053 168.909 153.638  1.00  0.00    -0.000 C 
BRANCH   9  10
ATOM     10  C   UNL     1     167.599 169.850 154.717  1.00  0.00    -0.003 C 
ATOM     11  C   UNL     1     166.496 170.736 155.287  1.00  0.00     0.004 C 
ENDBRANCH   9  10
ENDBRANCH   8   9
ENDBRANCH   7   8
ENDBRANCH   1   7
TORSDOF 7
ENDMDL
MODEL 6
REMARK VINA RESULT:    -2.556      1.685      3.655
REMARK INTER + INTRA:          -4.370
REMARK INTER:                  -3.619
REMARK INTRA:                  -0.751
REMARK UNBOUND:                -0.768
REMARK SMILES CCCCCCCCC(=O)[O-]
REMARK SMILES IDX 6 1 7 2 8 3 9 4 10 5 11 6 5 7 4 8 3 9 2 10 1 11
REMARK H PARENT
REMARK Flexibility Score: inf
ROOT
ATOM      1  C   UNL     1     168.277 170.372 151.860  1.00  0.00     0.000 C 
ENDROOT
BRANCH   1   2
ATOM      2  C   UNL     1     168.108 168.908 152.280  1.00  0.00     0.006 C 
BRANCH   2   3
ATOM      3  C   UNL     1     166.968 168.753 153.291  1.00  0.00     0.053 C 
BRANCH   3   4
ATOM      4  C   UNL     1     167.037 169.828 154.329  1.00  0.00     0.041 C 
ATOM      5  O   UNL     1     167.938 169.802 155.209  1.00  0.00    -0.550 OA
ATOM      6  O   UNL     1     166.076 170.830 154.357  1.00  0.00    -0.550 OA
ENDBRANCH   3   4
ENDBRANCH   2   3
ENDBRANCH   1   2
BRANCH   1   7
ATOM      7  C   UNL     1     168.205 170.519 150.336  1.00  0.00     0.000 C 
BRANCH   7   8
ATOM      8  C   UNL     1     167.374 169.392 149.711  1.00  0.00    -0.000 C 
BRANCH   8   9
ATOM      9  C   UNL     1     166.013 169.911 149.234  1.00  0.00    -0.000 C 
BRANCH   9  10
ATOM     10  C   UNL     1     164.901 169.518 150.214  1.00  0.00    -0.003 C 
ATOM     11  C   UNL     1     164.516 170.690 151.112  1.00  0.00     0.004 C 
ENDBRANCH   9  10
ENDBRANCH   8   9
ENDBRANCH   7   8
ENDBRANCH   1   7
TORSDOF 7
ENDMDL
MODEL 7
REMARK VINA RESULT:    -2.538      2.340      4.758
REMARK INTER + INTRA:          -4.345
REMARK INTER:                  -3.597
REMARK INTRA:                  -0.748
REMARK UNBOUND:                -0.768
REMARK SMILES CCCCCCCCC(=O)[O-]
REMARK SMILES IDX 6 1 7 2 8 3 9 4 10 5 11 6 5 7 4 8 3 9 2 10 1 11
REMARK H PARENT
REMARK Flexibility Score: inf
ROOT
ATOM      1  C   UNL     1     167.745 169.989 154.774  1.00  0.00     0.000 C 
ENDROOT
BRANCH   1   2
ATOM      2  C   UNL     1     167.976 170.361 153.306  1.00  0.00     0.006 C 
BRANCH   2   3
ATOM      3  C   UNL     1     168.050 169.111 152.425  1.00  0.00     0.053 C 
BRANCH   3   4
ATOM      4  C   UNL     1     168.414 169.477 151.021  1.00  0.00     0.041 C 
ATOM      5  O   UNL     1     167.546 169.433 150.110  1.00  0.00    -0.550 OA
ATOM      6  O   UNL     1     169.724 169.818 150.709  1.00  0.00    -0.550 OA
ENDBRANCH   3   4
ENDBRANCH   2   3
ENDBRANCH   1   2
BRANCH   1   7
ATOM      7  C   UNL     1     166.399 170.526 155.274  1.00  0.00     0.000 C 
BRANCH   7   8
ATOM      8  C   UNL     1     165.346 169.413 155.327  1.00  0.00    -0.000 C 
BRANCH   8   9
ATOM      9  C   UNL     1     164.149 169.744 154.428  1.00  0.00    -0.000 C 
BRANCH   9  10
ATOM     10  C   UNL     1     164.383 169.247 152.996  1.00  0.00    -0.003 C 
ATOM     11  C   UNL     1     164.443 170.411 152.012  1.00  0.00     0.004 C 
ENDBRANCH   9  10
ENDBRANCH   8   9
ENDBRANCH   7   8
ENDBRANCH   1   7
TORSDOF 7
ENDMDL
MODEL 8
REMARK VINA RESULT:    -2.507      1.432      2.189
REMARK INTER + INTRA:          -4.301
REMARK INTER:                  -3.547
REMARK INTRA:                  -0.754
REMARK UNBOUND:                -0.768
REMARK SMILES CCCCCCCCC(=O)[O-]
REMARK SMILES IDX 6 1 7 2 8 3 9 4 10 5 11 6 5 7 4 8 3 9 2 10 1 11
REMARK H PARENT
REMARK Flexibility Score: inf
ROOT
ATOM      1  C   UNL     1     165.177 168.320 149.350  1.00  0.00     0.000 C 
ENDROOT
BRANCH   1   2
ATOM      2  C   UNL     1     164.691 168.426 150.800  1.00  0.00     0.006 C 
BRANCH   2   3
ATOM      3  C   UNL     1     164.515 169.889 151.216  1.00  0.00     0.053 C 
BRANCH   3   4
ATOM      4  C   UNL     1     163.915 169.979 152.583  1.00  0.00     0.041 C 
ATOM      5  O   UNL     1     162.664 169.965 152.728  1.00  0.00    -0.550 OA
ATOM      6  O   UNL     1     164.735 170.129 153.694  1.00  0.00    -0.550 OA
ENDBRANCH   3   4
ENDBRANCH   2   3
ENDBRANCH   1   2
BRANCH   1   7
ATOM      7  C   UNL     1     165.834 169.627 148.892  1.00  0.00     0.000 C 
BRANCH   7   8
ATOM      8  C   UNL     1     167.357 169.476 148.800  1.00  0.00    -0.000 C 
BRANCH   8   9
ATOM      9  C   UNL     1     168.054 170.198 149.959  1.00  0.00    -0.000 C 
BRANCH   9  10
ATOM     10  C   UNL     1     168.763 169.200 150.881  1.00  0.00    -0.003 C 
ATOM     11  C   UNL     1     168.097 169.147 152.253  1.00  0.00     0.004 C 
ENDBRANCH   9  10
ENDBRANCH   8   9
ENDBRANCH   7   8
ENDBRANCH   1   7
TORSDOF 7
ENDMDL
MODEL 9
REMARK VINA RESULT:    -2.462      3.117      4.836
REMARK INTER + INTRA:          -4.239
REMARK INTER:                  -3.456
REMARK INTRA:                  -0.783
REMARK UNBOUND:                -0.768
REMARK SMILES CCCCCCCCC(=O)[O-]
REMARK SMILES IDX 6 1 7 2 8 3 9 4 10 5 11 6 5 7 4 8 3 9 2 10 1 11
REMARK H PARENT
REMARK Flexibility Score: inf
ROOT
ATOM      1  C   UNL     1     167.946 170.119 152.613  1.00  0.00     0.000 C 
ENDROOT
BRANCH   1   2
ATOM      2  C   UNL     1     168.994 170.733 151.678  1.00  0.00     0.006 C 
BRANCH   2   3
ATOM      3  C   UNL     1     169.454 169.721 150.625  1.00  0.00     0.053 C 
BRANCH   3   4
ATOM      4  C   UNL     1     169.706 170.401 149.317  1.00  0.00     0.041 C 
ATOM      5  O   UNL     1     168.814 171.120 148.794  1.00  0.00    -0.550 OA
ATOM      6  O   UNL     1     170.907 170.200 148.649  1.00  0.00    -0.550 OA
ENDBRANCH   3   4
ENDBRANCH   2   3
ENDBRANCH   1   2
BRANCH   1   7
ATOM      7  C   UNL     1     167.448 168.774 152.073  1.00  0.00     0.000 C 
BRANCH   7   8
ATOM      8  C   UNL     1     165.976 168.859 151.652  1.00  0.00    -0.000 C 
BRANCH   8   9
ATOM      9  C   UNL     1     165.843 168.912 150.125  1.00  0.00    -0.000 C 
BRANCH   9  10
ATOM     10  C   UNL     1     165.458 170.320 149.656  1.00  0.00    -0.003 C 
ATOM     11  C   UNL     1     164.782 171.109 150.773  1.00  0.00     0.004 C 
ENDBRANCH   9  10
ENDBRANCH   8   9
ENDBRANCH   7   8
ENDBRANCH   1   7
TORSDOF 7
ENDMDL
