MODEL 1
REMARK VINA RESULT:    -3.306      0.000      0.000
REMARK INTER + INTRA:          -5.241
REMARK INTER:                  -4.852
REMARK INTRA:                  -0.389
REMARK UNBOUND:                -0.389
REMARK SMILES O=C([O-])CCCCCCCC(=O)[O-]
REMARK SMILES IDX 7 1 6 2 5 3 4 4 2 5 1 6 3 7 8 8 9 9 10 10 11 11 12 12 13 13
REMARK H PARENT
REMARK Flexibility Score: inf
ROOT
ATOM      1  C   UNL     1     -97.869 -41.144  91.582  1.00  0.00     0.000 C 
ENDROOT
BRANCH   1   2
ATOM      2  C   UNL     1     -97.035 -40.883  90.323  1.00  0.00     0.000 C 
BRANCH   2   3
ATOM      3  C   UNL     1     -97.855 -40.139  89.262  1.00  0.00     0.006 C 
BRANCH   3   4
ATOM      4  C   UNL     1     -97.147 -40.158  87.905  1.00  0.00     0.053 C 
BRANCH   4   5
ATOM      5  C   UNL     1     -97.012 -41.560  87.403  1.00  0.00     0.041 C 
ATOM      6  O   UNL     1     -95.881 -42.112  87.359  1.00  0.00    -0.550 OA
ATOM      7  O   UNL     1     -98.142 -42.277  87.030  1.00  0.00    -0.550 OA
ENDBRANCH   4   5
ENDBRANCH   3   4
ENDBRANCH   2   3
ENDBRANCH   1   2
BRANCH   1   8
ATOM      8  C   UNL     1     -99.282 -40.559  91.436  1.00  0.00     0.000 C 
BRANCH   8   9
ATOM      9  C   UNL     1     -99.545 -39.398  92.409  1.00  0.00     0.006 C 
BRANCH   9  10
ATOM     10  C   UNL     1    -100.159 -38.174  91.717  1.00  0.00     0.053 C 
BRANCH  10  11
ATOM     11  C   UNL     1    -100.726 -37.232  92.730  1.00  0.00     0.041 C 
ATOM     12  O   UNL     1    -101.310 -36.179  92.359  1.00  0.00    -0.550 OA
ATOM     13  O   UNL     1    -100.566 -37.489  94.086  1.00  0.00    -0.550 OA
ENDBRANCH  10  11
ENDBRANCH   9  10
ENDBRANCH   8   9
ENDBRANCH   1   8
TORSDOF 8
ENDMDL
MODEL 2
REMARK VINA RESULT:    -3.301     13.874     15.715
REMARK INTER + INTRA:          -5.233
REMARK INTER:                  -4.811
REMARK INTRA:                  -0.423
REMARK UNBOUND:                -0.389
REMARK SMILES O=C([O-])CCCCCCCC(=O)[O-]
REMARK SMILES IDX 7 1 6 2 5 3 4 4 2 5 1 6 3 7 8 8 9 9 10 10 11 11 12 12 13 13
REMARK H PARENT
REMARK Flexibility Score: inf
ROOT
ATOM      1  C   UNL     1     -95.615 -26.101  81.252  1.00  0.00     0.000 C 
ENDROOT
BRANCH   1   2
ATOM      2  C   UNL     1     -96.882 -26.303  82.091  1.00  0.00     0.000 C 
BRANCH   2   3
ATOM      3  C   UNL     1     -96.533 -26.723  83.524  1.00  0.00     0.006 C 
BRANCH   3   4
ATOM      4  C   UNL     1     -96.519 -28.248  83.663  1.00  0.00     0.053 C 
BRANCH   4   5
ATOM      5  C   UNL     1     -96.235 -28.643  85.077  1.00  0.00     0.041 C 
ATOM      6  O   UNL     1     -96.295 -29.853  85.421  1.00  0.00    -0.550 OA
ATOM      7  O   UNL     1     -95.855 -27.682  86.005  1.00  0.00    -0.550 OA
ENDBRANCH   4   5
ENDBRANCH   3   4
ENDBRANCH   2   3
ENDBRANCH   1   2
BRANCH   1   8
ATOM      8  C   UNL     1     -95.728 -26.827  79.903  1.00  0.00     0.000 C 
BRANCH   8   9
ATOM      9  C   UNL     1     -96.758 -27.968  79.930  1.00  0.00     0.006 C 
BRANCH   9  10
ATOM     10  C   UNL     1     -96.439 -29.077  78.920  1.00  0.00     0.053 C 
BRANCH  10  11
ATOM     11  C   UNL     1     -97.624 -29.968  78.730  1.00  0.00     0.041 C 
ATOM     12  O   UNL     1     -97.885 -30.443  77.593  1.00  0.00    -0.550 OA
ATOM     13  O   UNL     1     -98.472 -30.235  79.798  1.00  0.00    -0.550 OA
ENDBRANCH  10  11
ENDBRANCH   9  10
ENDBRANCH   8   9
ENDBRANCH   1   8
TORSDOF 8
ENDMDL
MODEL 3
REMARK VINA RESULT:    -3.270     13.959     15.062
REMARK INTER + INTRA:          -5.188
REMARK INTER:                  -4.648
REMARK INTRA:                  -0.540
REMARK UNBOUND:                -0.389
REMARK SMILES O=C([O-])CCCCCCCC(=O)[O-]
REMARK SMILES IDX 7 1 6 2 5 3 4 4 2 5 1 6 3 7 8 8 9 9 10 10 11 11 12 12 13 13
REMARK H PARENT
REMARK Flexibility Score: inf
ROOT
ATOM      1  C   UNL     1     -95.800 -25.689  81.198  1.00  0.00     0.000 C 
ENDROOT
BRANCH   1   2
ATOM      2  C   UNL     1     -95.425 -26.519  79.966  1.00  0.00     0.000 C 
BRANCH   2   3
ATOM      3  C   UNL     1     -96.656 -27.217  79.376  1.00  0.00     0.006 C 
BRANCH   3   4
ATOM      4  C   UNL     1     -96.397 -28.713  79.175  1.00  0.00     0.053 C 
BRANCH   4   5
ATOM      5  C   UNL     1     -97.626 -29.505  79.491  1.00  0.00     0.041 C 
ATOM      6  O   UNL     1     -98.351 -29.187  80.470  1.00  0.00    -0.550 OA
ATOM      7  O   UNL     1     -97.999 -30.565  78.675  1.00  0.00    -0.550 OA
ENDBRANCH   4   5
ENDBRANCH   3   4
ENDBRANCH   2   3
ENDBRANCH   1   2
BRANCH   1   8
ATOM      8  C   UNL     1     -96.948 -26.349  81.977  1.00  0.00     0.000 C 
BRANCH   8   9
ATOM      9  C   UNL     1     -96.544 -26.740  83.408  1.00  0.00     0.006 C 
BRANCH   9  10
ATOM     10  C   UNL     1     -96.528 -28.258  83.624  1.00  0.00     0.053 C 
BRANCH  10  11
ATOM     11  C   UNL     1     -96.228 -28.579  85.053  1.00  0.00     0.041 C 
ATOM     12  O   UNL     1     -95.918 -27.661  85.857  1.00  0.00    -0.550 OA
ATOM     13  O   UNL     1     -96.241 -29.899  85.488  1.00  0.00    -0.550 OA
ENDBRANCH  10  11
ENDBRANCH   9  10
ENDBRANCH   8   9
ENDBRANCH   1   8
TORSDOF 8
ENDMDL
MODEL 4
REMARK VINA RESULT:    -3.222      1.694      2.082
REMARK INTER + INTRA:          -5.118
REMARK INTER:                  -4.675
REMARK INTRA:                  -0.443
REMARK UNBOUND:                -0.389
REMARK SMILES O=C([O-])CCCCCCCC(=O)[O-]
REMARK SMILES IDX 7 1 6 2 5 3 4 4 2 5 1 6 3 7 8 8 9 9 10 10 11 11 12 12 13 13
REMARK H PARENT
REMARK Flexibility Score: inf
ROOT
ATOM      1  C   UNL     1     -97.388 -41.866  92.525  1.00  0.00     0.000 C 
ENDROOT
BRANCH   1   2
ATOM      2  C   UNL     1     -96.423 -41.331  91.460  1.00  0.00     0.000 C 
BRANCH   2   3
ATOM      3  C   UNL     1     -96.928 -41.651  90.048  1.00  0.00     0.006 C 
BRANCH   3   4
ATOM      4  C   UNL     1     -97.834 -40.534  89.522  1.00  0.00     0.053 C 
BRANCH   4   5
ATOM      5  C   UNL     1     -97.241 -39.909  88.300  1.00  0.00     0.041 C 
ATOM      6  O   UNL     1     -97.152 -40.568  87.230  1.00  0.00    -0.550 OA
ATOM      7  O   UNL     1     -96.829 -38.583  88.327  1.00  0.00    -0.550 OA
ENDBRANCH   4   5
ENDBRANCH   3   4
ENDBRANCH   2   3
ENDBRANCH   1   2
BRANCH   1   8
ATOM      8  C   UNL     1     -98.031 -40.713  93.312  1.00  0.00     0.000 C 
BRANCH   8   9
ATOM      9  C   UNL     1     -99.424 -40.338  92.779  1.00  0.00     0.006 C 
BRANCH   9  10
ATOM     10  C   UNL     1     -99.957 -39.034  93.387  1.00  0.00     0.053 C 
BRANCH  10  11
ATOM     11  C   UNL     1    -100.270 -38.046  92.309  1.00  0.00     0.041 C 
ATOM     12  O   UNL     1     -99.981 -38.303  91.110  1.00  0.00    -0.550 OA
ATOM     13  O   UNL     1    -100.833 -36.818  92.633  1.00  0.00    -0.550 OA
ENDBRANCH  10  11
ENDBRANCH   9  10
ENDBRANCH   8   9
ENDBRANCH   1   8
TORSDOF 8
ENDMDL
MODEL 5
REMARK VINA RESULT:    -3.199      1.612      2.401
REMARK INTER + INTRA:          -5.084
REMARK INTER:                  -4.772
REMARK INTRA:                  -0.312
REMARK UNBOUND:                -0.389
REMARK SMILES O=C([O-])CCCCCCCC(=O)[O-]
REMARK SMILES IDX 7 1 6 2 5 3 4 4 2 5 1 6 3 7 8 8 9 9 10 10 11 11 12 12 13 13
REMARK H PARENT
REMARK Flexibility Score: inf
ROOT
ATOM      1  C   UNL     1     -99.628 -39.644  92.503  1.00  0.00     0.000 C 
ENDROOT
BRANCH   1   2
ATOM      2  C   UNL     1     -98.575 -40.629  91.983  1.00  0.00     0.000 C 
BRANCH   2   3
ATOM      3  C   UNL     1     -98.600 -40.705  90.451  1.00  0.00     0.006 C 
BRANCH   3   4
ATOM      4  C   UNL     1     -97.186 -40.610  89.872  1.00  0.00     0.053 C 
BRANCH   4   5
ATOM      5  C   UNL     1     -97.208 -39.921  88.545  1.00  0.00     0.041 C 
ATOM      6  O   UNL     1     -96.936 -38.694  88.463  1.00  0.00    -0.550 OA
ATOM      7  O   UNL     1     -97.480 -40.644  87.391  1.00  0.00    -0.550 OA
ENDBRANCH   4   5
ENDBRANCH   3   4
ENDBRANCH   2   3
ENDBRANCH   1   2
BRANCH   1   8
ATOM      8  C   UNL     1     -99.931 -38.560  91.457  1.00  0.00     0.000 C 
BRANCH   8   9
ATOM      9  C   UNL     1    -101.066 -37.619  91.892  1.00  0.00     0.006 C 
BRANCH   9  10
ATOM     10  C   UNL     1    -100.584 -36.506  92.831  1.00  0.00     0.053 C 
BRANCH  10  11
ATOM     11  C   UNL     1    -101.651 -35.473  93.008  1.00  0.00     0.041 C 
ATOM     12  O   UNL     1    -101.572 -34.633  93.943  1.00  0.00    -0.550 OA
ATOM     13  O   UNL     1    -102.761 -35.469  92.172  1.00  0.00    -0.550 OA
ENDBRANCH  10  11
ENDBRANCH   9  10
ENDBRANCH   8   9
ENDBRANCH   1   8
TORSDOF 8
ENDMDL
MODEL 6
REMARK VINA RESULT:    -3.184      0.591      6.468
REMARK INTER + INTRA:          -5.063
REMARK INTER:                  -4.616
REMARK INTRA:                  -0.447
REMARK UNBOUND:                -0.389
REMARK SMILES O=C([O-])CCCCCCCC(=O)[O-]
REMARK SMILES IDX 7 1 6 2 5 3 4 4 2 5 1 6 3 7 8 8 9 9 10 10 11 11 12 12 13 13
REMARK H PARENT
REMARK Flexibility Score: inf
ROOT
ATOM      1  C   UNL     1     -97.861 -40.831  91.867  1.00  0.00     0.000 C 
ENDROOT
BRANCH   1   2
ATOM      2  C   UNL     1     -99.365 -40.533  91.853  1.00  0.00     0.000 C 
BRANCH   2   3
ATOM      3  C   UNL     1     -99.691 -39.303  92.708  1.00  0.00     0.006 C 
BRANCH   3   4
ATOM      4  C   UNL     1    -100.220 -38.156  91.843  1.00  0.00     0.053 C 
BRANCH   4   5
ATOM      5  C   UNL     1    -101.353 -37.461  92.528  1.00  0.00     0.041 C 
ATOM      6  O   UNL     1    -102.057 -38.077  93.371  1.00  0.00    -0.550 OA
ATOM      7  O   UNL     1    -101.603 -36.119  92.273  1.00  0.00    -0.550 OA
ENDBRANCH   4   5
ENDBRANCH   3   4
ENDBRANCH   2   3
ENDBRANCH   1   2
BRANCH   1   8
ATOM      8  C   UNL     1     -97.336 -41.073  90.444  1.00  0.00     0.000 C 
BRANCH   8   9
ATOM      9  C   UNL     1     -97.995 -40.150  89.405  1.00  0.00     0.006 C 
BRANCH   9  10
ATOM     10  C   UNL     1     -97.188 -40.053  88.105  1.00  0.00     0.053 C 
BRANCH  10  11
ATOM     11  C   UNL     1     -97.094 -41.392  87.447  1.00  0.00     0.041 C 
ATOM     12  O   UNL     1     -98.130 -41.954  87.002  1.00  0.00    -0.550 OA
ATOM     13  O   UNL     1     -95.871 -42.045  87.369  1.00  0.00    -0.550 OA
ENDBRANCH  10  11
ENDBRANCH   9  10
ENDBRANCH   8   9
ENDBRANCH   1   8
TORSDOF 8
ENDMDL
MODEL 7
REMARK VINA RESULT:    -3.126      3.626      5.719
REMARK INTER + INTRA:          -4.977
REMARK INTER:                  -4.447
REMARK INTRA:                  -0.529
REMARK UNBOUND:                -0.389
REMARK SMILES O=C([O-])CCCCCCCC(=O)[O-]
REMARK SMILES IDX 7 1 6 2 5 3 4 4 2 5 1 6 3 7 8 8 9 9 10 10 11 11 12 12 13 13
REMARK H PARENT
REMARK Flexibility Score: inf
ROOT
ATOM      1  C   UNL     1     -96.462 -43.679  89.237  1.00  0.00     0.000 C 
ENDROOT
BRANCH   1   2
ATOM      2  C   UNL     1     -96.448 -43.788  90.767  1.00  0.00     0.000 C 
BRANCH   2   3
ATOM      3  C   UNL     1     -96.369 -42.401  91.417  1.00  0.00     0.006 C 
BRANCH   3   4
ATOM      4  C   UNL     1     -95.855 -42.497  92.856  1.00  0.00     0.053 C 
BRANCH   4   5
ATOM      5  C   UNL     1     -96.172 -41.245  93.610  1.00  0.00     0.041 C 
ATOM      6  O   UNL     1     -97.283 -40.673  93.452  1.00  0.00    -0.550 OA
ATOM      7  O   UNL     1     -95.260 -40.734  94.525  1.00  0.00    -0.550 OA
ENDBRANCH   4   5
ENDBRANCH   3   4
ENDBRANCH   2   3
ENDBRANCH   1   2
BRANCH   1   8
ATOM      8  C   UNL     1     -95.771 -42.389  88.772  1.00  0.00     0.000 C 
BRANCH   8   9
ATOM      9  C   UNL     1     -96.289 -41.898  87.410  1.00  0.00     0.006 C 
BRANCH   9  10
ATOM     10  C   UNL     1     -97.642 -41.184  87.515  1.00  0.00     0.053 C 
BRANCH  10  11
ATOM     11  C   UNL     1     -97.547 -40.019  88.448  1.00  0.00     0.041 C 
ATOM     12  O   UNL     1     -96.824 -39.030  88.155  1.00  0.00    -0.550 OA
ATOM     13  O   UNL     1     -98.216 -40.045  89.665  1.00  0.00    -0.550 OA
ENDBRANCH  10  11
ENDBRANCH   9  10
ENDBRANCH   8   9
ENDBRANCH   1   8
TORSDOF 8
ENDMDL
MODEL 8
REMARK VINA RESULT:    -3.101     14.883     16.434
REMARK INTER + INTRA:          -4.940
REMARK INTER:                  -4.421
REMARK INTRA:                  -0.519
REMARK UNBOUND:                -0.389
REMARK SMILES O=C([O-])CCCCCCCC(=O)[O-]
REMARK SMILES IDX 7 1 6 2 5 3 4 4 2 5 1 6 3 7 8 8 9 9 10 10 11 11 12 12 13 13
REMARK H PARENT
REMARK Flexibility Score: inf
ROOT
ATOM      1  C   UNL     1     -96.733 -27.813  81.015  1.00  0.00     0.000 C 
ENDROOT
BRANCH   1   2
ATOM      2  C   UNL     1     -98.039 -27.642  81.799  1.00  0.00     0.000 C 
BRANCH   2   3
ATOM      3  C   UNL     1     -97.835 -27.954  83.286  1.00  0.00     0.006 C 
BRANCH   3   4
ATOM      4  C   UNL     1     -96.370 -28.288  83.582  1.00  0.00     0.053 C 
BRANCH   4   5
ATOM      5  C   UNL     1     -96.165 -28.487  85.050  1.00  0.00     0.041 C 
ATOM      6  O   UNL     1     -96.097 -27.494  85.822  1.00  0.00    -0.550 OA
ATOM      7  O   UNL     1     -96.096 -29.771  85.575  1.00  0.00    -0.550 OA
ENDBRANCH   4   5
ENDBRANCH   3   4
ENDBRANCH   2   3
ENDBRANCH   1   2
BRANCH   1   8
ATOM      8  C   UNL     1     -96.663 -26.824  79.841  1.00  0.00     0.000 C 
BRANCH   8   9
ATOM      9  C   UNL     1     -95.831 -25.574  80.170  1.00  0.00     0.006 C 
BRANCH   9  10
ATOM     10  C   UNL     1     -94.684 -25.867  81.146  1.00  0.00     0.053 C 
BRANCH  10  11
ATOM     11  C   UNL     1     -93.507 -24.996  80.844  1.00  0.00     0.041 C 
ATOM     12  O   UNL     1     -92.898 -24.408  81.777  1.00  0.00    -0.550 OA
ATOM     13  O   UNL     1     -93.112 -24.790  79.528  1.00  0.00    -0.550 OA
ENDBRANCH  10  11
ENDBRANCH   9  10
ENDBRANCH   8   9
ENDBRANCH   1   8
TORSDOF 8
ENDMDL
MODEL 9
REMARK VINA RESULT:    -3.068      2.502      6.125
REMARK INTER + INTRA:          -4.892
REMARK INTER:                  -4.268
REMARK INTRA:                  -0.624
REMARK UNBOUND:                -0.389
REMARK SMILES O=C([O-])CCCCCCCC(=O)[O-]
REMARK SMILES IDX 7 1 6 2 5 3 4 4 2 5 1 6 3 7 8 8 9 9 10 10 11 11 12 12 13 13
REMARK H PARENT
REMARK Flexibility Score: inf
ROOT
ATOM      1  C   UNL     1     -96.734 -42.458  91.090  1.00  0.00     0.000 C 
ENDROOT
BRANCH   1   2
ATOM      2  C   UNL     1     -96.325 -42.539  92.565  1.00  0.00     0.000 C 
BRANCH   2   3
ATOM      3  C   UNL     1     -96.096 -41.141  93.153  1.00  0.00     0.006 C 
BRANCH   3   4
ATOM      4  C   UNL     1     -97.025 -40.885  94.342  1.00  0.00     0.053 C 
BRANCH   4   5
ATOM      5  C   UNL     1     -98.450 -40.829  93.891  1.00  0.00     0.041 C 
ATOM      6  O   UNL     1     -98.806 -39.995  93.017  1.00  0.00    -0.550 OA
ATOM      7  O   UNL     1     -99.377 -41.730  94.399  1.00  0.00    -0.550 OA
ENDBRANCH   4   5
ENDBRANCH   3   4
ENDBRANCH   2   3
ENDBRANCH   1   2
BRANCH   1   8
ATOM      8  C   UNL     1     -96.450 -41.061  90.518  1.00  0.00     0.000 C 
BRANCH   8   9
ATOM      9  C   UNL     1     -97.616 -40.518  89.675  1.00  0.00     0.006 C 
BRANCH   9  10
ATOM     10  C   UNL     1     -97.208 -40.213  88.228  1.00  0.00     0.053 C 
BRANCH  10  11
ATOM     11  C   UNL     1     -97.076 -41.480  87.445  1.00  0.00     0.041 C 
ATOM     12  O   UNL     1     -98.094 -42.019  86.935  1.00  0.00    -0.550 OA
ATOM     13  O   UNL     1     -95.838 -42.097  87.322  1.00  0.00    -0.550 OA
ENDBRANCH  10  11
ENDBRANCH   9  10
ENDBRANCH   8   9
ENDBRANCH   1   8
TORSDOF 8
ENDMDL
