MODEL 1
REMARK VINA RESULT:    -8.692      0.000      0.000
REMARK INTER + INTRA:          -8.946
REMARK INTER:                  -8.946
REMARK INTRA:                   0.000
REMARK UNBOUND:                 0.000
REMARK SMILES CC1(C)CC[C@@]2(C)CC[C@]3(C)C(=CC[C@@H]4[C@]5(C)CC[C@H](O)C(C)(C)[C@@H]5CC[C@@]43C)[C@@H]2C1
REMARK SMILES IDX 1 1 2 2 4 3 5 4 6 5 8 6 9 7 10 8 12 9 13 10 14 11 15 12
REMARK SMILES IDX 28 13 27 14 26 15 25 16 16 17 18 18 19 19 20 20 22 21 23 22
REMARK SMILES IDX 24 23 17 24 29 25 30 26 31 27 11 28 7 29 3 30 21 31
REMARK H PARENT 21 32
REMARK Flexibility Score: inf
ROOT
ATOM      1  C   UNL     1     111.986 114.876 130.224  1.00  0.00     0.011 C 
ATOM      2  C   UNL     1     111.800 116.389 129.977  1.00  0.00    -0.035 C 
ATOM      3  C   UNL     1     110.284 116.747 130.028  1.00  0.00     0.007 C 
ATOM      4  C   UNL     1     109.530 116.352 128.750  1.00  0.00     0.008 C 
ATOM      5  C   UNL     1     110.176 116.903 127.421  1.00  0.00    -0.026 C 
ATOM      6  C   UNL     1     109.196 117.911 126.712  1.00  0.00     0.008 C 
ATOM      7  C   UNL     1     109.832 119.225 126.177  1.00  0.00     0.012 C 
ATOM      8  C   UNL     1     111.239 119.061 125.503  1.00  0.00    -0.006 C 
ATOM      9  C   UNL     1     112.121 118.200 126.408  1.00  0.00    -0.064 C 
ATOM     10  C   UNL     1     113.436 118.113 126.140  1.00  0.00    -0.027 C 
ATOM     11  C   UNL     1     114.157 119.008 125.168  1.00  0.00     0.032 C 
ATOM     12  C   UNL     1     113.371 120.207 124.527  1.00  0.00     0.006 C 
ATOM     13  C   UNL     1     111.985 120.468 125.259  1.00  0.00    -0.020 C 
ATOM     14  C   UNL     1     112.253 121.212 126.614  1.00  0.00     0.008 C 
ATOM     15  C   UNL     1     113.606 121.944 126.715  1.00  0.00     0.005 C 
ATOM     16  C   UNL     1     114.048 122.627 125.392  1.00  0.00     0.003 C 
ATOM     17  C   UNL     1     114.267 121.533 124.258  1.00  0.00    -0.025 C 
ATOM     18  C   UNL     1     115.806 121.208 124.085  1.00  0.00     0.010 C 
ATOM     19  C   UNL     1     116.708 121.469 125.309  1.00  0.00     0.033 C 
ATOM     20  C   UNL     1     116.582 122.869 125.958  1.00  0.00     0.120 C 
ATOM     21  C   UNL     1     115.263 123.632 125.596  1.00  0.00    -0.006 C 
ATOM     22  C   UNL     1     114.929 124.689 126.696  1.00  0.00     0.014 C 
ATOM     23  C   UNL     1     115.505 124.478 124.311  1.00  0.00     0.014 C 
ATOM     24  C   UNL     1     113.817 122.116 122.869  1.00  0.00     0.012 C 
ATOM     25  C   UNL     1     111.071 121.389 124.384  1.00  0.00     0.012 C 
ATOM     26  C   UNL     1     111.521 117.634 127.710  1.00  0.00     0.022 C 
ATOM     27  C   UNL     1     112.457 116.786 128.607  1.00  0.00     0.015 C 
ATOM     28  C   UNL     1     111.017 118.304 124.155  1.00  0.00     0.017 C 
ATOM     29  C   UNL     1     110.430 115.674 126.496  1.00  0.00     0.012 C 
ATOM     30  C   UNL     1     112.503 117.150 131.125  1.00  0.00     0.011 C 
ENDROOT
BRANCH  20  31
ATOM     31  O   UNL     1     116.706 122.725 127.354  1.00  0.00    -0.393 OA
ATOM     32  H   UNL     1     117.570 122.267 127.525  1.00  0.00     0.210 HD
ENDBRANCH  20  31
TORSDOF 1
ENDMDL
MODEL 2
REMARK VINA RESULT:    -8.314      2.045      3.691
REMARK INTER + INTRA:          -8.557
REMARK INTER:                  -8.557
REMARK INTRA:                   0.000
REMARK UNBOUND:                 0.000
REMARK SMILES CC1(C)CC[C@@]2(C)CC[C@]3(C)C(=CC[C@@H]4[C@]5(C)CC[C@H](O)C(C)(C)[C@@H]5CC[C@@]43C)[C@@H]2C1
REMARK SMILES IDX 1 1 2 2 4 3 5 4 6 5 8 6 9 7 10 8 12 9 13 10 14 11 15 12
REMARK SMILES IDX 28 13 27 14 26 15 25 16 16 17 18 18 19 19 20 20 22 21 23 22
REMARK SMILES IDX 24 23 17 24 29 25 30 26 31 27 11 28 7 29 3 30 21 31
REMARK H PARENT 21 32
REMARK Flexibility Score: inf
ROOT
ATOM      1  C   UNL     1     111.963 114.052 122.177  1.00  0.00     0.011 C 
ATOM      2  C   UNL     1     112.593 114.832 123.352  1.00  0.00    -0.035 C 
ATOM      3  C   UNL     1     112.152 114.193 124.703  1.00  0.00     0.007 C 
ATOM      4  C   UNL     1     110.718 114.567 125.104  1.00  0.00     0.008 C 
ATOM      5  C   UNL     1     110.432 116.118 125.115  1.00  0.00    -0.026 C 
ATOM      6  C   UNL     1     110.098 116.604 126.575  1.00  0.00     0.008 C 
ATOM      7  C   UNL     1     110.789 117.918 127.035  1.00  0.00     0.012 C 
ATOM      8  C   UNL     1     110.873 119.046 125.949  1.00  0.00    -0.006 C 
ATOM      9  C   UNL     1     111.381 118.435 124.642  1.00  0.00    -0.064 C 
ATOM     10  C   UNL     1     111.742 119.255 123.640  1.00  0.00    -0.027 C 
ATOM     11  C   UNL     1     111.932 120.739 123.795  1.00  0.00     0.032 C 
ATOM     12  C   UNL     1     111.842 121.361 125.234  1.00  0.00     0.006 C 
ATOM     13  C   UNL     1     111.864 120.245 126.366  1.00  0.00    -0.020 C 
ATOM     14  C   UNL     1     113.334 119.730 126.550  1.00  0.00     0.008 C 
ATOM     15  C   UNL     1     114.440 120.674 126.036  1.00  0.00     0.005 C 
ATOM     16  C   UNL     1     114.143 122.179 126.286  1.00  0.00     0.003 C 
ATOM     17  C   UNL     1     112.838 122.617 125.489  1.00  0.00    -0.025 C 
ATOM     18  C   UNL     1     113.226 123.373 124.153  1.00  0.00     0.010 C 
ATOM     19  C   UNL     1     114.612 123.051 123.557  1.00  0.00     0.033 C 
ATOM     20  C   UNL     1     115.810 123.154 124.533  1.00  0.00     0.120 C 
ATOM     21  C   UNL     1     115.414 123.103 126.048  1.00  0.00    -0.006 C 
ATOM     22  C   UNL     1     116.623 122.613 126.908  1.00  0.00     0.014 C 
ATOM     23  C   UNL     1     115.148 124.553 126.551  1.00  0.00     0.014 C 
ATOM     24  C   UNL     1     112.035 123.674 126.332  1.00  0.00     0.012 C 
ATOM     25  C   UNL     1     111.397 120.846 127.733  1.00  0.00     0.012 C 
ATOM     26  C   UNL     1     111.661 116.921 124.590  1.00  0.00     0.022 C 
ATOM     27  C   UNL     1     112.195 116.347 123.254  1.00  0.00     0.015 C 
ATOM     28  C   UNL     1     109.420 119.574 125.721  1.00  0.00     0.017 C 
ATOM     29  C   UNL     1     109.205 116.360 124.183  1.00  0.00     0.012 C 
ATOM     30  C   UNL     1     114.130 114.695 123.245  1.00  0.00     0.011 C 
ENDROOT
BRANCH  20  31
ATOM     31  O   UNL     1     116.725 122.130 124.224  1.00  0.00    -0.393 OA
ATOM     32  H   UNL     1     116.702 121.480 124.975  1.00  0.00     0.210 HD
ENDBRANCH  20  31
TORSDOF 1
ENDMDL
MODEL 3
REMARK VINA RESULT:    -7.340      2.965      7.537
REMARK INTER + INTRA:          -7.555
REMARK INTER:                  -7.555
REMARK INTRA:                   0.000
REMARK UNBOUND:                 0.000
REMARK SMILES CC1(C)CC[C@@]2(C)CC[C@]3(C)C(=CC[C@@H]4[C@]5(C)CC[C@H](O)C(C)(C)[C@@H]5CC[C@@]43C)[C@@H]2C1
REMARK SMILES IDX 1 1 2 2 4 3 5 4 6 5 8 6 9 7 10 8 12 9 13 10 14 11 15 12
REMARK SMILES IDX 28 13 27 14 26 15 25 16 16 17 18 18 19 19 20 20 22 21 23 22
REMARK SMILES IDX 24 23 17 24 29 25 30 26 31 27 11 28 7 29 3 30 21 31
REMARK H PARENT 21 32
REMARK Flexibility Score: inf
ROOT
ATOM      1  C   UNL     1     118.953 120.856 123.991  1.00  0.00     0.011 C 
ATOM      2  C   UNL     1     118.368 119.741 124.887  1.00  0.00    -0.035 C 
ATOM      3  C   UNL     1     119.221 118.445 124.737  1.00  0.00     0.007 C 
ATOM      4  C   UNL     1     118.929 117.681 123.437  1.00  0.00     0.008 C 
ATOM      5  C   UNL     1     117.402 117.360 123.204  1.00  0.00    -0.026 C 
ATOM      6  C   UNL     1     117.161 115.804 123.213  1.00  0.00     0.008 C 
ATOM      7  C   UNL     1     115.933 115.305 124.025  1.00  0.00     0.012 C 
ATOM      8  C   UNL     1     114.643 116.189 123.899  1.00  0.00    -0.006 C 
ATOM      9  C   UNL     1     115.032 117.656 124.089  1.00  0.00    -0.064 C 
ATOM     10  C   UNL     1     114.057 118.570 124.243  1.00  0.00    -0.027 C 
ATOM     11  C   UNL     1     112.615 118.226 124.504  1.00  0.00     0.032 C 
ATOM     12  C   UNL     1     112.236 116.722 124.750  1.00  0.00     0.006 C 
ATOM     13  C   UNL     1     113.519 115.816 124.990  1.00  0.00    -0.020 C 
ATOM     14  C   UNL     1     114.045 116.048 126.450  1.00  0.00     0.008 C 
ATOM     15  C   UNL     1     113.021 116.637 127.441  1.00  0.00     0.005 C 
ATOM     16  C   UNL     1     111.579 116.091 127.248  1.00  0.00     0.003 C 
ATOM     17  C   UNL     1     111.028 116.498 125.812  1.00  0.00    -0.025 C 
ATOM     18  C   UNL     1     110.064 117.748 125.917  1.00  0.00     0.010 C 
ATOM     19  C   UNL     1     110.273 118.681 127.129  1.00  0.00     0.033 C 
ATOM     20  C   UNL     1     110.319 117.991 128.514  1.00  0.00     0.120 C 
ATOM     21  C   UNL     1     110.618 116.455 128.461  1.00  0.00    -0.006 C 
ATOM     22  C   UNL     1     111.230 115.974 129.815  1.00  0.00     0.014 C 
ATOM     23  C   UNL     1     109.271 115.681 128.352  1.00  0.00     0.014 C 
ATOM     24  C   UNL     1     110.129 115.340 125.245  1.00  0.00     0.012 C 
ATOM     25  C   UNL     1     113.151 114.302 124.852  1.00  0.00     0.012 C 
ATOM     26  C   UNL     1     116.515 118.009 124.308  1.00  0.00     0.022 C 
ATOM     27  C   UNL     1     116.860 119.505 124.518  1.00  0.00     0.015 C 
ATOM     28  C   UNL     1     114.099 116.001 122.446  1.00  0.00     0.017 C 
ATOM     29  C   UNL     1     117.023 117.945 121.809  1.00  0.00     0.012 C 
ATOM     30  C   UNL     1     118.472 120.207 126.357  1.00  0.00     0.011 C 
ENDROOT
BRANCH  20  31
ATOM     31  O   UNL     1     111.272 118.655 129.310  1.00  0.00    -0.393 OA
ATOM     32  H   UNL     1     110.884 118.742 130.220  1.00  0.00     0.210 HD
ENDBRANCH  20  31
TORSDOF 1
ENDMDL
MODEL 4
REMARK VINA RESULT:    -7.153      2.230      4.508
REMARK INTER + INTRA:          -7.363
REMARK INTER:                  -7.363
REMARK INTRA:                   0.000
REMARK UNBOUND:                 0.000
REMARK SMILES CC1(C)CC[C@@]2(C)CC[C@]3(C)C(=CC[C@@H]4[C@]5(C)CC[C@H](O)C(C)(C)[C@@H]5CC[C@@]43C)[C@@H]2C1
REMARK SMILES IDX 1 1 2 2 4 3 5 4 6 5 8 6 9 7 10 8 12 9 13 10 14 11 15 12
REMARK SMILES IDX 28 13 27 14 26 15 25 16 16 17 18 18 19 19 20 20 22 21 23 22
REMARK SMILES IDX 24 23 17 24 29 25 30 26 31 27 11 28 7 29 3 30 21 31
REMARK H PARENT 21 32
REMARK Flexibility Score: inf
ROOT
ATOM      1  C   UNL     1     108.879 116.749 122.867  1.00  0.00     0.011 C 
ATOM      2  C   UNL     1     110.199 116.514 123.633  1.00  0.00    -0.035 C 
ATOM      3  C   UNL     1     109.899 115.825 124.998  1.00  0.00     0.007 C 
ATOM      4  C   UNL     1     109.354 116.798 126.054  1.00  0.00     0.008 C 
ATOM      5  C   UNL     1     110.244 118.081 126.274  1.00  0.00    -0.026 C 
ATOM      6  C   UNL     1     110.825 118.101 127.737  1.00  0.00     0.008 C 
ATOM      7  C   UNL     1     112.329 118.473 127.873  1.00  0.00     0.012 C 
ATOM      8  C   UNL     1     112.819 119.629 126.933  1.00  0.00    -0.006 C 
ATOM      9  C   UNL     1     112.313 119.361 125.515  1.00  0.00    -0.064 C 
ATOM     10  C   UNL     1     112.797 120.101 124.502  1.00  0.00    -0.027 C 
ATOM     11  C   UNL     1     113.996 121.002 124.618  1.00  0.00     0.032 C 
ATOM     12  C   UNL     1     114.823 120.983 125.953  1.00  0.00     0.006 C 
ATOM     13  C   UNL     1     114.424 119.757 126.882  1.00  0.00    -0.020 C 
ATOM     14  C   UNL     1     115.080 118.449 126.315  1.00  0.00     0.008 C 
ATOM     15  C   UNL     1     116.289 118.662 125.381  1.00  0.00     0.005 C 
ATOM     16  C   UNL     1     117.215 119.832 125.813  1.00  0.00     0.003 C 
ATOM     17  C   UNL     1     116.419 121.208 125.760  1.00  0.00    -0.025 C 
ATOM     18  C   UNL     1     116.770 122.006 124.439  1.00  0.00     0.010 C 
ATOM     19  C   UNL     1     117.259 121.169 123.238  1.00  0.00     0.033 C 
ATOM     20  C   UNL     1     118.417 120.183 123.526  1.00  0.00     0.120 C 
ATOM     21  C   UNL     1     118.604 119.832 125.040  1.00  0.00    -0.006 C 
ATOM     22  C   UNL     1     119.323 118.453 125.194  1.00  0.00     0.014 C 
ATOM     23  C   UNL     1     119.593 120.853 125.678  1.00  0.00     0.014 C 
ATOM     24  C   UNL     1     116.896 122.139 126.933  1.00  0.00     0.012 C 
ATOM     25  C   UNL     1     114.969 119.972 128.333  1.00  0.00     0.012 C 
ATOM     26  C   UNL     1     111.431 118.123 125.264  1.00  0.00     0.022 C 
ATOM     27  C   UNL     1     110.958 117.877 123.809  1.00  0.00     0.015 C 
ATOM     28  C   UNL     1     112.169 120.951 127.454  1.00  0.00     0.017 C 
ATOM     29  C   UNL     1     109.320 119.318 126.055  1.00  0.00     0.012 C 
ATOM     30  C   UNL     1     111.069 115.545 122.798  1.00  0.00     0.011 C 
ENDROOT
BRANCH  20  31
ATOM     31  O   UNL     1     118.205 119.015 122.768  1.00  0.00    -0.393 OA
ATOM     32  H   UNL     1     117.331 119.119 122.309  1.00  0.00     0.210 HD
ENDBRANCH  20  31
TORSDOF 1
ENDMDL
MODEL 5
REMARK VINA RESULT:    -7.123      2.341      7.224
REMARK INTER + INTRA:          -7.331
REMARK INTER:                  -7.331
REMARK INTRA:                   0.000
REMARK UNBOUND:                 0.000
REMARK SMILES CC1(C)CC[C@@]2(C)CC[C@]3(C)C(=CC[C@@H]4[C@]5(C)CC[C@H](O)C(C)(C)[C@@H]5CC[C@@]43C)[C@@H]2C1
REMARK SMILES IDX 1 1 2 2 4 3 5 4 6 5 8 6 9 7 10 8 12 9 13 10 14 11 15 12
REMARK SMILES IDX 28 13 27 14 26 15 25 16 16 17 18 18 19 19 20 20 22 21 23 22
REMARK SMILES IDX 24 23 17 24 29 25 30 26 31 27 11 28 7 29 3 30 21 31
REMARK H PARENT 21 32
REMARK Flexibility Score: inf
ROOT
ATOM      1  C   UNL     1     115.626 123.617 124.172  1.00  0.00     0.011 C 
ATOM      2  C   UNL     1     115.569 122.073 124.165  1.00  0.00    -0.035 C 
ATOM      3  C   UNL     1     114.790 121.583 122.907  1.00  0.00     0.007 C 
ATOM      4  C   UNL     1     113.268 121.729 123.049  1.00  0.00     0.008 C 
ATOM      5  C   UNL     1     112.672 121.070 124.352  1.00  0.00    -0.026 C 
ATOM      6  C   UNL     1     111.704 119.887 123.974  1.00  0.00     0.008 C 
ATOM      7  C   UNL     1     111.862 118.580 124.802  1.00  0.00     0.012 C 
ATOM      8  C   UNL     1     112.113 118.787 126.337  1.00  0.00    -0.006 C 
ATOM      9  C   UNL     1     113.205 119.842 126.520  1.00  0.00    -0.064 C 
ATOM     10  C   UNL     1     113.738 120.017 127.741  1.00  0.00    -0.027 C 
ATOM     11  C   UNL     1     113.528 119.074 128.894  1.00  0.00     0.032 C 
ATOM     12  C   UNL     1     112.757 117.731 128.634  1.00  0.00     0.006 C 
ATOM     13  C   UNL     1     112.581 117.438 127.082  1.00  0.00    -0.020 C 
ATOM     14  C   UNL     1     113.940 116.911 126.502  1.00  0.00     0.008 C 
ATOM     15  C   UNL     1     114.925 116.332 127.537  1.00  0.00     0.005 C 
ATOM     16  C   UNL     1     114.238 115.523 128.671  1.00  0.00     0.003 C 
ATOM     17  C   UNL     1     113.280 116.472 129.516  1.00  0.00    -0.025 C 
ATOM     18  C   UNL     1     113.980 116.917 130.863  1.00  0.00     0.010 C 
ATOM     19  C   UNL     1     115.523 116.910 130.874  1.00  0.00     0.033 C 
ATOM     20  C   UNL     1     116.198 115.603 130.389  1.00  0.00     0.120 C 
ATOM     21  C   UNL     1     115.270 114.676 129.534  1.00  0.00    -0.006 C 
ATOM     22  C   UNL     1     116.128 113.748 128.616  1.00  0.00     0.014 C 
ATOM     23  C   UNL     1     114.523 113.693 130.483  1.00  0.00     0.014 C 
ATOM     24  C   UNL     1     112.007 115.669 129.967  1.00  0.00     0.012 C 
ATOM     25  C   UNL     1     111.504 116.325 126.856  1.00  0.00     0.012 C 
ATOM     26  C   UNL     1     113.803 120.516 125.270  1.00  0.00     0.022 C 
ATOM     27  C   UNL     1     114.922 121.563 125.501  1.00  0.00     0.015 C 
ATOM     28  C   UNL     1     110.783 119.333 126.950  1.00  0.00     0.017 C 
ATOM     29  C   UNL     1     111.879 122.183 125.102  1.00  0.00     0.012 C 
ATOM     30  C   UNL     1     117.018 121.544 124.058  1.00  0.00     0.011 C 
ENDROOT
BRANCH  20  31
ATOM     31  O   UNL     1     117.360 115.943 129.670  1.00  0.00    -0.393 OA
ATOM     32  H   UNL     1     117.672 115.119 129.212  1.00  0.00     0.210 HD
ENDBRANCH  20  31
TORSDOF 1
ENDMDL
MODEL 6
REMARK VINA RESULT:    -7.082      2.494      3.833
REMARK INTER + INTRA:          -7.289
REMARK INTER:                  -7.289
REMARK INTRA:                   0.000
REMARK UNBOUND:                 0.000
REMARK SMILES CC1(C)CC[C@@]2(C)CC[C@]3(C)C(=CC[C@@H]4[C@]5(C)CC[C@H](O)C(C)(C)[C@@H]5CC[C@@]43C)[C@@H]2C1
REMARK SMILES IDX 1 1 2 2 4 3 5 4 6 5 8 6 9 7 10 8 12 9 13 10 14 11 15 12
REMARK SMILES IDX 28 13 27 14 26 15 25 16 16 17 18 18 19 19 20 20 22 21 23 22
REMARK SMILES IDX 24 23 17 24 29 25 30 26 31 27 11 28 7 29 3 30 21 31
REMARK H PARENT 21 32
REMARK Flexibility Score: inf
ROOT
ATOM      1  C   UNL     1     110.587 115.278 122.972  1.00  0.00     0.011 C 
ATOM      2  C   UNL     1     111.250 115.810 124.262  1.00  0.00    -0.035 C 
ATOM      3  C   UNL     1     110.178 115.951 125.384  1.00  0.00     0.007 C 
ATOM      4  C   UNL     1     109.294 117.195 125.217  1.00  0.00     0.008 C 
ATOM      5  C   UNL     1     110.096 118.543 125.056  1.00  0.00    -0.026 C 
ATOM      6  C   UNL     1     109.806 119.503 126.270  1.00  0.00     0.008 C 
ATOM      7  C   UNL     1     111.040 120.212 126.894  1.00  0.00     0.012 C 
ATOM      8  C   UNL     1     112.108 120.725 125.866  1.00  0.00    -0.006 C 
ATOM      9  C   UNL     1     112.403 119.608 124.864  1.00  0.00    -0.064 C 
ATOM     10  C   UNL     1     113.448 119.746 124.028  1.00  0.00    -0.027 C 
ATOM     11  C   UNL     1     114.511 120.800 124.178  1.00  0.00     0.032 C 
ATOM     12  C   UNL     1     114.489 121.711 125.457  1.00  0.00     0.006 C 
ATOM     13  C   UNL     1     113.494 121.157 126.565  1.00  0.00    -0.020 C 
ATOM     14  C   UNL     1     114.165 119.941 127.296  1.00  0.00     0.008 C 
ATOM     15  C   UNL     1     115.701 119.862 127.182  1.00  0.00     0.005 C 
ATOM     16  C   UNL     1     116.405 121.245 127.241  1.00  0.00     0.003 C 
ATOM     17  C   UNL     1     115.956 122.140 126.004  1.00  0.00    -0.025 C 
ATOM     18  C   UNL     1     117.061 122.123 124.871  1.00  0.00     0.010 C 
ATOM     19  C   UNL     1     117.995 120.895 124.838  1.00  0.00     0.033 C 
ATOM     20  C   UNL     1     118.674 120.523 126.179  1.00  0.00     0.120 C 
ATOM     21  C   UNL     1     117.977 121.126 127.445  1.00  0.00    -0.006 C 
ATOM     22  C   UNL     1     118.307 120.268 128.707  1.00  0.00     0.014 C 
ATOM     23  C   UNL     1     118.603 122.519 127.752  1.00  0.00     0.014 C 
ATOM     24  C   UNL     1     115.857 123.644 126.449  1.00  0.00     0.012 C 
ATOM     25  C   UNL     1     113.206 122.257 127.639  1.00  0.00     0.012 C 
ATOM     26  C   UNL     1     111.630 118.281 124.982  1.00  0.00     0.022 C 
ATOM     27  C   UNL     1     111.976 117.169 123.960  1.00  0.00     0.015 C 
ATOM     28  C   UNL     1     111.468 121.927 125.101  1.00  0.00     0.017 C 
ATOM     29  C   UNL     1     109.609 119.206 123.730  1.00  0.00     0.012 C 
ATOM     30  C   UNL     1     112.289 114.764 124.730  1.00  0.00     0.011 C 
ENDROOT
BRANCH  20  31
ATOM     31  O   UNL     1     118.741 119.120 126.270  1.00  0.00    -0.393 OA
ATOM     32  H   UNL     1     118.273 118.752 125.475  1.00  0.00     0.210 HD
ENDBRANCH  20  31
TORSDOF 1
ENDMDL
MODEL 7
REMARK VINA RESULT:    -7.012      3.375      6.247
REMARK INTER + INTRA:          -7.217
REMARK INTER:                  -7.217
REMARK INTRA:                   0.000
REMARK UNBOUND:                 0.000
REMARK SMILES CC1(C)CC[C@@]2(C)CC[C@]3(C)C(=CC[C@@H]4[C@]5(C)CC[C@H](O)C(C)(C)[C@@H]5CC[C@@]43C)[C@@H]2C1
REMARK SMILES IDX 1 1 2 2 4 3 5 4 6 5 8 6 9 7 10 8 12 9 13 10 14 11 15 12
REMARK SMILES IDX 28 13 27 14 26 15 25 16 16 17 18 18 19 19 20 20 22 21 23 22
REMARK SMILES IDX 24 23 17 24 29 25 30 26 31 27 11 28 7 29 3 30 21 31
REMARK H PARENT 21 32
REMARK Flexibility Score: inf
ROOT
ATOM      1  C   UNL     1     116.943 115.329 131.118  1.00  0.00     0.011 C 
ATOM      2  C   UNL     1     116.636 115.500 129.614  1.00  0.00    -0.035 C 
ATOM      3  C   UNL     1     117.923 115.960 128.864  1.00  0.00     0.007 C 
ATOM      4  C   UNL     1     118.234 117.450 129.064  1.00  0.00     0.008 C 
ATOM      5  C   UNL     1     117.032 118.414 128.726  1.00  0.00    -0.026 C 
ATOM      6  C   UNL     1     117.396 119.338 127.505  1.00  0.00     0.008 C 
ATOM      7  C   UNL     1     116.297 119.502 126.417  1.00  0.00     0.012 C 
ATOM      8  C   UNL     1     114.833 119.645 126.961  1.00  0.00    -0.006 C 
ATOM      9  C   UNL     1     114.590 118.560 128.012  1.00  0.00    -0.064 C 
ATOM     10  C   UNL     1     113.337 118.352 128.451  1.00  0.00    -0.027 C 
ATOM     11  C   UNL     1     112.110 118.927 127.797  1.00  0.00     0.032 C 
ATOM     12  C   UNL     1     112.277 119.704 126.442  1.00  0.00     0.006 C 
ATOM     13  C   UNL     1     113.719 119.492 125.809  1.00  0.00    -0.020 C 
ATOM     14  C   UNL     1     113.782 118.073 125.142  1.00  0.00     0.008 C 
ATOM     15  C   UNL     1     112.420 117.439 124.796  1.00  0.00     0.005 C 
ATOM     16  C   UNL     1     111.369 118.458 124.276  1.00  0.00     0.003 C 
ATOM     17  C   UNL     1     111.039 119.527 125.407  1.00  0.00    -0.025 C 
ATOM     18  C   UNL     1     109.679 119.171 126.134  1.00  0.00     0.010 C 
ATOM     19  C   UNL     1     109.249 117.688 126.104  1.00  0.00     0.033 C 
ATOM     20  C   UNL     1     109.242 117.013 124.711  1.00  0.00     0.120 C 
ATOM     21  C   UNL     1     110.099 117.754 123.629  1.00  0.00    -0.006 C 
ATOM     22  C   UNL     1     110.530 116.761 122.504  1.00  0.00     0.014 C 
ATOM     23  C   UNL     1     109.200 118.796 122.899  1.00  0.00     0.014 C 
ATOM     24  C   UNL     1     110.789 120.932 124.748  1.00  0.00     0.012 C 
ATOM     25  C   UNL     1     113.985 120.554 124.691  1.00  0.00     0.012 C 
ATOM     26  C   UNL     1     115.745 117.608 128.376  1.00  0.00     0.022 C 
ATOM     27  C   UNL     1     115.448 116.511 129.429  1.00  0.00     0.015 C 
ATOM     28  C   UNL     1     114.735 121.042 127.653  1.00  0.00     0.017 C 
ATOM     29  C   UNL     1     116.780 119.287 129.993  1.00  0.00     0.012 C 
ATOM     30  C   UNL     1     116.230 114.119 129.050  1.00  0.00     0.011 C 
ENDROOT
BRANCH  20  31
ATOM     31  O   UNL     1     109.675 115.681 124.860  1.00  0.00    -0.393 OA
ATOM     32  H   UNL     1     110.614 115.713 125.180  1.00  0.00     0.210 HD
ENDBRANCH  20  31
TORSDOF 1
ENDMDL
MODEL 8
REMARK VINA RESULT:    -6.957      2.092      7.422
REMARK INTER + INTRA:          -7.160
REMARK INTER:                  -7.160
REMARK INTRA:                   0.000
REMARK UNBOUND:                 0.000
REMARK SMILES CC1(C)CC[C@@]2(C)CC[C@]3(C)C(=CC[C@@H]4[C@]5(C)CC[C@H](O)C(C)(C)[C@@H]5CC[C@@]43C)[C@@H]2C1
REMARK SMILES IDX 1 1 2 2 4 3 5 4 6 5 8 6 9 7 10 8 12 9 13 10 14 11 15 12
REMARK SMILES IDX 28 13 27 14 26 15 25 16 16 17 18 18 19 19 20 20 22 21 23 22
REMARK SMILES IDX 24 23 17 24 29 25 30 26 31 27 11 28 7 29 3 30 21 31
REMARK H PARENT 21 32
REMARK Flexibility Score: inf
ROOT
ATOM      1  C   UNL     1     114.072 126.870 126.772  1.00  0.00     0.011 C 
ATOM      2  C   UNL     1     114.162 125.427 127.316  1.00  0.00    -0.035 C 
ATOM      3  C   UNL     1     115.650 125.065 127.603  1.00  0.00     0.007 C 
ATOM      4  C   UNL     1     116.443 124.732 126.331  1.00  0.00     0.008 C 
ATOM      5  C   UNL     1     115.777 123.626 125.424  1.00  0.00    -0.026 C 
ATOM      6  C   UNL     1     116.697 122.350 125.350  1.00  0.00     0.008 C 
ATOM      7  C   UNL     1     115.981 120.979 125.511  1.00  0.00     0.012 C 
ATOM      8  C   UNL     1     114.596 120.858 124.786  1.00  0.00    -0.006 C 
ATOM      9  C   UNL     1     113.762 122.100 125.106  1.00  0.00    -0.064 C 
ATOM     10  C   UNL     1     112.459 122.109 124.774  1.00  0.00    -0.027 C 
ATOM     11  C   UNL     1     111.692 120.888 124.344  1.00  0.00     0.032 C 
ATOM     12  C   UNL     1     112.405 119.490 124.416  1.00  0.00     0.006 C 
ATOM     13  C   UNL     1     113.762 119.557 125.240  1.00  0.00    -0.020 C 
ATOM     14  C   UNL     1     113.430 119.601 126.773  1.00  0.00     0.008 C 
ATOM     15  C   UNL     1     112.031 119.088 127.166  1.00  0.00     0.005 C 
ATOM     16  C   UNL     1     111.560 117.860 126.339  1.00  0.00     0.003 C 
ATOM     17  C   UNL     1     111.426 118.254 124.803  1.00  0.00    -0.025 C 
ATOM     18  C   UNL     1     109.914 118.528 124.426  1.00  0.00     0.010 C 
ATOM     19  C   UNL     1     108.983 118.959 125.579  1.00  0.00     0.033 C 
ATOM     20  C   UNL     1     109.009 118.063 126.841  1.00  0.00     0.120 C 
ATOM     21  C   UNL     1     110.279 117.154 126.962  1.00  0.00    -0.006 C 
ATOM     22  C   UNL     1     110.531 116.769 128.455  1.00  0.00     0.014 C 
ATOM     23  C   UNL     1     109.997 115.794 126.257  1.00  0.00     0.014 C 
ATOM     24  C   UNL     1     111.852 117.035 123.907  1.00  0.00     0.012 C 
ATOM     25  C   UNL     1     114.623 118.277 124.977  1.00  0.00     0.012 C 
ATOM     26  C   UNL     1     114.383 123.206 125.979  1.00  0.00     0.022 C 
ATOM     27  C   UNL     1     113.496 124.436 126.297  1.00  0.00     0.015 C 
ATOM     28  C   UNL     1     114.883 120.832 123.250  1.00  0.00     0.017 C 
ATOM     29  C   UNL     1     115.615 124.243 124.001  1.00  0.00     0.012 C 
ATOM     30  C   UNL     1     113.397 125.376 128.659  1.00  0.00     0.011 C 
ENDROOT
BRANCH  20  31
ATOM     31  O   UNL     1     108.879 118.888 127.975  1.00  0.00    -0.393 OA
ATOM     32  H   UNL     1     107.910 119.069 128.096  1.00  0.00     0.210 HD
ENDBRANCH  20  31
TORSDOF 1
ENDMDL
MODEL 9
REMARK VINA RESULT:    -6.869     11.137     13.687
REMARK INTER + INTRA:          -7.070
REMARK INTER:                  -7.070
REMARK INTRA:                   0.000
REMARK UNBOUND:                 0.000
REMARK SMILES CC1(C)CC[C@@]2(C)CC[C@]3(C)C(=CC[C@@H]4[C@]5(C)CC[C@H](O)C(C)(C)[C@@H]5CC[C@@]43C)[C@@H]2C1
REMARK SMILES IDX 1 1 2 2 4 3 5 4 6 5 8 6 9 7 10 8 12 9 13 10 14 11 15 12
REMARK SMILES IDX 28 13 27 14 26 15 25 16 16 17 18 18 19 19 20 20 22 21 23 22
REMARK SMILES IDX 24 23 17 24 29 25 30 26 31 27 11 28 7 29 3 30 21 31
REMARK H PARENT 21 32
REMARK Flexibility Score: inf
ROOT
ATOM      1  C   UNL     1     127.250 113.631 123.144  1.00  0.00     0.011 C 
ATOM      2  C   UNL     1     126.669 114.970 122.636  1.00  0.00    -0.035 C 
ATOM      3  C   UNL     1     126.015 115.741 123.822  1.00  0.00     0.007 C 
ATOM      4  C   UNL     1     124.638 115.186 124.214  1.00  0.00     0.008 C 
ATOM      5  C   UNL     1     123.622 115.068 123.013  1.00  0.00    -0.026 C 
ATOM      6  C   UNL     1     122.393 116.027 123.238  1.00  0.00     0.008 C 
ATOM      7  C   UNL     1     121.937 116.858 122.005  1.00  0.00     0.012 C 
ATOM      8  C   UNL     1     121.956 116.090 120.637  1.00  0.00    -0.006 C 
ATOM      9  C   UNL     1     123.290 115.355 120.503  1.00  0.00    -0.064 C 
ATOM     10  C   UNL     1     123.616 114.814 119.316  1.00  0.00    -0.027 C 
ATOM     11  C   UNL     1     122.885 115.101 118.032  1.00  0.00     0.032 C 
ATOM     12  C   UNL     1     121.762 116.199 118.038  1.00  0.00     0.006 C 
ATOM     13  C   UNL     1     121.786 117.067 119.368  1.00  0.00    -0.020 C 
ATOM     14  C   UNL     1     122.963 118.101 119.285  1.00  0.00     0.008 C 
ATOM     15  C   UNL     1     123.480 118.407 117.865  1.00  0.00     0.005 C 
ATOM     16  C   UNL     1     122.360 118.469 116.791  1.00  0.00     0.003 C 
ATOM     17  C   UNL     1     121.648 117.052 116.662  1.00  0.00    -0.025 C 
ATOM     18  C   UNL     1     122.196 116.264 115.404  1.00  0.00     0.010 C 
ATOM     19  C   UNL     1     123.613 116.638 114.919  1.00  0.00     0.033 C 
ATOM     20  C   UNL     1     123.875 118.147 114.693  1.00  0.00     0.120 C 
ATOM     21  C   UNL     1     122.860 119.094 115.417  1.00  0.00    -0.006 C 
ATOM     22  C   UNL     1     123.500 120.500 115.650  1.00  0.00     0.014 C 
ATOM     23  C   UNL     1     121.659 119.373 114.465  1.00  0.00     0.014 C 
ATOM     24  C   UNL     1     120.116 117.256 116.375  1.00  0.00     0.012 C 
ATOM     25  C   UNL     1     120.454 117.875 119.516  1.00  0.00     0.012 C 
ATOM     26  C   UNL     1     124.303 115.437 121.661  1.00  0.00     0.022 C 
ATOM     27  C   UNL     1     125.650 114.696 121.473  1.00  0.00     0.015 C 
ATOM     28  C   UNL     1     120.806 115.033 120.689  1.00  0.00     0.017 C 
ATOM     29  C   UNL     1     123.136 113.587 122.973  1.00  0.00     0.012 C 
ATOM     30  C   UNL     1     127.840 115.827 122.104  1.00  0.00     0.011 C 
ENDROOT
BRANCH  20  31
ATOM     31  O   UNL     1     125.194 118.434 115.092  1.00  0.00    -0.393 OA
ATOM     32  H   UNL     1     125.771 118.331 114.291  1.00  0.00     0.210 HD
ENDBRANCH  20  31
TORSDOF 1
ENDMDL
