MODEL 1
REMARK VINA RESULT:    -4.861      0.000      0.000
REMARK INTER + INTRA:          -5.470
REMARK INTER:                  -5.429
REMARK INTRA:                  -0.040
REMARK UNBOUND:                -0.040
REMARK SMILES O=C([O-])c1ccc(O)c(O)c1
REMARK SMILES IDX 4 1 11 2 5 3 9 4 6 5 7 6 2 7 1 8 3 9 10 10 8 12
REMARK H PARENT 10 11 8 13
REMARK Flexibility Score: inf
ROOT
ATOM      1  C   UNL     1       5.435 -20.850   0.865  1.00  0.00     0.001 A 
ATOM      2  C   UNL     1       5.777 -21.994   1.610  1.00  0.00     0.060 A 
ATOM      3  C   UNL     1       6.440 -19.922   0.542  1.00  0.00     0.014 A 
ATOM      4  C   UNL     1       7.100 -22.206   2.025  1.00  0.00     0.158 A 
ATOM      5  C   UNL     1       7.757 -20.132   0.955  1.00  0.00     0.051 A 
ATOM      6  C   UNL     1       8.094 -21.270   1.695  1.00  0.00     0.157 A 
ENDROOT
BRANCH   1   7
ATOM      7  C   UNL     1       4.040 -20.624   0.426  1.00  0.00     0.072 C 
ATOM      8  O   UNL     1       3.524 -19.476   0.498  1.00  0.00    -0.545 OA
ATOM      9  O   UNL     1       3.279 -21.675  -0.071  1.00  0.00    -0.545 OA
ENDBRANCH   1   7
BRANCH   4  10
ATOM     10  O   UNL     1       7.429 -23.342   2.763  1.00  0.00    -0.504 OA
ATOM     11  H   UNL     1       8.107 -23.309   3.515  1.00  0.00     0.293 HD
ENDBRANCH   4  10
BRANCH   6  12
ATOM     12  O   UNL     1       9.418 -21.453   2.094  1.00  0.00    -0.504 OA
ATOM     13  H   UNL     1       9.824 -20.939   2.867  1.00  0.00     0.293 HD
ENDBRANCH   6  12
TORSDOF 3
ENDMDL
MODEL 2
REMARK VINA RESULT:    -4.707     14.927     15.964
REMARK INTER + INTRA:          -5.297
REMARK INTER:                  -5.256
REMARK INTRA:                  -0.041
REMARK UNBOUND:                -0.040
REMARK SMILES O=C([O-])c1ccc(O)c(O)c1
REMARK SMILES IDX 4 1 11 2 5 3 9 4 6 5 7 6 2 7 1 8 3 9 10 10 8 12
REMARK H PARENT 10 11 8 13
REMARK Flexibility Score: inf
ROOT
ATOM      1  C   UNL     1       9.602 -11.864  13.086  1.00  0.00     0.001 A 
ATOM      2  C   UNL     1       8.487 -12.344  12.373  1.00  0.00     0.060 A 
ATOM      3  C   UNL     1       9.420 -10.827  14.016  1.00  0.00     0.014 A 
ATOM      4  C   UNL     1       7.213 -11.796  12.586  1.00  0.00     0.158 A 
ATOM      5  C   UNL     1       8.152 -10.281  14.229  1.00  0.00     0.051 A 
ATOM      6  C   UNL     1       7.046 -10.760  13.519  1.00  0.00     0.157 A 
ENDROOT
BRANCH   1   7
ATOM      7  C   UNL     1      10.947 -12.440  12.862  1.00  0.00     0.072 C 
ATOM      8  O   UNL     1      11.968 -11.701  12.862  1.00  0.00    -0.545 OA
ATOM      9  O   UNL     1      11.101 -13.804  12.647  1.00  0.00    -0.545 OA
ENDBRANCH   1   7
BRANCH   4  10
ATOM     10  O   UNL     1       6.115 -12.278  11.875  1.00  0.00    -0.504 OA
ATOM     11  H   UNL     1       6.220 -12.708  10.964  1.00  0.00     0.293 HD
ENDBRANCH   4  10
BRANCH   6  12
ATOM     12  O   UNL     1       5.793 -10.195  13.754  1.00  0.00    -0.504 OA
ATOM     13  H   UNL     1       5.157 -10.565  14.450  1.00  0.00     0.293 HD
ENDBRANCH   6  12
TORSDOF 3
ENDMDL
MODEL 3
REMARK VINA RESULT:    -4.580     15.518     16.498
REMARK INTER + INTRA:          -5.156
REMARK INTER:                  -5.113
REMARK INTRA:                  -0.043
REMARK UNBOUND:                -0.040
REMARK SMILES O=C([O-])c1ccc(O)c(O)c1
REMARK SMILES IDX 4 1 11 2 5 3 9 4 6 5 7 6 2 7 1 8 3 9 10 10 8 12
REMARK H PARENT 10 11 8 13
REMARK Flexibility Score: inf
ROOT
ATOM      1  C   UNL     1       9.186 -12.256  13.746  1.00  0.00     0.001 A 
ATOM      2  C   UNL     1       8.473 -12.056  14.943  1.00  0.00     0.060 A 
ATOM      3  C   UNL     1       8.701 -11.680  12.559  1.00  0.00     0.014 A 
ATOM      4  C   UNL     1       7.295 -11.294  14.953  1.00  0.00     0.158 A 
ATOM      5  C   UNL     1       7.529 -10.921  12.568  1.00  0.00     0.051 A 
ATOM      6  C   UNL     1       6.822 -10.724  13.759  1.00  0.00     0.157 A 
ENDROOT
BRANCH   1   7
ATOM      7  C   UNL     1      10.429 -13.060  13.733  1.00  0.00     0.072 C 
ATOM      8  O   UNL     1      10.654 -13.906  14.639  1.00  0.00    -0.545 OA
ATOM      9  O   UNL     1      11.365 -12.892  12.720  1.00  0.00    -0.545 OA
ENDBRANCH   1   7
BRANCH   4  10
ATOM     10  O   UNL     1       6.595 -11.101  16.142  1.00  0.00    -0.504 OA
ATOM     11  H   UNL     1       6.574 -10.200  16.606  1.00  0.00     0.293 HD
ENDBRANCH   4  10
BRANCH   6  12
ATOM     12  O   UNL     1       5.655  -9.961  13.736  1.00  0.00    -0.504 OA
ATOM     13  H   UNL     1       5.410  -9.375  12.948  1.00  0.00     0.293 HD
ENDBRANCH   6  12
TORSDOF 3
ENDMDL
MODEL 4
REMARK VINA RESULT:    -4.580     15.578     16.537
REMARK INTER + INTRA:          -5.156
REMARK INTER:                  -5.113
REMARK INTRA:                  -0.042
REMARK UNBOUND:                -0.040
REMARK SMILES O=C([O-])c1ccc(O)c(O)c1
REMARK SMILES IDX 4 1 11 2 5 3 9 4 6 5 7 6 2 7 1 8 3 9 10 10 8 12
REMARK H PARENT 10 11 8 13
REMARK Flexibility Score: inf
ROOT
ATOM      1  C   UNL     1       9.965 -12.230  13.721  1.00  0.00     0.001 A 
ATOM      2  C   UNL     1       9.169 -13.245  14.283  1.00  0.00     0.060 A 
ATOM      3  C   UNL     1       9.627 -10.887  13.960  1.00  0.00     0.014 A 
ATOM      4  C   UNL     1       8.053 -12.922  15.070  1.00  0.00     0.158 A 
ATOM      5  C   UNL     1       8.517 -10.565  14.744  1.00  0.00     0.051 A 
ATOM      6  C   UNL     1       7.727 -11.576  15.301  1.00  0.00     0.157 A 
ENDROOT
BRANCH   1   7
ATOM      7  C   UNL     1      11.142 -12.567  12.889  1.00  0.00     0.072 C 
ATOM      8  O   UNL     1      11.169 -13.635  12.219  1.00  0.00    -0.545 OA
ATOM      9  O   UNL     1      12.235 -11.711  12.836  1.00  0.00    -0.545 OA
ENDBRANCH   1   7
BRANCH   4  10
ATOM     10  O   UNL     1       7.270 -13.934  15.623  1.00  0.00    -0.504 OA
ATOM     11  H   UNL     1       7.443 -14.911  15.418  1.00  0.00     0.293 HD
ENDBRANCH   4  10
BRANCH   6  12
ATOM     12  O   UNL     1       6.625 -11.224  16.080  1.00  0.00    -0.504 OA
ATOM     13  H   UNL     1       6.301 -10.267  16.153  1.00  0.00     0.293 HD
ENDBRANCH   6  12
TORSDOF 3
ENDMDL
MODEL 5
REMARK VINA RESULT:    -4.561      7.967      9.292
REMARK INTER + INTRA:          -5.134
REMARK INTER:                  -5.091
REMARK INTRA:                  -0.043
REMARK UNBOUND:                -0.040
REMARK SMILES O=C([O-])c1ccc(O)c(O)c1
REMARK SMILES IDX 4 1 11 2 5 3 9 4 6 5 7 6 2 7 1 8 3 9 10 10 8 12
REMARK H PARENT 10 11 8 13
REMARK Flexibility Score: inf
ROOT
ATOM      1  C   UNL     1       8.572 -15.653   6.565  1.00  0.00     0.001 A 
ATOM      2  C   UNL     1       8.108 -14.788   5.556  1.00  0.00     0.060 A 
ATOM      3  C   UNL     1       7.780 -15.852   7.709  1.00  0.00     0.014 A 
ATOM      4  C   UNL     1       6.875 -14.133   5.688  1.00  0.00     0.158 A 
ATOM      5  C   UNL     1       6.552 -15.200   7.841  1.00  0.00     0.051 A 
ATOM      6  C   UNL     1       6.094 -14.341   6.837  1.00  0.00     0.157 A 
ENDROOT
BRANCH   1   7
ATOM      7  C   UNL     1       9.873 -16.345   6.428  1.00  0.00     0.072 C 
ATOM      8  O   UNL     1      10.765 -15.886   5.665  1.00  0.00    -0.545 OA
ATOM      9  O   UNL     1      10.129 -17.511   7.139  1.00  0.00    -0.545 OA
ENDBRANCH   1   7
BRANCH   4  10
ATOM     10  O   UNL     1       6.424 -13.279   4.683  1.00  0.00    -0.504 OA
ATOM     11  H   UNL     1       6.970 -12.481   4.381  1.00  0.00     0.293 HD
ENDBRANCH   4  10
BRANCH   6  12
ATOM     12  O   UNL     1       4.863 -13.705   6.997  1.00  0.00    -0.504 OA
ATOM     13  H   UNL     1       4.158 -14.050   7.637  1.00  0.00     0.293 HD
ENDBRANCH   6  12
TORSDOF 3
ENDMDL
MODEL 6
REMARK VINA RESULT:    -4.518      8.412      9.056
REMARK INTER + INTRA:          -5.087
REMARK INTER:                  -5.051
REMARK INTRA:                  -0.036
REMARK UNBOUND:                -0.040
REMARK SMILES O=C([O-])c1ccc(O)c(O)c1
REMARK SMILES IDX 4 1 11 2 5 3 9 4 6 5 7 6 2 7 1 8 3 9 10 10 8 12
REMARK H PARENT 10 11 8 13
REMARK Flexibility Score: inf
ROOT
ATOM      1  C   UNL     1       4.722 -14.806   7.355  1.00  0.00     0.001 A 
ATOM      2  C   UNL     1       5.108 -14.042   6.237  1.00  0.00     0.060 A 
ATOM      3  C   UNL     1       5.675 -15.627   7.981  1.00  0.00     0.014 A 
ATOM      4  C   UNL     1       6.425 -14.098   5.755  1.00  0.00     0.158 A 
ATOM      5  C   UNL     1       6.986 -15.683   7.502  1.00  0.00     0.051 A 
ATOM      6  C   UNL     1       7.367 -14.923   6.391  1.00  0.00     0.157 A 
ENDROOT
BRANCH   1   7
ATOM      7  C   UNL     1       3.334 -14.750   7.865  1.00  0.00     0.072 C 
ATOM      8  O   UNL     1       2.499 -15.640   7.551  1.00  0.00    -0.545 OA
ATOM      9  O   UNL     1       2.932 -13.712   8.697  1.00  0.00    -0.545 OA
ENDBRANCH   1   7
BRANCH   4  10
ATOM     10  O   UNL     1       6.798 -13.338   4.648  1.00  0.00    -0.504 OA
ATOM     11  H   UNL     1       6.144 -13.129   3.903  1.00  0.00     0.293 HD
ENDBRANCH   4  10
BRANCH   6  12
ATOM     12  O   UNL     1       8.683 -14.999   5.936  1.00  0.00    -0.504 OA
ATOM     13  H   UNL     1       9.422 -14.427   6.325  1.00  0.00     0.293 HD
ENDBRANCH   6  12
TORSDOF 3
ENDMDL
MODEL 7
REMARK VINA RESULT:    -4.517     15.170     15.950
REMARK INTER + INTRA:          -5.085
REMARK INTER:                  -5.048
REMARK INTRA:                  -0.038
REMARK UNBOUND:                -0.040
REMARK SMILES O=C([O-])c1ccc(O)c(O)c1
REMARK SMILES IDX 4 1 11 2 5 3 9 4 6 5 7 6 2 7 1 8 3 9 10 10 8 12
REMARK H PARENT 10 11 8 13
REMARK Flexibility Score: inf
ROOT
ATOM      1  C   UNL     1       8.119 -12.725  13.227  1.00  0.00     0.001 A 
ATOM      2  C   UNL     1       7.235 -11.679  12.902  1.00  0.00     0.060 A 
ATOM      3  C   UNL     1       8.313 -13.059  14.578  1.00  0.00     0.014 A 
ATOM      4  C   UNL     1       6.557 -10.979  13.911  1.00  0.00     0.158 A 
ATOM      5  C   UNL     1       7.638 -12.362  15.583  1.00  0.00     0.051 A 
ATOM      6  C   UNL     1       6.760 -11.324  15.258  1.00  0.00     0.157 A 
ENDROOT
BRANCH   1   7
ATOM      7  C   UNL     1       8.837 -13.464  12.164  1.00  0.00     0.072 C 
ATOM      8  O   UNL     1      10.097 -13.477  12.132  1.00  0.00    -0.545 OA
ATOM      9  O   UNL     1       8.130 -14.154  11.187  1.00  0.00    -0.545 OA
ENDBRANCH   1   7
BRANCH   4  10
ATOM     10  O   UNL     1       5.683  -9.945  13.580  1.00  0.00    -0.504 OA
ATOM     11  H   UNL     1       5.686  -9.066  14.084  1.00  0.00     0.293 HD
ENDBRANCH   4  10
BRANCH   6  12
ATOM     12  O   UNL     1       6.100 -10.647  16.283  1.00  0.00    -0.504 OA
ATOM     13  H   UNL     1       6.461 -10.618  17.229  1.00  0.00     0.293 HD
ENDBRANCH   6  12
TORSDOF 3
ENDMDL
MODEL 8
REMARK VINA RESULT:    -4.499      7.889      9.128
REMARK INTER + INTRA:          -5.065
REMARK INTER:                  -5.020
REMARK INTRA:                  -0.044
REMARK UNBOUND:                -0.040
REMARK SMILES O=C([O-])c1ccc(O)c(O)c1
REMARK SMILES IDX 4 1 11 2 5 3 9 4 6 5 7 6 2 7 1 8 3 9 10 10 8 12
REMARK H PARENT 10 11 8 13
REMARK Flexibility Score: inf
ROOT
ATOM      1  C   UNL     1       8.616 -16.056   6.930  1.00  0.00     0.001 A 
ATOM      2  C   UNL     1       7.483 -15.528   7.577  1.00  0.00     0.060 A 
ATOM      3  C   UNL     1       8.944 -15.593   5.644  1.00  0.00     0.014 A 
ATOM      4  C   UNL     1       6.691 -14.555   6.949  1.00  0.00     0.158 A 
ATOM      5  C   UNL     1       8.156 -14.624   5.018  1.00  0.00     0.051 A 
ATOM      6  C   UNL     1       7.031 -14.101   5.664  1.00  0.00     0.157 A 
ENDROOT
BRANCH   1   7
ATOM      7  C   UNL     1       9.452 -17.084   7.589  1.00  0.00     0.072 C 
ATOM      8  O   UNL     1       9.147 -17.521   8.731  1.00  0.00    -0.545 OA
ATOM      9  O   UNL     1      10.587 -17.579   6.958  1.00  0.00    -0.545 OA
ENDBRANCH   1   7
BRANCH   4  10
ATOM     10  O   UNL     1       5.571 -14.038   7.597  1.00  0.00    -0.504 OA
ATOM     11  H   UNL     1       4.692 -13.902   7.112  1.00  0.00     0.293 HD
ENDBRANCH   4  10
BRANCH   6  12
ATOM     12  O   UNL     1       6.264 -13.134   5.014  1.00  0.00    -0.504 OA
ATOM     13  H   UNL     1       5.869 -13.289   4.094  1.00  0.00     0.293 HD
ENDBRANCH   6  12
TORSDOF 3
ENDMDL
MODEL 9
REMARK VINA RESULT:    -4.396      8.725      9.744
REMARK INTER + INTRA:          -4.951
REMARK INTER:                  -4.913
REMARK INTRA:                  -0.038
REMARK UNBOUND:                -0.040
REMARK SMILES O=C([O-])c1ccc(O)c(O)c1
REMARK SMILES IDX 4 1 11 2 5 3 9 4 6 5 7 6 2 7 1 8 3 9 10 10 8 12
REMARK H PARENT 10 11 8 13
REMARK Flexibility Score: inf
ROOT
ATOM      1  C   UNL     1       4.156 -14.695   7.137  1.00  0.00     0.001 A 
ATOM      2  C   UNL     1       3.646 -15.840   6.495  1.00  0.00     0.060 A 
ATOM      3  C   UNL     1       3.484 -14.189   8.263  1.00  0.00     0.014 A 
ATOM      4  C   UNL     1       2.485 -16.466   6.971  1.00  0.00     0.158 A 
ATOM      5  C   UNL     1       2.328 -14.813   8.737  1.00  0.00     0.051 A 
ATOM      6  C   UNL     1       1.824 -15.950   8.097  1.00  0.00     0.157 A 
ENDROOT
BRANCH   1   7
ATOM      7  C   UNL     1       5.381 -14.031   6.637  1.00  0.00     0.072 C 
ATOM      8  O   UNL     1       5.422 -13.559   5.469  1.00  0.00    -0.545 OA
ATOM      9  O   UNL     1       6.503 -13.921   7.449  1.00  0.00    -0.545 OA
ENDBRANCH   1   7
BRANCH   4  10
ATOM     10  O   UNL     1       1.987 -17.599   6.329  1.00  0.00    -0.504 OA
ATOM     11  H   UNL     1       1.213 -18.129   6.711  1.00  0.00     0.293 HD
ENDBRANCH   4  10
BRANCH   6  12
ATOM     12  O   UNL     1       0.667 -16.550   8.594  1.00  0.00    -0.504 OA
ATOM     13  H   UNL     1      -0.173 -16.021   8.790  1.00  0.00     0.293 HD
ENDBRANCH   6  12
TORSDOF 3
ENDMDL
