MODEL 1
REMARK VINA RESULT:    -4.876      0.000      0.000
REMARK INTER + INTRA:          -6.233
REMARK INTER:                  -6.871
REMARK INTRA:                   0.638
REMARK UNBOUND:                 0.638
REMARK SMILES CC1=CCC(=C(C)C)C(=O)CC(C)=CCC1
REMARK SMILES IDX 12 1 14 2 13 3 15 4 16 5 2 6 1 7 3 8 11 10 9 11 10 12 5 13
REMARK SMILES IDX 6 14 7 15 8 16 4 17
REMARK H PARENT
REMARK Flexibility Score: 60.00
ROOT
ATOM      1  C   UNL     1     -14.167  12.426   0.180  1.00  0.00    -0.070 C 
ATOM      2  C   UNL     1     -14.202  13.692  -0.292  1.00  0.00    -0.027 C 
ATOM      3  C   UNL     1     -15.053  11.402  -0.481  1.00  0.00     0.039 C 
ENDROOT
BRANCH   2   4
ATOM      4  C   UNL     1     -13.322  14.833   0.172  1.00  0.00     0.032 C 
BRANCH   4   5
ATOM      5  C   UNL     1     -14.075  16.001   0.841  1.00  0.00     0.034 C 
BRANCH   5   6
ATOM      6  C   UNL     1     -15.151  15.542   1.810  1.00  0.00    -0.077 C 
ATOM      7  C   UNL     1     -16.584  15.875   1.476  1.00  0.00     0.039 C 
ATOM      8  C   UNL     1     -14.915  14.795   2.916  1.00  0.00    -0.023 CG0
ATOM      9  G   UNL     1     -13.566  14.360   3.455  1.00  0.00     0.000 G0
ENDBRANCH   5   6
ENDBRANCH   4   5
ENDBRANCH   2   4
BRANCH   1  10
ATOM     10  C   UNL     1     -13.219  11.972   1.271  1.00  0.00     0.111 C 
BRANCH  10  11
ATOM     11  C   UNL     1     -13.891  11.955   2.620  1.00  0.00     0.163 C 
ATOM     12  O   UNL     1     -14.791  11.096   2.824  1.00  0.00    -0.294 OA
BRANCH  11  13
ATOM     13  C   UNL     1     -13.488  12.871   3.727  1.00  0.00    -0.002 C 
ATOM     14  C   UNL     1     -12.995  12.373   4.902  1.00  0.00    -0.069 C 
ATOM     15  C   UNL     1     -12.986  10.886   5.181  1.00  0.00     0.039 C 
ATOM     16  C   UNL     1     -12.432  13.275   5.979  1.00  0.00     0.039 C 
BRANCH  13  17
ATOM     17  C   UNL     1     -13.561  14.365   3.455  1.00  0.00     0.066 CG0
ATOM     18  G   UNL     1     -14.908  14.784   2.898  1.00  0.00     0.000 G0
ENDBRANCH  13  17
ENDBRANCH  11  13
ENDBRANCH  10  11
ENDBRANCH   1  10
TORSDOF 0
ENDMDL
MODEL 2
REMARK VINA RESULT:    -4.405      1.450      4.490
REMARK INTER + INTRA:          -5.569
REMARK INTER:                  -7.012
REMARK INTRA:                   1.443
REMARK UNBOUND:                 0.638
REMARK SMILES CC1=CCC(=C(C)C)C(=O)CC(C)=CCC1
REMARK SMILES IDX 12 1 14 2 13 3 15 4 16 5 2 6 1 7 3 8 11 10 9 11 10 12 5 13
REMARK SMILES IDX 6 14 7 15 8 16 4 17
REMARK H PARENT
REMARK Flexibility Score: 60.00
ROOT
ATOM      1  C   UNL     1     -12.884  10.252   2.773  1.00  0.00    -0.070 C 
ATOM      2  C   UNL     1     -12.648  10.160   4.101  1.00  0.00    -0.027 C 
ATOM      3  C   UNL     1     -11.734   9.997   1.833  1.00  0.00     0.039 C 
ENDROOT
BRANCH   2   4
ATOM      4  C   UNL     1     -13.687  10.285   5.194  1.00  0.00     0.032 C 
BRANCH   4   5
ATOM      5  C   UNL     1     -13.808  11.692   5.815  1.00  0.00     0.034 C 
BRANCH   5   6
ATOM      6  C   UNL     1     -12.923  12.723   5.137  1.00  0.00    -0.077 C 
ATOM      7  C   UNL     1     -11.560  12.977   5.730  1.00  0.00     0.039 C 
ATOM      8  C   UNL     1     -13.250  13.379   3.996  1.00  0.00    -0.023 CG0
ATOM      9  G   UNL     1     -14.562  13.298   3.239  1.00  0.00     0.000 G0
ENDBRANCH   5   6
ENDBRANCH   4   5
ENDBRANCH   2   4
BRANCH   1  10
ATOM     10  C   UNL     1     -14.258  10.505   2.189  1.00  0.00     0.111 C 
BRANCH  10  11
ATOM     11  C   UNL     1     -14.257  11.686   1.254  1.00  0.00     0.163 C 
ATOM     12  O   UNL     1     -14.231  11.461   0.014  1.00  0.00    -0.294 OA
BRANCH  11  13
ATOM     13  C   UNL     1     -14.345  13.094   1.741  1.00  0.00    -0.002 C 
ATOM     14  C   UNL     1     -14.321  14.141   0.862  1.00  0.00    -0.069 C 
ATOM     15  C   UNL     1     -14.046  13.923  -0.610  1.00  0.00     0.039 C 
ATOM     16  C   UNL     1     -14.567  15.567   1.307  1.00  0.00     0.039 C 
BRANCH  13  17
ATOM     17  C   UNL     1     -14.559  13.302   3.232  1.00  0.00     0.066 CG0
ATOM     18  G   UNL     1     -13.251  13.386   3.995  1.00  0.00     0.000 G0
ENDBRANCH  13  17
ENDBRANCH  11  13
ENDBRANCH  10  11
ENDBRANCH   1  10
TORSDOF 0
ENDMDL
MODEL 3
REMARK VINA RESULT:    -4.285      2.080      4.044
REMARK INTER + INTRA:          -5.400
REMARK INTER:                  -6.071
REMARK INTRA:                   0.671
REMARK UNBOUND:                 0.638
REMARK SMILES CC1=CCC(=C(C)C)C(=O)CC(C)=CCC1
REMARK SMILES IDX 12 1 14 2 13 3 15 4 16 5 2 6 1 7 3 8 11 10 9 11 10 12 5 13
REMARK SMILES IDX 6 14 7 15 8 16 4 17
REMARK H PARENT
REMARK Flexibility Score: 60.00
ROOT
ATOM      1  C   UNL     1     -14.233  14.011   2.151  1.00  0.00    -0.070 C 
ATOM      2  C   UNL     1     -14.312  13.389   0.954  1.00  0.00    -0.027 C 
ATOM      3  C   UNL     1     -15.085  15.235   2.368  1.00  0.00     0.039 C 
ENDROOT
BRANCH   2   4
ATOM      4  C   UNL     1     -13.613  12.100   0.580  1.00  0.00     0.032 C 
BRANCH   4   5
ATOM      5  C   UNL     1     -13.990  10.883   1.450  1.00  0.00     0.034 C 
BRANCH   5   6
ATOM      6  C   UNL     1     -12.784  10.186   2.056  1.00  0.00    -0.077 C 
ATOM      7  C   UNL     1     -11.623   9.876   1.145  1.00  0.00     0.039 C 
ATOM      8  C   UNL     1     -12.655   9.887   3.372  1.00  0.00    -0.023 CG0
ATOM      9  G   UNL     1     -13.691  10.088   4.461  1.00  0.00     0.000 G0
ENDBRANCH   5   6
ENDBRANCH   4   5
ENDBRANCH   2   4
BRANCH   1  10
ATOM     10  C   UNL     1     -13.407  13.486   3.307  1.00  0.00     0.111 C 
BRANCH  10  11
ATOM     11  C   UNL     1     -14.222  12.605   4.218  1.00  0.00     0.163 C 
ATOM     12  O   UNL     1     -15.472  12.767   4.238  1.00  0.00    -0.294 OA
BRANCH  11  13
ATOM     13  C   UNL     1     -13.611  11.518   5.040  1.00  0.00    -0.002 C 
ATOM     14  C   UNL     1     -13.101  11.783   6.280  1.00  0.00    -0.069 C 
ATOM     15  C   UNL     1     -12.993  13.200   6.798  1.00  0.00     0.039 C 
ATOM     16  C   UNL     1     -12.620  10.681   7.200  1.00  0.00     0.039 C 
BRANCH  13  17
ATOM     17  C   UNL     1     -13.670  10.106   4.479  1.00  0.00     0.066 CG0
ATOM     18  G   UNL     1     -12.649   9.879   3.381  1.00  0.00     0.000 G0
ENDBRANCH  13  17
ENDBRANCH  11  13
ENDBRANCH  10  11
ENDBRANCH   1  10
TORSDOF 0
ENDMDL
MODEL 4
REMARK VINA RESULT:    -3.567      1.278      2.043
REMARK INTER + INTRA:          -4.389
REMARK INTER:                  -4.962
REMARK INTRA:                   0.573
REMARK UNBOUND:                 0.638
REMARK SMILES CC1=CCC(=C(C)C)C(=O)CC(C)=CCC1
REMARK SMILES IDX 12 1 14 2 13 3 15 4 16 5 2 6 1 7 3 8 11 10 9 11 10 12 5 13
REMARK SMILES IDX 6 14 7 15 8 16 4 17
REMARK H PARENT
REMARK Flexibility Score: 60.00
ROOT
ATOM      1  C   UNL     1     -13.286  10.696   2.299  1.00  0.00    -0.070 C 
ATOM      2  C   UNL     1     -13.318  11.380   1.133  1.00  0.00    -0.027 C 
ATOM      3  C   UNL     1     -12.026   9.943   2.640  1.00  0.00     0.039 C 
ENDROOT
BRANCH   2   4
ATOM      4  C   UNL     1     -14.448  12.269   0.662  1.00  0.00     0.032 C 
BRANCH   4   5
ATOM      5  C   UNL     1     -14.061  13.745   0.438  1.00  0.00     0.034 C 
BRANCH   5   6
ATOM      6  C   UNL     1     -14.560  14.666   1.538  1.00  0.00    -0.077 C 
ATOM      7  C   UNL     1     -15.748  15.545   1.232  1.00  0.00     0.039 C 
ATOM      8  C   UNL     1     -14.053  14.701   2.795  1.00  0.00    -0.023 CG0
ATOM      9  G   UNL     1     -12.859  13.928   3.320  1.00  0.00     0.000 G0
ENDBRANCH   5   6
ENDBRANCH   4   5
ENDBRANCH   2   4
BRANCH   1  10
ATOM     10  C   UNL     1     -14.411  10.728   3.312  1.00  0.00     0.111 C 
BRANCH  10  11
ATOM     11  C   UNL     1     -14.474  12.051   4.031  1.00  0.00     0.163 C 
ATOM     12  O   UNL     1     -15.599  12.455   4.432  1.00  0.00    -0.294 OA
BRANCH  11  13
ATOM     13  C   UNL     1     -13.255  12.857   4.335  1.00  0.00    -0.002 C 
ATOM     14  C   UNL     1     -12.489  12.580   5.433  1.00  0.00    -0.069 C 
ATOM     15  C   UNL     1     -12.930  11.558   6.459  1.00  0.00     0.039 C 
ATOM     16  C   UNL     1     -11.167  13.272   5.682  1.00  0.00     0.039 C 
BRANCH  13  17
ATOM     17  C   UNL     1     -12.858  13.923   3.327  1.00  0.00     0.066 CG0
ATOM     18  G   UNL     1     -14.055  14.692   2.800  1.00  0.00     0.000 G0
ENDBRANCH  13  17
ENDBRANCH  11  13
ENDBRANCH  10  11
ENDBRANCH   1  10
TORSDOF 0
ENDMDL
MODEL 5
REMARK VINA RESULT:    -3.437      1.820      5.175
REMARK INTER + INTRA:          -4.205
REMARK INTER:                  -4.801
REMARK INTRA:                   0.596
REMARK UNBOUND:                 0.638
REMARK SMILES CC1=CCC(=C(C)C)C(=O)CC(C)=CCC1
REMARK SMILES IDX 12 1 14 2 13 3 15 4 16 5 2 6 1 7 3 8 11 10 9 11 10 12 5 13
REMARK SMILES IDX 6 14 7 15 8 16 4 17
REMARK H PARENT
REMARK Flexibility Score: 60.00
ROOT
ATOM      1  C   UNL     1     -13.103  12.489   5.355  1.00  0.00    -0.070 C 
ATOM      2  C   UNL     1     -12.953  11.151   5.466  1.00  0.00    -0.027 C 
ATOM      3  C   UNL     1     -13.434  13.268   6.602  1.00  0.00     0.039 C 
ENDROOT
BRANCH   2   4
ATOM      4  C   UNL     1     -12.528  10.214   4.356  1.00  0.00     0.032 C 
BRANCH   4   5
ATOM      5  C   UNL     1     -13.505  10.137   3.164  1.00  0.00     0.034 C 
BRANCH   5   6
ATOM      6  C   UNL     1     -12.878  10.565   1.849  1.00  0.00    -0.077 C 
ATOM      7  C   UNL     1     -11.606   9.875   1.422  1.00  0.00     0.039 C 
ATOM      8  C   UNL     1     -13.421  11.473   1.002  1.00  0.00    -0.023 CG0
ATOM      9  G   UNL     1     -14.673  12.298   1.228  1.00  0.00     0.000 G0
ENDBRANCH   5   6
ENDBRANCH   4   5
ENDBRANCH   2   4
BRANCH   1  10
ATOM     10  C   UNL     1     -12.865  13.248   4.066  1.00  0.00     0.111 C 
BRANCH  10  11
ATOM     11  C   UNL     1     -14.160  13.621   3.392  1.00  0.00     0.163 C 
ATOM     12  O   UNL     1     -15.124  13.984   4.119  1.00  0.00    -0.294 OA
BRANCH  11  13
ATOM     13  C   UNL     1     -14.317  13.634   1.908  1.00  0.00    -0.002 C 
ATOM     14  C   UNL     1     -14.081  14.773   1.190  1.00  0.00    -0.069 C 
ATOM     15  C   UNL     1     -13.809  16.093   1.879  1.00  0.00     0.039 C 
ATOM     16  C   UNL     1     -14.078  14.779  -0.324  1.00  0.00     0.039 C 
BRANCH  13  17
ATOM     17  C   UNL     1     -14.653  12.314   1.233  1.00  0.00     0.066 CG0
ATOM     18  G   UNL     1     -13.420  11.473   0.965  1.00  0.00     0.000 G0
ENDBRANCH  13  17
ENDBRANCH  11  13
ENDBRANCH  10  11
ENDBRANCH   1  10
TORSDOF 0
ENDMDL
MODEL 6
REMARK VINA RESULT:    -2.733      1.759      2.440
REMARK INTER + INTRA:          -3.214
REMARK INTER:                  -4.082
REMARK INTRA:                   0.868
REMARK UNBOUND:                 0.638
REMARK SMILES CC1=CCC(=C(C)C)C(=O)CC(C)=CCC1
REMARK SMILES IDX 12 1 14 2 13 3 15 4 16 5 2 6 1 7 3 8 11 10 9 11 10 12 5 13
REMARK SMILES IDX 6 14 7 15 8 16 4 17
REMARK H PARENT
REMARK Flexibility Score: 60.00
ROOT
ATOM      1  C   UNL     1     -12.997  11.282   2.261  1.00  0.00    -0.070 C 
ATOM      2  C   UNL     1     -13.829  11.492   1.217  1.00  0.00    -0.027 C 
ATOM      3  C   UNL     1     -12.862   9.875   2.784  1.00  0.00     0.039 C 
ENDROOT
BRANCH   2   4
ATOM      4  C   UNL     1     -14.024  12.807   0.494  1.00  0.00     0.032 C 
BRANCH   4   5
ATOM      5  C   UNL     1     -15.137  13.706   1.072  1.00  0.00     0.034 C 
BRANCH   5   6
ATOM      6  C   UNL     1     -14.637  14.663   2.140  1.00  0.00    -0.077 C 
ATOM      7  C   UNL     1     -14.148  16.019   1.693  1.00  0.00     0.039 C 
ATOM      8  C   UNL     1     -14.666  14.408   3.471  1.00  0.00    -0.023 CG0
ATOM      9  G   UNL     1     -15.096  13.118   4.144  1.00  0.00     0.000 G0
ENDBRANCH   5   6
ENDBRANCH   4   5
ENDBRANCH   2   4
BRANCH   1  10
ATOM     10  C   UNL     1     -12.129  12.368   2.864  1.00  0.00     0.111 C 
BRANCH  10  11
ATOM     11  C   UNL     1     -12.534  12.680   4.282  1.00  0.00     0.163 C 
ATOM     12  O   UNL     1     -11.692  13.250   5.027  1.00  0.00    -0.294 OA
BRANCH  11  13
ATOM     13  C   UNL     1     -13.902  12.394   4.806  1.00  0.00    -0.002 C 
ATOM     14  C   UNL     1     -14.078  11.606   5.910  1.00  0.00    -0.069 C 
ATOM     15  C   UNL     1     -12.915  10.872   6.542  1.00  0.00     0.039 C 
ATOM     16  C   UNL     1     -15.433  11.427   6.558  1.00  0.00     0.039 C 
BRANCH  13  17
ATOM     17  C   UNL     1     -15.068  13.090   4.122  1.00  0.00     0.066 CG0
ATOM     18  G   UNL     1     -14.659  14.401   3.478  1.00  0.00     0.000 G0
ENDBRANCH  13  17
ENDBRANCH  11  13
ENDBRANCH  10  11
ENDBRANCH   1  10
TORSDOF 0
ENDMDL
MODEL 7
REMARK VINA RESULT:    -2.699      1.730      3.509
REMARK INTER + INTRA:          -3.166
REMARK INTER:                  -4.096
REMARK INTRA:                   0.930
REMARK UNBOUND:                 0.638
REMARK SMILES CC1=CCC(=C(C)C)C(=O)CC(C)=CCC1
REMARK SMILES IDX 12 1 14 2 13 3 15 4 16 5 2 6 1 7 3 8 11 10 9 11 10 12 5 13
REMARK SMILES IDX 6 14 7 15 8 16 4 17
REMARK H PARENT
REMARK Flexibility Score: 60.00
ROOT
ATOM      1  C   UNL     1     -14.921  14.297   0.881  1.00  0.00    -0.070 C 
ATOM      2  C   UNL     1     -14.950  14.975   2.050  1.00  0.00    -0.027 C 
ATOM      3  C   UNL     1     -15.990  14.601  -0.137  1.00  0.00     0.039 C 
ENDROOT
BRANCH   2   4
ATOM      4  C   UNL     1     -13.916  14.880   3.151  1.00  0.00     0.032 C 
BRANCH   4   5
ATOM      5  C   UNL     1     -14.459  14.392   4.510  1.00  0.00     0.034 C 
BRANCH   5   6
ATOM      6  C   UNL     1     -13.755  13.148   5.023  1.00  0.00    -0.077 C 
ATOM      7  C   UNL     1     -12.870  13.294   6.236  1.00  0.00     0.039 C 
ATOM      8  C   UNL     1     -13.924  11.906   4.507  1.00  0.00    -0.023 CG0
ATOM      9  G   UNL     1     -14.744  11.527   3.289  1.00  0.00     0.000 G0
ENDBRANCH   5   6
ENDBRANCH   4   5
ENDBRANCH   2   4
BRANCH   1  10
ATOM     10  C   UNL     1     -13.822  13.322   0.512  1.00  0.00     0.111 C 
BRANCH  10  11
ATOM     11  C   UNL     1     -14.216  11.899   0.811  1.00  0.00     0.163 C 
ATOM     12  O   UNL     1     -14.830  11.254  -0.081  1.00  0.00    -0.294 OA
BRANCH  11  13
ATOM     13  C   UNL     1     -13.854  11.219   2.089  1.00  0.00    -0.002 C 
ATOM     14  C   UNL     1     -12.728  10.448   2.176  1.00  0.00    -0.069 C 
ATOM     15  C   UNL     1     -11.900  10.129   0.951  1.00  0.00     0.039 C 
ATOM     16  C   UNL     1     -12.250   9.875   3.493  1.00  0.00     0.039 C 
BRANCH  13  17
ATOM     17  C   UNL     1     -14.732  11.498   3.298  1.00  0.00     0.066 CG0
ATOM     18  G   UNL     1     -13.924  11.898   4.518  1.00  0.00     0.000 G0
ENDBRANCH  13  17
ENDBRANCH  11  13
ENDBRANCH  10  11
ENDBRANCH   1  10
TORSDOF 0
ENDMDL
MODEL 8
REMARK VINA RESULT:    -2.536      1.689      4.179
REMARK INTER + INTRA:          -2.935
REMARK INTER:                  -4.738
REMARK INTRA:                   1.803
REMARK UNBOUND:                 0.638
REMARK SMILES CC1=CCC(=C(C)C)C(=O)CC(C)=CCC1
REMARK SMILES IDX 12 1 14 2 13 3 15 4 16 5 2 6 1 7 3 8 11 10 9 11 10 12 5 13
REMARK SMILES IDX 6 14 7 15 8 16 4 17
REMARK H PARENT
REMARK Flexibility Score: 60.00
ROOT
ATOM      1  C   UNL     1     -15.275  15.366   1.718  1.00  0.00    -0.070 C 
ATOM      2  C   UNL     1     -15.605  15.130   3.008  1.00  0.00    -0.027 C 
ATOM      3  C   UNL     1     -16.216  16.204   0.891  1.00  0.00     0.039 C 
ENDROOT
BRANCH   2   4
ATOM      4  C   UNL     1     -14.750  14.398   4.019  1.00  0.00     0.032 C 
BRANCH   4   5
ATOM      5  C   UNL     1     -15.103  12.909   4.209  1.00  0.00     0.034 C 
BRANCH   5   6
ATOM      6  C   UNL     1     -13.899  12.048   4.549  1.00  0.00    -0.077 C 
ATOM      7  C   UNL     1     -13.965  11.214   5.804  1.00  0.00     0.039 C 
ATOM      8  C   UNL     1     -12.799  11.927   3.765  1.00  0.00    -0.023 CG0
ATOM      9  G   UNL     1     -12.507  12.676   2.479  1.00  0.00     0.000 G0
ENDBRANCH   5   6
ENDBRANCH   4   5
ENDBRANCH   2   4
BRANCH   1  10
ATOM     10  C   UNL     1     -13.970  14.911   1.098  1.00  0.00     0.111 C 
BRANCH  10  11
ATOM     11  C   UNL     1     -14.055  13.490   0.604  1.00  0.00     0.163 C 
ATOM     12  O   UNL     1     -14.599  13.281  -0.513  1.00  0.00    -0.294 OA
BRANCH  11  13
ATOM     13  C   UNL     1     -13.468  12.343   1.358  1.00  0.00    -0.002 C 
ATOM     14  C   UNL     1     -13.741  11.053   0.994  1.00  0.00    -0.069 C 
ATOM     15  C   UNL     1     -14.763  10.741  -0.077  1.00  0.00     0.039 C 
ATOM     16  C   UNL     1     -13.040   9.875   1.634  1.00  0.00     0.039 C 
BRANCH  13  17
ATOM     17  C   UNL     1     -12.490  12.673   2.474  1.00  0.00     0.066 CG0
ATOM     18  G   UNL     1     -12.806  11.927   3.757  1.00  0.00     0.000 G0
ENDBRANCH  13  17
ENDBRANCH  11  13
ENDBRANCH  10  11
ENDBRANCH   1  10
TORSDOF 0
ENDMDL
MODEL 9
REMARK VINA RESULT:    -2.489      1.687      4.747
REMARK INTER + INTRA:          -2.869
REMARK INTER:                  -3.081
REMARK INTRA:                   0.212
REMARK UNBOUND:                 0.638
REMARK SMILES CC1=CCC(=C(C)C)C(=O)CC(C)=CCC1
REMARK SMILES IDX 12 1 14 2 13 3 15 4 16 5 2 6 1 7 3 8 11 10 9 11 10 12 5 13
REMARK SMILES IDX 6 14 7 15 8 16 4 17
REMARK H PARENT
REMARK Flexibility Score: 60.00
ROOT
ATOM      1  C   UNL     1     -14.098  12.561   4.315  1.00  0.00    -0.070 C 
ATOM      2  C   UNL     1     -13.619  11.452   3.707  1.00  0.00    -0.027 C 
ATOM      3  C   UNL     1     -13.519  12.937   5.655  1.00  0.00     0.039 C 
ENDROOT
BRANCH   2   4
ATOM      4  C   UNL     1     -14.001  10.967   2.326  1.00  0.00     0.032 C 
BRANCH   4   5
ATOM      5  C   UNL     1     -13.289  11.690   1.165  1.00  0.00     0.034 C 
BRANCH   5   6
ATOM      6  C   UNL     1     -14.226  12.067   0.031  1.00  0.00    -0.077 C 
ATOM      7  C   UNL     1     -14.865  10.948  -0.752  1.00  0.00     0.039 C 
ATOM      8  C   UNL     1     -14.580  13.339  -0.278  1.00  0.00    -0.023 CG0
ATOM      9  G   UNL     1     -14.055  14.613   0.356  1.00  0.00     0.000 G0
ENDBRANCH   5   6
ENDBRANCH   4   5
ENDBRANCH   2   4
BRANCH   1  10
ATOM     10  C   UNL     1     -15.114  13.485   3.676  1.00  0.00     0.111 C 
BRANCH  10  11
ATOM     11  C   UNL     1     -14.448  14.604   2.918  1.00  0.00     0.163 C 
ATOM     12  O   UNL     1     -13.436  15.150   3.434  1.00  0.00    -0.294 OA
BRANCH  11  13
ATOM     13  C   UNL     1     -14.905  15.039   1.565  1.00  0.00    -0.002 C 
ATOM     14  C   UNL     1     -15.989  15.859   1.423  1.00  0.00    -0.069 C 
ATOM     15  C   UNL     1     -16.855  16.226   2.609  1.00  0.00     0.039 C 
ATOM     16  C   UNL     1     -16.382  16.443   0.084  1.00  0.00     0.039 C 
BRANCH  13  17
ATOM     17  C   UNL     1     -14.060  14.610   0.375  1.00  0.00     0.066 CG0
ATOM     18  G   UNL     1     -14.578  13.340  -0.271  1.00  0.00     0.000 G0
ENDBRANCH  13  17
ENDBRANCH  11  13
ENDBRANCH  10  11
ENDBRANCH   1  10
TORSDOF 0
ENDMDL
