MODEL 1
REMARK VINA RESULT:    -2.653      0.000      0.000
REMARK INTER + INTRA:          -3.205
REMARK INTER:                  -3.195
REMARK INTRA:                  -0.010
REMARK UNBOUND:                -0.010
REMARK SMILES CCCCCO
REMARK SMILES IDX 4 1 3 2 2 3 1 4 5 5 6 6
REMARK H PARENT 6 7
REMARK Flexibility Score: inf
ROOT
ATOM      1  C   UNL     1      -1.550   4.556  -1.124  1.00  0.00     0.028 C 
ENDROOT
BRANCH   1   2
ATOM      2  C   UNL     1      -1.901   6.050  -1.104  1.00  0.00     0.002 C 
BRANCH   2   3
ATOM      3  C   UNL     1      -1.269   6.746   0.108  1.00  0.00    -0.003 C 
ATOM      4  C   UNL     1      -1.013   8.222  -0.177  1.00  0.00     0.004 C 
ENDBRANCH   2   3
ENDBRANCH   1   2
BRANCH   1   5
ATOM      5  C   UNL     1      -1.590   3.983  -2.545  1.00  0.00     0.156 C 
BRANCH   5   6
ATOM      6  O   UNL     1      -1.868   2.609  -2.523  1.00  0.00    -0.396 OA
ATOM      7  H   UNL     1      -2.742   2.489  -2.981  1.00  0.00     0.210 HD
ENDBRANCH   5   6
ENDBRANCH   1   5
TORSDOF 4
ENDMDL
MODEL 2
REMARK VINA RESULT:    -2.506     11.680     12.142
REMARK INTER + INTRA:          -3.029
REMARK INTER:                  -2.988
REMARK INTRA:                  -0.041
REMARK UNBOUND:                -0.010
REMARK SMILES CCCCCO
REMARK SMILES IDX 4 1 3 2 2 3 1 4 5 5 6 6
REMARK H PARENT 6 7
REMARK Flexibility Score: inf
ROOT
ATOM      1  C   UNL     1      -3.673  -5.361   3.777  1.00  0.00     0.028 C 
ENDROOT
BRANCH   1   2
ATOM      2  C   UNL     1      -2.842  -5.786   4.995  1.00  0.00     0.002 C 
BRANCH   2   3
ATOM      3  C   UNL     1      -2.343  -4.562   5.772  1.00  0.00    -0.003 C 
ATOM      4  C   UNL     1      -0.979  -4.827   6.401  1.00  0.00     0.004 C 
ENDBRANCH   2   3
ENDBRANCH   1   2
BRANCH   1   5
ATOM      5  C   UNL     1      -4.826  -4.433   4.173  1.00  0.00     0.156 C 
BRANCH   5   6
ATOM      6  O   UNL     1      -4.704  -3.185   3.545  1.00  0.00    -0.396 OA
ATOM      7  H   UNL     1      -5.611  -2.939   3.223  1.00  0.00     0.210 HD
ENDBRANCH   5   6
ENDBRANCH   1   5
TORSDOF 4
ENDMDL
MODEL 3
REMARK VINA RESULT:    -2.493      3.383      4.867
REMARK INTER + INTRA:          -3.013
REMARK INTER:                  -2.995
REMARK INTRA:                  -0.017
REMARK UNBOUND:                -0.010
REMARK SMILES CCCCCO
REMARK SMILES IDX 4 1 3 2 2 3 1 4 5 5 6 6
REMARK H PARENT 6 7
REMARK Flexibility Score: inf
ROOT
ATOM      1  C   UNL     1      -0.447   8.506   0.642  1.00  0.00     0.028 C 
ENDROOT
BRANCH   1   2
ATOM      2  C   UNL     1      -1.257   7.203   0.650  1.00  0.00     0.002 C 
BRANCH   2   3
ATOM      3  C   UNL     1      -1.648   6.791  -0.775  1.00  0.00    -0.003 C 
ATOM      4  C   UNL     1      -1.606   5.275  -0.942  1.00  0.00     0.004 C 
ENDBRANCH   2   3
ENDBRANCH   1   2
BRANCH   1   5
ATOM      5  C   UNL     1       0.087   8.851   2.036  1.00  0.00     0.156 C 
BRANCH   5   6
ATOM      6  O   UNL     1      -0.037   7.757   2.905  1.00  0.00    -0.396 OA
ATOM      7  H   UNL     1      -0.267   6.972   2.342  1.00  0.00     0.210 HD
ENDBRANCH   5   6
ENDBRANCH   1   5
TORSDOF 4
ENDMDL
MODEL 4
REMARK VINA RESULT:    -2.455      7.868      8.214
REMARK INTER + INTRA:          -2.967
REMARK INTER:                  -2.949
REMARK INTRA:                  -0.018
REMARK UNBOUND:                -0.010
REMARK SMILES CCCCCO
REMARK SMILES IDX 4 1 3 2 2 3 1 4 5 5 6 6
REMARK H PARENT 6 7
REMARK Flexibility Score: inf
ROOT
ATOM      1  C   UNL     1       6.229   3.936  -2.467  1.00  0.00     0.028 C 
ENDROOT
BRANCH   1   2
ATOM      2  C   UNL     1       5.526   3.082  -1.403  1.00  0.00     0.002 C 
BRANCH   2   3
ATOM      3  C   UNL     1       5.861   3.579   0.008  1.00  0.00    -0.003 C 
ATOM      4  C   UNL     1       6.806   2.616   0.721  1.00  0.00     0.004 C 
ENDBRANCH   2   3
ENDBRANCH   1   2
BRANCH   1   5
ATOM      5  C   UNL     1       5.298   5.012  -3.037  1.00  0.00     0.156 C 
BRANCH   5   6
ATOM      6  O   UNL     1       5.978   6.227  -3.204  1.00  0.00    -0.396 OA
ATOM      7  H   UNL     1       6.708   6.238  -2.530  1.00  0.00     0.210 HD
ENDBRANCH   5   6
ENDBRANCH   1   5
TORSDOF 4
ENDMDL
MODEL 5
REMARK VINA RESULT:    -2.424      7.510      7.858
REMARK INTER + INTRA:          -2.929
REMARK INTER:                  -2.872
REMARK INTRA:                  -0.057
REMARK UNBOUND:                -0.010
REMARK SMILES CCCCCO
REMARK SMILES IDX 4 1 3 2 2 3 1 4 5 5 6 6
REMARK H PARENT 6 7
REMARK Flexibility Score: inf
ROOT
ATOM      1  C   UNL     1       5.651   2.511  -1.458  1.00  0.00     0.028 C 
ENDROOT
BRANCH   1   2
ATOM      2  C   UNL     1       6.172   3.719  -2.249  1.00  0.00     0.002 C 
BRANCH   2   3
ATOM      3  C   UNL     1       5.068   4.312  -3.133  1.00  0.00    -0.003 C 
ATOM      4  C   UNL     1       5.264   5.813  -3.325  1.00  0.00     0.004 C 
ENDBRANCH   2   3
ENDBRANCH   1   2
BRANCH   1   5
ATOM      5  C   UNL     1       5.512   2.829   0.036  1.00  0.00     0.156 C 
BRANCH   5   6
ATOM      6  O   UNL     1       5.999   4.112   0.322  1.00  0.00    -0.396 OA
ATOM      7  H   UNL     1       6.983   4.080   0.186  1.00  0.00     0.210 HD
ENDBRANCH   5   6
ENDBRANCH   1   5
TORSDOF 4
ENDMDL
MODEL 6
REMARK VINA RESULT:    -2.401      9.246      9.617
REMARK INTER + INTRA:          -2.903
REMARK INTER:                  -2.824
REMARK INTRA:                  -0.079
REMARK UNBOUND:                -0.010
REMARK SMILES CCCCCO
REMARK SMILES IDX 4 1 3 2 2 3 1 4 5 5 6 6
REMARK H PARENT 6 7
REMARK Flexibility Score: inf
ROOT
ATOM      1  C   UNL     1       6.345   1.709   0.068  1.00  0.00     0.028 C 
ENDROOT
BRANCH   1   2
ATOM      2  C   UNL     1       7.658   2.093   0.763  1.00  0.00     0.002 C 
BRANCH   2   3
ATOM      3  C   UNL     1       7.871   1.260   2.033  1.00  0.00    -0.003 C 
ATOM      4  C   UNL     1       7.767   2.127   3.284  1.00  0.00     0.004 C 
ENDBRANCH   2   3
ENDBRANCH   1   2
BRANCH   1   5
ATOM      5  C   UNL     1       5.394   2.905  -0.050  1.00  0.00     0.156 C 
BRANCH   5   6
ATOM      6  O   UNL     1       6.020   4.087   0.374  1.00  0.00    -0.396 OA
ATOM      7  H   UNL     1       5.932   4.115   1.363  1.00  0.00     0.210 HD
ENDBRANCH   5   6
ENDBRANCH   1   5
TORSDOF 4
ENDMDL
MODEL 7
REMARK VINA RESULT:    -2.394      9.058      9.480
REMARK INTER + INTRA:          -2.893
REMARK INTER:                  -2.865
REMARK INTRA:                  -0.028
REMARK UNBOUND:                -0.010
REMARK SMILES CCCCCO
REMARK SMILES IDX 4 1 3 2 2 3 1 4 5 5 6 6
REMARK H PARENT 6 7
REMARK Flexibility Score: inf
ROOT
ATOM      1  C   UNL     1       7.187   1.623   0.955  1.00  0.00     0.028 C 
ENDROOT
BRANCH   1   2
ATOM      2  C   UNL     1       6.588   3.002   0.650  1.00  0.00     0.002 C 
BRANCH   2   3
ATOM      3  C   UNL     1       5.299   2.871  -0.171  1.00  0.00    -0.003 C 
ATOM      4  C   UNL     1       5.525   3.287  -1.621  1.00  0.00     0.004 C 
ENDBRANCH   2   3
ENDBRANCH   1   2
BRANCH   1   5
ATOM      5  C   UNL     1       7.915   1.606   2.304  1.00  0.00     0.156 C 
BRANCH   5   6
ATOM      6  O   UNL     1       7.431   2.617   3.147  1.00  0.00    -0.396 OA
ATOM      7  H   UNL     1       7.598   3.479   2.681  1.00  0.00     0.210 HD
ENDBRANCH   5   6
ENDBRANCH   1   5
TORSDOF 4
ENDMDL
MODEL 8
REMARK VINA RESULT:    -2.355      8.168      8.674
REMARK INTER + INTRA:          -2.847
REMARK INTER:                  -2.739
REMARK INTRA:                  -0.107
REMARK UNBOUND:                -0.010
REMARK SMILES CCCCCO
REMARK SMILES IDX 4 1 3 2 2 3 1 4 5 5 6 6
REMARK H PARENT 6 7
REMARK Flexibility Score: inf
ROOT
ATOM      1  C   UNL     1       6.744   2.653   0.723  1.00  0.00     0.028 C 
ENDROOT
BRANCH   1   2
ATOM      2  C   UNL     1       5.448   2.981  -0.030  1.00  0.00     0.002 C 
BRANCH   2   3
ATOM      3  C   UNL     1       5.750   3.599  -1.400  1.00  0.00    -0.003 C 
ATOM      4  C   UNL     1       5.786   2.532  -2.489  1.00  0.00     0.004 C 
ENDBRANCH   2   3
ENDBRANCH   1   2
BRANCH   1   5
ATOM      5  C   UNL     1       6.982   1.141   0.810  1.00  0.00     0.156 C 
BRANCH   5   6
ATOM      6  O   UNL     1       5.833   0.430   0.436  1.00  0.00    -0.396 OA
ATOM      7  H   UNL     1       5.585  -0.138   1.212  1.00  0.00     0.210 HD
ENDBRANCH   5   6
ENDBRANCH   1   5
TORSDOF 4
ENDMDL
MODEL 9
REMARK VINA RESULT:    -2.317      8.653      9.001
REMARK INTER + INTRA:          -2.800
REMARK INTER:                  -2.710
REMARK INTRA:                  -0.091
REMARK UNBOUND:                -0.010
REMARK SMILES CCCCCO
REMARK SMILES IDX 4 1 3 2 2 3 1 4 5 5 6 6
REMARK H PARENT 6 7
REMARK Flexibility Score: inf
ROOT
ATOM      1  C   UNL     1       5.650   3.445  -1.480  1.00  0.00     0.028 C 
ENDROOT
BRANCH   1   2
ATOM      2  C   UNL     1       5.827   3.407   0.044  1.00  0.00     0.002 C 
BRANCH   2   3
ATOM      3  C   UNL     1       6.376   2.049   0.498  1.00  0.00    -0.003 C 
ATOM      4  C   UNL     1       7.495   2.223   1.521  1.00  0.00     0.004 C 
ENDBRANCH   2   3
ENDBRANCH   1   2
BRANCH   1   5
ATOM      5  C   UNL     1       6.980   3.227  -2.211  1.00  0.00     0.156 C 
BRANCH   5   6
ATOM      6  O   UNL     1       7.921   4.198  -1.841  1.00  0.00    -0.396 OA
ATOM      7  H   UNL     1       7.410   4.951  -1.441  1.00  0.00     0.210 HD
ENDBRANCH   5   6
ENDBRANCH   1   5
TORSDOF 4
ENDMDL
