MODEL 1
REMARK VINA RESULT:    -4.178      0.000      0.000
REMARK INTER + INTRA:          -6.471
REMARK INTER:                  -6.376
REMARK INTRA:                  -0.095
REMARK UNBOUND:                -0.095
REMARK SMILES CC1=CCC[C@@H](C)C(=O)C[C@H](C(C)C)C(=O)C1
REMARK SMILES IDX 8 1 9 2 6 3 7 4 5 5 4 6 3 7 2 8 1 9 10 11 11 12 15 13 16 14
REMARK SMILES IDX 17 15 12 17 13 18 14 19
REMARK H PARENT
REMARK Flexibility Score: 70.00
ROOT
ATOM      1  C   UNL     1     -15.648  15.098 -31.140  1.00  0.00     0.136 C 
ATOM      2  O   UNL     1     -15.850  15.159 -32.346  1.00  0.00    -0.299 OA
ENDROOT
BRANCH   1   3
ATOM      3  C   UNL     1     -14.320  15.554 -30.579  1.00  0.00     0.053 C 
ATOM      4  C   UNL     1     -14.141  17.059 -30.806  1.00  0.00     0.016 C 
BRANCH   3   5
ATOM      5  C   UNL     1     -13.147  14.766 -31.196  1.00  0.00     0.015 C 
BRANCH   5   6
ATOM      6  C   UNL     1     -13.071  13.310 -30.693  1.00  0.00     0.028 C 
BRANCH   6   7
ATOM      7  C   UNL     1     -12.801  13.249 -29.206  1.00  0.00    -0.028 C 
ATOM      8  C   UNL     1     -13.562  12.657 -28.254  1.00  0.00    -0.070 CG0
ATOM      9  C   UNL     1     -13.106  12.792 -26.821  1.00  0.00     0.039 C 
ATOM     10  G   UNL     1     -14.830  11.866 -28.526  1.00  0.00     0.000 G0
ENDBRANCH   6   7
ENDBRANCH   5   6
ENDBRANCH   3   5
ENDBRANCH   1   3
BRANCH   1  11
ATOM     11  C   UNL     1     -16.744  14.648 -30.202  1.00  0.00     0.087 C 
BRANCH  11  12
ATOM     12  C   UNL     1     -16.730  13.124 -29.916  1.00  0.00     0.066 C 
BRANCH  12  13
ATOM     13  C   UNL     1     -16.053  12.753 -28.604  1.00  0.00     0.140 C 
ATOM     14  O   UNL     1     -16.473  13.265 -27.577  1.00  0.00    -0.299 OA
BRANCH  13  15
ATOM     15  C   UNL     1     -14.836  11.855 -28.516  1.00  0.00     0.106 CG0
ATOM     16  G   UNL     1     -13.575  12.664 -28.267  1.00  0.00     0.000 G0
ENDBRANCH  13  15
ENDBRANCH  12  13
BRANCH  12  17
ATOM     17  C   UNL     1     -18.126  12.439 -30.038  1.00  0.00    -0.006 C 
ATOM     18  C   UNL     1     -19.275  13.420 -29.754  1.00  0.00     0.008 C 
ATOM     19  C   UNL     1     -18.283  11.181 -29.169  1.00  0.00     0.008 C 
ENDBRANCH  12  17
ENDBRANCH  11  12
ENDBRANCH   1  11
TORSDOF 1
ENDMDL
MODEL 2
REMARK VINA RESULT:    -4.153      1.434      4.157
REMARK INTER + INTRA:          -6.433
REMARK INTER:                  -6.510
REMARK INTRA:                   0.078
REMARK UNBOUND:                -0.095
REMARK SMILES CC1=CCC[C@@H](C)C(=O)C[C@H](C(C)C)C(=O)C1
REMARK SMILES IDX 8 1 9 2 6 3 7 4 5 5 4 6 3 7 2 8 1 9 10 11 11 12 15 13 16 14
REMARK SMILES IDX 17 15 12 17 13 18 14 19
REMARK H PARENT
REMARK Flexibility Score: 70.00
ROOT
ATOM      1  C   UNL     1     -16.576  14.194 -29.450  1.00  0.00     0.136 C 
ATOM      2  O   UNL     1     -16.912  15.061 -28.655  1.00  0.00    -0.299 OA
ENDROOT
BRANCH   1   3
ATOM      3  C   UNL     1     -17.250  12.841 -29.412  1.00  0.00     0.053 C 
ATOM      4  C   UNL     1     -18.739  12.983 -29.746  1.00  0.00     0.016 C 
BRANCH   3   5
ATOM      5  C   UNL     1     -17.060  12.156 -28.045  1.00  0.00     0.015 C 
BRANCH   5   6
ATOM      6  C   UNL     1     -15.777  11.301 -27.974  1.00  0.00     0.028 C 
BRANCH   6   7
ATOM      7  C   UNL     1     -14.673  12.018 -27.229  1.00  0.00    -0.028 C 
ATOM      8  C   UNL     1     -13.426  12.301 -27.679  1.00  0.00    -0.070 CG0
ATOM      9  C   UNL     1     -12.480  12.973 -26.714  1.00  0.00     0.039 C 
ATOM     10  G   UNL     1     -12.920  11.998 -29.079  1.00  0.00     0.000 G0
ENDBRANCH   6   7
ENDBRANCH   5   6
ENDBRANCH   3   5
ENDBRANCH   1   3
BRANCH   1  11
ATOM     11  C   UNL     1     -15.554  14.494 -30.522  1.00  0.00     0.087 C 
BRANCH  11  12
ATOM     12  C   UNL     1     -14.096  14.181 -30.093  1.00  0.00     0.066 C 
BRANCH  12  13
ATOM     13  C   UNL     1     -13.747  12.701 -30.144  1.00  0.00     0.140 C 
ATOM     14  O   UNL     1     -14.226  12.028 -31.045  1.00  0.00    -0.299 OA
BRANCH  13  15
ATOM     15  C   UNL     1     -12.912  12.002 -29.090  1.00  0.00     0.106 CG0
ATOM     16  G   UNL     1     -13.440  12.289 -27.694  1.00  0.00     0.000 G0
ENDBRANCH  13  15
ENDBRANCH  12  13
BRANCH  12  17
ATOM     17  C   UNL     1     -13.018  15.035 -30.831  1.00  0.00    -0.006 C 
ATOM     18  C   UNL     1     -11.754  15.227 -29.979  1.00  0.00     0.008 C 
ATOM     19  C   UNL     1     -13.531  16.398 -31.325  1.00  0.00     0.008 C 
ENDBRANCH  12  17
ENDBRANCH  11  12
ENDBRANCH   1  11
TORSDOF 1
ENDMDL
MODEL 3
REMARK VINA RESULT:    -3.940      2.223      4.192
REMARK INTER + INTRA:          -6.108
REMARK INTER:                  -5.924
REMARK INTRA:                  -0.184
REMARK UNBOUND:                -0.095
REMARK SMILES CC1=CCC[C@@H](C)C(=O)C[C@H](C(C)C)C(=O)C1
REMARK SMILES IDX 8 1 9 2 6 3 7 4 5 5 4 6 3 7 2 8 1 9 10 11 11 12 15 13 16 14
REMARK SMILES IDX 17 15 12 17 13 18 14 19
REMARK H PARENT
REMARK Flexibility Score: 70.00
ROOT
ATOM      1  C   UNL     1     -13.692  12.138 -29.772  1.00  0.00     0.136 C 
ATOM      2  O   UNL     1     -13.824  11.315 -28.875  1.00  0.00    -0.299 OA
ENDROOT
BRANCH   1   3
ATOM      3  C   UNL     1     -12.331  12.735 -30.045  1.00  0.00     0.053 C 
ATOM      4  C   UNL     1     -11.300  11.622 -30.263  1.00  0.00     0.016 C 
BRANCH   3   5
ATOM      5  C   UNL     1     -11.887  13.673 -28.905  1.00  0.00     0.015 C 
BRANCH   5   6
ATOM      6  C   UNL     1     -11.991  15.166 -29.281  1.00  0.00     0.028 C 
BRANCH   6   7
ATOM      7  C   UNL     1     -11.790  15.381 -30.764  1.00  0.00    -0.028 C 
ATOM      8  C   UNL     1     -12.719  15.762 -31.674  1.00  0.00    -0.070 CG0
ATOM      9  C   UNL     1     -12.281  15.844 -33.117  1.00  0.00     0.039 C 
ATOM     10  G   UNL     1     -14.160  16.117 -31.346  1.00  0.00     0.000 G0
ENDBRANCH   6   7
ENDBRANCH   5   6
ENDBRANCH   3   5
ENDBRANCH   1   3
BRANCH   1  11
ATOM     11  C   UNL     1     -14.862  12.498 -30.659  1.00  0.00     0.087 C 
BRANCH  11  12
ATOM     12  C   UNL     1     -15.409  13.928 -30.414  1.00  0.00     0.066 C 
BRANCH  12  13
ATOM     13  C   UNL     1     -15.070  14.913 -31.524  1.00  0.00     0.140 C 
ATOM     14  O   UNL     1     -15.498  14.683 -32.646  1.00  0.00    -0.299 OA
BRANCH  13  15
ATOM     15  C   UNL     1     -14.160  16.109 -31.332  1.00  0.00     0.106 CG0
ATOM     16  G   UNL     1     -12.717  15.756 -31.648  1.00  0.00     0.000 G0
ENDBRANCH  13  15
ENDBRANCH  12  13
BRANCH  12  17
ATOM     17  C   UNL     1     -16.930  13.978 -30.069  1.00  0.00    -0.006 C 
ATOM     18  C   UNL     1     -17.179  13.938 -28.553  1.00  0.00     0.008 C 
ATOM     19  C   UNL     1     -17.765  12.892 -30.767  1.00  0.00     0.008 C 
ENDBRANCH  12  17
ENDBRANCH  11  12
ENDBRANCH   1  11
TORSDOF 1
ENDMDL
MODEL 4
REMARK VINA RESULT:    -3.760      2.045      4.916
REMARK INTER + INTRA:          -5.834
REMARK INTER:                  -5.817
REMARK INTRA:                  -0.017
REMARK UNBOUND:                -0.095
REMARK SMILES CC1=CCC[C@@H](C)C(=O)C[C@H](C(C)C)C(=O)C1
REMARK SMILES IDX 8 1 9 2 6 3 7 4 5 5 4 6 3 7 2 8 1 9 10 11 11 12 15 13 16 14
REMARK SMILES IDX 17 15 12 17 13 18 14 19
REMARK H PARENT
REMARK Flexibility Score: 70.00
ROOT
ATOM      1  C   UNL     1     -11.843  13.600 -28.463  1.00  0.00     0.136 C 
ATOM      2  O   UNL     1     -10.968  12.815 -28.801  1.00  0.00    -0.299 OA
ENDROOT
BRANCH   1   3
ATOM      3  C   UNL     1     -12.593  13.375 -27.170  1.00  0.00     0.053 C 
ATOM      4  C   UNL     1     -11.620  13.393 -25.985  1.00  0.00     0.016 C 
BRANCH   3   5
ATOM      5  C   UNL     1     -13.387  12.054 -27.202  1.00  0.00     0.015 C 
BRANCH   5   6
ATOM      6  C   UNL     1     -14.272  11.916 -28.459  1.00  0.00     0.028 C 
BRANCH   6   7
ATOM      7  C   UNL     1     -15.575  12.669 -28.306  1.00  0.00    -0.028 C 
ATOM      8  C   UNL     1     -16.124  13.549 -29.178  1.00  0.00    -0.070 CG0
ATOM      9  C   UNL     1     -17.410  14.222 -28.763  1.00  0.00     0.039 C 
ATOM     10  G   UNL     1     -15.544  13.899 -30.538  1.00  0.00     0.000 G0
ENDBRANCH   6   7
ENDBRANCH   5   6
ENDBRANCH   3   5
ENDBRANCH   1   3
BRANCH   1  11
ATOM     11  C   UNL     1     -12.120  14.837 -29.285  1.00  0.00     0.087 C 
BRANCH  11  12
ATOM     12  C   UNL     1     -12.951  14.558 -30.565  1.00  0.00     0.066 C 
BRANCH  12  13
ATOM     13  C   UNL     1     -14.422  14.929 -30.434  1.00  0.00     0.140 C 
ATOM     14  O   UNL     1     -14.699  16.085 -30.150  1.00  0.00    -0.299 OA
BRANCH  13  15
ATOM     15  C   UNL     1     -15.551  13.925 -30.548  1.00  0.00     0.106 CG0
ATOM     16  G   UNL     1     -16.108  13.569 -29.181  1.00  0.00     0.000 G0
ENDBRANCH  13  15
ENDBRANCH  12  13
BRANCH  12  17
ATOM     17  C   UNL     1     -12.337  15.159 -31.867  1.00  0.00    -0.006 C 
ATOM     18  C   UNL     1     -13.391  15.340 -32.971  1.00  0.00     0.008 C 
ATOM     19  C   UNL     1     -11.135  14.372 -32.413  1.00  0.00     0.008 C 
ENDBRANCH  12  17
ENDBRANCH  11  12
ENDBRANCH   1  11
TORSDOF 1
ENDMDL
MODEL 5
REMARK VINA RESULT:    -3.642      1.679      2.207
REMARK INTER + INTRA:          -5.653
REMARK INTER:                  -6.330
REMARK INTRA:                   0.677
REMARK UNBOUND:                -0.095
REMARK SMILES CC1=CCC[C@@H](C)C(=O)C[C@H](C(C)C)C(=O)C1
REMARK SMILES IDX 8 1 9 2 6 3 7 4 5 5 4 6 3 7 2 8 1 9 10 11 11 12 15 13 16 14
REMARK SMILES IDX 17 15 12 17 13 18 14 19
REMARK H PARENT
REMARK Flexibility Score: 70.00
ROOT
ATOM      1  C   UNL     1     -14.292  14.837 -30.746  1.00  0.00     0.136 C 
ATOM      2  O   UNL     1     -14.928  15.337 -29.828  1.00  0.00    -0.299 OA
ENDROOT
BRANCH   1   3
ATOM      3  C   UNL     1     -12.927  15.383 -31.097  1.00  0.00     0.053 C 
ATOM      4  C   UNL     1     -12.625  15.140 -32.580  1.00  0.00     0.016 C 
BRANCH   3   5
ATOM      5  C   UNL     1     -11.828  14.765 -30.209  1.00  0.00     0.015 C 
BRANCH   5   6
ATOM      6  C   UNL     1     -12.052  15.029 -28.705  1.00  0.00     0.028 C 
BRANCH   6   7
ATOM      7  C   UNL     1     -11.808  13.784 -27.881  1.00  0.00    -0.028 C 
ATOM      8  C   UNL     1     -12.695  12.801 -27.592  1.00  0.00    -0.070 CG0
ATOM      9  C   UNL     1     -12.222  11.687 -26.690  1.00  0.00     0.039 C 
ATOM     10  G   UNL     1     -14.120  12.737 -28.115  1.00  0.00     0.000 G0
ENDBRANCH   6   7
ENDBRANCH   5   6
ENDBRANCH   3   5
ENDBRANCH   1   3
BRANCH   1  11
ATOM     11  C   UNL     1     -14.825  13.625 -31.476  1.00  0.00     0.087 C 
BRANCH  11  12
ATOM     12  C   UNL     1     -15.258  12.474 -30.531  1.00  0.00     0.066 C 
BRANCH  12  13
ATOM     13  C   UNL     1     -14.206  12.101 -29.497  1.00  0.00     0.140 C 
ATOM     14  O   UNL     1     -13.423  11.203 -29.771  1.00  0.00    -0.299 OA
BRANCH  13  15
ATOM     15  C   UNL     1     -14.134  12.721 -28.116  1.00  0.00     0.106 CG0
ATOM     16  G   UNL     1     -12.699  12.804 -27.626  1.00  0.00     0.000 G0
ENDBRANCH  13  15
ENDBRANCH  12  13
BRANCH  12  17
ATOM     17  C   UNL     1     -16.650  12.689 -29.860  1.00  0.00    -0.006 C 
ATOM     18  C   UNL     1     -17.270  11.367 -29.381  1.00  0.00     0.008 C 
ATOM     19  C   UNL     1     -17.655  13.453 -30.738  1.00  0.00     0.008 C 
ENDBRANCH  12  17
ENDBRANCH  11  12
ENDBRANCH   1  11
TORSDOF 1
ENDMDL
MODEL 6
REMARK VINA RESULT:    -3.554      1.997      4.129
REMARK INTER + INTRA:          -5.519
REMARK INTER:                  -5.996
REMARK INTRA:                   0.477
REMARK UNBOUND:                -0.095
REMARK SMILES CC1=CCC[C@@H](C)C(=O)C[C@H](C(C)C)C(=O)C1
REMARK SMILES IDX 8 1 9 2 6 3 7 4 5 5 4 6 3 7 2 8 1 9 10 11 11 12 15 13 16 14
REMARK SMILES IDX 17 15 12 17 13 18 14 19
REMARK H PARENT
REMARK Flexibility Score: 70.00
ROOT
ATOM      1  C   UNL     1     -13.971  12.777 -27.696  1.00  0.00     0.136 C 
ATOM      2  O   UNL     1     -14.472  13.158 -26.646  1.00  0.00    -0.299 OA
ENDROOT
BRANCH   1   3
ATOM      3  C   UNL     1     -12.466  12.746 -27.840  1.00  0.00     0.053 C 
ATOM      4  C   UNL     1     -11.844  11.918 -26.710  1.00  0.00     0.016 C 
BRANCH   3   5
ATOM      5  C   UNL     1     -11.874  14.169 -27.863  1.00  0.00     0.015 C 
BRANCH   5   6
ATOM      6  C   UNL     1     -11.605  14.685 -29.292  1.00  0.00     0.028 C 
BRANCH   6   7
ATOM      7  C   UNL     1     -12.569  15.785 -29.675  1.00  0.00    -0.028 C 
ATOM      8  C   UNL     1     -13.424  15.801 -30.727  1.00  0.00    -0.070 CG0
ATOM      9  C   UNL     1     -14.243  17.053 -30.934  1.00  0.00     0.039 C 
ATOM     10  G   UNL     1     -13.620  14.653 -31.703  1.00  0.00     0.000 G0
ENDBRANCH   6   7
ENDBRANCH   5   6
ENDBRANCH   3   5
ENDBRANCH   1   3
BRANCH   1  11
ATOM     11  C   UNL     1     -14.843  12.258 -28.816  1.00  0.00     0.087 C 
BRANCH  11  12
ATOM     12  C   UNL     1     -15.114  13.306 -29.926  1.00  0.00     0.066 C 
BRANCH  12  13
ATOM     13  C   UNL     1     -14.016  13.383 -30.978  1.00  0.00     0.140 C 
ATOM     14  O   UNL     1     -13.352  12.379 -31.189  1.00  0.00    -0.299 OA
BRANCH  13  15
ATOM     15  C   UNL     1     -13.647  14.657 -31.710  1.00  0.00     0.106 CG0
ATOM     16  G   UNL     1     -13.431  15.805 -30.738  1.00  0.00     0.000 G0
ENDBRANCH  13  15
ENDBRANCH  12  13
BRANCH  12  17
ATOM     17  C   UNL     1     -16.519  13.179 -30.593  1.00  0.00    -0.006 C 
ATOM     18  C   UNL     1     -16.812  14.346 -31.548  1.00  0.00     0.008 C 
ATOM     19  C   UNL     1     -17.674  13.017 -29.591  1.00  0.00     0.008 C 
ENDBRANCH  12  17
ENDBRANCH  11  12
ENDBRANCH   1  11
TORSDOF 1
ENDMDL
MODEL 7
REMARK VINA RESULT:    -3.287      1.569      4.686
REMARK INTER + INTRA:          -5.111
REMARK INTER:                  -5.858
REMARK INTRA:                   0.747
REMARK UNBOUND:                -0.095
REMARK SMILES CC1=CCC[C@@H](C)C(=O)C[C@H](C(C)C)C(=O)C1
REMARK SMILES IDX 8 1 9 2 6 3 7 4 5 5 4 6 3 7 2 8 1 9 10 11 11 12 15 13 16 14
REMARK SMILES IDX 17 15 12 17 13 18 14 19
REMARK H PARENT
REMARK Flexibility Score: 70.00
ROOT
ATOM      1  C   UNL     1     -16.378  12.425 -28.241  1.00  0.00     0.136 C 
ATOM      2  O   UNL     1     -16.084  13.137 -27.289  1.00  0.00    -0.299 OA
ENDROOT
BRANCH   1   3
ATOM      3  C   UNL     1     -17.589  12.761 -29.081  1.00  0.00     0.053 C 
ATOM      4  C   UNL     1     -18.280  11.475 -29.548  1.00  0.00     0.016 C 
BRANCH   3   5
ATOM      5  C   UNL     1     -17.211  13.645 -30.286  1.00  0.00     0.015 C 
BRANCH   5   6
ATOM      6  C   UNL     1     -16.556  14.979 -29.871  1.00  0.00     0.028 C 
BRANCH   6   7
ATOM      7  C   UNL     1     -15.490  15.404 -30.855  1.00  0.00    -0.028 C 
ATOM      8  C   UNL     1     -14.174  15.080 -30.835  1.00  0.00    -0.070 CG0
ATOM      9  C   UNL     1     -13.296  15.688 -31.902  1.00  0.00     0.039 C 
ATOM     10  G   UNL     1     -13.526  14.148 -29.825  1.00  0.00     0.000 G0
ENDBRANCH   6   7
ENDBRANCH   5   6
ENDBRANCH   3   5
ENDBRANCH   1   3
BRANCH   1  11
ATOM     11  C   UNL     1     -15.492  11.265 -28.631  1.00  0.00     0.087 C 
BRANCH  11  12
ATOM     12  C   UNL     1     -14.024  11.674 -28.918  1.00  0.00     0.066 C 
BRANCH  12  13
ATOM     13  C   UNL     1     -13.880  12.696 -30.038  1.00  0.00     0.140 C 
ATOM     14  O   UNL     1     -14.000  12.305 -31.190  1.00  0.00    -0.299 OA
BRANCH  13  15
ATOM     15  C   UNL     1     -13.511  14.146 -29.804  1.00  0.00     0.106 CG0
ATOM     16  G   UNL     1     -14.176  15.053 -30.826  1.00  0.00     0.000 G0
ENDBRANCH  13  15
ENDBRANCH  12  13
BRANCH  12  17
ATOM     17  C   UNL     1     -13.226  12.117 -27.653  1.00  0.00    -0.006 C 
ATOM     18  C   UNL     1     -11.707  12.070 -27.883  1.00  0.00     0.008 C 
ATOM     19  C   UNL     1     -13.589  11.334 -26.380  1.00  0.00     0.008 C 
ENDBRANCH  12  17
ENDBRANCH  11  12
ENDBRANCH   1  11
TORSDOF 1
ENDMDL
MODEL 8
REMARK VINA RESULT:    -2.678      8.832     11.287
REMARK INTER + INTRA:          -4.182
REMARK INTER:                  -5.212
REMARK INTRA:                   1.030
REMARK UNBOUND:                -0.095
REMARK SMILES CC1=CCC[C@@H](C)C(=O)C[C@H](C(C)C)C(=O)C1
REMARK SMILES IDX 8 1 9 2 6 3 7 4 5 5 4 6 3 7 2 8 1 9 10 11 11 12 15 13 16 14
REMARK SMILES IDX 17 15 12 17 13 18 14 19
REMARK H PARENT
REMARK Flexibility Score: 70.00
ROOT
ATOM      1  C   UNL     1     -27.854  13.182 -30.265  1.00  0.00     0.136 C 
ATOM      2  O   UNL     1     -28.592  14.006 -29.742  1.00  0.00    -0.299 OA
ENDROOT
BRANCH   1   3
ATOM      3  C   UNL     1     -28.258  11.726 -30.294  1.00  0.00     0.053 C 
ATOM      4  C   UNL     1     -29.753  11.586 -29.986  1.00  0.00     0.016 C 
BRANCH   3   5
ATOM      5  C   UNL     1     -27.418  10.888 -29.310  1.00  0.00     0.015 C 
BRANCH   5   6
ATOM      6  C   UNL     1     -27.100  11.640 -28.000  1.00  0.00     0.028 C 
BRANCH   6   7
ATOM      7  C   UNL     1     -25.711  11.319 -27.498  1.00  0.00    -0.028 C 
ATOM      8  C   UNL     1     -24.559  11.306 -28.214  1.00  0.00    -0.070 CG0
ATOM      9  C   UNL     1     -23.302  10.887 -27.491  1.00  0.00     0.039 C 
ATOM     10  G   UNL     1     -24.445  11.690 -29.679  1.00  0.00     0.000 G0
ENDBRANCH   6   7
ENDBRANCH   5   6
ENDBRANCH   3   5
ENDBRANCH   1   3
BRANCH   1  11
ATOM     11  C   UNL     1     -26.583  13.622 -30.954  1.00  0.00     0.087 C 
BRANCH  11  12
ATOM     12  C   UNL     1     -25.499  14.150 -29.979  1.00  0.00     0.066 C 
BRANCH  12  13
ATOM     13  C   UNL     1     -24.315  13.208 -29.809  1.00  0.00     0.140 C 
ATOM     14  O   UNL     1     -23.191  13.685 -29.858  1.00  0.00    -0.299 OA
BRANCH  13  15
ATOM     15  C   UNL     1     -24.455  11.706 -29.674  1.00  0.00     0.106 CG0
ATOM     16  G   UNL     1     -24.537  11.292 -28.215  1.00  0.00     0.000 G0
ENDBRANCH  13  15
ENDBRANCH  12  13
BRANCH  12  17
ATOM     17  C   UNL     1     -25.018  15.602 -30.286  1.00  0.00    -0.006 C 
ATOM     18  C   UNL     1     -26.190  16.542 -30.606  1.00  0.00     0.008 C 
ATOM     19  C   UNL     1     -23.958  15.687 -31.397  1.00  0.00     0.008 C 
ENDBRANCH  12  17
ENDBRANCH  11  12
ENDBRANCH   1  11
TORSDOF 1
ENDMDL
MODEL 9
REMARK VINA RESULT:    -2.238     10.880     13.119
REMARK INTER + INTRA:          -3.510
REMARK INTER:                  -3.820
REMARK INTRA:                   0.310
REMARK UNBOUND:                -0.095
REMARK SMILES CC1=CCC[C@@H](C)C(=O)C[C@H](C(C)C)C(=O)C1
REMARK SMILES IDX 8 1 9 2 6 3 7 4 5 5 4 6 3 7 2 8 1 9 10 11 11 12 15 13 16 14
REMARK SMILES IDX 17 15 12 17 13 18 14 19
REMARK H PARENT
REMARK Flexibility Score: 70.00
ROOT
ATOM      1  C   UNL     1     -27.924  18.993 -32.429  1.00  0.00     0.136 C 
ATOM      2  O   UNL     1     -28.306  17.831 -32.455  1.00  0.00    -0.299 OA
ENDROOT
BRANCH   1   3
ATOM      3  C   UNL     1     -28.761  20.071 -33.079  1.00  0.00     0.053 C 
ATOM      4  C   UNL     1     -30.145  19.521 -33.440  1.00  0.00     0.016 C 
BRANCH   3   5
ATOM      5  C   UNL     1     -28.063  20.652 -34.325  1.00  0.00     0.015 C 
BRANCH   5   6
ATOM      6  C   UNL     1     -26.695  21.291 -34.005  1.00  0.00     0.028 C 
BRANCH   6   7
ATOM      7  C   UNL     1     -25.577  20.624 -34.774  1.00  0.00    -0.028 C 
ATOM      8  C   UNL     1     -24.400  20.166 -34.283  1.00  0.00    -0.070 CG0
ATOM      9  C   UNL     1     -23.414  19.594 -35.273  1.00  0.00     0.039 C 
ATOM     10  G   UNL     1     -24.007  20.180 -32.815  1.00  0.00     0.000 G0
ENDBRANCH   6   7
ENDBRANCH   5   6
ENDBRANCH   3   5
ENDBRANCH   1   3
BRANCH   1  11
ATOM     11  C   UNL     1     -26.666  19.369 -31.680  1.00  0.00     0.087 C 
BRANCH  11  12
ATOM     12  C   UNL     1     -25.567  18.275 -31.726  1.00  0.00     0.066 C 
BRANCH  12  13
ATOM     13  C   UNL     1     -24.213  18.787 -32.195  1.00  0.00     0.140 C 
ATOM     14  O   UNL     1     -23.234  18.081 -32.000  1.00  0.00    -0.299 OA
BRANCH  13  15
ATOM     15  C   UNL     1     -24.003  20.155 -32.809  1.00  0.00     0.106 CG0
ATOM     16  G   UNL     1     -24.401  20.166 -34.275  1.00  0.00     0.000 G0
ENDBRANCH  13  15
ENDBRANCH  12  13
BRANCH  12  17
ATOM     17  C   UNL     1     -25.428  17.456 -30.405  1.00  0.00    -0.006 C 
ATOM     18  C   UNL     1     -25.767  15.971 -30.609  1.00  0.00     0.008 C 
ATOM     19  C   UNL     1     -26.240  18.024 -29.229  1.00  0.00     0.008 C 
ENDBRANCH  12  17
ENDBRANCH  11  12
ENDBRANCH   1  11
TORSDOF 1
ENDMDL
