MODEL 1
REMARK VINA RESULT:    -4.662      0.000      0.000
REMARK INTER + INTRA:          -9.410
REMARK INTER:                  -8.204
REMARK INTRA:                  -1.205
REMARK UNBOUND:                -1.205
REMARK SMILES CCCCCCCCCCCCCCC(=O)[O-]
REMARK SMILES IDX 9 1 10 2 11 3 12 4 13 5 14 6 15 7 16 8 17 9 8 10 7 11 6 12
REMARK SMILES IDX 5 13 4 14 3 15 2 16 1 17
REMARK H PARENT
REMARK Flexibility Score: inf
ROOT
ATOM      1  C   UNL     1       3.448  -8.152 -22.051  1.00  0.00     0.000 C 
ENDROOT
BRANCH   1   2
ATOM      2  C   UNL     1       2.993  -8.106 -20.584  1.00  0.00     0.000 C 
BRANCH   2   3
ATOM      3  C   UNL     1       1.880  -7.073 -20.332  1.00  0.00     0.000 C 
BRANCH   3   4
ATOM      4  C   UNL     1       2.357  -5.728 -19.753  1.00  0.00     0.000 C 
BRANCH   4   5
ATOM      5  C   UNL     1       3.434  -5.893 -18.669  1.00  0.00     0.006 C 
BRANCH   5   6
ATOM      6  C   UNL     1       4.781  -5.293 -19.096  1.00  0.00     0.053 C 
BRANCH   6   7
ATOM      7  C   UNL     1       5.001  -3.937 -18.496  1.00  0.00     0.041 C 
ATOM      8  O   UNL     1       5.632  -3.819 -17.412  1.00  0.00    -0.550 OA
ATOM      9  O   UNL     1       4.487  -2.808 -19.121  1.00  0.00    -0.550 OA
ENDBRANCH   6   7
ENDBRANCH   5   6
ENDBRANCH   4   5
ENDBRANCH   3   4
ENDBRANCH   2   3
ENDBRANCH   1   2
BRANCH   1  10
ATOM     10  C   UNL     1       4.570  -7.137 -22.310  1.00  0.00     0.000 C 
BRANCH  10  11
ATOM     11  C   UNL     1       5.947  -7.798 -22.503  1.00  0.00    -0.000 C 
BRANCH  11  12
ATOM     12  C   UNL     1       5.981  -9.318 -22.263  1.00  0.00    -0.000 C 
BRANCH  12  13
ATOM     13  C   UNL     1       6.394 -10.113 -23.514  1.00  0.00    -0.000 C 
BRANCH  13  14
ATOM     14  C   UNL     1       5.641 -11.448 -23.638  1.00  0.00    -0.000 C 
BRANCH  14  15
ATOM     15  C   UNL     1       4.736 -11.728 -22.425  1.00  0.00    -0.000 C 
BRANCH  15  16
ATOM     16  C   UNL     1       4.403 -13.221 -22.273  1.00  0.00    -0.003 C 
ATOM     17  C   UNL     1       5.524 -14.015 -21.604  1.00  0.00     0.004 C 
ENDBRANCH  15  16
ENDBRANCH  14  15
ENDBRANCH  13  14
ENDBRANCH  12  13
ENDBRANCH  11  12
ENDBRANCH  10  11
ENDBRANCH   1  10
TORSDOF 13
ENDMDL
MODEL 2
REMARK VINA RESULT:    -4.639      3.566      7.271
REMARK INTER + INTRA:          -9.369
REMARK INTER:                  -8.216
REMARK INTRA:                  -1.153
REMARK UNBOUND:                -1.205
REMARK SMILES CCCCCCCCCCCCCCC(=O)[O-]
REMARK SMILES IDX 9 1 10 2 11 3 12 4 13 5 14 6 15 7 16 8 17 9 8 10 7 11 6 12
REMARK SMILES IDX 5 13 4 14 3 15 2 16 1 17
REMARK H PARENT
REMARK Flexibility Score: inf
ROOT
ATOM      1  C   UNL     1       6.178  -9.056 -22.429  1.00  0.00     0.000 C 
ENDROOT
BRANCH   1   2
ATOM      2  C   UNL     1       7.064  -9.500 -23.602  1.00  0.00     0.000 C 
BRANCH   2   3
ATOM      3  C   UNL     1       6.786 -10.945 -24.054  1.00  0.00     0.000 C 
BRANCH   3   4
ATOM      4  C   UNL     1       5.439 -11.526 -23.586  1.00  0.00     0.000 C 
BRANCH   4   5
ATOM      5  C   UNL     1       5.584 -12.892 -22.895  1.00  0.00     0.006 C 
BRANCH   5   6
ATOM      6  C   UNL     1       4.684 -13.012 -21.657  1.00  0.00     0.053 C 
BRANCH   6   7
ATOM      7  C   UNL     1       3.291 -12.537 -21.935  1.00  0.00     0.041 C 
ATOM      8  O   UNL     1       2.560 -13.158 -22.752  1.00  0.00    -0.550 OA
ATOM      9  O   UNL     1       2.809 -11.393 -21.311  1.00  0.00    -0.550 OA
ENDBRANCH   6   7
ENDBRANCH   5   6
ENDBRANCH   4   5
ENDBRANCH   3   4
ENDBRANCH   2   3
ENDBRANCH   1   2
BRANCH   1  10
ATOM     10  C   UNL     1       5.859  -7.556 -22.519  1.00  0.00     0.000 C 
BRANCH  10  11
ATOM     11  C   UNL     1       4.975  -7.058 -21.362  1.00  0.00    -0.000 C 
BRANCH  11  12
ATOM     12  C   UNL     1       4.191  -8.156 -20.620  1.00  0.00    -0.000 C 
BRANCH  12  13
ATOM     13  C   UNL     1       2.766  -7.719 -20.238  1.00  0.00    -0.000 C 
BRANCH  13  14
ATOM     14  C   UNL     1       2.520  -6.223 -20.494  1.00  0.00    -0.000 C 
BRANCH  14  15
ATOM     15  C   UNL     1       2.177  -5.454 -19.205  1.00  0.00    -0.000 C 
BRANCH  15  16
ATOM     16  C   UNL     1       3.300  -5.529 -18.160  1.00  0.00    -0.003 C 
ATOM     17  C   UNL     1       4.524  -4.697 -18.541  1.00  0.00     0.004 C 
ENDBRANCH  15  16
ENDBRANCH  14  15
ENDBRANCH  13  14
ENDBRANCH  12  13
ENDBRANCH  11  12
ENDBRANCH  10  11
ENDBRANCH   1  10
TORSDOF 13
ENDMDL
MODEL 3
REMARK VINA RESULT:    -4.632      1.201      2.470
REMARK INTER + INTRA:          -9.358
REMARK INTER:                  -8.647
REMARK INTRA:                  -0.711
REMARK UNBOUND:                -1.205
REMARK SMILES CCCCCCCCCCCCCCC(=O)[O-]
REMARK SMILES IDX 9 1 10 2 11 3 12 4 13 5 14 6 15 7 16 8 17 9 8 10 7 11 6 12
REMARK SMILES IDX 5 13 4 14 3 15 2 16 1 17
REMARK H PARENT
REMARK Flexibility Score: inf
ROOT
ATOM      1  C   UNL     1       6.307  -8.186 -22.802  1.00  0.00     0.000 C 
ENDROOT
BRANCH   1   2
ATOM      2  C   UNL     1       4.956  -8.123 -22.073  1.00  0.00     0.000 C 
BRANCH   2   3
ATOM      3  C   UNL     1       4.739  -6.797 -21.322  1.00  0.00     0.000 C 
BRANCH   3   4
ATOM      4  C   UNL     1       4.388  -6.942 -19.830  1.00  0.00     0.000 C 
BRANCH   4   5
ATOM      5  C   UNL     1       3.031  -6.314 -19.471  1.00  0.00     0.006 C 
BRANCH   5   6
ATOM      6  C   UNL     1       3.093  -5.509 -18.166  1.00  0.00     0.053 C 
BRANCH   6   7
ATOM      7  C   UNL     1       3.855  -4.230 -18.338  1.00  0.00     0.041 C 
ATOM      8  O   UNL     1       3.303  -3.230 -18.871  1.00  0.00    -0.550 OA
ATOM      9  O   UNL     1       5.181  -4.150 -17.934  1.00  0.00    -0.550 OA
ENDBRANCH   6   7
ENDBRANCH   5   6
ENDBRANCH   4   5
ENDBRANCH   3   4
ENDBRANCH   2   3
ENDBRANCH   1   2
BRANCH   1  10
ATOM     10  C   UNL     1       6.921  -9.590 -22.698  1.00  0.00     0.000 C 
BRANCH  10  11
ATOM     11  C   UNL     1       6.880 -10.364 -24.028  1.00  0.00    -0.000 C 
BRANCH  11  12
ATOM     12  C   UNL     1       6.172 -11.728 -23.969  1.00  0.00    -0.000 C 
BRANCH  12  13
ATOM     13  C   UNL     1       4.806 -11.664 -23.263  1.00  0.00    -0.000 C 
BRANCH  13  14
ATOM     14  C   UNL     1       4.771 -12.496 -21.970  1.00  0.00    -0.000 C 
BRANCH  14  15
ATOM     15  C   UNL     1       4.004 -13.819 -22.142  1.00  0.00    -0.000 C 
BRANCH  15  16
ATOM     16  C   UNL     1       4.893 -15.049 -21.905  1.00  0.00    -0.003 C 
ATOM     17  C   UNL     1       4.165 -16.368 -22.164  1.00  0.00     0.004 C 
ENDBRANCH  15  16
ENDBRANCH  14  15
ENDBRANCH  13  14
ENDBRANCH  12  13
ENDBRANCH  11  12
ENDBRANCH  10  11
ENDBRANCH   1  10
TORSDOF 13
ENDMDL
MODEL 4
REMARK VINA RESULT:    -4.610      4.287      7.673
REMARK INTER + INTRA:          -9.318
REMARK INTER:                  -8.032
REMARK INTRA:                  -1.286
REMARK UNBOUND:                -1.205
REMARK SMILES CCCCCCCCCCCCCCC(=O)[O-]
REMARK SMILES IDX 9 1 10 2 11 3 12 4 13 5 14 6 15 7 16 8 17 9 8 10 7 11 6 12
REMARK SMILES IDX 5 13 4 14 3 15 2 16 1 17
REMARK H PARENT
REMARK Flexibility Score: inf
ROOT
ATOM      1  C   UNL     1       5.838  -9.077 -22.127  1.00  0.00     0.000 C 
ENDROOT
BRANCH   1   2
ATOM      2  C   UNL     1       6.404  -9.946 -23.260  1.00  0.00     0.000 C 
BRANCH   2   3
ATOM      3  C   UNL     1       5.620 -11.255 -23.464  1.00  0.00     0.000 C 
BRANCH   3   4
ATOM      4  C   UNL     1       4.109 -11.161 -23.178  1.00  0.00     0.000 C 
BRANCH   4   5
ATOM      5  C   UNL     1       3.666 -12.052 -22.006  1.00  0.00     0.006 C 
BRANCH   5   6
ATOM      6  C   UNL     1       4.743 -13.074 -21.617  1.00  0.00     0.053 C 
BRANCH   6   7
ATOM      7  C   UNL     1       4.277 -14.482 -21.830  1.00  0.00     0.041 C 
ATOM      8  O   UNL     1       5.106 -15.391 -22.102  1.00  0.00    -0.550 OA
ATOM      9  O   UNL     1       2.924 -14.786 -21.754  1.00  0.00    -0.550 OA
ENDBRANCH   6   7
ENDBRANCH   5   6
ENDBRANCH   4   5
ENDBRANCH   3   4
ENDBRANCH   2   3
ENDBRANCH   1   2
BRANCH   1  10
ATOM     10  C   UNL     1       5.897  -7.587 -22.496  1.00  0.00     0.000 C 
BRANCH  10  11
ATOM     11  C   UNL     1       4.651  -6.805 -22.043  1.00  0.00    -0.000 C 
BRANCH  11  12
ATOM     12  C   UNL     1       3.424  -7.670 -21.706  1.00  0.00    -0.000 C 
BRANCH  12  13
ATOM     13  C   UNL     1       2.996  -7.554 -20.233  1.00  0.00    -0.000 C 
BRANCH  13  14
ATOM     14  C   UNL     1       3.920  -6.631 -19.422  1.00  0.00    -0.000 C 
BRANCH  14  15
ATOM     15  C   UNL     1       3.138  -5.619 -18.566  1.00  0.00    -0.000 C 
BRANCH  15  16
ATOM     16  C   UNL     1       3.908  -4.306 -18.356  1.00  0.00    -0.003 C 
ATOM     17  C   UNL     1       5.190  -4.230 -19.185  1.00  0.00     0.004 C 
ENDBRANCH  15  16
ENDBRANCH  14  15
ENDBRANCH  13  14
ENDBRANCH  12  13
ENDBRANCH  11  12
ENDBRANCH  10  11
ENDBRANCH   1  10
TORSDOF 13
ENDMDL
MODEL 5
REMARK VINA RESULT:    -4.579      1.458      3.315
REMARK INTER + INTRA:          -9.264
REMARK INTER:                  -7.694
REMARK INTRA:                  -1.570
REMARK UNBOUND:                -1.205
REMARK SMILES CCCCCCCCCCCCCCC(=O)[O-]
REMARK SMILES IDX 9 1 10 2 11 3 12 4 13 5 14 6 15 7 16 8 17 9 8 10 7 11 6 12
REMARK SMILES IDX 5 13 4 14 3 15 2 16 1 17
REMARK H PARENT
REMARK Flexibility Score: inf
ROOT
ATOM      1  C   UNL     1       6.994  -9.339 -23.330  1.00  0.00     0.000 C 
ENDROOT
BRANCH   1   2
ATOM      2  C   UNL     1       5.941  -9.178 -22.223  1.00  0.00     0.000 C 
BRANCH   2   3
ATOM      3  C   UNL     1       5.409  -7.739 -22.102  1.00  0.00     0.000 C 
BRANCH   3   4
ATOM      4  C   UNL     1       4.348  -7.525 -21.006  1.00  0.00     0.000 C 
BRANCH   4   5
ATOM      5  C   UNL     1       3.934  -6.052 -20.854  1.00  0.00     0.006 C 
BRANCH   5   6
ATOM      6  C   UNL     1       5.129  -5.147 -20.528  1.00  0.00     0.053 C 
BRANCH   6   7
ATOM      7  C   UNL     1       4.922  -4.391 -19.250  1.00  0.00     0.041 C 
ATOM      8  O   UNL     1       4.499  -4.986 -18.223  1.00  0.00    -0.550 OA
ATOM      9  O   UNL     1       5.170  -3.025 -19.201  1.00  0.00    -0.550 OA
ENDBRANCH   6   7
ENDBRANCH   5   6
ENDBRANCH   4   5
ENDBRANCH   3   4
ENDBRANCH   2   3
ENDBRANCH   1   2
BRANCH   1  10
ATOM     10  C   UNL     1       6.864 -10.707 -24.016  1.00  0.00     0.000 C 
BRANCH  10  11
ATOM     11  C   UNL     1       5.563 -11.443 -23.650  1.00  0.00    -0.000 C 
BRANCH  11  12
ATOM     12  C   UNL     1       5.752 -12.758 -22.874  1.00  0.00    -0.000 C 
BRANCH  12  13
ATOM     13  C   UNL     1       4.699 -12.959 -21.770  1.00  0.00    -0.000 C 
BRANCH  13  14
ATOM     14  C   UNL     1       3.361 -12.275 -22.100  1.00  0.00    -0.000 C 
BRANCH  14  15
ATOM     15  C   UNL     1       3.022 -11.140 -21.119  1.00  0.00    -0.000 C 
BRANCH  15  16
ATOM     16  C   UNL     1       1.950 -10.187 -21.670  1.00  0.00    -0.003 C 
ATOM     17  C   UNL     1       2.222  -9.755 -23.110  1.00  0.00     0.004 C 
ENDBRANCH  15  16
ENDBRANCH  14  15
ENDBRANCH  13  14
ENDBRANCH  12  13
ENDBRANCH  11  12
ENDBRANCH  10  11
ENDBRANCH   1  10
TORSDOF 13
ENDMDL
MODEL 6
REMARK VINA RESULT:    -4.577      1.795      3.481
REMARK INTER + INTRA:          -9.260
REMARK INTER:                  -7.644
REMARK INTRA:                  -1.616
REMARK UNBOUND:                -1.205
REMARK SMILES CCCCCCCCCCCCCCC(=O)[O-]
REMARK SMILES IDX 9 1 10 2 11 3 12 4 13 5 14 6 15 7 16 8 17 9 8 10 7 11 6 12
REMARK SMILES IDX 5 13 4 14 3 15 2 16 1 17
REMARK H PARENT
REMARK Flexibility Score: inf
ROOT
ATOM      1  C   UNL     1       6.045  -9.187 -22.446  1.00  0.00     0.000 C 
ENDROOT
BRANCH   1   2
ATOM      2  C   UNL     1       6.097  -7.659 -22.592  1.00  0.00     0.000 C 
BRANCH   2   3
ATOM      3  C   UNL     1       5.147  -6.929 -21.625  1.00  0.00     0.000 C 
BRANCH   3   4
ATOM      4  C   UNL     1       5.269  -5.394 -21.624  1.00  0.00     0.000 C 
BRANCH   4   5
ATOM      5  C   UNL     1       4.894  -4.765 -20.272  1.00  0.00     0.006 C 
BRANCH   5   6
ATOM      6  C   UNL     1       4.437  -5.817 -19.252  1.00  0.00     0.053 C 
BRANCH   6   7
ATOM      7  C   UNL     1       2.967  -5.723 -18.978  1.00  0.00     0.041 C 
ATOM      8  O   UNL     1       2.135  -6.085 -19.852  1.00  0.00    -0.550 OA
ATOM      9  O   UNL     1       2.516  -5.212 -17.768  1.00  0.00    -0.550 OA
ENDBRANCH   6   7
ENDBRANCH   5   6
ENDBRANCH   4   5
ENDBRANCH   3   4
ENDBRANCH   2   3
ENDBRANCH   1   2
BRANCH   1  10
ATOM     10  C   UNL     1       6.919  -9.869 -23.509  1.00  0.00     0.000 C 
BRANCH  10  11
ATOM     11  C   UNL     1       6.319 -11.191 -24.022  1.00  0.00    -0.000 C 
BRANCH  11  12
ATOM     12  C   UNL     1       5.234 -11.808 -23.123  1.00  0.00    -0.000 C 
BRANCH  12  13
ATOM     13  C   UNL     1       3.843 -11.816 -23.781  1.00  0.00    -0.000 C 
BRANCH  13  14
ATOM     14  C   UNL     1       2.734 -11.352 -22.821  1.00  0.00    -0.000 C 
BRANCH  14  15
ATOM     15  C   UNL     1       2.381  -9.866 -23.005  1.00  0.00    -0.000 C 
BRANCH  15  16
ATOM     16  C   UNL     1       2.246  -9.124 -21.666  1.00  0.00    -0.003 C 
ATOM     17  C   UNL     1       2.934  -9.850 -20.512  1.00  0.00     0.004 C 
ENDBRANCH  15  16
ENDBRANCH  14  15
ENDBRANCH  13  14
ENDBRANCH  12  13
ENDBRANCH  11  12
ENDBRANCH  10  11
ENDBRANCH   1  10
TORSDOF 13
ENDMDL
MODEL 7
REMARK VINA RESULT:    -4.574      1.706      3.146
REMARK INTER + INTRA:          -9.256
REMARK INTER:                  -8.237
REMARK INTRA:                  -1.019
REMARK UNBOUND:                -1.205
REMARK SMILES CCCCCCCCCCCCCCC(=O)[O-]
REMARK SMILES IDX 9 1 10 2 11 3 12 4 13 5 14 6 15 7 16 8 17 9 8 10 7 11 6 12
REMARK SMILES IDX 5 13 4 14 3 15 2 16 1 17
REMARK H PARENT
REMARK Flexibility Score: inf
ROOT
ATOM      1  C   UNL     1       6.625  -9.029 -22.885  1.00  0.00     0.000 C 
ENDROOT
BRANCH   1   2
ATOM      2  C   UNL     1       5.609  -8.679 -21.788  1.00  0.00     0.000 C 
BRANCH   2   3
ATOM      3  C   UNL     1       4.774  -7.429 -22.117  1.00  0.00     0.000 C 
BRANCH   3   4
ATOM      4  C   UNL     1       5.532  -6.092 -22.015  1.00  0.00     0.000 C 
BRANCH   4   5
ATOM      5  C   UNL     1       4.883  -5.111 -21.024  1.00  0.00     0.006 C 
BRANCH   5   6
ATOM      6  C   UNL     1       4.685  -5.736 -19.637  1.00  0.00     0.053 C 
BRANCH   6   7
ATOM      7  C   UNL     1       3.271  -5.602 -19.162  1.00  0.00     0.041 C 
ATOM      8  O   UNL     1       2.989  -5.788 -17.948  1.00  0.00    -0.550 OA
ATOM      9  O   UNL     1       2.260  -5.297 -20.065  1.00  0.00    -0.550 OA
ENDBRANCH   6   7
ENDBRANCH   5   6
ENDBRANCH   4   5
ENDBRANCH   3   4
ENDBRANCH   2   3
ENDBRANCH   1   2
BRANCH   1  10
ATOM     10  C   UNL     1       6.271 -10.366 -23.554  1.00  0.00     0.000 C 
BRANCH  10  11
ATOM     11  C   UNL     1       5.106 -11.095 -22.861  1.00  0.00    -0.000 C 
BRANCH  11  12
ATOM     12  C   UNL     1       4.017 -11.632 -23.806  1.00  0.00    -0.000 C 
BRANCH  12  13
ATOM     13  C   UNL     1       2.817 -12.236 -23.056  1.00  0.00    -0.000 C 
BRANCH  13  14
ATOM     14  C   UNL     1       3.247 -13.134 -21.884  1.00  0.00    -0.000 C 
BRANCH  14  15
ATOM     15  C   UNL     1       3.251 -14.627 -22.257  1.00  0.00    -0.000 C 
BRANCH  15  16
ATOM     16  C   UNL     1       4.549 -15.334 -21.836  1.00  0.00    -0.003 C 
ATOM     17  C   UNL     1       5.746 -14.387 -21.763  1.00  0.00     0.004 C 
ENDBRANCH  15  16
ENDBRANCH  14  15
ENDBRANCH  13  14
ENDBRANCH  12  13
ENDBRANCH  11  12
ENDBRANCH  10  11
ENDBRANCH   1  10
TORSDOF 13
ENDMDL
MODEL 8
REMARK VINA RESULT:    -4.504      4.036      7.971
REMARK INTER + INTRA:          -9.132
REMARK INTER:                  -8.228
REMARK INTRA:                  -0.905
REMARK UNBOUND:                -1.205
REMARK SMILES CCCCCCCCCCCCCCC(=O)[O-]
REMARK SMILES IDX 9 1 10 2 11 3 12 4 13 5 14 6 15 7 16 8 17 9 8 10 7 11 6 12
REMARK SMILES IDX 5 13 4 14 3 15 2 16 1 17
REMARK H PARENT
REMARK Flexibility Score: inf
ROOT
ATOM      1  C   UNL     1       5.856  -8.664 -22.159  1.00  0.00     0.000 C 
ENDROOT
BRANCH   1   2
ATOM      2  C   UNL     1       7.129  -9.188 -22.840  1.00  0.00     0.000 C 
BRANCH   2   3
ATOM      3  C   UNL     1       6.836 -10.107 -24.040  1.00  0.00     0.000 C 
BRANCH   3   4
ATOM      4  C   UNL     1       6.494 -11.564 -23.677  1.00  0.00     0.000 C 
BRANCH   4   5
ATOM      5  C   UNL     1       4.981 -11.812 -23.562  1.00  0.00     0.006 C 
BRANCH   5   6
ATOM      6  C   UNL     1       4.549 -12.088 -22.115  1.00  0.00     0.053 C 
BRANCH   6   7
ATOM      7  C   UNL     1       4.611 -13.548 -21.785  1.00  0.00     0.041 C 
ATOM      8  O   UNL     1       3.577 -14.263 -21.875  1.00  0.00    -0.550 OA
ATOM      9  O   UNL     1       5.803 -14.113 -21.351  1.00  0.00    -0.550 OA
ENDBRANCH   6   7
ENDBRANCH   5   6
ENDBRANCH   4   5
ENDBRANCH   3   4
ENDBRANCH   2   3
ENDBRANCH   1   2
BRANCH   1  10
ATOM     10  C   UNL     1       5.606  -7.192 -22.520  1.00  0.00     0.000 C 
BRANCH  10  11
ATOM     11  C   UNL     1       5.140  -6.350 -21.320  1.00  0.00    -0.000 C 
BRANCH  11  12
ATOM     12  C   UNL     1       4.140  -7.047 -20.381  1.00  0.00    -0.000 C 
BRANCH  12  13
ATOM     13  C   UNL     1       3.780  -6.197 -19.150  1.00  0.00    -0.000 C 
BRANCH  13  14
ATOM     14  C   UNL     1       4.782  -5.055 -18.910  1.00  0.00    -0.000 C 
BRANCH  14  15
ATOM     15  C   UNL     1       4.090  -3.736 -18.523  1.00  0.00    -0.000 C 
BRANCH  15  16
ATOM     16  C   UNL     1       4.411  -2.595 -19.501  1.00  0.00    -0.003 C 
ATOM     17  C   UNL     1       4.001  -2.911 -20.938  1.00  0.00     0.004 C 
ENDBRANCH  15  16
ENDBRANCH  14  15
ENDBRANCH  13  14
ENDBRANCH  12  13
ENDBRANCH  11  12
ENDBRANCH  10  11
ENDBRANCH   1  10
TORSDOF 13
ENDMDL
MODEL 9
REMARK VINA RESULT:    -4.448      4.676      8.445
REMARK INTER + INTRA:          -9.034
REMARK INTER:                  -8.412
REMARK INTRA:                  -0.622
REMARK UNBOUND:                -1.205
REMARK SMILES CCCCCCCCCCCCCCC(=O)[O-]
REMARK SMILES IDX 9 1 10 2 11 3 12 4 13 5 14 6 15 7 16 8 17 9 8 10 7 11 6 12
REMARK SMILES IDX 5 13 4 14 3 15 2 16 1 17
REMARK H PARENT
REMARK Flexibility Score: inf
ROOT
ATOM      1  C   UNL     1       6.992  -9.351 -23.543  1.00  0.00     0.000 C 
ENDROOT
BRANCH   1   2
ATOM      2  C   UNL     1       6.895 -10.781 -24.096  1.00  0.00     0.000 C 
BRANCH   2   3
ATOM      3  C   UNL     1       5.638 -11.529 -23.615  1.00  0.00     0.000 C 
BRANCH   3   4
ATOM      4  C   UNL     1       5.912 -12.801 -22.791  1.00  0.00     0.000 C 
BRANCH   4   5
ATOM      5  C   UNL     1       4.648 -13.360 -22.118  1.00  0.00     0.006 C 
BRANCH   5   6
ATOM      6  C   UNL     1       4.768 -14.861 -21.820  1.00  0.00     0.053 C 
BRANCH   6   7
ATOM      7  C   UNL     1       3.426 -15.526 -21.763  1.00  0.00     0.041 C 
ATOM      8  O   UNL     1       2.400 -14.859 -21.461  1.00  0.00    -0.550 OA
ATOM      9  O   UNL     1       3.312 -16.887 -22.017  1.00  0.00    -0.550 OA
ENDBRANCH   6   7
ENDBRANCH   5   6
ENDBRANCH   4   5
ENDBRANCH   3   4
ENDBRANCH   2   3
ENDBRANCH   1   2
BRANCH   1  10
ATOM     10  C   UNL     1       6.054  -9.163 -22.341  1.00  0.00     0.000 C 
BRANCH  10  11
ATOM     11  C   UNL     1       5.555  -7.715 -22.188  1.00  0.00    -0.000 C 
BRANCH  11  12
ATOM     12  C   UNL     1       4.140  -7.570 -21.603  1.00  0.00    -0.000 C 
BRANCH  12  13
ATOM     13  C   UNL     1       4.077  -6.587 -20.421  1.00  0.00    -0.000 C 
BRANCH  13  14
ATOM     14  C   UNL     1       5.112  -5.455 -20.542  1.00  0.00    -0.000 C 
BRANCH  14  15
ATOM     15  C   UNL     1       4.456  -4.074 -20.716  1.00  0.00    -0.000 C 
BRANCH  15  16
ATOM     16  C   UNL     1       4.399  -3.280 -19.402  1.00  0.00    -0.003 C 
ATOM     17  C   UNL     1       5.513  -3.662 -18.428  1.00  0.00     0.004 C 
ENDBRANCH  15  16
ENDBRANCH  14  15
ENDBRANCH  13  14
ENDBRANCH  12  13
ENDBRANCH  11  12
ENDBRANCH  10  11
ENDBRANCH   1  10
TORSDOF 13
ENDMDL
