MODEL 1
REMARK VINA RESULT:    -4.450      0.000      0.000
REMARK INTER + INTRA:          -4.450
REMARK INTER:                  -4.450
REMARK INTRA:                   0.000
REMARK UNBOUND:                 0.000
REMARK SMILES CC1(C)[C@H]2CC[C@]1(C)C(=O)C2
REMARK SMILES IDX 1 1 2 2 4 3 5 4 6 5 7 6 9 7 10 8 11 9 8 10 3 11
REMARK H PARENT
REMARK Flexibility Score: inf
ROOT
ATOM      1  C   UNL     1     -18.038  -6.294 -26.792  1.00  0.00     0.012 C 
ATOM      2  C   UNL     1     -18.832  -7.606 -27.080  1.00  0.00    -0.020 C 
ATOM      3  C   UNL     1     -20.191  -7.684 -26.344  1.00  0.00     0.003 C 
ATOM      4  C   UNL     1     -20.671  -9.127 -26.665  1.00  0.00     0.005 C 
ATOM      5  C   UNL     1     -19.353  -9.940 -26.668  1.00  0.00     0.015 C 
ATOM      6  C   UNL     1     -18.288  -8.860 -26.361  1.00  0.00     0.032 C 
ATOM      7  C   UNL     1     -18.529  -8.481 -24.920  1.00  0.00     0.139 C 
ATOM      8  O   UNL     1     -17.859  -8.836 -23.963  1.00  0.00    -0.299 OA
ATOM      9  C   UNL     1     -19.791  -7.679 -24.841  1.00  0.00     0.080 C 
ATOM     10  C   UNL     1     -16.847  -9.266 -26.691  1.00  0.00     0.020 C 
ATOM     11  C   UNL     1     -18.947  -7.720 -28.630  1.00  0.00     0.012 C 
ENDROOT
TORSDOF 0
ENDMDL
MODEL 2
REMARK VINA RESULT:    -4.312      1.966      3.320
REMARK INTER + INTRA:          -4.312
REMARK INTER:                  -4.312
REMARK INTRA:                   0.000
REMARK UNBOUND:                 0.000
REMARK SMILES CC1(C)[C@H]2CC[C@]1(C)C(=O)C2
REMARK SMILES IDX 1 1 2 2 4 3 5 4 6 5 7 6 9 7 10 8 11 9 8 10 3 11
REMARK H PARENT
REMARK Flexibility Score: inf
ROOT
ATOM      1  C   UNL     1     -18.930  -6.296 -27.060  1.00  0.00     0.012 C 
ATOM      2  C   UNL     1     -18.508  -7.670 -26.453  1.00  0.00    -0.020 C 
ATOM      3  C   UNL     1     -17.167  -8.207 -27.006  1.00  0.00     0.003 C 
ATOM      4  C   UNL     1     -17.081  -9.625 -26.378  1.00  0.00     0.005 C 
ATOM      5  C   UNL     1     -18.557 -10.094 -26.375  1.00  0.00     0.015 C 
ATOM      6  C   UNL     1     -19.298  -8.882 -26.990  1.00  0.00     0.032 C 
ATOM      7  C   UNL     1     -18.879  -8.869 -28.439  1.00  0.00     0.139 C 
ATOM      8  O   UNL     1     -19.552  -9.247 -29.385  1.00  0.00    -0.299 OA
ATOM      9  C   UNL     1     -17.455  -8.414 -28.520  1.00  0.00     0.080 C 
ATOM     10  C   UNL     1     -20.813  -8.870 -26.755  1.00  0.00     0.020 C 
ATOM     11  C   UNL     1     -18.525  -7.491 -24.905  1.00  0.00     0.012 C 
ENDROOT
TORSDOF 0
ENDMDL
MODEL 3
REMARK VINA RESULT:    -4.307      0.939      2.871
REMARK INTER + INTRA:          -4.307
REMARK INTER:                  -4.307
REMARK INTRA:                   0.000
REMARK UNBOUND:                 0.000
REMARK SMILES CC1(C)[C@H]2CC[C@]1(C)C(=O)C2
REMARK SMILES IDX 1 1 2 2 4 3 5 4 6 5 7 6 9 7 10 8 11 9 8 10 3 11
REMARK H PARENT
REMARK Flexibility Score: inf
ROOT
ATOM      1  C   UNL     1     -19.757 -10.170 -27.118  1.00  0.00     0.012 C 
ATOM      2  C   UNL     1     -18.950  -8.873 -27.438  1.00  0.00    -0.020 C 
ATOM      3  C   UNL     1     -17.416  -9.072 -27.402  1.00  0.00     0.003 C 
ATOM      4  C   UNL     1     -16.879  -7.625 -27.579  1.00  0.00     0.005 C 
ATOM      5  C   UNL     1     -17.915  -6.773 -26.804  1.00  0.00     0.015 C 
ATOM      6  C   UNL     1     -18.915  -7.837 -26.293  1.00  0.00     0.032 C 
ATOM      7  C   UNL     1     -18.154  -8.608 -25.243  1.00  0.00     0.139 C 
ATOM      8  O   UNL     1     -18.283  -8.493 -24.034  1.00  0.00    -0.299 OA
ATOM      9  C   UNL     1     -17.135  -9.466 -25.925  1.00  0.00     0.080 C 
ATOM     10  C   UNL     1     -20.268  -7.280 -25.834  1.00  0.00     0.020 C 
ATOM     11  C   UNL     1     -19.487  -8.346 -28.803  1.00  0.00     0.012 C 
ENDROOT
TORSDOF 0
ENDMDL
MODEL 4
REMARK VINA RESULT:    -4.289      1.773      3.175
REMARK INTER + INTRA:          -4.289
REMARK INTER:                  -4.289
REMARK INTRA:                   0.000
REMARK UNBOUND:                 0.000
REMARK SMILES CC1(C)[C@H]2CC[C@]1(C)C(=O)C2
REMARK SMILES IDX 1 1 2 2 4 3 5 4 6 5 7 6 9 7 10 8 11 9 8 10 3 11
REMARK H PARENT
REMARK Flexibility Score: inf
ROOT
ATOM      1  C   UNL     1     -16.975  -9.291 -26.605  1.00  0.00     0.012 C 
ATOM      2  C   UNL     1     -18.315  -8.771 -25.999  1.00  0.00    -0.020 C 
ATOM      3  C   UNL     1     -19.553  -9.589 -26.437  1.00  0.00     0.003 C 
ATOM      4  C   UNL     1     -20.732  -8.769 -25.844  1.00  0.00     0.005 C 
ATOM      5  C   UNL     1     -20.248  -7.305 -25.995  1.00  0.00     0.015 C 
ATOM      6  C   UNL     1     -18.853  -7.475 -26.643  1.00  0.00     0.032 C 
ATOM      7  C   UNL     1     -19.136  -7.956 -28.044  1.00  0.00     0.139 C 
ATOM      8  O   UNL     1     -19.079  -7.282 -29.060  1.00  0.00    -0.299 OA
ATOM      9  C   UNL     1     -19.603  -9.377 -27.976  1.00  0.00     0.080 C 
ATOM     10  C   UNL     1     -17.949  -6.240 -26.552  1.00  0.00     0.020 C 
ATOM     11  C   UNL     1     -18.109  -8.717 -24.455  1.00  0.00     0.012 C 
ENDROOT
TORSDOF 0
ENDMDL
MODEL 5
REMARK VINA RESULT:    -4.279      1.392      1.990
REMARK INTER + INTRA:          -4.279
REMARK INTER:                  -4.279
REMARK INTRA:                   0.000
REMARK UNBOUND:                 0.000
REMARK SMILES CC1(C)[C@H]2CC[C@]1(C)C(=O)C2
REMARK SMILES IDX 1 1 2 2 4 3 5 4 6 5 7 6 9 7 10 8 11 9 8 10 3 11
REMARK H PARENT
REMARK Flexibility Score: inf
ROOT
ATOM      1  C   UNL     1     -18.794  -7.079 -25.588  1.00  0.00     0.012 C 
ATOM      2  C   UNL     1     -18.798  -7.495 -27.092  1.00  0.00    -0.020 C 
ATOM      3  C   UNL     1     -20.065  -8.274 -27.517  1.00  0.00     0.003 C 
ATOM      4  C   UNL     1     -19.732  -8.701 -28.974  1.00  0.00     0.005 C 
ATOM      5  C   UNL     1     -18.211  -8.987 -28.913  1.00  0.00     0.015 C 
ATOM      6  C   UNL     1     -17.867  -8.678 -27.436  1.00  0.00     0.032 C 
ATOM      7  C   UNL     1     -18.521  -9.786 -26.648  1.00  0.00     0.139 C 
ATOM      8  O   UNL     1     -17.953 -10.749 -26.157  1.00  0.00    -0.299 OA
ATOM      9  C   UNL     1     -20.002  -9.568 -26.657  1.00  0.00     0.080 C 
ATOM     10  C   UNL     1     -16.373  -8.477 -27.153  1.00  0.00     0.020 C 
ATOM     11  C   UNL     1     -18.555  -6.191 -27.910  1.00  0.00     0.012 C 
ENDROOT
TORSDOF 0
ENDMDL
MODEL 6
REMARK VINA RESULT:    -4.261      1.571      2.718
REMARK INTER + INTRA:          -4.261
REMARK INTER:                  -4.261
REMARK INTRA:                   0.000
REMARK UNBOUND:                 0.000
REMARK SMILES CC1(C)[C@H]2CC[C@]1(C)C(=O)C2
REMARK SMILES IDX 1 1 2 2 4 3 5 4 6 5 7 6 9 7 10 8 11 9 8 10 3 11
REMARK H PARENT
REMARK Flexibility Score: inf
ROOT
ATOM      1  C   UNL     1     -19.610  -9.127 -28.576  1.00  0.00     0.012 C 
ATOM      2  C   UNL     1     -19.549  -8.512 -27.144  1.00  0.00    -0.020 C 
ATOM      3  C   UNL     1     -19.236  -6.997 -27.132  1.00  0.00     0.003 C 
ATOM      4  C   UNL     1     -19.067  -6.694 -25.617  1.00  0.00     0.005 C 
ATOM      5  C   UNL     1     -18.392  -7.980 -25.079  1.00  0.00     0.015 C 
ATOM      6  C   UNL     1     -18.271  -8.856 -26.349  1.00  0.00     0.032 C 
ATOM      7  C   UNL     1     -17.225  -8.170 -27.192  1.00  0.00     0.139 C 
ATOM      8  O   UNL     1     -16.065  -8.525 -27.326  1.00  0.00    -0.299 OA
ATOM      9  C   UNL     1     -17.814  -6.914 -27.756  1.00  0.00     0.080 C 
ATOM     10  C   UNL     1     -18.012 -10.343 -26.080  1.00  0.00     0.020 C 
ATOM     11  C   UNL     1     -20.893  -8.884 -26.446  1.00  0.00     0.012 C 
ENDROOT
TORSDOF 0
ENDMDL
MODEL 7
REMARK VINA RESULT:    -4.201      2.043      3.511
REMARK INTER + INTRA:          -4.201
REMARK INTER:                  -4.201
REMARK INTRA:                   0.000
REMARK UNBOUND:                 0.000
REMARK SMILES CC1(C)[C@H]2CC[C@]1(C)C(=O)C2
REMARK SMILES IDX 1 1 2 2 4 3 5 4 6 5 7 6 9 7 10 8 11 9 8 10 3 11
REMARK H PARENT
REMARK Flexibility Score: inf
ROOT
ATOM      1  C   UNL     1     -19.350  -9.949 -27.075  1.00  0.00     0.012 C 
ATOM      2  C   UNL     1     -18.789  -8.497 -26.964  1.00  0.00    -0.020 C 
ATOM      3  C   UNL     1     -19.410  -7.512 -27.981  1.00  0.00     0.003 C 
ATOM      4  C   UNL     1     -18.568  -6.223 -27.768  1.00  0.00     0.005 C 
ATOM      5  C   UNL     1     -17.153  -6.779 -27.469  1.00  0.00     0.015 C 
ATOM      6  C   UNL     1     -17.368  -8.310 -27.539  1.00  0.00     0.032 C 
ATOM      7  C   UNL     1     -17.619  -8.597 -28.999  1.00  0.00     0.139 C 
ATOM      8  O   UNL     1     -16.817  -9.081 -29.783  1.00  0.00    -0.299 OA
ATOM      9  C   UNL     1     -18.982  -8.092 -29.358  1.00  0.00     0.080 C 
ATOM     10  C   UNL     1     -16.254  -9.144 -26.896  1.00  0.00     0.020 C 
ATOM     11  C   UNL     1     -18.972  -8.068 -25.476  1.00  0.00     0.012 C 
ENDROOT
TORSDOF 0
ENDMDL
MODEL 8
REMARK VINA RESULT:    -4.199      1.451      2.635
REMARK INTER + INTRA:          -4.199
REMARK INTER:                  -4.199
REMARK INTRA:                   0.000
REMARK UNBOUND:                 0.000
REMARK SMILES CC1(C)[C@H]2CC[C@]1(C)C(=O)C2
REMARK SMILES IDX 1 1 2 2 4 3 5 4 6 5 7 6 9 7 10 8 11 9 8 10 3 11
REMARK H PARENT
REMARK Flexibility Score: inf
ROOT
ATOM      1  C   UNL     1     -17.690  -9.129 -24.912  1.00  0.00     0.012 C 
ATOM      2  C   UNL     1     -17.923  -8.580 -26.354  1.00  0.00    -0.020 C 
ATOM      3  C   UNL     1     -18.158  -7.052 -26.406  1.00  0.00     0.003 C 
ATOM      4  C   UNL     1     -18.525  -6.813 -27.898  1.00  0.00     0.005 C 
ATOM      5  C   UNL     1     -19.334  -8.083 -28.264  1.00  0.00     0.015 C 
ATOM      6  C   UNL     1     -19.317  -8.888 -26.943  1.00  0.00     0.032 C 
ATOM      7  C   UNL     1     -20.197  -8.103 -26.002  1.00  0.00     0.139 C 
ATOM      8  O   UNL     1     -21.343  -8.385 -25.687  1.00  0.00    -0.299 OA
ATOM      9  C   UNL     1     -19.471  -6.858 -25.596  1.00  0.00     0.080 C 
ATOM     10  C   UNL     1     -19.685 -10.369 -27.089  1.00  0.00     0.020 C 
ATOM     11  C   UNL     1     -16.713  -9.062 -27.210  1.00  0.00     0.012 C 
ENDROOT
TORSDOF 0
ENDMDL
MODEL 9
REMARK VINA RESULT:    -4.150      1.458      2.642
REMARK INTER + INTRA:          -4.150
REMARK INTER:                  -4.150
REMARK INTRA:                   0.000
REMARK UNBOUND:                 0.000
REMARK SMILES CC1(C)[C@H]2CC[C@]1(C)C(=O)C2
REMARK SMILES IDX 1 1 2 2 4 3 5 4 6 5 7 6 9 7 10 8 11 9 8 10 3 11
REMARK H PARENT
REMARK Flexibility Score: inf
ROOT
ATOM      1  C   UNL     1     -19.643  -8.123 -29.283  1.00  0.00     0.012 C 
ATOM      2  C   UNL     1     -18.602  -8.552 -28.202  1.00  0.00    -0.020 C 
ATOM      3  C   UNL     1     -19.074  -9.732 -27.321  1.00  0.00     0.003 C 
ATOM      4  C   UNL     1     -17.950  -9.832 -26.252  1.00  0.00     0.005 C 
ATOM      5  C   UNL     1     -17.557  -8.351 -26.023  1.00  0.00     0.015 C 
ATOM      6  C   UNL     1     -18.496  -7.597 -26.994  1.00  0.00     0.032 C 
ATOM      7  C   UNL     1     -19.873  -7.750 -26.396  1.00  0.00     0.139 C 
ATOM      8  O   UNL     1     -20.487  -6.893 -25.779  1.00  0.00    -0.299 OA
ATOM      9  C   UNL     1     -20.324  -9.164 -26.591  1.00  0.00     0.080 C 
ATOM     10  C   UNL     1     -18.079  -6.153 -27.299  1.00  0.00     0.020 C 
ATOM     11  C   UNL     1     -17.268  -8.825 -28.960  1.00  0.00     0.012 C 
ENDROOT
TORSDOF 0
ENDMDL
