MODEL 1
REMARK VINA RESULT:    -5.936      0.000      0.000
REMARK INTER + INTRA:         -10.183
REMARK INTER:                  -9.059
REMARK INTRA:                  -1.123
REMARK UNBOUND:                -1.123
REMARK SMILES OC[C@H]1O[C@H](O[C@]2(CO)O[C@H](CO)[C@@H](O)[C@H]2O)[C@H](O)[C@@H](O)[C@@H]1O
REMARK SMILES IDX 6 1 5 2 3 3 22 4 4 5 20 6 18 7 2 8 1 9 23 11 21 13 19 15
REMARK SMILES IDX 7 17 16 18 10 19 14 20 11 21 8 22 9 23 17 25 15 27 12 29
REMARK SMILES IDX 13 30
REMARK H PARENT 1 10 23 12 21 14 19 16 9 24 17 26 15 28 13 31
REMARK Flexibility Score: inf
ROOT
ATOM      1  O   UNL     1     178.529 204.413  87.315  1.00  0.00    -0.313 OA
ENDROOT
BRANCH   1   2
ATOM      2  C   UNL     1     179.753 203.960  87.889  1.00  0.00     0.285 C 
ATOM      3  C   UNL     1     178.711 202.041  88.764  1.00  0.00     0.178 C 
ATOM      4  C   UNL     1     179.458 201.090  87.800  1.00  0.00     0.177 C 
ATOM      5  O   UNL     1     179.501 203.185  89.052  1.00  0.00    -0.341 OA
ATOM      6  C   UNL     1     179.825 201.843  86.510  1.00  0.00     0.179 C 
ATOM      7  C   UNL     1     180.559 203.148  86.856  1.00  0.00     0.202 C 
BRANCH   3   8
ATOM      8  C   UNL     1     178.393 201.329  90.087  1.00  0.00     0.191 C 
BRANCH   8   9
ATOM      9  O   UNL     1     179.132 201.897  91.136  1.00  0.00    -0.394 OA
ATOM     10  H   UNL     1     178.487 202.404  91.695  1.00  0.00     0.210 HD
ENDBRANCH   8   9
ENDBRANCH   3   8
BRANCH   4  11
ATOM     11  O   UNL     1     178.635 199.994  87.488  1.00  0.00    -0.387 OA
ATOM     12  H   UNL     1     177.762 200.153  87.933  1.00  0.00     0.211 HD
ENDBRANCH   4  11
BRANCH   6  13
ATOM     13  O   UNL     1     180.648 201.028  85.716  1.00  0.00    -0.387 OA
ATOM     14  H   UNL     1     180.221 200.970  84.822  1.00  0.00     0.211 HD
ENDBRANCH   6  13
BRANCH   7  15
ATOM     15  O   UNL     1     180.749 203.905  85.688  1.00  0.00    -0.385 OA
ATOM     16  H   UNL     1     180.983 204.824  85.978  1.00  0.00     0.211 HD
ENDBRANCH   7  15
ENDBRANCH   1   2
BRANCH   1  17
ATOM     17  C   UNL     1     178.163 205.746  87.659  1.00  0.00     0.224 C 
ATOM     18  C   UNL     1     179.211 206.371  88.632  1.00  0.00     0.208 C 
ATOM     19  O   UNL     1     178.080 206.554  86.495  1.00  0.00    -0.337 OA
ATOM     20  C   UNL     1     179.793 207.527  87.835  1.00  0.00     0.180 C 
ATOM     21  C   UNL     1     178.714 207.781  86.785  1.00  0.00     0.179 C 
BRANCH  17  22
ATOM     22  C   UNL     1     176.745 205.641  88.265  1.00  0.00     0.225 C 
BRANCH  22  23
ATOM     23  O   UNL     1     176.603 204.479  89.035  1.00  0.00    -0.391 OA
ATOM     24  H   UNL     1     175.627 204.333  89.137  1.00  0.00     0.210 HD
ENDBRANCH  22  23
ENDBRANCH  17  22
BRANCH  18  25
ATOM     25  O   UNL     1     178.665 206.773  89.870  1.00  0.00    -0.385 OA
ATOM     26  H   UNL     1     178.346 205.969  90.354  1.00  0.00     0.211 HD
ENDBRANCH  18  25
BRANCH  20  27
ATOM     27  O   UNL     1     180.019 208.662  88.634  1.00  0.00    -0.387 OA
ATOM     28  H   UNL     1     180.958 208.605  88.949  1.00  0.00     0.211 HD
ENDBRANCH  20  27
BRANCH  21  29
ATOM     29  C   UNL     1     179.266 208.409  85.500  1.00  0.00     0.191 C 
BRANCH  29  30
ATOM     30  O   UNL     1     180.613 208.762  85.659  1.00  0.00    -0.394 OA
ATOM     31  H   UNL     1     180.792 208.736  86.635  1.00  0.00     0.210 HD
ENDBRANCH  29  30
ENDBRANCH  21  29
ENDBRANCH   1  17
TORSDOF 13
ENDMDL
MODEL 2
REMARK VINA RESULT:    -5.730     13.512     16.393
REMARK INTER + INTRA:          -9.869
REMARK INTER:                  -8.226
REMARK INTRA:                  -1.642
REMARK UNBOUND:                -1.123
REMARK SMILES OC[C@H]1O[C@H](O[C@]2(CO)O[C@H](CO)[C@@H](O)[C@H]2O)[C@H](O)[C@@H](O)[C@@H]1O
REMARK SMILES IDX 6 1 5 2 3 3 22 4 4 5 20 6 18 7 2 8 1 9 23 11 21 13 19 15
REMARK SMILES IDX 7 17 16 18 10 19 14 20 11 21 8 22 9 23 17 25 15 27 12 29
REMARK SMILES IDX 13 30
REMARK H PARENT 1 10 23 12 21 14 19 16 9 24 17 26 15 28 13 31
REMARK Flexibility Score: inf
ROOT
ATOM      1  O   UNL     1     189.964 195.335  81.674  1.00  0.00    -0.313 OA
ENDROOT
BRANCH   1   2
ATOM      2  C   UNL     1     189.441 194.009  81.621  1.00  0.00     0.285 C 
ATOM      3  C   UNL     1     188.340 194.288  83.681  1.00  0.00     0.178 C 
ATOM      4  C   UNL     1     186.937 194.269  83.032  1.00  0.00     0.177 C 
ATOM      5  O   UNL     1     189.250 193.496  82.931  1.00  0.00    -0.341 OA
ATOM      6  C   UNL     1     187.031 194.767  81.579  1.00  0.00     0.179 C 
ATOM      7  C   UNL     1     188.120 193.987  80.827  1.00  0.00     0.202 C 
BRANCH   3   8
ATOM      8  C   UNL     1     188.282 193.730  85.110  1.00  0.00     0.191 C 
BRANCH   8   9
ATOM      9  O   UNL     1     187.882 194.731  86.009  1.00  0.00    -0.394 OA
ATOM     10  H   UNL     1     186.987 194.467  86.348  1.00  0.00     0.210 HD
ENDBRANCH   8   9
ENDBRANCH   3   8
BRANCH   4  11
ATOM     11  O   UNL     1     186.070 195.101  83.760  1.00  0.00    -0.387 OA
ATOM     12  H   UNL     1     185.702 194.553  84.503  1.00  0.00     0.211 HD
ENDBRANCH   4  11
BRANCH   6  13
ATOM     13  O   UNL     1     185.790 194.586  80.947  1.00  0.00    -0.387 OA
ATOM     14  H   UNL     1     185.247 194.002  81.537  1.00  0.00     0.211 HD
ENDBRANCH   6  13
BRANCH   7  15
ATOM     15  O   UNL     1     188.310 194.551  79.555  1.00  0.00    -0.385 OA
ATOM     16  H   UNL     1     187.629 194.146  78.959  1.00  0.00     0.211 HD
ENDBRANCH   7  15
ENDBRANCH   1   2
BRANCH   1  17
ATOM     17  C   UNL     1     191.172 195.532  80.947  1.00  0.00     0.224 C 
ATOM     18  C   UNL     1     191.823 194.162  80.578  1.00  0.00     0.208 C 
ATOM     19  O   UNL     1     190.921 196.256  79.752  1.00  0.00    -0.337 OA
ATOM     20  C   UNL     1     191.784 194.146  79.058  1.00  0.00     0.180 C 
ATOM     21  C   UNL     1     191.644 195.628  78.715  1.00  0.00     0.179 C 
BRANCH  17  22
ATOM     22  C   UNL     1     192.061 196.411  81.855  1.00  0.00     0.225 C 
BRANCH  22  23
ATOM     23  O   UNL     1     192.379 195.753  83.051  1.00  0.00    -0.391 OA
ATOM     24  H   UNL     1     192.156 194.797  82.908  1.00  0.00     0.210 HD
ENDBRANCH  22  23
ENDBRANCH  17  22
BRANCH  18  25
ATOM     25  O   UNL     1     193.125 193.995  81.098  1.00  0.00    -0.385 OA
ATOM     26  H   UNL     1     193.269 193.034  81.292  1.00  0.00     0.211 HD
ENDBRANCH  18  25
BRANCH  20  27
ATOM     27  O   UNL     1     192.950 193.592  78.502  1.00  0.00    -0.387 OA
ATOM     28  H   UNL     1     193.005 193.923  77.569  1.00  0.00     0.211 HD
ENDBRANCH  20  27
BRANCH  21  29
ATOM     29  C   UNL     1     190.954 195.867  77.367  1.00  0.00     0.191 C 
BRANCH  29  30
ATOM     30  O   UNL     1     189.980 194.888  77.128  1.00  0.00    -0.394 OA
ATOM     31  H   UNL     1     190.144 194.556  76.207  1.00  0.00     0.210 HD
ENDBRANCH  29  30
ENDBRANCH  21  29
ENDBRANCH   1  17
TORSDOF 13
ENDMDL
MODEL 3
REMARK VINA RESULT:    -5.659     13.949     17.415
REMARK INTER + INTRA:          -9.760
REMARK INTER:                  -8.583
REMARK INTRA:                  -1.177
REMARK UNBOUND:                -1.123
REMARK SMILES OC[C@H]1O[C@H](O[C@]2(CO)O[C@H](CO)[C@@H](O)[C@H]2O)[C@H](O)[C@@H](O)[C@@H]1O
REMARK SMILES IDX 6 1 5 2 3 3 22 4 4 5 20 6 18 7 2 8 1 9 23 11 21 13 19 15
REMARK SMILES IDX 7 17 16 18 10 19 14 20 11 21 8 22 9 23 17 25 15 27 12 29
REMARK SMILES IDX 13 30
REMARK H PARENT 1 10 23 12 21 14 19 16 9 24 17 26 15 28 13 31
REMARK Flexibility Score: inf
ROOT
ATOM      1  O   UNL     1     190.958 193.353  81.687  1.00  0.00    -0.313 OA
ENDROOT
BRANCH   1   2
ATOM      2  C   UNL     1     189.931 193.468  80.704  1.00  0.00     0.285 C 
ATOM      3  C   UNL     1     191.513 193.705  78.980  1.00  0.00     0.178 C 
ATOM      4  C   UNL     1     191.179 192.327  78.365  1.00  0.00     0.177 C 
ATOM      5  O   UNL     1     190.371 194.262  79.614  1.00  0.00    -0.341 OA
ATOM      6  C   UNL     1     190.643 191.387  79.458  1.00  0.00     0.179 C 
ATOM      7  C   UNL     1     189.497 192.070  80.221  1.00  0.00     0.202 C 
BRANCH   3   8
ATOM      8  C   UNL     1     191.987 194.682  77.894  1.00  0.00     0.191 C 
BRANCH   8   9
ATOM      9  O   UNL     1     191.423 194.345  76.654  1.00  0.00    -0.394 OA
ATOM     10  H   UNL     1     191.372 193.354  76.626  1.00  0.00     0.210 HD
ENDBRANCH   8   9
ENDBRANCH   3   8
BRANCH   4  11
ATOM     11  O   UNL     1     192.336 191.773  77.792  1.00  0.00    -0.387 OA
ATOM     12  H   UNL     1     193.057 192.449  77.890  1.00  0.00     0.211 HD
ENDBRANCH   4  11
BRANCH   6  13
ATOM     13  O   UNL     1     190.182 190.201  78.864  1.00  0.00    -0.387 OA
ATOM     14  H   UNL     1     189.330 190.420  78.406  1.00  0.00     0.211 HD
ENDBRANCH   6  13
BRANCH   7  15
ATOM     15  O   UNL     1     189.120 191.274  81.315  1.00  0.00    -0.385 OA
ATOM     16  H   UNL     1     188.264 191.643  81.655  1.00  0.00     0.211 HD
ENDBRANCH   7  15
ENDBRANCH   1   2
BRANCH   1  17
ATOM     17  C   UNL     1     190.665 193.976  82.934  1.00  0.00     0.224 C 
ATOM     18  C   UNL     1     190.044 195.391  82.711  1.00  0.00     0.208 C 
ATOM     19  O   UNL     1     189.752 193.188  83.682  1.00  0.00    -0.337 OA
ATOM     20  C   UNL     1     188.646 195.263  83.293  1.00  0.00     0.180 C 
ATOM     21  C   UNL     1     188.785 194.061  84.225  1.00  0.00     0.179 C 
BRANCH  17  22
ATOM     22  C   UNL     1     192.005 194.007  83.704  1.00  0.00     0.225 C 
BRANCH  22  23
ATOM     23  O   UNL     1     192.008 193.086  84.761  1.00  0.00    -0.391 OA
ATOM     24  H   UNL     1     191.324 193.405  85.406  1.00  0.00     0.210 HD
ENDBRANCH  22  23
ENDBRANCH  17  22
BRANCH  18  25
ATOM     25  O   UNL     1     190.792 196.436  83.295  1.00  0.00    -0.385 OA
ATOM     26  H   UNL     1     190.272 197.277  83.225  1.00  0.00     0.211 HD
ENDBRANCH  18  25
BRANCH  20  27
ATOM     27  O   UNL     1     188.253 196.419  83.990  1.00  0.00    -0.387 OA
ATOM     28  H   UNL     1     187.305 196.586  83.751  1.00  0.00     0.211 HD
ENDBRANCH  20  27
BRANCH  21  29
ATOM     29  C   UNL     1     187.462 193.317  84.442  1.00  0.00     0.191 C 
BRANCH  29  30
ATOM     30  O   UNL     1     186.405 194.222  84.606  1.00  0.00    -0.394 OA
ATOM     31  H   UNL     1     185.686 193.724  85.075  1.00  0.00     0.210 HD
ENDBRANCH  29  30
ENDBRANCH  21  29
ENDBRANCH   1  17
TORSDOF 13
ENDMDL
MODEL 4
REMARK VINA RESULT:    -5.626     14.215     17.530
REMARK INTER + INTRA:          -9.709
REMARK INTER:                  -8.520
REMARK INTRA:                  -1.189
REMARK UNBOUND:                -1.123
REMARK SMILES OC[C@H]1O[C@H](O[C@]2(CO)O[C@H](CO)[C@@H](O)[C@H]2O)[C@H](O)[C@@H](O)[C@@H]1O
REMARK SMILES IDX 6 1 5 2 3 3 22 4 4 5 20 6 18 7 2 8 1 9 23 11 21 13 19 15
REMARK SMILES IDX 7 17 16 18 10 19 14 20 11 21 8 22 9 23 17 25 15 27 12 29
REMARK SMILES IDX 13 30
REMARK H PARENT 1 10 23 12 21 14 19 16 9 24 17 26 15 28 13 31
REMARK Flexibility Score: inf
ROOT
ATOM      1  O   UNL     1     190.482 193.731  80.675  1.00  0.00    -0.313 OA
ENDROOT
BRANCH   1   2
ATOM      2  C   UNL     1     190.919 194.877  81.402  1.00  0.00     0.285 C 
ATOM      3  C   UNL     1     189.319 194.503  83.086  1.00  0.00     0.178 C 
ATOM      4  C   UNL     1     190.387 194.120  84.136  1.00  0.00     0.177 C 
ATOM      5  O   UNL     1     189.847 195.432  82.150  1.00  0.00    -0.341 OA
ATOM      6  C   UNL     1     191.626 193.545  83.430  1.00  0.00     0.179 C 
ATOM      7  C   UNL     1     192.095 194.506  82.327  1.00  0.00     0.202 C 
BRANCH   3   8
ATOM      8  C   UNL     1     188.099 195.144  83.763  1.00  0.00     0.191 C 
BRANCH   8   9
ATOM      9  O   UNL     1     188.208 196.542  83.745  1.00  0.00    -0.394 OA
ATOM     10  H   UNL     1     188.945 196.778  84.367  1.00  0.00     0.210 HD
ENDBRANCH   8   9
ENDBRANCH   3   8
BRANCH   4  11
ATOM     11  O   UNL     1     189.858 193.162  85.018  1.00  0.00    -0.387 OA
ATOM     12  H   UNL     1     189.969 192.277  84.581  1.00  0.00     0.211 HD
ENDBRANCH   4  11
BRANCH   6  13
ATOM     13  O   UNL     1     192.652 193.360  84.372  1.00  0.00    -0.387 OA
ATOM     14  H   UNL     1     192.682 194.180  84.930  1.00  0.00     0.211 HD
ENDBRANCH   6  13
BRANCH   7  15
ATOM     15  O   UNL     1     193.124 193.905  81.585  1.00  0.00    -0.385 OA
ATOM     16  H   UNL     1     193.933 193.913  82.159  1.00  0.00     0.211 HD
ENDBRANCH   7  15
ENDBRANCH   1   2
BRANCH   1  17
ATOM     17  C   UNL     1     190.258 193.953  79.286  1.00  0.00     0.224 C 
ATOM     18  C   UNL     1     190.784 195.359  78.861  1.00  0.00     0.208 C 
ATOM     19  O   UNL     1     190.917 192.964  78.511  1.00  0.00    -0.337 OA
ATOM     20  C   UNL     1     191.893 195.041  77.871  1.00  0.00     0.180 C 
ATOM     21  C   UNL     1     191.546 193.620  77.432  1.00  0.00     0.179 C 
BRANCH  17  22
ATOM     22  C   UNL     1     188.736 193.777  79.082  1.00  0.00     0.225 C 
BRANCH  22  23
ATOM     23  O   UNL     1     188.008 194.723  79.816  1.00  0.00    -0.391 OA
ATOM     24  H   UNL     1     187.069 194.653  79.505  1.00  0.00     0.210 HD
ENDBRANCH  22  23
ENDBRANCH  17  22
BRANCH  18  25
ATOM     25  O   UNL     1     189.785 196.198  78.320  1.00  0.00    -0.385 OA
ATOM     26  H   UNL     1     189.666 195.974  77.361  1.00  0.00     0.211 HD
ENDBRANCH  18  25
BRANCH  20  27
ATOM     27  O   UNL     1     191.906 195.933  76.784  1.00  0.00    -0.387 OA
ATOM     28  H   UNL     1     191.892 196.848  77.167  1.00  0.00     0.211 HD
ENDBRANCH  20  27
BRANCH  21  29
ATOM     29  C   UNL     1     192.771 192.823  76.967  1.00  0.00     0.191 C 
BRANCH  29  30
ATOM     30  O   UNL     1     192.379 191.634  76.337  1.00  0.00    -0.394 OA
ATOM     31  H   UNL     1     192.286 190.958  77.057  1.00  0.00     0.210 HD
ENDBRANCH  29  30
ENDBRANCH  21  29
ENDBRANCH   1  17
TORSDOF 13
ENDMDL
MODEL 5
REMARK VINA RESULT:    -5.607     13.594     16.851
REMARK INTER + INTRA:          -9.680
REMARK INTER:                  -8.485
REMARK INTRA:                  -1.195
REMARK UNBOUND:                -1.123
REMARK SMILES OC[C@H]1O[C@H](O[C@]2(CO)O[C@H](CO)[C@@H](O)[C@H]2O)[C@H](O)[C@@H](O)[C@@H]1O
REMARK SMILES IDX 6 1 5 2 3 3 22 4 4 5 20 6 18 7 2 8 1 9 23 11 21 13 19 15
REMARK SMILES IDX 7 17 16 18 10 19 14 20 11 21 8 22 9 23 17 25 15 27 12 29
REMARK SMILES IDX 13 30
REMARK H PARENT 1 10 23 12 21 14 19 16 9 24 17 26 15 28 13 31
REMARK Flexibility Score: inf
ROOT
ATOM      1  O   UNL     1     190.435 193.725  80.733  1.00  0.00    -0.313 OA
ENDROOT
BRANCH   1   2
ATOM      2  C   UNL     1     190.915 194.834  81.489  1.00  0.00     0.285 C 
ATOM      3  C   UNL     1     189.309 194.472  83.168  1.00  0.00     0.178 C 
ATOM      4  C   UNL     1     190.366 194.022  84.203  1.00  0.00     0.177 C 
ATOM      5  O   UNL     1     189.867 195.406  82.256  1.00  0.00    -0.341 OA
ATOM      6  C   UNL     1     191.580 193.421  83.476  1.00  0.00     0.179 C 
ATOM      7  C   UNL     1     192.080 194.396  82.398  1.00  0.00     0.202 C 
BRANCH   3   8
ATOM      8  C   UNL     1     188.115 195.137  83.868  1.00  0.00     0.191 C 
BRANCH   8   9
ATOM      9  O   UNL     1     188.230 196.534  83.809  1.00  0.00    -0.394 OA
ATOM     10  H   UNL     1     187.900 196.808  82.914  1.00  0.00     0.210 HD
ENDBRANCH   8   9
ENDBRANCH   3   8
BRANCH   4  11
ATOM     11  O   UNL     1     189.806 193.059  85.060  1.00  0.00    -0.387 OA
ATOM     12  H   UNL     1     188.821 193.182  85.026  1.00  0.00     0.211 HD
ENDBRANCH   4  11
BRANCH   6  13
ATOM     13  O   UNL     1     192.602 193.174  84.408  1.00  0.00    -0.387 OA
ATOM     14  H   UNL     1     192.185 193.202  85.308  1.00  0.00     0.211 HD
ENDBRANCH   6  13
BRANCH   7  15
ATOM     15  O   UNL     1     193.085 193.778  81.634  1.00  0.00    -0.385 OA
ATOM     16  H   UNL     1     193.950 194.145  81.951  1.00  0.00     0.211 HD
ENDBRANCH   7  15
ENDBRANCH   1   2
BRANCH   1  17
ATOM     17  C   UNL     1     190.241 193.985  79.346  1.00  0.00     0.224 C 
ATOM     18  C   UNL     1     188.723 194.164  79.026  1.00  0.00     0.208 C 
ATOM     19  O   UNL     1     190.932 195.162  78.958  1.00  0.00    -0.337 OA
ATOM     20  C   UNL     1     188.627 195.604  78.549  1.00  0.00     0.180 C 
ATOM     21  C   UNL     1     190.064 195.912  78.136  1.00  0.00     0.179 C 
BRANCH  17  22
ATOM     22  C   UNL     1     190.888 192.791  78.608  1.00  0.00     0.225 C 
BRANCH  22  23
ATOM     23  O   UNL     1     191.676 192.021  79.474  1.00  0.00    -0.391 OA
ATOM     24  H   UNL     1     191.809 192.571  80.289  1.00  0.00     0.210 HD
ENDBRANCH  22  23
ENDBRANCH  17  22
BRANCH  18  25
ATOM     25  O   UNL     1     188.229 193.236  78.084  1.00  0.00    -0.385 OA
ATOM     26  H   UNL     1     187.248 193.156  78.201  1.00  0.00     0.211 HD
ENDBRANCH  18  25
BRANCH  20  27
ATOM     27  O   UNL     1     187.734 195.748  77.472  1.00  0.00    -0.387 OA
ATOM     28  H   UNL     1     188.288 195.896  76.662  1.00  0.00     0.211 HD
ENDBRANCH  20  27
BRANCH  21  29
ATOM     29  C   UNL     1     190.406 197.404  78.228  1.00  0.00     0.191 C 
BRANCH  29  30
ATOM     30  O   UNL     1     190.804 197.743  79.528  1.00  0.00    -0.394 OA
ATOM     31  H   UNL     1     191.286 196.952  79.884  1.00  0.00     0.210 HD
ENDBRANCH  29  30
ENDBRANCH  21  29
ENDBRANCH   1  17
TORSDOF 13
ENDMDL
MODEL 6
REMARK VINA RESULT:    -5.537      1.589      6.067
REMARK INTER + INTRA:          -9.573
REMARK INTER:                  -8.163
REMARK INTRA:                  -1.411
REMARK UNBOUND:                -1.123
REMARK SMILES OC[C@H]1O[C@H](O[C@]2(CO)O[C@H](CO)[C@@H](O)[C@H]2O)[C@H](O)[C@@H](O)[C@@H]1O
REMARK SMILES IDX 6 1 5 2 3 3 22 4 4 5 20 6 18 7 2 8 1 9 23 11 21 13 19 15
REMARK SMILES IDX 7 17 16 18 10 19 14 20 11 21 8 22 9 23 17 25 15 27 12 29
REMARK SMILES IDX 13 30
REMARK H PARENT 1 10 23 12 21 14 19 16 9 24 17 26 15 28 13 31
REMARK Flexibility Score: inf
ROOT
ATOM      1  O   UNL     1     178.544 203.271  88.649  1.00  0.00    -0.313 OA
ENDROOT
BRANCH   1   2
ATOM      2  C   UNL     1     179.801 203.738  88.166  1.00  0.00     0.285 C 
ATOM      3  C   UNL     1     178.760 205.398  86.864  1.00  0.00     0.178 C 
ATOM      4  C   UNL     1     179.300 206.549  87.744  1.00  0.00     0.177 C 
ATOM      5  O   UNL     1     179.659 204.299  86.869  1.00  0.00    -0.341 OA
ATOM      6  C   UNL     1     179.537 206.040  89.175  1.00  0.00     0.179 C 
ATOM      7  C   UNL     1     180.400 204.769  89.143  1.00  0.00     0.202 C 
BRANCH   3   8
ATOM      8  C   UNL     1     178.579 205.865  85.412  1.00  0.00     0.191 C 
BRANCH   8   9
ATOM      9  O   UNL     1     179.523 206.853  85.096  1.00  0.00    -0.394 OA
ATOM     10  H   UNL     1     180.331 206.379  84.767  1.00  0.00     0.210 HD
ENDBRANCH   8   9
ENDBRANCH   3   8
BRANCH   4  11
ATOM     11  O   UNL     1     178.369 207.602  87.765  1.00  0.00    -0.387 OA
ATOM     12  H   UNL     1     177.685 207.367  88.447  1.00  0.00     0.211 HD
ENDBRANCH   4  11
BRANCH   6  13
ATOM     13  O   UNL     1     180.185 207.039  89.920  1.00  0.00    -0.387 OA
ATOM     14  H   UNL     1     179.741 207.898  89.698  1.00  0.00     0.211 HD
ENDBRANCH   6  13
BRANCH   7  15
ATOM     15  O   UNL     1     180.480 204.222  90.435  1.00  0.00    -0.385 OA
ATOM     16  H   UNL     1     179.680 204.538  90.929  1.00  0.00     0.211 HD
ENDBRANCH   7  15
ENDBRANCH   1   2
BRANCH   1  17
ATOM     17  C   UNL     1     178.422 201.854  88.728  1.00  0.00     0.224 C 
ATOM     18  C   UNL     1     177.390 201.331  87.680  1.00  0.00     0.208 C 
ATOM     19  O   UNL     1     179.675 201.232  88.486  1.00  0.00    -0.337 OA
ATOM     20  C   UNL     1     178.228 200.463  86.755  1.00  0.00     0.180 C 
ATOM     21  C   UNL     1     179.447 200.142  87.618  1.00  0.00     0.179 C 
BRANCH  17  22
ATOM     22  C   UNL     1     178.020 201.555  90.190  1.00  0.00     0.225 C 
BRANCH  22  23
ATOM     23  O   UNL     1     179.075 201.817  91.074  1.00  0.00    -0.391 OA
ATOM     24  H   UNL     1     179.426 202.712  90.828  1.00  0.00     0.210 HD
ENDBRANCH  22  23
ENDBRANCH  17  22
BRANCH  18  25
ATOM     25  O   UNL     1     176.302 200.637  88.253  1.00  0.00    -0.385 OA
ATOM     26  H   UNL     1     175.654 200.413  87.537  1.00  0.00     0.211 HD
ENDBRANCH  18  25
BRANCH  20  27
ATOM     27  O   UNL     1     177.549 199.297  86.361  1.00  0.00    -0.387 OA
ATOM     28  H   UNL     1     176.687 199.590  85.966  1.00  0.00     0.211 HD
ENDBRANCH  20  27
BRANCH  21  29
ATOM     29  C   UNL     1     180.704 199.851  86.791  1.00  0.00     0.191 C 
BRANCH  29  30
ATOM     30  O   UNL     1     181.696 200.810  87.041  1.00  0.00    -0.394 OA
ATOM     31  H   UNL     1     181.372 201.654  86.634  1.00  0.00     0.210 HD
ENDBRANCH  29  30
ENDBRANCH  21  29
ENDBRANCH   1  17
TORSDOF 13
ENDMDL
MODEL 7
REMARK VINA RESULT:    -5.519      1.455      5.868
REMARK INTER + INTRA:          -9.546
REMARK INTER:                  -8.198
REMARK INTRA:                  -1.347
REMARK UNBOUND:                -1.123
REMARK SMILES OC[C@H]1O[C@H](O[C@]2(CO)O[C@H](CO)[C@@H](O)[C@H]2O)[C@H](O)[C@@H](O)[C@@H]1O
REMARK SMILES IDX 6 1 5 2 3 3 22 4 4 5 20 6 18 7 2 8 1 9 23 11 21 13 19 15
REMARK SMILES IDX 7 17 16 18 10 19 14 20 11 21 8 22 9 23 17 25 15 27 12 29
REMARK SMILES IDX 13 30
REMARK H PARENT 1 10 23 12 21 14 19 16 9 24 17 26 15 28 13 31
REMARK Flexibility Score: inf
ROOT
ATOM      1  O   UNL     1     179.247 204.865  86.323  1.00  0.00    -0.313 OA
ENDROOT
BRANCH   1   2
ATOM      2  C   UNL     1     178.163 205.606  86.877  1.00  0.00     0.285 C 
ATOM      3  C   UNL     1     179.623 206.876  88.213  1.00  0.00     0.178 C 
ATOM      4  C   UNL     1     179.370 208.173  87.410  1.00  0.00     0.177 C 
ATOM      5  O   UNL     1     178.475 206.041  88.191  1.00  0.00    -0.341 OA
ATOM      6  C   UNL     1     178.975 207.820  85.967  1.00  0.00     0.179 C 
ATOM      7  C   UNL     1     177.820 206.806  85.972  1.00  0.00     0.202 C 
BRANCH   3   8
ATOM      8  C   UNL     1     179.954 207.202  89.677  1.00  0.00     0.191 C 
BRANCH   8   9
ATOM      9  O   UNL     1     178.803 207.098  90.473  1.00  0.00    -0.394 OA
ATOM     10  H   UNL     1     178.343 207.977  90.424  1.00  0.00     0.210 HD
ENDBRANCH   8   9
ENDBRANCH   3   8
BRANCH   4  11
ATOM     11  O   UNL     1     180.537 208.957  87.402  1.00  0.00    -0.387 OA
ATOM     12  H   UNL     1     180.279 209.860  87.726  1.00  0.00     0.211 HD
ENDBRANCH   4  11
BRANCH   6  13
ATOM     13  O   UNL     1     178.582 208.989  85.295  1.00  0.00    -0.387 OA
ATOM     14  H   UNL     1     178.579 209.720  85.966  1.00  0.00     0.211 HD
ENDBRANCH   6  13
BRANCH   7  15
ATOM     15  O   UNL     1     177.571 206.369  84.661  1.00  0.00    -0.385 OA
ATOM     16  H   UNL     1     176.601 206.165  84.607  1.00  0.00     0.211 HD
ENDBRANCH   7  15
ENDBRANCH   1   2
BRANCH   1  17
ATOM     17  C   UNL     1     179.039 203.458  86.255  1.00  0.00     0.224 C 
ATOM     18  C   UNL     1     180.353 202.689  86.599  1.00  0.00     0.208 C 
ATOM     19  O   UNL     1     178.025 203.061  87.166  1.00  0.00    -0.337 OA
ATOM     20  C   UNL     1     180.002 201.930  87.868  1.00  0.00     0.180 C 
ATOM     21  C   UNL     1     178.476 201.894  87.820  1.00  0.00     0.179 C 
BRANCH  17  22
ATOM     22  C   UNL     1     178.522 203.186  84.824  1.00  0.00     0.225 C 
BRANCH  22  23
ATOM     23  O   UNL     1     179.266 203.892  83.869  1.00  0.00    -0.391 OA
ATOM     24  H   UNL     1     179.679 204.656  84.350  1.00  0.00     0.210 HD
ENDBRANCH  22  23
ENDBRANCH  17  22
BRANCH  18  25
ATOM     25  O   UNL     1     180.805 201.847  85.559  1.00  0.00    -0.385 OA
ATOM     26  H   UNL     1     180.870 202.378  84.725  1.00  0.00     0.211 HD
ENDBRANCH  18  25
BRANCH  20  27
ATOM     27  O   UNL     1     180.553 200.637  87.884  1.00  0.00    -0.387 OA
ATOM     28  H   UNL     1     180.233 200.202  88.716  1.00  0.00     0.211 HD
ENDBRANCH  20  27
BRANCH  21  29
ATOM     29  C   UNL     1     177.837 201.784  89.209  1.00  0.00     0.191 C 
BRANCH  29  30
ATOM     30  O   UNL     1     178.819 201.778  90.209  1.00  0.00    -0.394 OA
ATOM     31  H   UNL     1     179.486 201.096  89.935  1.00  0.00     0.210 HD
ENDBRANCH  29  30
ENDBRANCH  21  29
ENDBRANCH   1  17
TORSDOF 13
ENDMDL
MODEL 8
REMARK VINA RESULT:    -5.488     13.499     16.430
REMARK INTER + INTRA:          -9.499
REMARK INTER:                  -8.020
REMARK INTRA:                  -1.479
REMARK UNBOUND:                -1.123
REMARK SMILES OC[C@H]1O[C@H](O[C@]2(CO)O[C@H](CO)[C@@H](O)[C@H]2O)[C@H](O)[C@@H](O)[C@@H]1O
REMARK SMILES IDX 6 1 5 2 3 3 22 4 4 5 20 6 18 7 2 8 1 9 23 11 21 13 19 15
REMARK SMILES IDX 7 17 16 18 10 19 14 20 11 21 8 22 9 23 17 25 15 27 12 29
REMARK SMILES IDX 13 30
REMARK H PARENT 1 10 23 12 21 14 19 16 9 24 17 26 15 28 13 31
REMARK Flexibility Score: inf
ROOT
ATOM      1  O   UNL     1     189.844 194.408  82.342  1.00  0.00    -0.313 OA
ENDROOT
BRANCH   1   2
ATOM      2  C   UNL     1     188.557 194.766  81.845  1.00  0.00     0.285 C 
ATOM      3  C   UNL     1     187.815 192.538  81.965  1.00  0.00     0.178 C 
ATOM      4  C   UNL     1     186.835 192.835  83.124  1.00  0.00     0.177 C 
ATOM      5  O   UNL     1     187.975 193.681  81.138  1.00  0.00    -0.341 OA
ATOM      6  C   UNL     1     187.346 194.035  83.939  1.00  0.00     0.179 C 
ATOM      7  C   UNL     1     187.644 195.216  83.002  1.00  0.00     0.202 C 
BRANCH   3   8
ATOM      8  C   UNL     1     187.291 191.385  81.096  1.00  0.00     0.191 C 
BRANCH   8   9
ATOM      9  O   UNL     1     187.579 190.150  81.697  1.00  0.00    -0.394 OA
ATOM     10  H   UNL     1     186.711 189.771  81.996  1.00  0.00     0.210 HD
ENDBRANCH   8   9
ENDBRANCH   3   8
BRANCH   4  11
ATOM     11  O   UNL     1     186.734 191.708  83.957  1.00  0.00    -0.387 OA
ATOM     12  H   UNL     1     186.517 192.041  84.866  1.00  0.00     0.211 HD
ENDBRANCH   4  11
BRANCH   6  13
ATOM     13  O   UNL     1     186.369 194.405  84.878  1.00  0.00    -0.387 OA
ATOM     14  H   UNL     1     186.846 194.611  85.724  1.00  0.00     0.211 HD
ENDBRANCH   6  13
BRANCH   7  15
ATOM     15  O   UNL     1     188.256 196.250  83.728  1.00  0.00    -0.385 OA
ATOM     16  H   UNL     1     189.162 196.372  83.343  1.00  0.00     0.211 HD
ENDBRANCH   7  15
ENDBRANCH   1   2
BRANCH   1  17
ATOM     17  C   UNL     1     190.940 194.955  81.616  1.00  0.00     0.224 C 
ATOM     18  C   UNL     1     191.775 193.821  80.943  1.00  0.00     0.208 C 
ATOM     19  O   UNL     1     190.478 195.842  80.609  1.00  0.00    -0.337 OA
ATOM     20  C   UNL     1     191.617 194.095  79.456  1.00  0.00     0.180 C 
ATOM     21  C   UNL     1     191.208 195.566  79.433  1.00  0.00     0.179 C 
BRANCH  17  22
ATOM     22  C   UNL     1     191.744 195.784  82.644  1.00  0.00     0.225 C 
BRANCH  22  23
ATOM     23  O   UNL     1     190.912 196.654  83.362  1.00  0.00    -0.391 OA
ATOM     24  H   UNL     1     190.059 196.166  83.504  1.00  0.00     0.210 HD
ENDBRANCH  22  23
ENDBRANCH  17  22
BRANCH  18  25
ATOM     25  O   UNL     1     193.125 193.789  81.357  1.00  0.00    -0.385 OA
ATOM     26  H   UNL     1     193.186 194.162  82.273  1.00  0.00     0.211 HD
ENDBRANCH  18  25
BRANCH  20  27
ATOM     27  O   UNL     1     192.809 193.876  78.745  1.00  0.00    -0.387 OA
ATOM     28  H   UNL     1     192.579 193.292  77.977  1.00  0.00     0.211 HD
ENDBRANCH  20  27
BRANCH  21  29
ATOM     29  C   UNL     1     190.380 195.938  78.197  1.00  0.00     0.191 C 
BRANCH  29  30
ATOM     30  O   UNL     1     190.403 194.901  77.255  1.00  0.00    -0.394 OA
ATOM     31  H   UNL     1     190.961 195.225  76.501  1.00  0.00     0.210 HD
ENDBRANCH  29  30
ENDBRANCH  21  29
ENDBRANCH   1  17
TORSDOF 13
ENDMDL
MODEL 9
REMARK VINA RESULT:    -5.377     13.541     16.174
REMARK INTER + INTRA:          -9.330
REMARK INTER:                  -7.798
REMARK INTRA:                  -1.531
REMARK UNBOUND:                -1.123
REMARK SMILES OC[C@H]1O[C@H](O[C@]2(CO)O[C@H](CO)[C@@H](O)[C@H]2O)[C@H](O)[C@@H](O)[C@@H]1O
REMARK SMILES IDX 6 1 5 2 3 3 22 4 4 5 20 6 18 7 2 8 1 9 23 11 21 13 19 15
REMARK SMILES IDX 7 17 16 18 10 19 14 20 11 21 8 22 9 23 17 25 15 27 12 29
REMARK SMILES IDX 13 30
REMARK H PARENT 1 10 23 12 21 14 19 16 9 24 17 26 15 28 13 31
REMARK Flexibility Score: inf
ROOT
ATOM      1  O   UNL     1     188.309 193.923  82.132  1.00  0.00    -0.313 OA
ENDROOT
BRANCH   1   2
ATOM      2  C   UNL     1     188.640 194.275  80.791  1.00  0.00     0.285 C 
ATOM      3  C   UNL     1     187.715 192.276  79.966  1.00  0.00     0.178 C 
ATOM      4  C   UNL     1     186.538 193.003  79.275  1.00  0.00     0.177 C 
ATOM      5  O   UNL     1     188.863 193.110  80.011  1.00  0.00    -0.341 OA
ATOM      6  C   UNL     1     186.235 194.317  80.016  1.00  0.00     0.179 C 
ATOM      7  C   UNL     1     187.523 195.139  80.174  1.00  0.00     0.202 C 
BRANCH   3   8
ATOM      8  C   UNL     1     188.081 190.994  79.203  1.00  0.00     0.191 C 
BRANCH   8   9
ATOM      9  O   UNL     1     187.749 191.121  77.846  1.00  0.00    -0.394 OA
ATOM     10  H   UNL     1     188.432 190.611  77.338  1.00  0.00     0.210 HD
ENDBRANCH   8   9
ENDBRANCH   3   8
BRANCH   4  11
ATOM     11  O   UNL     1     185.400 192.179  79.291  1.00  0.00    -0.387 OA
ATOM     12  H   UNL     1     185.402 191.703  80.163  1.00  0.00     0.211 HD
ENDBRANCH   4  11
BRANCH   6  13
ATOM     13  O   UNL     1     185.285 195.051  79.287  1.00  0.00    -0.387 OA
ATOM     14  H   UNL     1     184.790 194.401  78.723  1.00  0.00     0.211 HD
ENDBRANCH   6  13
BRANCH   7  15
ATOM     15  O   UNL     1     187.272 196.257  80.986  1.00  0.00    -0.385 OA
ATOM     16  H   UNL     1     187.317 195.943  81.926  1.00  0.00     0.211 HD
ENDBRANCH   7  15
ENDBRANCH   1   2
BRANCH   1  17
ATOM     17  C   UNL     1     189.176 194.463  83.124  1.00  0.00     0.224 C 
ATOM     18  C   UNL     1     190.059 193.340  83.753  1.00  0.00     0.208 C 
ATOM     19  O   UNL     1     190.024 195.451  82.560  1.00  0.00    -0.337 OA
ATOM     20  C   UNL     1     191.474 193.738  83.364  1.00  0.00     0.180 C 
ATOM     21  C   UNL     1     191.325 195.228  83.060  1.00  0.00     0.179 C 
BRANCH  17  22
ATOM     22  C   UNL     1     188.249 195.162  84.146  1.00  0.00     0.225 C 
BRANCH  22  23
ATOM     23  O   UNL     1     188.044 196.508  83.812  1.00  0.00    -0.391 OA
ATOM     24  H   UNL     1     188.240 197.029  84.634  1.00  0.00     0.210 HD
ENDBRANCH  22  23
ENDBRANCH  17  22
BRANCH  18  25
ATOM     25  O   UNL     1     189.889 193.200  85.148  1.00  0.00    -0.385 OA
ATOM     26  H   UNL     1     189.886 192.235  85.373  1.00  0.00     0.211 HD
ENDBRANCH  18  25
BRANCH  20  27
ATOM     27  O   UNL     1     192.394 193.509  84.401  1.00  0.00    -0.387 OA
ATOM     28  H   UNL     1     192.999 194.295  84.424  1.00  0.00     0.211 HD
ENDBRANCH  20  27
BRANCH  21  29
ATOM     29  C   UNL     1     192.371 195.741  82.062  1.00  0.00     0.191 C 
BRANCH  29  30
ATOM     30  O   UNL     1     193.125 194.680  81.544  1.00  0.00    -0.394 OA
ATOM     31  H   UNL     1     192.562 193.868  81.640  1.00  0.00     0.210 HD
ENDBRANCH  29  30
ENDBRANCH  21  29
ENDBRANCH   1  17
TORSDOF 13
ENDMDL
