MODEL 1
REMARK VINA RESULT:    -4.332      0.000      0.000
REMARK INTER + INTRA:          -4.458
REMARK INTER:                  -4.458
REMARK INTRA:                   0.000
REMARK UNBOUND:                 0.000
REMARK SMILES Cc1cccc(O)c1C
REMARK SMILES IDX 1 1 2 2 8 3 6 4 5 5 4 6 3 7 9 8 7 9
REMARK H PARENT 7 10
REMARK Flexibility Score: inf
ROOT
ATOM      1  C   UNL     1      25.487 -41.674  29.348  1.00  0.00     0.045 C 
ATOM      2  C   UNL     1      24.783 -40.362  29.118  1.00  0.00    -0.045 A 
ATOM      3  C   UNL     1      25.309 -39.365  28.249  1.00  0.00    -0.006 A 
ATOM      4  C   UNL     1      24.591 -38.153  28.080  1.00  0.00     0.118 A 
ATOM      5  C   UNL     1      23.388 -37.950  28.761  1.00  0.00     0.046 A 
ATOM      6  C   UNL     1      22.880 -38.929  29.609  1.00  0.00     0.004 A 
ATOM      7  C   UNL     1      23.570 -40.126  29.788  1.00  0.00     0.004 A 
ATOM      8  C   UNL     1      26.609 -39.565  27.503  1.00  0.00     0.048 C 
ENDROOT
BRANCH   4   9
ATOM      9  O   UNL     1      25.047 -37.130  27.243  1.00  0.00    -0.508 OA
ATOM     10  H   UNL     1      25.031 -37.186  26.233  1.00  0.00     0.293 HD
ENDBRANCH   4   9
TORSDOF 1
ENDMDL
MODEL 2
REMARK VINA RESULT:    -4.300      9.572     10.702
REMARK INTER + INTRA:          -4.426
REMARK INTER:                  -4.426
REMARK INTRA:                   0.000
REMARK UNBOUND:                 0.000
REMARK SMILES Cc1cccc(O)c1C
REMARK SMILES IDX 1 1 2 2 8 3 6 4 5 5 4 6 3 7 9 8 7 9
REMARK H PARENT 7 10
REMARK Flexibility Score: inf
ROOT
ATOM      1  C   UNL     1      15.028 -45.058  33.091  1.00  0.00     0.045 C 
ATOM      2  C   UNL     1      15.470 -45.125  31.651  1.00  0.00    -0.045 A 
ATOM      3  C   UNL     1      16.843 -45.096  31.281  1.00  0.00    -0.006 A 
ATOM      4  C   UNL     1      17.185 -45.162  29.905  1.00  0.00     0.118 A 
ATOM      5  C   UNL     1      16.182 -45.254  28.937  1.00  0.00     0.046 A 
ATOM      6  C   UNL     1      14.841 -45.281  29.307  1.00  0.00     0.004 A 
ATOM      7  C   UNL     1      14.485 -45.217  30.652  1.00  0.00     0.004 A 
ATOM      8  C   UNL     1      17.945 -44.997  32.312  1.00  0.00     0.048 C 
ENDROOT
BRANCH   4   9
ATOM      9  O   UNL     1      18.513 -45.138  29.468  1.00  0.00    -0.508 OA
ATOM     10  H   UNL     1      19.049 -44.288  29.360  1.00  0.00     0.293 HD
ENDBRANCH   4   9
TORSDOF 1
ENDMDL
MODEL 3
REMARK VINA RESULT:    -4.247      9.154     10.331
REMARK INTER + INTRA:          -4.371
REMARK INTER:                  -4.371
REMARK INTRA:                   0.000
REMARK UNBOUND:                 0.000
REMARK SMILES Cc1cccc(O)c1C
REMARK SMILES IDX 1 1 2 2 8 3 6 4 5 5 4 6 3 7 9 8 7 9
REMARK H PARENT 7 10
REMARK Flexibility Score: inf
ROOT
ATOM      1  C   UNL     1      14.255 -45.428  29.077  1.00  0.00     0.045 C 
ATOM      2  C   UNL     1      15.420 -45.217  30.010  1.00  0.00    -0.045 A 
ATOM      3  C   UNL     1      16.760 -45.138  29.539  1.00  0.00    -0.006 A 
ATOM      4  C   UNL     1      17.807 -44.938  30.476  1.00  0.00     0.118 A 
ATOM      5  C   UNL     1      17.516 -44.821  31.837  1.00  0.00     0.046 A 
ATOM      6  C   UNL     1      16.203 -44.899  32.291  1.00  0.00     0.004 A 
ATOM      7  C   UNL     1      15.162 -45.096  31.386  1.00  0.00     0.004 A 
ATOM      8  C   UNL     1      17.097 -45.262  28.070  1.00  0.00     0.048 C 
ENDROOT
BRANCH   4   9
ATOM      9  O   UNL     1      19.146 -44.851  30.086  1.00  0.00    -0.508 OA
ATOM     10  H   UNL     1      19.922 -44.948  30.729  1.00  0.00     0.293 HD
ENDBRANCH   4   9
TORSDOF 1
ENDMDL
MODEL 4
REMARK VINA RESULT:    -4.138      6.581      7.460
REMARK INTER + INTRA:          -4.259
REMARK INTER:                  -4.259
REMARK INTRA:                   0.000
REMARK UNBOUND:                 0.000
REMARK SMILES Cc1cccc(O)c1C
REMARK SMILES IDX 1 1 2 2 8 3 6 4 5 5 4 6 3 7 9 8 7 9
REMARK H PARENT 7 10
REMARK Flexibility Score: inf
ROOT
ATOM      1  C   UNL     1      18.272 -40.477  24.152  1.00  0.00     0.045 C 
ATOM      2  C   UNL     1      18.392 -40.636  25.646  1.00  0.00    -0.045 A 
ATOM      3  C   UNL     1      18.398 -41.913  26.271  1.00  0.00    -0.006 A 
ATOM      4  C   UNL     1      18.515 -41.987  27.683  1.00  0.00     0.118 A 
ATOM      5  C   UNL     1      18.621 -40.817  28.439  1.00  0.00     0.046 A 
ATOM      6  C   UNL     1      18.614 -39.571  27.821  1.00  0.00     0.004 A 
ATOM      7  C   UNL     1      18.501 -39.478  26.436  1.00  0.00     0.004 A 
ATOM      8  C   UNL     1      18.285 -43.192  25.472  1.00  0.00     0.048 C 
ENDROOT
BRANCH   4   9
ATOM      9  O   UNL     1      18.527 -43.207  28.365  1.00  0.00    -0.508 OA
ATOM     10  H   UNL     1      19.291 -43.868  28.312  1.00  0.00     0.293 HD
ENDBRANCH   4   9
TORSDOF 1
ENDMDL
MODEL 5
REMARK VINA RESULT:    -4.125      6.333      6.961
REMARK INTER + INTRA:          -4.245
REMARK INTER:                  -4.245
REMARK INTRA:                   0.000
REMARK UNBOUND:                 0.000
REMARK SMILES Cc1cccc(O)c1C
REMARK SMILES IDX 1 1 2 2 8 3 6 4 5 5 4 6 3 7 9 8 7 9
REMARK H PARENT 7 10
REMARK Flexibility Score: inf
ROOT
ATOM      1  C   UNL     1      18.152 -43.319  25.701  1.00  0.00     0.045 C 
ATOM      2  C   UNL     1      18.322 -41.922  26.240  1.00  0.00    -0.045 A 
ATOM      3  C   UNL     1      18.412 -40.788  25.385  1.00  0.00    -0.006 A 
ATOM      4  C   UNL     1      18.571 -39.502  25.962  1.00  0.00     0.118 A 
ATOM      5  C   UNL     1      18.639 -39.361  27.351  1.00  0.00     0.046 A 
ATOM      6  C   UNL     1      18.550 -40.474  28.181  1.00  0.00     0.004 A 
ATOM      7  C   UNL     1      18.393 -41.745  27.633  1.00  0.00     0.004 A 
ATOM      8  C   UNL     1      18.341 -40.918  23.880  1.00  0.00     0.048 C 
ENDROOT
BRANCH   4   9
ATOM      9  O   UNL     1      18.667 -38.345  25.185  1.00  0.00    -0.508 OA
ATOM     10  H   UNL     1      18.037 -37.559  25.275  1.00  0.00     0.293 HD
ENDBRANCH   4   9
TORSDOF 1
ENDMDL
MODEL 6
REMARK VINA RESULT:    -4.035      7.796      9.034
REMARK INTER + INTRA:          -4.153
REMARK INTER:                  -4.153
REMARK INTRA:                   0.000
REMARK UNBOUND:                 0.000
REMARK SMILES Cc1cccc(O)c1C
REMARK SMILES IDX 1 1 2 2 8 3 6 4 5 5 4 6 3 7 9 8 7 9
REMARK H PARENT 7 10
REMARK Flexibility Score: inf
ROOT
ATOM      1  C   UNL     1      15.525 -44.693  31.338  1.00  0.00     0.045 C 
ATOM      2  C   UNL     1      16.960 -44.350  31.646  1.00  0.00    -0.045 A 
ATOM      3  C   UNL     1      18.025 -44.701  30.770  1.00  0.00    -0.006 A 
ATOM      4  C   UNL     1      19.352 -44.345  31.125  1.00  0.00     0.118 A 
ATOM      5  C   UNL     1      19.599 -43.661  32.318  1.00  0.00     0.046 A 
ATOM      6  C   UNL     1      18.552 -43.322  33.170  1.00  0.00     0.004 A 
ATOM      7  C   UNL     1      17.243 -43.663  32.839  1.00  0.00     0.004 A 
ATOM      8  C   UNL     1      17.780 -45.440  29.474  1.00  0.00     0.048 C 
ENDROOT
BRANCH   4   9
ATOM      9  O   UNL     1      20.447 -44.656  30.314  1.00  0.00    -0.508 OA
ATOM     10  H   UNL     1      20.515 -44.387  29.341  1.00  0.00     0.293 HD
ENDBRANCH   4   9
TORSDOF 1
ENDMDL
MODEL 7
REMARK VINA RESULT:    -4.014      8.898     10.299
REMARK INTER + INTRA:          -4.132
REMARK INTER:                  -4.132
REMARK INTRA:                   0.000
REMARK UNBOUND:                 0.000
REMARK SMILES Cc1cccc(O)c1C
REMARK SMILES IDX 1 1 2 2 8 3 6 4 5 5 4 6 3 7 9 8 7 9
REMARK H PARENT 7 10
REMARK Flexibility Score: inf
ROOT
ATOM      1  C   UNL     1      16.745 -41.369  33.245  1.00  0.00     0.045 C 
ATOM      2  C   UNL     1      16.652 -42.866  33.100  1.00  0.00    -0.045 A 
ATOM      3  C   UNL     1      17.798 -43.674  32.859  1.00  0.00    -0.006 A 
ATOM      4  C   UNL     1      17.636 -45.078  32.734  1.00  0.00     0.118 A 
ATOM      5  C   UNL     1      16.365 -45.648  32.846  1.00  0.00     0.046 A 
ATOM      6  C   UNL     1      15.249 -44.852  33.081  1.00  0.00     0.004 A 
ATOM      7  C   UNL     1      15.389 -43.472  33.208  1.00  0.00     0.004 A 
ATOM      8  C   UNL     1      19.182 -43.077  32.735  1.00  0.00     0.048 C 
ENDROOT
BRANCH   4   9
ATOM      9  O   UNL     1      18.715 -45.933  32.497  1.00  0.00    -0.508 OA
ATOM     10  H   UNL     1      19.582 -45.633  32.070  1.00  0.00     0.293 HD
ENDBRANCH   4   9
TORSDOF 1
ENDMDL
MODEL 8
REMARK VINA RESULT:    -4.004      7.761      8.659
REMARK INTER + INTRA:          -4.121
REMARK INTER:                  -4.121
REMARK INTRA:                   0.000
REMARK UNBOUND:                 0.000
REMARK SMILES Cc1cccc(O)c1C
REMARK SMILES IDX 1 1 2 2 8 3 6 4 5 5 4 6 3 7 9 8 7 9
REMARK H PARENT 7 10
REMARK Flexibility Score: inf
ROOT
ATOM      1  C   UNL     1      18.984 -42.416  24.683  1.00  0.00     0.045 C 
ATOM      2  C   UNL     1      18.240 -43.086  25.810  1.00  0.00    -0.045 A 
ATOM      3  C   UNL     1      17.900 -42.396  27.006  1.00  0.00    -0.006 A 
ATOM      4  C   UNL     1      17.198 -43.090  28.025  1.00  0.00     0.118 A 
ATOM      5  C   UNL     1      16.852 -44.432  27.848  1.00  0.00     0.046 A 
ATOM      6  C   UNL     1      17.188 -45.101  26.675  1.00  0.00     0.004 A 
ATOM      7  C   UNL     1      17.877 -44.436  25.663  1.00  0.00     0.004 A 
ATOM      8  C   UNL     1      18.264 -40.944  27.219  1.00  0.00     0.048 C 
ENDROOT
BRANCH   4   9
ATOM      9  O   UNL     1      16.832 -42.477  29.226  1.00  0.00    -0.508 OA
ATOM     10  H   UNL     1      17.456 -41.894  29.769  1.00  0.00     0.293 HD
ENDBRANCH   4   9
TORSDOF 1
ENDMDL
MODEL 9
REMARK VINA RESULT:    -3.985      8.611      9.790
REMARK INTER + INTRA:          -4.102
REMARK INTER:                  -4.102
REMARK INTRA:                   0.000
REMARK UNBOUND:                 0.000
REMARK SMILES Cc1cccc(O)c1C
REMARK SMILES IDX 1 1 2 2 8 3 6 4 5 5 4 6 3 7 9 8 7 9
REMARK H PARENT 7 10
REMARK Flexibility Score: inf
ROOT
ATOM      1  C   UNL     1      18.589 -45.834  32.888  1.00  0.00     0.045 C 
ATOM      2  C   UNL     1      17.534 -44.759  32.925  1.00  0.00    -0.045 A 
ATOM      3  C   UNL     1      17.865 -43.379  33.027  1.00  0.00    -0.006 A 
ATOM      4  C   UNL     1      16.819 -42.421  33.056  1.00  0.00     0.118 A 
ATOM      5  C   UNL     1      15.486 -42.837  32.986  1.00  0.00     0.046 A 
ATOM      6  C   UNL     1      15.170 -44.188  32.887  1.00  0.00     0.004 A 
ATOM      7  C   UNL     1      16.183 -45.143  32.857  1.00  0.00     0.004 A 
ATOM      8  C   UNL     1      19.299 -42.908  33.104  1.00  0.00     0.048 C 
ENDROOT
BRANCH   4   9
ATOM      9  O   UNL     1      17.069 -41.049  33.155  1.00  0.00    -0.508 OA
ATOM     10  H   UNL     1      16.936 -40.402  32.390  1.00  0.00     0.293 HD
ENDBRANCH   4   9
TORSDOF 1
ENDMDL
