MODEL 1
REMARK VINA RESULT:    -3.541      0.000      0.000
REMARK INTER + INTRA:          -3.866
REMARK INTER:                  -3.852
REMARK INTRA:                  -0.015
REMARK UNBOUND:                -0.015
REMARK SMILES OCc1ccco1
REMARK SMILES IDX 2 1 3 2 5 3 6 4 4 5 7 6 1 7
REMARK H PARENT 1 8
REMARK Flexibility Score: inf
ROOT
ATOM      1  C   UNL     1      48.514 -20.392  14.659  1.00  0.00     0.231 C 
ENDROOT
BRANCH   1   2
ATOM      2  C   UNL     1      49.734 -19.627  14.251  1.00  0.00     0.129 A 
ATOM      3  C   UNL     1      51.260 -18.061  14.047  1.00  0.00     0.042 A 
ATOM      4  C   UNL     1      51.619 -19.200  13.353  1.00  0.00     0.195 A 
ATOM      5  C   UNL     1      50.042 -18.337  14.631  1.00  0.00     0.048 A 
ATOM      6  O   UNL     1      50.690 -20.117  13.497  1.00  0.00    -0.467 OA
ENDBRANCH   1   2
BRANCH   1   7
ATOM      7  O   UNL     1      48.819 -21.245  15.727  1.00  0.00    -0.388 OA
ATOM      8  H   UNL     1      47.956 -21.476  16.161  1.00  0.00     0.211 HD
ENDBRANCH   1   7
TORSDOF 2
ENDMDL
MODEL 2
REMARK VINA RESULT:    -3.518     16.981     17.902
REMARK INTER + INTRA:          -3.841
REMARK INTER:                  -3.828
REMARK INTRA:                  -0.013
REMARK UNBOUND:                -0.015
REMARK SMILES OCc1ccco1
REMARK SMILES IDX 2 1 3 2 5 3 6 4 4 5 7 6 1 7
REMARK H PARENT 1 8
REMARK Flexibility Score: inf
ROOT
ATOM      1  C   UNL     1      35.987 -12.474  17.645  1.00  0.00     0.231 C 
ENDROOT
BRANCH   1   2
ATOM      2  C   UNL     1      34.809 -11.722  17.112  1.00  0.00     0.129 A 
ATOM      3  C   UNL     1      33.480 -10.115  16.423  1.00  0.00     0.042 A 
ATOM      4  C   UNL     1      32.895 -11.354  16.248  1.00  0.00     0.195 A 
ATOM      5  C   UNL     1      34.719 -10.352  16.978  1.00  0.00     0.048 A 
ATOM      6  O   UNL     1      33.714 -12.292  16.666  1.00  0.00    -0.467 OA
ENDBRANCH   1   2
BRANCH   1   7
ATOM      7  O   UNL     1      36.255 -12.075  18.961  1.00  0.00    -0.388 OA
ATOM      8  H   UNL     1      35.989 -11.120  19.028  1.00  0.00     0.211 HD
ENDBRANCH   1   7
TORSDOF 2
ENDMDL
MODEL 3
REMARK VINA RESULT:    -3.387      1.715      3.017
REMARK INTER + INTRA:          -3.699
REMARK INTER:                  -3.679
REMARK INTRA:                  -0.020
REMARK UNBOUND:                -0.015
REMARK SMILES OCc1ccco1
REMARK SMILES IDX 2 1 3 2 5 3 6 4 4 5 7 6 1 7
REMARK H PARENT 1 8
REMARK Flexibility Score: inf
ROOT
ATOM      1  C   UNL     1      50.932 -17.096  14.596  1.00  0.00     0.231 C 
ENDROOT
BRANCH   1   2
ATOM      2  C   UNL     1      50.549 -18.509  14.290  1.00  0.00     0.129 A 
ATOM      3  C   UNL     1      49.435 -20.396  14.131  1.00  0.00     0.042 A 
ATOM      4  C   UNL     1      50.659 -20.484  13.496  1.00  0.00     0.195 A 
ATOM      5  C   UNL     1      49.362 -19.118  14.642  1.00  0.00     0.048 A 
ATOM      6  O   UNL     1      51.298 -19.341  13.606  1.00  0.00    -0.467 OA
ENDBRANCH   1   2
BRANCH   1   7
ATOM      7  O   UNL     1      52.326 -16.980  14.660  1.00  0.00    -0.388 OA
ATOM      8  H   UNL     1      52.603 -16.438  13.876  1.00  0.00     0.211 HD
ENDBRANCH   1   7
TORSDOF 2
ENDMDL
MODEL 4
REMARK VINA RESULT:    -3.336      2.640      3.177
REMARK INTER + INTRA:          -3.643
REMARK INTER:                  -3.625
REMARK INTRA:                  -0.018
REMARK UNBOUND:                -0.015
REMARK SMILES OCc1ccco1
REMARK SMILES IDX 2 1 3 2 5 3 6 4 4 5 7 6 1 7
REMARK H PARENT 1 8
REMARK Flexibility Score: inf
ROOT
ATOM      1  C   UNL     1      50.504 -17.183  14.798  1.00  0.00     0.231 C 
ENDROOT
BRANCH   1   2
ATOM      2  C   UNL     1      51.318 -18.144  13.991  1.00  0.00     0.129 A 
ATOM      3  C   UNL     1      52.006 -19.495  12.402  1.00  0.00     0.042 A 
ATOM      4  C   UNL     1      52.962 -19.360  13.390  1.00  0.00     0.195 A 
ATOM      5  C   UNL     1      50.944 -18.707  12.788  1.00  0.00     0.048 A 
ATOM      6  O   UNL     1      52.523 -18.545  14.321  1.00  0.00    -0.467 OA
ENDBRANCH   1   2
BRANCH   1   7
ATOM      7  O   UNL     1      51.251 -16.028  15.063  1.00  0.00    -0.388 OA
ATOM      8  H   UNL     1      51.889 -16.262  15.787  1.00  0.00     0.211 HD
ENDBRANCH   1   7
TORSDOF 2
ENDMDL
MODEL 5
REMARK VINA RESULT:    -3.325      1.413      3.373
REMARK INTER + INTRA:          -3.631
REMARK INTER:                  -3.617
REMARK INTRA:                  -0.014
REMARK UNBOUND:                -0.015
REMARK SMILES OCc1ccco1
REMARK SMILES IDX 2 1 3 2 5 3 6 4 4 5 7 6 1 7
REMARK H PARENT 1 8
REMARK Flexibility Score: inf
ROOT
ATOM      1  C   UNL     1      53.076 -19.532  12.774  1.00  0.00     0.231 C 
ENDROOT
BRANCH   1   2
ATOM      2  C   UNL     1      51.779 -19.316  13.487  1.00  0.00     0.129 A 
ATOM      3  C   UNL     1      50.119 -18.400  14.595  1.00  0.00     0.042 A 
ATOM      4  C   UNL     1      49.823 -19.702  14.242  1.00  0.00     0.195 A 
ATOM      5  C   UNL     1      51.382 -18.148  14.104  1.00  0.00     0.048 A 
ATOM      6  O   UNL     1      50.832 -20.220  13.580  1.00  0.00    -0.467 OA
ENDBRANCH   1   2
BRANCH   1   7
ATOM      7  O   UNL     1      53.109 -18.773  11.598  1.00  0.00    -0.388 OA
ATOM      8  H   UNL     1      52.469 -18.024  11.725  1.00  0.00     0.211 HD
ENDBRANCH   1   7
TORSDOF 2
ENDMDL
MODEL 6
REMARK VINA RESULT:    -3.017     16.519     17.857
REMARK INTER + INTRA:          -3.297
REMARK INTER:                  -3.284
REMARK INTRA:                  -0.012
REMARK UNBOUND:                -0.015
REMARK SMILES OCc1ccco1
REMARK SMILES IDX 2 1 3 2 5 3 6 4 4 5 7 6 1 7
REMARK H PARENT 1 8
REMARK Flexibility Score: inf
ROOT
ATOM      1  C   UNL     1      34.504 -24.208  18.489  1.00  0.00     0.231 C 
ENDROOT
BRANCH   1   2
ATOM      2  C   UNL     1      33.935 -23.829  19.819  1.00  0.00     0.129 A 
ATOM      3  C   UNL     1      33.043 -22.696  21.477  1.00  0.00     0.042 A 
ATOM      4  C   UNL     1      33.198 -24.028  21.809  1.00  0.00     0.195 A 
ATOM      5  C   UNL     1      33.516 -22.567  20.188  1.00  0.00     0.048 A 
ATOM      6  O   UNL     1      33.729 -24.678  20.799  1.00  0.00    -0.467 OA
ENDBRANCH   1   2
BRANCH   1   7
ATOM      7  O   UNL     1      35.845 -23.810  18.410  1.00  0.00    -0.388 OA
ATOM      8  H   UNL     1      35.858 -22.954  17.908  1.00  0.00     0.211 HD
ENDBRANCH   1   7
TORSDOF 2
ENDMDL
MODEL 7
REMARK VINA RESULT:    -3.015     18.091     18.939
REMARK INTER + INTRA:          -3.294
REMARK INTER:                  -3.281
REMARK INTRA:                  -0.013
REMARK UNBOUND:                -0.015
REMARK SMILES OCc1ccco1
REMARK SMILES IDX 2 1 3 2 5 3 6 4 4 5 7 6 1 7
REMARK H PARENT 1 8
REMARK Flexibility Score: inf
ROOT
ATOM      1  C   UNL     1      32.904  -8.986  16.033  1.00  0.00     0.231 C 
ENDROOT
BRANCH   1   2
ATOM      2  C   UNL     1      33.585 -10.264  16.408  1.00  0.00     0.129 A 
ATOM      3  C   UNL     1      34.987 -11.725  17.259  1.00  0.00     0.042 A 
ATOM      4  C   UNL     1      33.940 -12.355  16.615  1.00  0.00     0.195 A 
ATOM      5  C   UNL     1      34.757 -10.372  17.129  1.00  0.00     0.048 A 
ATOM      6  O   UNL     1      33.119 -11.457  16.121  1.00  0.00    -0.467 OA
ENDBRANCH   1   2
BRANCH   1   7
ATOM      7  O   UNL     1      33.233  -8.636  14.717  1.00  0.00    -0.388 OA
ATOM      8  H   UNL     1      34.190  -8.873  14.591  1.00  0.00     0.211 HD
ENDBRANCH   1   7
TORSDOF 2
ENDMDL
MODEL 8
REMARK VINA RESULT:    -2.960     17.693     18.514
REMARK INTER + INTRA:          -3.234
REMARK INTER:                  -3.213
REMARK INTRA:                  -0.021
REMARK UNBOUND:                -0.015
REMARK SMILES OCc1ccco1
REMARK SMILES IDX 2 1 3 2 5 3 6 4 4 5 7 6 1 7
REMARK H PARENT 1 8
REMARK Flexibility Score: inf
ROOT
ATOM      1  C   UNL     1      32.930 -22.728  22.620  1.00  0.00     0.231 C 
ENDROOT
BRANCH   1   2
ATOM      2  C   UNL     1      33.341 -23.300  21.300  1.00  0.00     0.129 A 
ATOM      3  C   UNL     1      34.195 -23.543  19.291  1.00  0.00     0.042 A 
ATOM      4  C   UNL     1      33.653 -24.728  19.749  1.00  0.00     0.195 A 
ATOM      5  C   UNL     1      33.997 -22.619  20.295  1.00  0.00     0.048 A 
ATOM      6  O   UNL     1      33.155 -24.551  20.951  1.00  0.00    -0.467 OA
ENDBRANCH   1   2
BRANCH   1   7
ATOM      7  O   UNL     1      32.876 -23.741  23.585  1.00  0.00    -0.388 OA
ATOM      8  H   UNL     1      31.957 -23.727  23.962  1.00  0.00     0.211 HD
ENDBRANCH   1   7
TORSDOF 2
ENDMDL
