MODEL 1
REMARK VINA RESULT:    -4.726      0.000      0.000
REMARK INTER + INTRA:          -8.930
REMARK INTER:                  -8.317
REMARK INTRA:                  -0.613
REMARK UNBOUND:                -0.613
REMARK SMILES CCCCCCCCCCCCCCC(=O)[O-]
REMARK SMILES IDX 9 1 10 2 11 3 12 4 13 5 14 6 15 7 16 8 17 9 8 10 7 11 6 12
REMARK SMILES IDX 5 13 4 14 3 15 2 16 1 17
REMARK H PARENT
REMARK Flexibility Score: inf
ROOT
ATOM      1  C   UNL     1      -8.177  20.584  14.113  1.00  0.00     0.000 C 
ENDROOT
BRANCH   1   2
ATOM      2  C   UNL     1      -9.203  21.706  14.329  1.00  0.00     0.000 C 
BRANCH   2   3
ATOM      3  C   UNL     1      -8.557  23.028  14.777  1.00  0.00     0.000 C 
BRANCH   3   4
ATOM      4  C   UNL     1      -8.296  24.044  13.646  1.00  0.00     0.000 C 
BRANCH   4   5
ATOM      5  C   UNL     1      -8.495  25.523  14.036  1.00  0.00     0.006 C 
BRANCH   5   6
ATOM      6  C   UNL     1      -9.278  26.351  13.005  1.00  0.00     0.053 C 
BRANCH   6   7
ATOM      7  C   UNL     1      -9.048  27.821  13.173  1.00  0.00     0.041 C 
ATOM      8  O   UNL     1      -7.928  28.247  13.560  1.00  0.00    -0.550 OA
ATOM      9  O   UNL     1     -10.082  28.719  12.940  1.00  0.00    -0.550 OA
ENDBRANCH   6   7
ENDBRANCH   5   6
ENDBRANCH   4   5
ENDBRANCH   3   4
ENDBRANCH   2   3
ENDBRANCH   1   2
BRANCH   1  10
ATOM     10  C   UNL     1      -6.926  20.811  14.969  1.00  0.00     0.000 C 
BRANCH  10  11
ATOM     11  C   UNL     1      -5.708  20.101  14.365  1.00  0.00    -0.000 C 
BRANCH  11  12
ATOM     12  C   UNL     1      -5.477  18.739  15.031  1.00  0.00    -0.000 C 
BRANCH  12  13
ATOM     13  C   UNL     1      -4.329  17.982  14.349  1.00  0.00    -0.000 C 
BRANCH  13  14
ATOM     14  C   UNL     1      -3.683  18.788  13.210  1.00  0.00    -0.000 C 
BRANCH  14  15
ATOM     15  C   UNL     1      -2.318  18.219  12.783  1.00  0.00    -0.000 C 
BRANCH  15  16
ATOM     16  C   UNL     1      -2.290  16.683  12.805  1.00  0.00    -0.003 C 
ATOM     17  C   UNL     1      -1.406  16.092  11.707  1.00  0.00     0.004 C 
ENDBRANCH  15  16
ENDBRANCH  14  15
ENDBRANCH  13  14
ENDBRANCH  12  13
ENDBRANCH  11  12
ENDBRANCH  10  11
ENDBRANCH   1  10
TORSDOF 13
ENDMDL
MODEL 2
REMARK VINA RESULT:    -4.382      5.612     10.237
REMARK INTER + INTRA:          -8.326
REMARK INTER:                  -7.856
REMARK INTRA:                  -0.470
REMARK UNBOUND:                -0.613
REMARK SMILES CCCCCCCCCCCCCCC(=O)[O-]
REMARK SMILES IDX 9 1 10 2 11 3 12 4 13 5 14 6 15 7 16 8 17 9 8 10 7 11 6 12
REMARK SMILES IDX 5 13 4 14 3 15 2 16 1 17
REMARK H PARENT
REMARK Flexibility Score: inf
ROOT
ATOM      1  C   UNL     1      -5.127  19.397  13.659  1.00  0.00     0.000 C 
ENDROOT
BRANCH   1   2
ATOM      2  C   UNL     1      -4.032  18.380  14.013  1.00  0.00     0.000 C 
BRANCH   2   3
ATOM      3  C   UNL     1      -2.980  18.224  12.902  1.00  0.00     0.000 C 
BRANCH   3   4
ATOM      4  C   UNL     1      -2.176  16.908  12.943  1.00  0.00     0.000 C 
BRANCH   4   5
ATOM      5  C   UNL     1      -1.747  16.360  11.567  1.00  0.00     0.006 C 
BRANCH   5   6
ATOM      6  C   UNL     1      -1.208  14.921  11.598  1.00  0.00     0.053 C 
BRANCH   6   7
ATOM      7  C   UNL     1      -2.296  13.909  11.415  1.00  0.00     0.041 C 
ATOM      8  O   UNL     1      -2.884  13.805  10.306  1.00  0.00    -0.550 OA
ATOM      9  O   UNL     1      -2.686  13.105  12.478  1.00  0.00    -0.550 OA
ENDBRANCH   6   7
ENDBRANCH   5   6
ENDBRANCH   4   5
ENDBRANCH   3   4
ENDBRANCH   2   3
ENDBRANCH   1   2
BRANCH   1  10
ATOM     10  C   UNL     1      -6.121  19.560  14.816  1.00  0.00     0.000 C 
BRANCH  10  11
ATOM     11  C   UNL     1      -6.640  21.000  14.898  1.00  0.00    -0.000 C 
BRANCH  11  12
ATOM     12  C   UNL     1      -8.138  21.065  14.578  1.00  0.00    -0.000 C 
BRANCH  12  13
ATOM     13  C   UNL     1      -8.633  22.519  14.559  1.00  0.00    -0.000 C 
BRANCH  13  14
ATOM     14  C   UNL     1      -7.481  23.536  14.611  1.00  0.00    -0.000 C 
BRANCH  14  15
ATOM     15  C   UNL     1      -7.974  24.992  14.521  1.00  0.00    -0.000 C 
BRANCH  15  16
ATOM     16  C   UNL     1      -8.858  25.237  13.289  1.00  0.00    -0.003 C 
ATOM     17  C   UNL     1      -9.157  26.719  13.062  1.00  0.00     0.004 C 
ENDBRANCH  15  16
ENDBRANCH  14  15
ENDBRANCH  13  14
ENDBRANCH  12  13
ENDBRANCH  11  12
ENDBRANCH  10  11
ENDBRANCH   1  10
TORSDOF 13
ENDMDL
MODEL 3
REMARK VINA RESULT:    -4.088      2.916      5.416
REMARK INTER + INTRA:          -7.808
REMARK INTER:                  -6.999
REMARK INTRA:                  -0.810
REMARK UNBOUND:                -0.613
REMARK SMILES CCCCCCCCCCCCCCC(=O)[O-]
REMARK SMILES IDX 9 1 10 2 11 3 12 4 13 5 14 6 15 7 16 8 17 9 8 10 7 11 6 12
REMARK SMILES IDX 5 13 4 14 3 15 2 16 1 17
REMARK H PARENT
REMARK Flexibility Score: inf
ROOT
ATOM      1  C   UNL     1      -3.643  18.640  13.080  1.00  0.00     0.000 C 
ENDROOT
BRANCH   1   2
ATOM      2  C   UNL     1      -3.992  17.824  14.333  1.00  0.00     0.000 C 
BRANCH   2   3
ATOM      3  C   UNL     1      -5.207  18.385  15.093  1.00  0.00     0.000 C 
BRANCH   3   4
ATOM      4  C   UNL     1      -5.507  19.876  14.835  1.00  0.00     0.000 C 
BRANCH   4   5
ATOM      5  C   UNL     1      -6.971  20.299  15.077  1.00  0.00     0.006 C 
BRANCH   5   6
ATOM      6  C   UNL     1      -7.274  21.763  14.721  1.00  0.00     0.053 C 
BRANCH   6   7
ATOM      7  C   UNL     1      -8.719  21.972  14.387  1.00  0.00     0.041 C 
ATOM      8  O   UNL     1      -9.152  23.131  14.149  1.00  0.00    -0.550 OA
ATOM      9  O   UNL     1      -9.594  20.895  14.374  1.00  0.00    -0.550 OA
ENDBRANCH   6   7
ENDBRANCH   5   6
ENDBRANCH   4   5
ENDBRANCH   3   4
ENDBRANCH   2   3
ENDBRANCH   1   2
BRANCH   1  10
ATOM     10  C   UNL     1      -2.142  18.560  12.773  1.00  0.00     0.000 C 
BRANCH  10  11
ATOM     11  C   UNL     1      -1.480  17.418  13.553  1.00  0.00    -0.000 C 
BRANCH  11  12
ATOM     12  C   UNL     1      -0.138  17.026  12.923  1.00  0.00    -0.000 C 
BRANCH  12  13
ATOM     13  C   UNL     1      -0.280  15.754  12.075  1.00  0.00    -0.000 C 
BRANCH  13  14
ATOM     14  C   UNL     1      -1.679  15.125  12.183  1.00  0.00    -0.000 C 
BRANCH  14  15
ATOM     15  C   UNL     1      -2.266  14.753  10.810  1.00  0.00    -0.000 C 
BRANCH  15  16
ATOM     16  C   UNL     1      -2.524  13.245  10.671  1.00  0.00    -0.003 C 
ATOM     17  C   UNL     1      -1.383  12.396  11.233  1.00  0.00     0.004 C 
ENDBRANCH  15  16
ENDBRANCH  14  15
ENDBRANCH  13  14
ENDBRANCH  12  13
ENDBRANCH  11  12
ENDBRANCH  10  11
ENDBRANCH   1  10
TORSDOF 13
ENDMDL
MODEL 4
REMARK VINA RESULT:    -4.042      3.304      6.002
REMARK INTER + INTRA:          -7.726
REMARK INTER:                  -7.083
REMARK INTRA:                  -0.643
REMARK UNBOUND:                -0.613
REMARK SMILES CCCCCCCCCCCCCCC(=O)[O-]
REMARK SMILES IDX 9 1 10 2 11 3 12 4 13 5 14 6 15 7 16 8 17 9 8 10 7 11 6 12
REMARK SMILES IDX 5 13 4 14 3 15 2 16 1 17
REMARK H PARENT
REMARK Flexibility Score: inf
ROOT
ATOM      1  C   UNL     1      -2.692  17.605  13.394  1.00  0.00     0.000 C 
ENDROOT
BRANCH   1   2
ATOM      2  C   UNL     1      -3.670  18.776  13.223  1.00  0.00     0.000 C 
BRANCH   2   3
ATOM      3  C   UNL     1      -4.865  18.704  14.189  1.00  0.00     0.000 C 
BRANCH   3   4
ATOM      4  C   UNL     1      -5.350  20.063  14.733  1.00  0.00     0.000 C 
BRANCH   4   5
ATOM      5  C   UNL     1      -6.879  20.263  14.727  1.00  0.00     0.006 C 
BRANCH   5   6
ATOM      6  C   UNL     1      -7.327  21.731  14.809  1.00  0.00     0.053 C 
BRANCH   6   7
ATOM      7  C   UNL     1      -8.763  21.903  14.422  1.00  0.00     0.041 C 
ATOM      8  O   UNL     1      -9.528  20.903  14.368  1.00  0.00    -0.550 OA
ATOM      9  O   UNL     1      -9.249  23.159  14.086  1.00  0.00    -0.550 OA
ENDBRANCH   6   7
ENDBRANCH   5   6
ENDBRANCH   4   5
ENDBRANCH   3   4
ENDBRANCH   2   3
ENDBRANCH   1   2
BRANCH   1  10
ATOM     10  C   UNL     1      -2.157  17.132  12.037  1.00  0.00     0.000 C 
BRANCH  10  11
ATOM     11  C   UNL     1      -1.265  15.895  12.196  1.00  0.00    -0.000 C 
BRANCH  11  12
ATOM     12  C   UNL     1      -1.955  14.824  13.049  1.00  0.00    -0.000 C 
BRANCH  12  13
ATOM     13  C   UNL     1      -1.615  13.415  12.542  1.00  0.00    -0.000 C 
BRANCH  13  14
ATOM     14  C   UNL     1      -1.919  13.237  11.045  1.00  0.00    -0.000 C 
BRANCH  14  15
ATOM     15  C   UNL     1      -3.224  12.461  10.795  1.00  0.00    -0.000 C 
BRANCH  15  16
ATOM     16  C   UNL     1      -3.618  11.576  11.988  1.00  0.00    -0.003 C 
ATOM     17  C   UNL     1      -5.091  11.720  12.370  1.00  0.00     0.004 C 
ENDBRANCH  15  16
ENDBRANCH  14  15
ENDBRANCH  13  14
ENDBRANCH  12  13
ENDBRANCH  11  12
ENDBRANCH  10  11
ENDBRANCH   1  10
TORSDOF 13
ENDMDL
MODEL 5
REMARK VINA RESULT:    -3.894      5.879     10.605
REMARK INTER + INTRA:          -7.467
REMARK INTER:                  -6.984
REMARK INTRA:                  -0.483
REMARK UNBOUND:                -0.613
REMARK SMILES CCCCCCCCCCCCCCC(=O)[O-]
REMARK SMILES IDX 9 1 10 2 11 3 12 4 13 5 14 6 15 7 16 8 17 9 8 10 7 11 6 12
REMARK SMILES IDX 5 13 4 14 3 15 2 16 1 17
REMARK H PARENT
REMARK Flexibility Score: inf
ROOT
ATOM      1  C   UNL     1      -3.238  18.531  12.987  1.00  0.00     0.000 C 
ENDROOT
BRANCH   1   2
ATOM      2  C   UNL     1      -1.910  17.829  12.666  1.00  0.00     0.000 C 
BRANCH   2   3
ATOM      3  C   UNL     1      -2.076  16.320  12.418  1.00  0.00     0.000 C 
BRANCH   3   4
ATOM      4  C   UNL     1      -0.904  15.647  11.675  1.00  0.00     0.000 C 
BRANCH   4   5
ATOM      5  C   UNL     1      -1.117  14.158  11.329  1.00  0.00     0.006 C 
BRANCH   5   6
ATOM      6  C   UNL     1      -2.516  13.827  10.787  1.00  0.00     0.053 C 
BRANCH   6   7
ATOM      7  C   UNL     1      -3.206  12.784  11.612  1.00  0.00     0.041 C 
ATOM      8  O   UNL     1      -3.263  12.903  12.864  1.00  0.00    -0.550 OA
ATOM      9  O   UNL     1      -3.752  11.663  11.002  1.00  0.00    -0.550 OA
ENDBRANCH   6   7
ENDBRANCH   5   6
ENDBRANCH   4   5
ENDBRANCH   3   4
ENDBRANCH   2   3
ENDBRANCH   1   2
BRANCH   1  10
ATOM     10  C   UNL     1      -3.570  18.422  14.480  1.00  0.00     0.000 C 
BRANCH  10  11
ATOM     11  C   UNL     1      -5.073  18.600  14.725  1.00  0.00    -0.000 C 
BRANCH  11  12
ATOM     12  C   UNL     1      -5.427  20.078  14.930  1.00  0.00    -0.000 C 
BRANCH  12  13
ATOM     13  C   UNL     1      -6.947  20.291  14.878  1.00  0.00    -0.000 C 
BRANCH  13  14
ATOM     14  C   UNL     1      -7.336  21.778  14.890  1.00  0.00    -0.000 C 
BRANCH  14  15
ATOM     15  C   UNL     1      -8.707  22.035  14.239  1.00  0.00    -0.000 C 
BRANCH  15  16
ATOM     16  C   UNL     1      -9.180  23.486  14.420  1.00  0.00    -0.003 C 
ATOM     17  C   UNL     1      -8.425  24.468  13.524  1.00  0.00     0.004 C 
ENDBRANCH  15  16
ENDBRANCH  14  15
ENDBRANCH  13  14
ENDBRANCH  12  13
ENDBRANCH  11  12
ENDBRANCH  10  11
ENDBRANCH   1  10
TORSDOF 13
ENDMDL
MODEL 6
REMARK VINA RESULT:    -3.720      6.616      9.890
REMARK INTER + INTRA:          -7.160
REMARK INTER:                  -5.233
REMARK INTRA:                  -1.927
REMARK UNBOUND:                -0.613
REMARK SMILES CCCCCCCCCCCCCCC(=O)[O-]
REMARK SMILES IDX 9 1 10 2 11 3 12 4 13 5 14 6 15 7 16 8 17 9 8 10 7 11 6 12
REMARK SMILES IDX 5 13 4 14 3 15 2 16 1 17
REMARK H PARENT
REMARK Flexibility Score: inf
ROOT
ATOM      1  C   UNL     1      -2.203  12.424  10.204  1.00  0.00     0.000 C 
ENDROOT
BRANCH   1   2
ATOM      2  C   UNL     1      -2.723  13.848  10.447  1.00  0.00     0.000 C 
BRANCH   2   3
ATOM      3  C   UNL     1      -2.013  14.553  11.616  1.00  0.00     0.000 C 
BRANCH   3   4
ATOM      4  C   UNL     1      -1.671  16.037  11.373  1.00  0.00     0.000 C 
BRANCH   4   5
ATOM      5  C   UNL     1      -1.660  16.921  12.637  1.00  0.00     0.006 C 
BRANCH   5   6
ATOM      6  C   UNL     1      -2.646  18.099  12.594  1.00  0.00     0.053 C 
BRANCH   6   7
ATOM      7  C   UNL     1      -3.682  18.004  13.671  1.00  0.00     0.041 C 
ATOM      8  O   UNL     1      -3.778  16.959  14.368  1.00  0.00    -0.550 OA
ATOM      9  O   UNL     1      -4.566  19.054  13.882  1.00  0.00    -0.550 OA
ENDBRANCH   6   7
ENDBRANCH   5   6
ENDBRANCH   4   5
ENDBRANCH   3   4
ENDBRANCH   2   3
ENDBRANCH   1   2
BRANCH   1  10
ATOM     10  C   UNL     1      -1.043  12.093  11.152  1.00  0.00     0.000 C 
BRANCH  10  11
ATOM     11  C   UNL     1      -1.069  10.616  11.561  1.00  0.00    -0.000 C 
BRANCH  11  12
ATOM     12  C   UNL     1      -0.997  10.464  13.085  1.00  0.00    -0.000 C 
BRANCH  12  13
ATOM     13  C   UNL     1      -1.766  11.595  13.786  1.00  0.00    -0.000 C 
BRANCH  13  14
ATOM     14  C   UNL     1      -3.225  11.218  14.088  1.00  0.00    -0.000 C 
BRANCH  14  15
ATOM     15  C   UNL     1      -4.221  12.298  13.629  1.00  0.00    -0.000 C 
BRANCH  15  16
ATOM     16  C   UNL     1      -5.083  11.836  12.444  1.00  0.00    -0.003 C 
ATOM     17  C   UNL     1      -4.834  10.376  12.067  1.00  0.00     0.004 C 
ENDBRANCH  15  16
ENDBRANCH  14  15
ENDBRANCH  13  14
ENDBRANCH  12  13
ENDBRANCH  11  12
ENDBRANCH  10  11
ENDBRANCH   1  10
TORSDOF 13
ENDMDL
MODEL 7
REMARK VINA RESULT:    -3.691      6.113      9.333
REMARK INTER + INTRA:          -7.108
REMARK INTER:                  -5.558
REMARK INTRA:                  -1.551
REMARK UNBOUND:                -0.613
REMARK SMILES CCCCCCCCCCCCCCC(=O)[O-]
REMARK SMILES IDX 9 1 10 2 11 3 12 4 13 5 14 6 15 7 16 8 17 9 8 10 7 11 6 12
REMARK SMILES IDX 5 13 4 14 3 15 2 16 1 17
REMARK H PARENT
REMARK Flexibility Score: inf
ROOT
ATOM      1  C   UNL     1      -1.642  14.247  12.692  1.00  0.00     0.000 C 
ENDROOT
BRANCH   1   2
ATOM      2  C   UNL     1      -1.944  14.966  11.370  1.00  0.00     0.000 C 
BRANCH   2   3
ATOM      3  C   UNL     1      -1.752  16.490  11.460  1.00  0.00     0.000 C 
BRANCH   3   4
ATOM      4  C   UNL     1      -1.148  16.995  12.787  1.00  0.00     0.000 C 
BRANCH   4   5
ATOM      5  C   UNL     1      -1.748  18.313  13.319  1.00  0.00     0.006 C 
BRANCH   5   6
ATOM      6  C   UNL     1      -3.161  18.622  12.800  1.00  0.00     0.053 C 
BRANCH   6   7
ATOM      7  C   UNL     1      -4.198  18.470  13.870  1.00  0.00     0.041 C 
ATOM      8  O   UNL     1      -4.217  17.438  14.591  1.00  0.00    -0.550 OA
ATOM      9  O   UNL     1      -5.166  19.450  14.046  1.00  0.00    -0.550 OA
ENDBRANCH   6   7
ENDBRANCH   5   6
ENDBRANCH   4   5
ENDBRANCH   3   4
ENDBRANCH   2   3
ENDBRANCH   1   2
BRANCH   1  10
ATOM     10  C   UNL     1      -0.391  13.368  12.567  1.00  0.00     0.000 C 
BRANCH  10  11
ATOM     11  C   UNL     1      -0.117  13.005  11.103  1.00  0.00    -0.000 C 
BRANCH  11  12
ATOM     12  C   UNL     1      -0.457  11.535  10.827  1.00  0.00    -0.000 C 
BRANCH  12  13
ATOM     13  C   UNL     1      -1.828  11.407  10.147  1.00  0.00    -0.000 C 
BRANCH  13  14
ATOM     14  C   UNL     1      -2.890  10.789  11.071  1.00  0.00    -0.000 C 
BRANCH  14  15
ATOM     15  C   UNL     1      -3.986  11.795  11.467  1.00  0.00    -0.000 C 
BRANCH  15  16
ATOM     16  C   UNL     1      -4.778  11.343  12.703  1.00  0.00    -0.003 C 
ATOM     17  C   UNL     1      -4.316  12.035  13.986  1.00  0.00     0.004 C 
ENDBRANCH  15  16
ENDBRANCH  14  15
ENDBRANCH  13  14
ENDBRANCH  12  13
ENDBRANCH  11  12
ENDBRANCH  10  11
ENDBRANCH   1  10
TORSDOF 13
ENDMDL
MODEL 8
REMARK VINA RESULT:    -3.679      6.675     11.347
REMARK INTER + INTRA:          -7.088
REMARK INTER:                  -6.471
REMARK INTRA:                  -0.617
REMARK UNBOUND:                -0.613
REMARK SMILES CCCCCCCCCCCCCCC(=O)[O-]
REMARK SMILES IDX 9 1 10 2 11 3 12 4 13 5 14 6 15 7 16 8 17 9 8 10 7 11 6 12
REMARK SMILES IDX 5 13 4 14 3 15 2 16 1 17
REMARK H PARENT
REMARK Flexibility Score: inf
ROOT
ATOM      1  C   UNL     1      -2.146  17.141  12.145  1.00  0.00     0.000 C 
ENDROOT
BRANCH   1   2
ATOM      2  C   UNL     1      -1.766  15.892  12.954  1.00  0.00     0.000 C 
BRANCH   2   3
ATOM      3  C   UNL     1      -2.040  14.582  12.195  1.00  0.00     0.000 C 
BRANCH   3   4
ATOM      4  C   UNL     1      -2.723  13.476  13.026  1.00  0.00     0.000 C 
BRANCH   4   5
ATOM      5  C   UNL     1      -1.915  12.169  13.165  1.00  0.00     0.006 C 
BRANCH   5   6
ATOM      6  C   UNL     1      -1.248  11.695  11.865  1.00  0.00     0.053 C 
BRANCH   6   7
ATOM      7  C   UNL     1      -2.253  11.252  10.847  1.00  0.00     0.041 C 
ATOM      8  O   UNL     1      -2.216  11.716   9.677  1.00  0.00    -0.550 OA
ATOM      9  O   UNL     1      -3.251  10.354  11.199  1.00  0.00    -0.550 OA
ENDBRANCH   6   7
ENDBRANCH   5   6
ENDBRANCH   4   5
ENDBRANCH   3   4
ENDBRANCH   2   3
ENDBRANCH   1   2
BRANCH   1  10
ATOM     10  C   UNL     1      -2.369  18.346  13.067  1.00  0.00     0.000 C 
BRANCH  10  11
ATOM     11  C   UNL     1      -3.864  18.633  13.248  1.00  0.00    -0.000 C 
BRANCH  11  12
ATOM     12  C   UNL     1      -4.372  18.087  14.588  1.00  0.00    -0.000 C 
BRANCH  12  13
ATOM     13  C   UNL     1      -5.707  18.740  14.976  1.00  0.00    -0.000 C 
BRANCH  13  14
ATOM     14  C   UNL     1      -6.005  20.007  14.158  1.00  0.00    -0.000 C 
BRANCH  14  15
ATOM     15  C   UNL     1      -6.963  20.967  14.885  1.00  0.00    -0.000 C 
BRANCH  15  16
ATOM     16  C   UNL     1      -8.414  20.830  14.397  1.00  0.00    -0.003 C 
ATOM     17  C   UNL     1      -9.177  22.154  14.434  1.00  0.00     0.004 C 
ENDBRANCH  15  16
ENDBRANCH  14  15
ENDBRANCH  13  14
ENDBRANCH  12  13
ENDBRANCH  11  12
ENDBRANCH  10  11
ENDBRANCH   1  10
TORSDOF 13
ENDMDL
MODEL 9
REMARK VINA RESULT:    -3.641      7.223     11.782
REMARK INTER + INTRA:          -7.022
REMARK INTER:                  -6.086
REMARK INTRA:                  -0.936
REMARK UNBOUND:                -0.613
REMARK SMILES CCCCCCCCCCCCCCC(=O)[O-]
REMARK SMILES IDX 9 1 10 2 11 3 12 4 13 5 14 6 15 7 16 8 17 9 8 10 7 11 6 12
REMARK SMILES IDX 5 13 4 14 3 15 2 16 1 17
REMARK H PARENT
REMARK Flexibility Score: inf
ROOT
ATOM      1  C   UNL     1      -2.119  14.909  11.125  1.00  0.00     0.000 C 
ENDROOT
BRANCH   1   2
ATOM      2  C   UNL     1      -1.999  14.090  12.419  1.00  0.00     0.000 C 
BRANCH   2   3
ATOM      3  C   UNL     1      -3.000  12.924  12.484  1.00  0.00     0.000 C 
BRANCH   3   4
ATOM      4  C   UNL     1      -3.347  12.282  11.124  1.00  0.00     0.000 C 
BRANCH   4   5
ATOM      5  C   UNL     1      -3.109  10.761  11.039  1.00  0.00     0.006 C 
BRANCH   5   6
ATOM      6  C   UNL     1      -1.669  10.364  10.677  1.00  0.00     0.053 C 
BRANCH   6   7
ATOM      7  C   UNL     1      -1.074  11.280   9.653  1.00  0.00     0.041 C 
ATOM      8  O   UNL     1      -0.110  12.031   9.959  1.00  0.00    -0.550 OA
ATOM      9  O   UNL     1      -1.606  11.332   8.372  1.00  0.00    -0.550 OA
ENDBRANCH   6   7
ENDBRANCH   5   6
ENDBRANCH   4   5
ENDBRANCH   3   4
ENDBRANCH   2   3
ENDBRANCH   1   2
BRANCH   1  10
ATOM     10  C   UNL     1      -1.753  16.378  11.369  1.00  0.00     0.000 C 
BRANCH  10  11
ATOM     11  C   UNL     1      -2.130  16.812  12.790  1.00  0.00    -0.000 C 
BRANCH  11  12
ATOM     12  C   UNL     1      -2.395  18.321  12.854  1.00  0.00    -0.000 C 
BRANCH  12  13
ATOM     13  C   UNL     1      -3.092  18.701  14.168  1.00  0.00    -0.000 C 
BRANCH  13  14
ATOM     14  C   UNL     1      -4.256  17.758  14.514  1.00  0.00    -0.000 C 
BRANCH  14  15
ATOM     15  C   UNL     1      -5.493  18.513  15.036  1.00  0.00    -0.000 C 
BRANCH  15  16
ATOM     16  C   UNL     1      -5.744  19.824  14.275  1.00  0.00    -0.003 C 
ATOM     17  C   UNL     1      -7.046  20.508  14.690  1.00  0.00     0.004 C 
ENDBRANCH  15  16
ENDBRANCH  14  15
ENDBRANCH  13  14
ENDBRANCH  12  13
ENDBRANCH  11  12
ENDBRANCH  10  11
ENDBRANCH   1  10
TORSDOF 13
ENDMDL
