MODEL 1
REMARK VINA RESULT:    -4.589      0.000      0.000
REMARK INTER + INTRA:          -5.050
REMARK INTER:                  -4.992
REMARK INTRA:                  -0.059
REMARK UNBOUND:                -0.059
REMARK SMILES CCc1cccc(O)c1
REMARK SMILES IDX 3 1 9 2 7 3 6 4 5 5 4 6 2 7 1 8 8 9
REMARK H PARENT 8 10
REMARK Flexibility Score: inf
ROOT
ATOM      1  C   UNL     1      -1.092   0.167   2.129  1.00  0.00    -0.045 A 
ATOM      2  C   UNL     1       0.206   0.702   2.086  1.00  0.00     0.049 A 
ATOM      3  C   UNL     1       0.956   0.646   0.902  1.00  0.00     0.115 A 
ATOM      4  C   UNL     1       0.411   0.046  -0.239  1.00  0.00     0.046 A 
ATOM      5  C   UNL     1      -0.875  -0.500  -0.197  1.00  0.00     0.004 A 
ATOM      6  C   UNL     1      -1.623  -0.445   0.982  1.00  0.00     0.004 A 
ENDROOT
BRANCH   1   7
ATOM      7  C   UNL     1      -1.884   0.197   3.409  1.00  0.00     0.032 C 
ATOM      8  C   UNL     1      -1.921  -1.184   4.054  1.00  0.00     0.009 C 
ENDBRANCH   1   7
BRANCH   3   9
ATOM      9  O   UNL     1       2.242   1.180   0.849  1.00  0.00    -0.508 OA
ATOM     10  H   UNL     1       2.404   2.143   0.578  1.00  0.00     0.293 HD
ENDBRANCH   3   9
TORSDOF 2
ENDMDL
MODEL 2
REMARK VINA RESULT:    -4.577      2.686      4.159
REMARK INTER + INTRA:          -5.037
REMARK INTER:                  -4.963
REMARK INTRA:                  -0.075
REMARK UNBOUND:                -0.059
REMARK SMILES CCc1cccc(O)c1
REMARK SMILES IDX 3 1 9 2 7 3 6 4 5 5 4 6 2 7 1 8 8 9
REMARK H PARENT 8 10
REMARK Flexibility Score: inf
ROOT
ATOM      1  C   UNL     1      -0.495   0.101   2.326  1.00  0.00    -0.045 A 
ATOM      2  C   UNL     1      -1.900   0.065   2.330  1.00  0.00     0.049 A 
ATOM      3  C   UNL     1      -2.580  -0.950   3.020  1.00  0.00     0.115 A 
ATOM      4  C   UNL     1      -1.855  -1.934   3.700  1.00  0.00     0.046 A 
ATOM      5  C   UNL     1      -0.458  -1.911   3.688  1.00  0.00     0.004 A 
ATOM      6  C   UNL     1       0.221  -0.901   3.000  1.00  0.00     0.004 A 
ENDROOT
BRANCH   1   7
ATOM      7  C   UNL     1       0.235   1.169   1.557  1.00  0.00     0.032 C 
ATOM      8  C   UNL     1       1.673   0.748   1.280  1.00  0.00     0.009 C 
ENDBRANCH   1   7
BRANCH   3   9
ATOM      9  O   UNL     1      -3.972  -0.989   3.035  1.00  0.00    -0.508 OA
ATOM     10  H   UNL     1      -4.526  -0.144   2.955  1.00  0.00     0.293 HD
ENDBRANCH   3   9
TORSDOF 2
ENDMDL
MODEL 3
REMARK VINA RESULT:    -4.509      9.825     10.402
REMARK INTER + INTRA:          -4.963
REMARK INTER:                  -4.917
REMARK INTRA:                  -0.046
REMARK UNBOUND:                -0.059
REMARK SMILES CCc1cccc(O)c1
REMARK SMILES IDX 3 1 9 2 7 3 6 4 5 5 4 6 2 7 1 8 8 9
REMARK H PARENT 8 10
REMARK Flexibility Score: inf
ROOT
ATOM      1  C   UNL     1      -7.646   2.028  -5.703  1.00  0.00    -0.045 A 
ATOM      2  C   UNL     1      -7.218   1.206  -6.758  1.00  0.00     0.049 A 
ATOM      3  C   UNL     1      -5.925   1.346  -7.285  1.00  0.00     0.115 A 
ATOM      4  C   UNL     1      -5.062   2.314  -6.761  1.00  0.00     0.046 A 
ATOM      5  C   UNL     1      -5.488   3.144  -5.721  1.00  0.00     0.004 A 
ATOM      6  C   UNL     1      -6.775   3.006  -5.195  1.00  0.00     0.004 A 
ENDROOT
BRANCH   1   7
ATOM      7  C   UNL     1      -9.044   1.901  -5.160  1.00  0.00     0.032 C 
ATOM      8  C   UNL     1      -9.187   0.633  -4.326  1.00  0.00     0.009 C 
ENDBRANCH   1   7
BRANCH   3   9
ATOM      9  O   UNL     1      -5.491   0.530  -8.327  1.00  0.00    -0.508 OA
ATOM     10  H   UNL     1      -5.220  -0.433  -8.168  1.00  0.00     0.293 HD
ENDBRANCH   3   9
TORSDOF 2
ENDMDL
MODEL 4
REMARK VINA RESULT:    -4.446      2.464      4.224
REMARK INTER + INTRA:          -4.895
REMARK INTER:                  -4.832
REMARK INTRA:                  -0.063
REMARK UNBOUND:                -0.059
REMARK SMILES CCc1cccc(O)c1
REMARK SMILES IDX 3 1 9 2 7 3 6 4 5 5 4 6 2 7 1 8 8 9
REMARK H PARENT 8 10
REMARK Flexibility Score: inf
ROOT
ATOM      1  C   UNL     1      -0.969  -0.647   0.570  1.00  0.00    -0.045 A 
ATOM      2  C   UNL     1      -2.186  -1.040   1.153  1.00  0.00     0.049 A 
ATOM      3  C   UNL     1      -2.487  -0.678   2.475  1.00  0.00     0.115 A 
ATOM      4  C   UNL     1      -1.567   0.071   3.217  1.00  0.00     0.046 A 
ATOM      5  C   UNL     1      -0.350   0.452   2.646  1.00  0.00     0.004 A 
ATOM      6  C   UNL     1      -0.048   0.092   1.330  1.00  0.00     0.004 A 
ENDROOT
BRANCH   1   7
ATOM      7  C   UNL     1      -0.632  -1.064  -0.837  1.00  0.00     0.032 C 
ATOM      8  C   UNL     1      -0.295   0.151  -1.694  1.00  0.00     0.009 C 
ENDBRANCH   1   7
BRANCH   3   9
ATOM      9  O   UNL     1      -3.693  -1.058   3.058  1.00  0.00    -0.508 OA
ATOM     10  H   UNL     1      -3.941  -0.768   3.997  1.00  0.00     0.293 HD
ENDBRANCH   3   9
TORSDOF 2
ENDMDL
MODEL 5
REMARK VINA RESULT:    -4.428      1.072      3.383
REMARK INTER + INTRA:          -4.875
REMARK INTER:                  -4.823
REMARK INTRA:                  -0.052
REMARK UNBOUND:                -0.059
REMARK SMILES CCc1cccc(O)c1
REMARK SMILES IDX 3 1 9 2 7 3 6 4 5 5 4 6 2 7 1 8 8 9
REMARK H PARENT 8 10
REMARK Flexibility Score: inf
ROOT
ATOM      1  C   UNL     1      -0.446  -0.438  -0.269  1.00  0.00    -0.045 A 
ATOM      2  C   UNL     1       0.738   0.269   0.001  1.00  0.00     0.049 A 
ATOM      3  C   UNL     1       0.937   0.863   1.257  1.00  0.00     0.115 A 
ATOM      4  C   UNL     1      -0.052   0.756   2.240  1.00  0.00     0.046 A 
ATOM      5  C   UNL     1      -1.237   0.066   1.972  1.00  0.00     0.004 A 
ATOM      6  C   UNL     1      -1.437  -0.526   0.722  1.00  0.00     0.004 A 
ENDROOT
BRANCH   1   7
ATOM      7  C   UNL     1      -0.674  -1.046  -1.627  1.00  0.00     0.032 C 
ATOM      8  C   UNL     1       0.306  -0.476  -2.646  1.00  0.00     0.009 C 
ENDBRANCH   1   7
BRANCH   3   9
ATOM      9  O   UNL     1       2.111   1.559   1.534  1.00  0.00    -0.508 OA
ATOM     10  H   UNL     1       3.018   1.110   1.485  1.00  0.00     0.293 HD
ENDBRANCH   3   9
TORSDOF 2
ENDMDL
MODEL 6
REMARK VINA RESULT:    -4.383      9.432     10.387
REMARK INTER + INTRA:          -4.825
REMARK INTER:                  -4.779
REMARK INTRA:                  -0.046
REMARK UNBOUND:                -0.059
REMARK SMILES CCc1cccc(O)c1
REMARK SMILES IDX 3 1 9 2 7 3 6 4 5 5 4 6 2 7 1 8 8 9
REMARK H PARENT 8 10
REMARK Flexibility Score: inf
ROOT
ATOM      1  C   UNL     1      -5.631   3.120  -5.685  1.00  0.00    -0.045 A 
ATOM      2  C   UNL     1      -5.157   2.292  -6.716  1.00  0.00     0.049 A 
ATOM      3  C   UNL     1      -5.991   1.316  -7.281  1.00  0.00     0.115 A 
ATOM      4  C   UNL     1      -7.298   1.161  -6.808  1.00  0.00     0.046 A 
ATOM      5  C   UNL     1      -7.771   1.972  -5.773  1.00  0.00     0.004 A 
ATOM      6  C   UNL     1      -6.942   2.945  -5.209  1.00  0.00     0.004 A 
ENDROOT
BRANCH   1   7
ATOM      7  C   UNL     1      -4.726   4.145  -5.056  1.00  0.00     0.032 C 
ATOM      8  C   UNL     1      -4.357   5.229  -6.062  1.00  0.00     0.009 C 
ENDBRANCH   1   7
BRANCH   3   9
ATOM      9  O   UNL     1      -5.530   0.496  -8.308  1.00  0.00    -0.508 OA
ATOM     10  H   UNL     1      -5.848  -0.462  -8.403  1.00  0.00     0.293 HD
ENDBRANCH   3   9
TORSDOF 2
ENDMDL
MODEL 7
REMARK VINA RESULT:    -4.274      9.270      9.812
REMARK INTER + INTRA:          -4.707
REMARK INTER:                  -4.641
REMARK INTRA:                  -0.066
REMARK UNBOUND:                -0.059
REMARK SMILES CCc1cccc(O)c1
REMARK SMILES IDX 3 1 9 2 7 3 6 4 5 5 4 6 2 7 1 8 8 9
REMARK H PARENT 8 10
REMARK Flexibility Score: inf
ROOT
ATOM      1  C   UNL     1      -7.031   3.102  -5.114  1.00  0.00    -0.045 A 
ATOM      2  C   UNL     1      -5.727   3.316  -5.591  1.00  0.00     0.049 A 
ATOM      3  C   UNL     1      -5.202   2.501  -6.605  1.00  0.00     0.115 A 
ATOM      4  C   UNL     1      -5.978   1.466  -7.137  1.00  0.00     0.046 A 
ATOM      5  C   UNL     1      -7.271   1.240  -6.656  1.00  0.00     0.004 A 
ATOM      6  C   UNL     1      -7.796   2.051  -5.646  1.00  0.00     0.004 A 
ENDROOT
BRANCH   1   7
ATOM      7  C   UNL     1      -7.582   3.954  -4.002  1.00  0.00     0.032 C 
ATOM      8  C   UNL     1      -7.995   3.093  -2.814  1.00  0.00     0.009 C 
ENDBRANCH   1   7
BRANCH   3   9
ATOM      9  O   UNL     1      -3.913   2.711  -7.088  1.00  0.00    -0.508 OA
ATOM     10  H   UNL     1      -3.249   3.292  -6.590  1.00  0.00     0.293 HD
ENDBRANCH   3   9
TORSDOF 2
ENDMDL
MODEL 8
REMARK VINA RESULT:    -4.259      2.785      3.810
REMARK INTER + INTRA:          -4.691
REMARK INTER:                  -4.617
REMARK INTRA:                  -0.074
REMARK UNBOUND:                -0.059
REMARK SMILES CCc1cccc(O)c1
REMARK SMILES IDX 3 1 9 2 7 3 6 4 5 5 4 6 2 7 1 8 8 9
REMARK H PARENT 8 10
REMARK Flexibility Score: inf
ROOT
ATOM      1  C   UNL     1      -0.507  -0.890  -0.276  1.00  0.00    -0.045 A 
ATOM      2  C   UNL     1      -0.980  -1.908  -1.121  1.00  0.00     0.049 A 
ATOM      3  C   UNL     1      -0.670  -1.893  -2.489  1.00  0.00     0.115 A 
ATOM      4  C   UNL     1       0.107  -0.855  -3.014  1.00  0.00     0.046 A 
ATOM      5  C   UNL     1       0.569   0.167  -2.181  1.00  0.00     0.004 A 
ATOM      6  C   UNL     1       0.261   0.154  -0.817  1.00  0.00     0.004 A 
ENDROOT
BRANCH   1   7
ATOM      7  C   UNL     1      -0.868  -0.888   1.185  1.00  0.00     0.032 C 
ATOM      8  C   UNL     1      -0.850   0.530   1.745  1.00  0.00     0.009 C 
ENDBRANCH   1   7
BRANCH   3   9
ATOM      9  O   UNL     1      -1.130  -2.901  -3.333  1.00  0.00    -0.508 OA
ATOM     10  H   UNL     1      -0.970  -2.868  -4.333  1.00  0.00     0.293 HD
ENDBRANCH   3   9
TORSDOF 2
ENDMDL
MODEL 9
REMARK VINA RESULT:    -4.136      2.881      4.062
REMARK INTER + INTRA:          -4.557
REMARK INTER:                  -4.482
REMARK INTRA:                  -0.075
REMARK UNBOUND:                -0.059
REMARK SMILES CCc1cccc(O)c1
REMARK SMILES IDX 3 1 9 2 7 3 6 4 5 5 4 6 2 7 1 8 8 9
REMARK H PARENT 8 10
REMARK Flexibility Score: inf
ROOT
ATOM      1  C   UNL     1      -0.400  -0.857  -0.352  1.00  0.00    -0.045 A 
ATOM      2  C   UNL     1      -0.472  -1.215  -1.709  1.00  0.00     0.049 A 
ATOM      3  C   UNL     1      -1.061  -2.430  -2.090  1.00  0.00     0.115 A 
ATOM      4  C   UNL     1      -1.571  -3.291  -1.113  1.00  0.00     0.046 A 
ATOM      5  C   UNL     1      -1.489  -2.946   0.239  1.00  0.00     0.004 A 
ATOM      6  C   UNL     1      -0.903  -1.736   0.620  1.00  0.00     0.004 A 
ENDROOT
BRANCH   1   7
ATOM      7  C   UNL     1       0.262   0.431   0.059  1.00  0.00     0.032 C 
ATOM      8  C   UNL     1      -0.002   0.729   1.530  1.00  0.00     0.009 C 
ENDBRANCH   1   7
BRANCH   3   9
ATOM      9  O   UNL     1      -1.142  -2.789  -3.433  1.00  0.00    -0.508 OA
ATOM     10  H   UNL     1      -1.908  -2.476  -4.019  1.00  0.00     0.293 HD
ENDBRANCH   3   9
TORSDOF 2
ENDMDL
