MODEL 1
REMARK VINA RESULT:    -3.206      0.000      0.000
REMARK INTER + INTRA:          -4.893
REMARK INTER:                  -4.518
REMARK INTRA:                  -0.375
REMARK UNBOUND:                -0.375
REMARK SMILES C=CCCCCCCC(=O)[O-]
REMARK SMILES IDX 6 1 7 2 8 3 9 4 10 5 11 6 5 7 4 8 3 9 2 10 1 11
REMARK H PARENT
REMARK Flexibility Score: inf
ROOT
ATOM      1  C   UNL     1      -6.299  23.184   9.047  1.00  0.00     0.000 C 
ENDROOT
BRANCH   1   2
ATOM      2  C   UNL     1      -5.334  24.236   9.625  1.00  0.00     0.006 C 
BRANCH   2   3
ATOM      3  C   UNL     1      -3.875  24.003   9.211  1.00  0.00     0.053 C 
BRANCH   3   4
ATOM      4  C   UNL     1      -2.981  24.036  10.410  1.00  0.00     0.041 C 
ATOM      5  O   UNL     1      -3.228  23.308  11.406  1.00  0.00    -0.550 OA
ATOM      6  O   UNL     1      -1.901  24.910  10.447  1.00  0.00    -0.550 OA
ENDBRANCH   3   4
ENDBRANCH   2   3
ENDBRANCH   1   2
BRANCH   1   7
ATOM      7  C   UNL     1      -6.730  22.085  10.036  1.00  0.00     0.000 C 
BRANCH   7   8
ATOM      8  C   UNL     1      -6.558  22.501  11.507  1.00  0.00     0.004 C 
BRANCH   8   9
ATOM      9  C   UNL     1      -6.753  21.318  12.467  1.00  0.00     0.027 C 
BRANCH   9  10
ATOM     10  C   UNL     1      -8.096  21.350  13.149  1.00  0.00    -0.035 C 
ATOM     11  C   UNL     1      -8.917  20.296  13.137  1.00  0.00     0.004 C 
ENDBRANCH   9  10
ENDBRANCH   8   9
ENDBRANCH   7   8
ENDBRANCH   1   7
TORSDOF 7
ENDMDL
MODEL 2
REMARK VINA RESULT:    -3.121      1.387      2.219
REMARK INTER + INTRA:          -4.774
REMARK INTER:                  -4.388
REMARK INTRA:                  -0.386
REMARK UNBOUND:                -0.375
REMARK SMILES C=CCCCCCCC(=O)[O-]
REMARK SMILES IDX 6 1 7 2 8 3 9 4 10 5 11 6 5 7 4 8 3 9 2 10 1 11
REMARK H PARENT
REMARK Flexibility Score: inf
ROOT
ATOM      1  C   UNL     1      -6.608  22.086  11.108  1.00  0.00     0.000 C 
ENDROOT
BRANCH   1   2
ATOM      2  C   UNL     1      -5.783  23.378  11.257  1.00  0.00     0.006 C 
BRANCH   2   3
ATOM      3  C   UNL     1      -4.903  23.671  10.034  1.00  0.00     0.053 C 
BRANCH   3   4
ATOM      4  C   UNL     1      -3.468  23.791  10.440  1.00  0.00     0.041 C 
ATOM      5  O   UNL     1      -3.084  23.339  11.550  1.00  0.00    -0.550 OA
ATOM      6  O   UNL     1      -2.565  24.448   9.613  1.00  0.00    -0.550 OA
ENDBRANCH   3   4
ENDBRANCH   2   3
ENDBRANCH   1   2
BRANCH   1   7
ATOM      7  C   UNL     1      -6.839  21.310  12.417  1.00  0.00     0.000 C 
BRANCH   7   8
ATOM      8  C   UNL     1      -8.330  21.132  12.755  1.00  0.00     0.004 C 
BRANCH   8   9
ATOM      9  C   UNL     1      -8.676  21.682  14.146  1.00  0.00     0.027 C 
BRANCH   9  10
ATOM     10  C   UNL     1      -7.993  22.993  14.431  1.00  0.00    -0.035 C 
ATOM     11  C   UNL     1      -7.920  23.496  15.666  1.00  0.00     0.004 C 
ENDBRANCH   9  10
ENDBRANCH   8   9
ENDBRANCH   7   8
ENDBRANCH   1   7
TORSDOF 7
ENDMDL
MODEL 3
REMARK VINA RESULT:    -3.117      0.683      1.592
REMARK INTER + INTRA:          -4.768
REMARK INTER:                  -4.436
REMARK INTRA:                  -0.333
REMARK UNBOUND:                -0.375
REMARK SMILES C=CCCCCCCC(=O)[O-]
REMARK SMILES IDX 6 1 7 2 8 3 9 4 10 5 11 6 5 7 4 8 3 9 2 10 1 11
REMARK H PARENT
REMARK Flexibility Score: inf
ROOT
ATOM      1  C   UNL     1      -6.629  22.224  10.029  1.00  0.00     0.000 C 
ENDROOT
BRANCH   1   2
ATOM      2  C   UNL     1      -5.747  23.166   9.189  1.00  0.00     0.006 C 
BRANCH   2   3
ATOM      3  C   UNL     1      -5.076  24.264  10.026  1.00  0.00     0.053 C 
BRANCH   3   4
ATOM      4  C   UNL     1      -3.628  23.949  10.235  1.00  0.00     0.041 C 
ATOM      5  O   UNL     1      -2.775  24.292   9.376  1.00  0.00    -0.550 OA
ATOM      6  O   UNL     1      -3.228  23.233  11.356  1.00  0.00    -0.550 OA
ENDBRANCH   3   4
ENDBRANCH   2   3
ENDBRANCH   1   2
BRANCH   1   7
ATOM      7  C   UNL     1      -6.723  22.584  11.523  1.00  0.00     0.000 C 
BRANCH   7   8
ATOM      8  C   UNL     1      -6.864  21.350  12.430  1.00  0.00     0.004 C 
BRANCH   8   9
ATOM      9  C   UNL     1      -8.101  21.437  13.336  1.00  0.00     0.027 C 
BRANCH   9  10
ATOM     10  C   UNL     1      -8.948  20.193  13.270  1.00  0.00    -0.035 C 
ATOM     11  C   UNL     1      -9.961  20.077  12.407  1.00  0.00     0.004 C 
ENDBRANCH   9  10
ENDBRANCH   8   9
ENDBRANCH   7   8
ENDBRANCH   1   7
TORSDOF 7
ENDMDL
MODEL 4
REMARK VINA RESULT:    -3.061      1.745      3.527
REMARK INTER + INTRA:          -4.689
REMARK INTER:                  -3.970
REMARK INTRA:                  -0.719
REMARK UNBOUND:                -0.375
REMARK SMILES C=CCCCCCCC(=O)[O-]
REMARK SMILES IDX 6 1 7 2 8 3 9 4 10 5 11 6 5 7 4 8 3 9 2 10 1 11
REMARK H PARENT
REMARK Flexibility Score: inf
ROOT
ATOM      1  C   UNL     1      -7.537  22.397  13.158  1.00  0.00     0.000 C 
ENDROOT
BRANCH   1   2
ATOM      2  C   UNL     1      -6.670  21.534  12.223  1.00  0.00     0.006 C 
BRANCH   2   3
ATOM      3  C   UNL     1      -6.507  22.145  10.825  1.00  0.00     0.053 C 
BRANCH   3   4
ATOM      4  C   UNL     1      -5.539  23.285  10.863  1.00  0.00     0.041 C 
ATOM      5  O   UNL     1      -4.366  23.107  11.285  1.00  0.00    -0.550 OA
ATOM      6  O   UNL     1      -5.947  24.557  10.478  1.00  0.00    -0.550 OA
ENDBRANCH   3   4
ENDBRANCH   2   3
ENDBRANCH   1   2
BRANCH   1   7
ATOM      7  C   UNL     1      -8.652  21.634  13.897  1.00  0.00     0.000 C 
BRANCH   7   8
ATOM      8  C   UNL     1      -8.800  20.179  13.421  1.00  0.00     0.004 C 
BRANCH   8   9
ATOM      9  C   UNL     1     -10.201  19.896  12.858  1.00  0.00     0.027 C 
BRANCH   9  10
ATOM     10  C   UNL     1     -10.609  20.896  11.808  1.00  0.00    -0.035 C 
ATOM     11  C   UNL     1     -10.164  20.818  10.551  1.00  0.00     0.004 C 
ENDBRANCH   9  10
ENDBRANCH   8   9
ENDBRANCH   7   8
ENDBRANCH   1   7
TORSDOF 7
ENDMDL
MODEL 5
REMARK VINA RESULT:    -3.007      1.402      2.016
REMARK INTER + INTRA:          -4.613
REMARK INTER:                  -4.190
REMARK INTRA:                  -0.424
REMARK UNBOUND:                -0.375
REMARK SMILES C=CCCCCCCC(=O)[O-]
REMARK SMILES IDX 6 1 7 2 8 3 9 4 10 5 11 6 5 7 4 8 3 9 2 10 1 11
REMARK H PARENT
REMARK Flexibility Score: inf
ROOT
ATOM      1  C   UNL     1      -6.743  22.233  10.923  1.00  0.00     0.000 C 
ENDROOT
BRANCH   1   2
ATOM      2  C   UNL     1      -6.040  23.594  10.769  1.00  0.00     0.006 C 
BRANCH   2   3
ATOM      3  C   UNL     1      -4.943  23.584   9.697  1.00  0.00     0.053 C 
BRANCH   3   4
ATOM      4  C   UNL     1      -3.596  23.747  10.327  1.00  0.00     0.041 C 
ATOM      5  O   UNL     1      -3.360  23.247  11.458  1.00  0.00    -0.550 OA
ATOM      6  O   UNL     1      -2.615  24.495   9.687  1.00  0.00    -0.550 OA
ENDBRANCH   3   4
ENDBRANCH   2   3
ENDBRANCH   1   2
BRANCH   1   7
ATOM      7  C   UNL     1      -6.596  21.579  12.310  1.00  0.00     0.000 C 
BRANCH   7   8
ATOM      8  C   UNL     1      -7.919  21.005  12.846  1.00  0.00     0.004 C 
BRANCH   8   9
ATOM      9  C   UNL     1      -9.142  21.666  12.193  1.00  0.00     0.027 C 
BRANCH   9  10
ATOM     10  C   UNL     1     -10.082  20.658  11.587  1.00  0.00    -0.035 C 
ATOM     11  C   UNL     1     -10.407  20.689  10.292  1.00  0.00     0.004 C 
ENDBRANCH   9  10
ENDBRANCH   8   9
ENDBRANCH   7   8
ENDBRANCH   1   7
TORSDOF 7
ENDMDL
MODEL 6
REMARK VINA RESULT:    -2.971      2.961      5.235
REMARK INTER + INTRA:          -4.562
REMARK INTER:                  -4.016
REMARK INTRA:                  -0.546
REMARK UNBOUND:                -0.375
REMARK SMILES C=CCCCCCCC(=O)[O-]
REMARK SMILES IDX 6 1 7 2 8 3 9 4 10 5 11 6 5 7 4 8 3 9 2 10 1 11
REMARK H PARENT
REMARK Flexibility Score: inf
ROOT
ATOM      1  C   UNL     1      -6.932  22.226   9.858  1.00  0.00     0.000 C 
ENDROOT
BRANCH   1   2
ATOM      2  C   UNL     1      -6.529  22.619  11.291  1.00  0.00     0.006 C 
BRANCH   2   3
ATOM      3  C   UNL     1      -6.540  21.432  12.263  1.00  0.00     0.053 C 
BRANCH   3   4
ATOM      4  C   UNL     1      -7.878  21.309  12.922  1.00  0.00     0.041 C 
ATOM      5  O   UNL     1      -8.223  20.224  13.457  1.00  0.00    -0.550 OA
ATOM      6  O   UNL     1      -8.764  22.379  12.900  1.00  0.00    -0.550 OA
ENDBRANCH   3   4
ENDBRANCH   2   3
ENDBRANCH   1   2
BRANCH   1   7
ATOM      7  C   UNL     1      -6.060  22.841   8.747  1.00  0.00     0.000 C 
BRANCH   7   8
ATOM      8  C   UNL     1      -5.274  24.077   9.216  1.00  0.00     0.004 C 
BRANCH   8   9
ATOM      9  C   UNL     1      -3.758  23.896   9.046  1.00  0.00     0.027 C 
BRANCH   9  10
ATOM     10  C   UNL     1      -2.982  24.427  10.223  1.00  0.00    -0.035 C 
ATOM     11  C   UNL     1      -3.026  23.837  11.420  1.00  0.00     0.004 C 
ENDBRANCH   9  10
ENDBRANCH   8   9
ENDBRANCH   7   8
ENDBRANCH   1   7
TORSDOF 7
ENDMDL
MODEL 7
REMARK VINA RESULT:    -2.952      2.549      5.377
REMARK INTER + INTRA:          -4.536
REMARK INTER:                  -4.021
REMARK INTRA:                  -0.515
REMARK UNBOUND:                -0.375
REMARK SMILES C=CCCCCCCC(=O)[O-]
REMARK SMILES IDX 6 1 7 2 8 3 9 4 10 5 11 6 5 7 4 8 3 9 2 10 1 11
REMARK H PARENT
REMARK Flexibility Score: inf
ROOT
ATOM      1  C   UNL     1      -5.767  23.617   9.947  1.00  0.00     0.000 C 
ENDROOT
BRANCH   1   2
ATOM      2  C   UNL     1      -6.419  22.223   9.975  1.00  0.00     0.006 C 
BRANCH   2   3
ATOM      3  C   UNL     1      -7.575  22.122  10.980  1.00  0.00     0.053 C 
BRANCH   3   4
ATOM      4  C   UNL     1      -7.058  21.745  12.333  1.00  0.00     0.041 C 
ATOM      5  O   UNL     1      -6.319  20.735  12.471  1.00  0.00    -0.550 OA
ATOM      6  O   UNL     1      -7.433  22.481  13.450  1.00  0.00    -0.550 OA
ENDBRANCH   3   4
ENDBRANCH   2   3
ENDBRANCH   1   2
BRANCH   1   7
ATOM      7  C   UNL     1      -4.456  23.736  10.746  1.00  0.00     0.000 C 
BRANCH   7   8
ATOM      8  C   UNL     1      -3.222  23.935   9.848  1.00  0.00     0.004 C 
BRANCH   8   9
ATOM      9  C   UNL     1      -3.563  24.702   8.562  1.00  0.00     0.027 C 
BRANCH   9  10
ATOM     10  C   UNL     1      -3.049  24.008   7.328  1.00  0.00    -0.035 C 
ATOM     11  C   UNL     1      -3.713  22.996   6.762  1.00  0.00     0.004 C 
ENDBRANCH   9  10
ENDBRANCH   8   9
ENDBRANCH   7   8
ENDBRANCH   1   7
TORSDOF 7
ENDMDL
MODEL 8
REMARK VINA RESULT:    -2.941      1.943      2.495
REMARK INTER + INTRA:          -4.520
REMARK INTER:                  -4.213
REMARK INTRA:                  -0.307
REMARK UNBOUND:                -0.375
REMARK SMILES C=CCCCCCCC(=O)[O-]
REMARK SMILES IDX 6 1 7 2 8 3 9 4 10 5 11 6 5 7 4 8 3 9 2 10 1 11
REMARK H PARENT
REMARK Flexibility Score: inf
ROOT
ATOM      1  C   UNL     1      -4.373  23.613  11.059  1.00  0.00     0.000 C 
ENDROOT
BRANCH   1   2
ATOM      2  C   UNL     1      -3.223  23.920  10.082  1.00  0.00     0.006 C 
BRANCH   2   3
ATOM      3  C   UNL     1      -3.685  24.680   8.832  1.00  0.00     0.053 C 
BRANCH   3   4
ATOM      4  C   UNL     1      -3.276  23.947   7.594  1.00  0.00     0.041 C 
ATOM      5  O   UNL     1      -2.215  24.259   6.993  1.00  0.00    -0.550 OA
ATOM      6  O   UNL     1      -4.094  22.950   7.075  1.00  0.00    -0.550 OA
ENDBRANCH   3   4
ENDBRANCH   2   3
ENDBRANCH   1   2
BRANCH   1   7
ATOM      7  C   UNL     1      -5.770  23.545  10.415  1.00  0.00     0.000 C 
BRANCH   7   8
ATOM      8  C   UNL     1      -6.431  22.163  10.560  1.00  0.00     0.004 C 
BRANCH   8   9
ATOM      9  C   UNL     1      -6.641  21.775  12.031  1.00  0.00     0.027 C 
BRANCH   9  10
ATOM     10  C   UNL     1      -8.080  21.458  12.340  1.00  0.00    -0.035 C 
ATOM     11  C   UNL     1      -8.420  20.589  13.295  1.00  0.00     0.004 C 
ENDBRANCH   9  10
ENDBRANCH   8   9
ENDBRANCH   7   8
ENDBRANCH   1   7
TORSDOF 7
ENDMDL
MODEL 9
REMARK VINA RESULT:    -2.911      1.806      3.254
REMARK INTER + INTRA:          -4.478
REMARK INTER:                  -3.727
REMARK INTRA:                  -0.751
REMARK UNBOUND:                -0.375
REMARK SMILES C=CCCCCCCC(=O)[O-]
REMARK SMILES IDX 6 1 7 2 8 3 9 4 10 5 11 6 5 7 4 8 3 9 2 10 1 11
REMARK H PARENT
REMARK Flexibility Score: inf
ROOT
ATOM      1  C   UNL     1      -8.399  21.811  11.404  1.00  0.00     0.000 C 
ENDROOT
BRANCH   1   2
ATOM      2  C   UNL     1      -6.894  21.733  11.723  1.00  0.00     0.006 C 
BRANCH   2   3
ATOM      3  C   UNL     1      -6.237  23.113  11.854  1.00  0.00     0.053 C 
BRANCH   3   4
ATOM      4  C   UNL     1      -5.153  23.274  10.835  1.00  0.00     0.041 C 
ATOM      5  O   UNL     1      -5.441  23.370   9.614  1.00  0.00    -0.550 OA
ATOM      6  O   UNL     1      -3.821  23.268  11.231  1.00  0.00    -0.550 OA
ENDBRANCH   3   4
ENDBRANCH   2   3
ENDBRANCH   1   2
BRANCH   1   7
ATOM      7  C   UNL     1      -9.303  20.975  12.328  1.00  0.00     0.000 C 
BRANCH   7   8
ATOM      8  C   UNL     1      -8.615  20.586  13.648  1.00  0.00     0.004 C 
BRANCH   8   9
ATOM      9  C   UNL     1      -9.126  21.420  14.832  1.00  0.00     0.027 C 
BRANCH   9  10
ATOM     10  C   UNL     1      -8.291  22.651  15.068  1.00  0.00    -0.035 C 
ATOM     11  C   UNL     1      -8.723  23.869  14.732  1.00  0.00     0.004 C 
ENDBRANCH   9  10
ENDBRANCH   8   9
ENDBRANCH   7   8
ENDBRANCH   1   7
TORSDOF 7
ENDMDL
