MODEL 1
REMARK VINA RESULT:    -4.503      0.000      0.000
REMARK INTER + INTRA:          -6.339
REMARK INTER:                  -5.819
REMARK INTRA:                  -0.520
REMARK UNBOUND:                -0.520
REMARK SMILES CCCCC(=O)c1ccccc1C(=O)[O-]
REMARK SMILES IDX 4 1 5 2 6 3 7 4 12 5 11 6 10 7 8 8 9 9 13 10 14 11 15 12
REMARK SMILES IDX 3 13 2 14 1 15
REMARK H PARENT
REMARK Flexibility Score: inf
ROOT
ATOM      1  C   UNL     1      32.029 167.800 157.072  1.00  0.00     0.081 C 
ENDROOT
BRANCH   1   2
ATOM      2  C   UNL     1      31.246 167.655 155.797  1.00  0.00     0.163 C 
ATOM      3  O   UNL     1      31.634 166.817 154.937  1.00  0.00    -0.294 OA
BRANCH   2   4
ATOM      4  C   UNL     1      30.015 168.445 155.548  1.00  0.00     0.027 A 
ATOM      5  C   UNL     1      28.721 167.959 155.886  1.00  0.00     0.008 A 
ATOM      6  C   UNL     1      27.610 168.810 155.740  1.00  0.00     0.011 A 
ATOM      7  C   UNL     1      27.761 170.103 155.239  1.00  0.00     0.001 A 
ATOM      8  C   UNL     1      30.141 169.748 155.029  1.00  0.00     0.012 A 
ATOM      9  C   UNL     1      29.023 170.567 154.875  1.00  0.00     0.001 A 
BRANCH   5  10
ATOM     10  C   UNL     1      28.483 166.563 156.329  1.00  0.00     0.072 C 
ATOM     11  O   UNL     1      28.150 165.681 155.494  1.00  0.00    -0.545 OA
ATOM     12  O   UNL     1      28.679 166.195 157.655  1.00  0.00    -0.545 OA
ENDBRANCH   5  10
ENDBRANCH   2   4
ENDBRANCH   1   2
BRANCH   1  13
ATOM     13  C   UNL     1      33.407 167.133 156.948  1.00  0.00     0.008 C 
BRANCH  13  14
ATOM     14  C   UNL     1      33.568 165.932 157.891  1.00  0.00    -0.003 C 
ATOM     15  C   UNL     1      32.475 165.868 158.957  1.00  0.00     0.004 C 
ENDBRANCH  13  14
ENDBRANCH   1  13
TORSDOF 5
ENDMDL
MODEL 2
REMARK VINA RESULT:    -4.424      1.329      4.753
REMARK INTER + INTRA:          -6.237
REMARK INTER:                  -5.764
REMARK INTRA:                  -0.473
REMARK UNBOUND:                -0.520
REMARK SMILES CCCCC(=O)c1ccccc1C(=O)[O-]
REMARK SMILES IDX 4 1 5 2 6 3 7 4 12 5 11 6 10 7 8 8 9 9 13 10 14 11 15 12
REMARK SMILES IDX 3 13 2 14 1 15
REMARK H PARENT
REMARK Flexibility Score: inf
ROOT
ATOM      1  C   UNL     1      29.211 168.460 155.829  1.00  0.00     0.081 C 
ENDROOT
BRANCH   1   2
ATOM      2  C   UNL     1      29.946 167.149 155.854  1.00  0.00     0.163 C 
ATOM      3  O   UNL     1      29.513 166.195 155.151  1.00  0.00    -0.294 OA
BRANCH   2   4
ATOM      4  C   UNL     1      31.182 166.967 156.656  1.00  0.00     0.027 A 
ATOM      5  C   UNL     1      31.156 166.450 157.981  1.00  0.00     0.008 A 
ATOM      6  C   UNL     1      32.374 166.183 158.636  1.00  0.00     0.011 A 
ATOM      7  C   UNL     1      33.593 166.452 158.014  1.00  0.00     0.001 A 
ATOM      8  C   UNL     1      32.424 167.243 156.054  1.00  0.00     0.012 A 
ATOM      9  C   UNL     1      33.618 166.989 156.729  1.00  0.00     0.001 A 
BRANCH   5  10
ATOM     10  C   UNL     1      29.895 166.239 158.731  1.00  0.00     0.072 C 
ATOM     11  O   UNL     1      29.296 165.133 158.667  1.00  0.00    -0.545 OA
ATOM     12  O   UNL     1      29.384 167.232 159.559  1.00  0.00    -0.545 OA
ENDBRANCH   5  10
ENDBRANCH   2   4
ENDBRANCH   1   2
BRANCH   1  13
ATOM     13  C   UNL     1      29.892 169.452 154.875  1.00  0.00     0.008 C 
BRANCH  13  14
ATOM     14  C   UNL     1      29.286 170.860 154.958  1.00  0.00    -0.003 C 
ATOM     15  C   UNL     1      27.760 170.852 154.875  1.00  0.00     0.004 C 
ENDBRANCH  13  14
ENDBRANCH   1  13
TORSDOF 5
ENDMDL
MODEL 3
REMARK VINA RESULT:    -4.190     21.036     22.265
REMARK INTER + INTRA:          -5.935
REMARK INTER:                  -5.220
REMARK INTRA:                  -0.715
REMARK UNBOUND:                -0.520
REMARK SMILES CCCCC(=O)c1ccccc1C(=O)[O-]
REMARK SMILES IDX 4 1 5 2 6 3 7 4 12 5 11 6 10 7 8 8 9 9 13 10 14 11 15 12
REMARK SMILES IDX 3 13 2 14 1 15
REMARK H PARENT
REMARK Flexibility Score: inf
ROOT
ATOM      1  C   UNL     1      33.916 180.866 173.227  1.00  0.00     0.081 C 
ENDROOT
BRANCH   1   2
ATOM      2  C   UNL     1      35.062 181.837 173.275  1.00  0.00     0.163 C 
ATOM      3  O   UNL     1      34.831 183.035 173.593  1.00  0.00    -0.294 OA
BRANCH   2   4
ATOM      4  C   UNL     1      36.455 181.408 172.994  1.00  0.00     0.027 A 
ATOM      5  C   UNL     1      37.139 181.785 171.804  1.00  0.00     0.008 A 
ATOM      6  C   UNL     1      38.499 181.451 171.661  1.00  0.00     0.011 A 
ATOM      7  C   UNL     1      39.166 180.730 172.651  1.00  0.00     0.001 A 
ATOM      8  C   UNL     1      37.145 180.668 173.973  1.00  0.00     0.012 A 
ATOM      9  C   UNL     1      38.488 180.331 173.801  1.00  0.00     0.001 A 
BRANCH   5  10
ATOM     10  C   UNL     1      36.459 182.464 170.675  1.00  0.00     0.072 C 
ATOM     11  O   UNL     1      36.363 183.719 170.654  1.00  0.00    -0.545 OA
ATOM     12  O   UNL     1      35.970 181.735 169.597  1.00  0.00    -0.545 OA
ENDBRANCH   5  10
ENDBRANCH   2   4
ENDBRANCH   1   2
BRANCH   1  13
ATOM     13  C   UNL     1      33.475 180.610 171.778  1.00  0.00     0.008 C 
BRANCH  13  14
ATOM     14  C   UNL     1      33.289 179.117 171.473  1.00  0.00    -0.003 C 
ATOM     15  C   UNL     1      33.935 178.215 172.524  1.00  0.00     0.004 C 
ENDBRANCH  13  14
ENDBRANCH   1  13
TORSDOF 5
ENDMDL
MODEL 4
REMARK VINA RESULT:    -4.105      2.227      4.474
REMARK INTER + INTRA:          -5.824
REMARK INTER:                  -5.058
REMARK INTRA:                  -0.766
REMARK UNBOUND:                -0.520
REMARK SMILES CCCCC(=O)c1ccccc1C(=O)[O-]
REMARK SMILES IDX 4 1 5 2 6 3 7 4 12 5 11 6 10 7 8 8 9 9 13 10 14 11 15 12
REMARK SMILES IDX 3 13 2 14 1 15
REMARK H PARENT
REMARK Flexibility Score: inf
ROOT
ATOM      1  C   UNL     1      29.240 167.080 159.492  1.00  0.00     0.081 C 
ENDROOT
BRANCH   1   2
ATOM      2  C   UNL     1      29.932 166.042 158.654  1.00  0.00     0.163 C 
ATOM      3  O   UNL     1      29.411 164.898 158.551  1.00  0.00    -0.294 OA
BRANCH   2   4
ATOM      4  C   UNL     1      31.186 166.346 157.920  1.00  0.00     0.027 A 
ATOM      5  C   UNL     1      31.186 167.014 156.663  1.00  0.00     0.008 A 
ATOM      6  C   UNL     1      32.415 167.384 156.085  1.00  0.00     0.011 A 
ATOM      7  C   UNL     1      33.622 167.073 156.710  1.00  0.00     0.001 A 
ATOM      8  C   UNL     1      32.417 166.029 158.525  1.00  0.00     0.012 A 
ATOM      9  C   UNL     1      33.623 166.389 157.924  1.00  0.00     0.001 A 
BRANCH   5  10
ATOM     10  C   UNL     1      29.942 167.283 155.902  1.00  0.00     0.072 C 
ATOM     11  O   UNL     1      29.413 168.425 155.934  1.00  0.00    -0.545 OA
ATOM     12  O   UNL     1      29.372 166.300 155.100  1.00  0.00    -0.545 OA
ENDBRANCH   5  10
ENDBRANCH   2   4
ENDBRANCH   1   2
BRANCH   1  13
ATOM     13  C   UNL     1      30.068 167.416 160.741  1.00  0.00     0.008 C 
BRANCH  13  14
ATOM     14  C   UNL     1      30.078 166.273 161.767  1.00  0.00    -0.003 C 
ATOM     15  C   UNL     1      31.489 165.784 162.092  1.00  0.00     0.004 C 
ENDBRANCH  13  14
ENDBRANCH   1  13
TORSDOF 5
ENDMDL
MODEL 5
REMARK VINA RESULT:    -4.092     21.700     22.706
REMARK INTER + INTRA:          -5.809
REMARK INTER:                  -5.327
REMARK INTRA:                  -0.482
REMARK UNBOUND:                -0.520
REMARK SMILES CCCCC(=O)c1ccccc1C(=O)[O-]
REMARK SMILES IDX 4 1 5 2 6 3 7 4 12 5 11 6 10 7 8 8 9 9 13 10 14 11 15 12
REMARK SMILES IDX 3 13 2 14 1 15
REMARK H PARENT
REMARK Flexibility Score: inf
ROOT
ATOM      1  C   UNL     1      39.171 180.979 172.452  1.00  0.00     0.081 C 
ENDROOT
BRANCH   1   2
ATOM      2  C   UNL     1      38.048 181.473 173.321  1.00  0.00     0.163 C 
ATOM      3  O   UNL     1      38.311 182.282 174.252  1.00  0.00    -0.294 OA
BRANCH   2   4
ATOM      4  C   UNL     1      36.643 181.060 173.083  1.00  0.00     0.027 A 
ATOM      5  C   UNL     1      35.834 181.665 172.081  1.00  0.00     0.008 A 
ATOM      6  C   UNL     1      34.554 181.139 171.824  1.00  0.00     0.011 A 
ATOM      7  C   UNL     1      34.063 180.062 172.561  1.00  0.00     0.001 A 
ATOM      8  C   UNL     1      36.120 179.983 173.824  1.00  0.00     0.012 A 
ATOM      9  C   UNL     1      34.841 179.490 173.565  1.00  0.00     0.001 A 
BRANCH   5  10
ATOM     10  C   UNL     1      36.260 182.874 171.335  1.00  0.00     0.072 C 
ATOM     11  O   UNL     1      36.502 182.805 170.101  1.00  0.00    -0.545 OA
ATOM     12  O   UNL     1      36.343 184.109 171.968  1.00  0.00    -0.545 OA
ENDBRANCH   5  10
ENDBRANCH   2   4
ENDBRANCH   1   2
BRANCH   1  13
ATOM     13  C   UNL     1      40.001 179.913 173.183  1.00  0.00     0.008 C 
BRANCH  13  14
ATOM     14  C   UNL     1      41.308 180.476 173.758  1.00  0.00    -0.003 C 
ATOM     15  C   UNL     1      42.515 179.586 173.464  1.00  0.00     0.004 C 
ENDBRANCH  13  14
ENDBRANCH   1  13
TORSDOF 5
ENDMDL
MODEL 6
REMARK VINA RESULT:    -4.003     22.557     23.406
REMARK INTER + INTRA:          -5.694
REMARK INTER:                  -5.162
REMARK INTRA:                  -0.531
REMARK UNBOUND:                -0.520
REMARK SMILES CCCCC(=O)c1ccccc1C(=O)[O-]
REMARK SMILES IDX 4 1 5 2 6 3 7 4 12 5 11 6 10 7 8 8 9 9 13 10 14 11 15 12
REMARK SMILES IDX 3 13 2 14 1 15
REMARK H PARENT
REMARK Flexibility Score: inf
ROOT
ATOM      1  C   UNL     1      37.957 183.082 174.426  1.00  0.00     0.081 C 
ENDROOT
BRANCH   1   2
ATOM      2  C   UNL     1      36.807 183.639 173.634  1.00  0.00     0.163 C 
ATOM      3  O   UNL     1      36.837 184.852 173.290  1.00  0.00    -0.294 OA
BRANCH   2   4
ATOM      4  C   UNL     1      35.663 182.788 173.221  1.00  0.00     0.027 A 
ATOM      5  C   UNL     1      35.662 182.063 171.997  1.00  0.00     0.008 A 
ATOM      6  C   UNL     1      34.603 181.176 171.727  1.00  0.00     0.011 A 
ATOM      7  C   UNL     1      33.546 181.031 172.626  1.00  0.00     0.001 A 
ATOM      8  C   UNL     1      34.579 182.636 174.106  1.00  0.00     0.012 A 
ATOM      9  C   UNL     1      33.530 181.767 173.809  1.00  0.00     0.001 A 
BRANCH   5  10
ATOM     10  C   UNL     1      36.704 182.248 170.958  1.00  0.00     0.072 C 
ATOM     11  O   UNL     1      37.795 181.624 171.035  1.00  0.00    -0.545 OA
ATOM     12  O   UNL     1      36.474 183.066 169.858  1.00  0.00    -0.545 OA
ENDBRANCH   5  10
ENDBRANCH   2   4
ENDBRANCH   1   2
BRANCH   1  13
ATOM     13  C   UNL     1      39.279 183.742 174.010  1.00  0.00     0.008 C 
BRANCH  13  14
ATOM     14  C   UNL     1      40.491 182.825 174.232  1.00  0.00    -0.003 C 
ATOM     15  C   UNL     1      40.329 181.460 173.563  1.00  0.00     0.004 C 
ENDBRANCH  13  14
ENDBRANCH   1  13
TORSDOF 5
ENDMDL
MODEL 7
REMARK VINA RESULT:    -3.936      2.813      4.476
REMARK INTER + INTRA:          -5.607
REMARK INTER:                  -5.067
REMARK INTRA:                  -0.540
REMARK UNBOUND:                -0.520
REMARK SMILES CCCCC(=O)c1ccccc1C(=O)[O-]
REMARK SMILES IDX 4 1 5 2 6 3 7 4 12 5 11 6 10 7 8 8 9 9 13 10 14 11 15 12
REMARK SMILES IDX 3 13 2 14 1 15
REMARK H PARENT
REMARK Flexibility Score: inf
ROOT
ATOM      1  C   UNL     1      30.548 167.413 160.425  1.00  0.00     0.081 C 
ENDROOT
BRANCH   1   2
ATOM      2  C   UNL     1      30.755 166.353 159.379  1.00  0.00     0.163 C 
ATOM      3  O   UNL     1      30.404 165.169 159.636  1.00  0.00    -0.294 OA
BRANCH   2   4
ATOM      4  C   UNL     1      31.325 166.676 158.047  1.00  0.00     0.027 A 
ATOM      5  C   UNL     1      30.507 167.031 156.939  1.00  0.00     0.008 A 
ATOM      6  C   UNL     1      31.119 167.449 155.742  1.00  0.00     0.011 A 
ATOM      7  C   UNL     1      32.508 167.485 155.624  1.00  0.00     0.001 A 
ATOM      8  C   UNL     1      32.725 166.705 157.900  1.00  0.00     0.012 A 
ATOM      9  C   UNL     1      33.309 167.104 156.699  1.00  0.00     0.001 A 
BRANCH   5  10
ATOM     10  C   UNL     1      29.028 166.919 156.970  1.00  0.00     0.072 C 
ATOM     11  O   UNL     1      28.320 167.931 157.213  1.00  0.00    -0.545 OA
ATOM     12  O   UNL     1      28.400 165.714 156.676  1.00  0.00    -0.545 OA
ENDBRANCH   5  10
ENDBRANCH   2   4
ENDBRANCH   1   2
BRANCH   1  13
ATOM     13  C   UNL     1      29.053 167.611 160.717  1.00  0.00     0.008 C 
BRANCH  13  14
ATOM     14  C   UNL     1      28.801 168.267 162.082  1.00  0.00    -0.003 C 
ATOM     15  C   UNL     1      28.718 169.790 161.998  1.00  0.00     0.004 C 
ENDBRANCH  13  14
ENDBRANCH   1  13
TORSDOF 5
ENDMDL
MODEL 8
REMARK VINA RESULT:    -3.908     22.691     23.638
REMARK INTER + INTRA:          -5.570
REMARK INTER:                  -5.046
REMARK INTRA:                  -0.525
REMARK UNBOUND:                -0.520
REMARK SMILES CCCCC(=O)c1ccccc1C(=O)[O-]
REMARK SMILES IDX 4 1 5 2 6 3 7 4 12 5 11 6 10 7 8 8 9 9 13 10 14 11 15 12
REMARK SMILES IDX 3 13 2 14 1 15
REMARK H PARENT
REMARK Flexibility Score: inf
ROOT
ATOM      1  C   UNL     1      38.763 180.201 173.981  1.00  0.00     0.081 C 
ENDROOT
BRANCH   1   2
ATOM      2  C   UNL     1      38.752 181.279 172.934  1.00  0.00     0.163 C 
ATOM      3  O   UNL     1      39.242 181.029 171.799  1.00  0.00    -0.294 OA
BRANCH   2   4
ATOM      4  C   UNL     1      38.148 182.610 173.196  1.00  0.00     0.027 A 
ATOM      5  C   UNL     1      36.843 182.951 172.744  1.00  0.00     0.008 A 
ATOM      6  C   UNL     1      36.283 184.181 173.136  1.00  0.00     0.011 A 
ATOM      7  C   UNL     1      37.004 185.075 173.927  1.00  0.00     0.001 A 
ATOM      8  C   UNL     1      38.863 183.534 173.981  1.00  0.00     0.012 A 
ATOM      9  C   UNL     1      38.295 184.756 174.341  1.00  0.00     0.001 A 
BRANCH   5  10
ATOM     10  C   UNL     1      36.067 182.089 171.820  1.00  0.00     0.072 C 
ATOM     11  O   UNL     1      36.205 182.207 170.574  1.00  0.00    -0.545 OA
ATOM     12  O   UNL     1      35.221 181.101 172.311  1.00  0.00    -0.545 OA
ENDBRANCH   5  10
ENDBRANCH   2   4
ENDBRANCH   1   2
BRANCH   1  13
ATOM     13  C   UNL     1      40.144 180.094 174.644  1.00  0.00     0.008 C 
BRANCH  13  14
ATOM     14  C   UNL     1      41.044 179.051 173.965  1.00  0.00    -0.003 C 
ATOM     15  C   UNL     1      42.418 179.610 173.594  1.00  0.00     0.004 C 
ENDBRANCH  13  14
ENDBRANCH   1  13
TORSDOF 5
ENDMDL
MODEL 9
REMARK VINA RESULT:    -3.876     22.079     22.904
REMARK INTER + INTRA:          -5.529
REMARK INTER:                  -4.764
REMARK INTRA:                  -0.765
REMARK UNBOUND:                -0.520
REMARK SMILES CCCCC(=O)c1ccccc1C(=O)[O-]
REMARK SMILES IDX 4 1 5 2 6 3 7 4 12 5 11 6 10 7 8 8 9 9 13 10 14 11 15 12
REMARK SMILES IDX 3 13 2 14 1 15
REMARK H PARENT
REMARK Flexibility Score: inf
ROOT
ATOM      1  C   UNL     1      38.355 181.413 171.710  1.00  0.00     0.081 C 
ENDROOT
BRANCH   1   2
ATOM      2  C   UNL     1      37.065 182.101 171.363  1.00  0.00     0.163 C 
ATOM      3  O   UNL     1      36.697 182.131 170.157  1.00  0.00    -0.294 OA
BRANCH   2   4
ATOM      4  C   UNL     1      36.203 182.708 172.408  1.00  0.00     0.027 A 
ATOM      5  C   UNL     1      35.112 182.007 172.992  1.00  0.00     0.008 A 
ATOM      6  C   UNL     1      34.417 182.593 174.066  1.00  0.00     0.011 A 
ATOM      7  C   UNL     1      34.763 183.861 174.534  1.00  0.00     0.001 A 
ATOM      8  C   UNL     1      36.525 183.993 172.887  1.00  0.00     0.012 A 
ATOM      9  C   UNL     1      35.809 184.563 173.940  1.00  0.00     0.001 A 
BRANCH   5  10
ATOM     10  C   UNL     1      34.633 180.702 172.474  1.00  0.00     0.072 C 
ATOM     11  O   UNL     1      34.970 179.631 173.045  1.00  0.00    -0.545 OA
ATOM     12  O   UNL     1      33.762 180.642 171.392  1.00  0.00    -0.545 OA
ENDBRANCH   5  10
ENDBRANCH   2   4
ENDBRANCH   1   2
BRANCH   1  13
ATOM     13  C   UNL     1      38.375 180.999 173.188  1.00  0.00     0.008 C 
BRANCH  13  14
ATOM     14  C   UNL     1      39.696 181.359 173.884  1.00  0.00    -0.003 C 
ATOM     15  C   UNL     1      40.091 182.821 173.679  1.00  0.00     0.004 C 
ENDBRANCH  13  14
ENDBRANCH   1  13
TORSDOF 5
ENDMDL
