MODEL 1
REMARK VINA RESULT:    -1.552      0.000      0.000
REMARK INTER + INTRA:          -2.572
REMARK INTER:                  -2.369
REMARK INTRA:                  -0.202
REMARK UNBOUND:                -0.202
REMARK SMILES CC(=O)CCC=C(C)CCC=C(C)CCC=C(C)C
REMARK SMILES IDX 10 1 11 2 12 3 13 4 14 5 15 6 16 7 18 8 17 9 19 10 9 11 7 12
REMARK SMILES IDX 6 13 8 14 5 15 4 16 2 17 3 18 1 19
REMARK H PARENT
REMARK Flexibility Score: inf
ROOT
ATOM      1  C   UNL     1      33.913  25.003  31.593  1.00  0.00     0.032 C 
ENDROOT
BRANCH   1   2
ATOM      2  C   UNL     1      34.957  25.124  30.514  1.00  0.00    -0.028 C 
ATOM      3  C   UNL     1      36.187  24.563  30.573  1.00  0.00    -0.077 C 
ATOM      4  C   UNL     1      36.659  23.804  31.791  1.00  0.00     0.039 C 
BRANCH   3   5
ATOM      5  C   UNL     1      37.123  24.719  29.393  1.00  0.00     0.034 C 
BRANCH   5   6
ATOM      6  C   UNL     1      36.333  24.885  28.089  1.00  0.00     0.032 C 
BRANCH   6   7
ATOM      7  C   UNL     1      35.465  23.680  27.818  1.00  0.00    -0.028 C 
ATOM      8  C   UNL     1      33.496  25.114  27.268  1.00  0.00     0.039 C 
ATOM      9  C   UNL     1      34.172  23.774  27.443  1.00  0.00    -0.080 C 
ATOM     10  C   UNL     1      33.395  22.507  27.198  1.00  0.00     0.039 C 
ENDBRANCH   6   7
ENDBRANCH   5   6
ENDBRANCH   3   5
ENDBRANCH   1   2
BRANCH   1  11
ATOM     11  C   UNL     1      32.507  24.970  30.983  1.00  0.00     0.034 C 
BRANCH  11  12
ATOM     12  C   UNL     1      31.439  25.040  32.059  1.00  0.00    -0.077 C 
ATOM     13  C   UNL     1      30.111  25.063  31.794  1.00  0.00    -0.028 C 
ATOM     14  C   UNL     1      31.869  25.076  33.504  1.00  0.00     0.039 C 
BRANCH  13  15
ATOM     15  C   UNL     1      29.484  25.063  30.417  1.00  0.00     0.035 C 
BRANCH  15  16
ATOM     16  C   UNL     1      30.525  24.753  29.333  1.00  0.00     0.079 C 
BRANCH  16  17
ATOM     17  C   UNL     1      29.917  24.042  28.152  1.00  0.00     0.130 C 
ATOM     18  O   UNL     1      29.708  22.839  28.209  1.00  0.00    -0.300 OA
ATOM     19  C   UNL     1      29.588  24.796  26.900  1.00  0.00     0.087 C 
ENDBRANCH  16  17
ENDBRANCH  15  16
ENDBRANCH  13  15
ENDBRANCH  11  12
ENDBRANCH   1  11
TORSDOF 9
ENDMDL
MODEL 2
REMARK VINA RESULT:    -1.166      1.651      4.362
REMARK INTER + INTRA:          -1.982
REMARK INTER:                  -1.383
REMARK INTRA:                  -0.599
REMARK UNBOUND:                -0.202
REMARK SMILES CC(=O)CCC=C(C)CCC=C(C)CCC=C(C)C
REMARK SMILES IDX 10 1 11 2 12 3 13 4 14 5 15 6 16 7 18 8 17 9 19 10 9 11 7 12
REMARK SMILES IDX 6 13 8 14 5 15 4 16 2 17 3 18 1 19
REMARK H PARENT
REMARK Flexibility Score: inf
ROOT
ATOM      1  C   UNL     1      32.639  22.371  27.209  1.00  0.00     0.032 C 
ENDROOT
BRANCH   1   2
ATOM      2  C   UNL     1      33.803  23.313  27.032  1.00  0.00    -0.028 C 
ATOM      3  C   UNL     1      35.101  22.959  27.176  1.00  0.00    -0.077 C 
ATOM      4  C   UNL     1      35.505  21.569  27.607  1.00  0.00     0.039 C 
BRANCH   3   5
ATOM      5  C   UNL     1      36.177  23.993  26.917  1.00  0.00     0.034 C 
BRANCH   5   6
ATOM      6  C   UNL     1      36.103  25.125  27.949  1.00  0.00     0.032 C 
BRANCH   6   7
ATOM      7  C   UNL     1      36.846  24.763  29.212  1.00  0.00    -0.028 C 
ATOM      8  C   UNL     1      34.806  25.095  30.612  1.00  0.00     0.039 C 
ATOM      9  C   UNL     1      36.264  24.746  30.430  1.00  0.00    -0.080 C 
ATOM     10  C   UNL     1      37.098  24.370  31.626  1.00  0.00     0.039 C 
ENDBRANCH   6   7
ENDBRANCH   5   6
ENDBRANCH   3   5
ENDBRANCH   1   2
BRANCH   1  11
ATOM     11  C   UNL     1      31.706  22.869  28.319  1.00  0.00     0.034 C 
BRANCH  11  12
ATOM     12  C   UNL     1      31.483  24.367  28.220  1.00  0.00    -0.077 C 
ATOM     13  C   UNL     1      31.005  25.120  29.238  1.00  0.00    -0.028 C 
ATOM     14  C   UNL     1      31.818  25.063  26.925  1.00  0.00     0.039 C 
BRANCH  13  15
ATOM     15  C   UNL     1      30.586  24.605  30.598  1.00  0.00     0.035 C 
BRANCH  15  16
ATOM     16  C   UNL     1      31.548  25.082  31.693  1.00  0.00     0.079 C 
BRANCH  16  17
ATOM     17  C   UNL     1      30.906  25.070  33.055  1.00  0.00     0.130 C 
ATOM     18  O   UNL     1      29.688  25.107  33.152  1.00  0.00    -0.300 OA
ATOM     19  C   UNL     1      31.750  25.038  34.292  1.00  0.00     0.087 C 
ENDBRANCH  16  17
ENDBRANCH  15  16
ENDBRANCH  13  15
ENDBRANCH  11  12
ENDBRANCH   1  11
TORSDOF 9
ENDMDL
MODEL 3
REMARK VINA RESULT:    -0.100      2.046      4.636
REMARK INTER + INTRA:          -0.355
REMARK INTER:                  -2.382
REMARK INTRA:                   2.027
REMARK UNBOUND:                -0.202
REMARK SMILES CC(=O)CCC=C(C)CCC=C(C)CCC=C(C)C
REMARK SMILES IDX 10 1 11 2 12 3 13 4 14 5 15 6 16 7 18 8 17 9 19 10 9 11 7 12
REMARK SMILES IDX 6 13 8 14 5 15 4 16 2 17 3 18 1 19
REMARK H PARENT
REMARK Flexibility Score: inf
ROOT
ATOM      1  C   UNL     1      31.116  23.376  30.883  1.00  0.00     0.032 C 
ENDROOT
BRANCH   1   2
ATOM      2  C   UNL     1      31.802  23.257  29.546  1.00  0.00    -0.028 C 
ATOM      3  C   UNL     1      31.309  23.753  28.388  1.00  0.00    -0.077 C 
ATOM      4  C   UNL     1      29.957  24.425  28.319  1.00  0.00     0.039 C 
BRANCH   3   5
ATOM      5  C   UNL     1      32.126  23.610  27.121  1.00  0.00     0.034 C 
BRANCH   5   6
ATOM      6  C   UNL     1      32.987  24.857  26.886  1.00  0.00     0.032 C 
BRANCH   6   7
ATOM      7  C   UNL     1      33.927  25.099  28.042  1.00  0.00    -0.028 C 
ATOM      8  C   UNL     1      35.612  23.503  27.120  1.00  0.00     0.039 C 
ATOM      9  C   UNL     1      35.125  24.487  28.158  1.00  0.00    -0.080 C 
ATOM     10  C   UNL     1      35.985  24.801  29.353  1.00  0.00     0.039 C 
ENDBRANCH   6   7
ENDBRANCH   5   6
ENDBRANCH   3   5
ENDBRANCH   1   2
BRANCH   1  11
ATOM     11  C   UNL     1      30.757  24.838  31.178  1.00  0.00     0.034 C 
BRANCH  11  12
ATOM     12  C   UNL     1      30.060  24.973  32.518  1.00  0.00    -0.077 C 
ATOM     13  C   UNL     1      30.719  25.099  33.694  1.00  0.00    -0.028 C 
ATOM     14  C   UNL     1      28.552  24.977  32.552  1.00  0.00     0.039 C 
BRANCH  13  15
ATOM     15  C   UNL     1      32.222  25.088  33.871  1.00  0.00     0.035 C 
BRANCH  15  16
ATOM     16  C   UNL     1      32.941  25.117  32.517  1.00  0.00     0.079 C 
BRANCH  16  17
ATOM     17  C   UNL     1      34.408  24.801  32.648  1.00  0.00     0.130 C 
ATOM     18  O   UNL     1      35.144  24.925  31.679  1.00  0.00    -0.300 OA
ATOM     19  C   UNL     1      34.965  24.314  33.949  1.00  0.00     0.087 C 
ENDBRANCH  16  17
ENDBRANCH  15  16
ENDBRANCH  13  15
ENDBRANCH  11  12
ENDBRANCH   1  11
TORSDOF 9
ENDMDL
