MODEL 1
REMARK VINA RESULT:    -3.362      0.000      0.000
REMARK INTER + INTRA:          -8.810
REMARK INTER:                  -6.113
REMARK INTRA:                  -2.696
REMARK UNBOUND:                -2.696
REMARK SMILES CCCCCCCCCCCCCC[C@@H](C)C(=O)[O-]
REMARK SMILES IDX 9 1 10 2 11 3 12 4 13 5 14 6 15 7 16 8 17 9 18 10 19 11 8 12
REMARK SMILES IDX 7 13 6 14 5 15 4 16 3 17 2 18 1 19
REMARK H PARENT
REMARK Flexibility Score: inf
ROOT
ATOM      1  C   UNL     1     -93.143 146.974 239.097  1.00  0.00     0.000 C 
ENDROOT
BRANCH   1   2
ATOM      2  C   UNL     1     -93.953 146.136 240.099  1.00  0.00     0.000 C 
BRANCH   2   3
ATOM      3  C   UNL     1     -94.635 147.032 241.140  1.00  0.00     0.000 C 
BRANCH   3   4
ATOM      4  C   UNL     1     -94.411 148.517 240.818  1.00  0.00     0.000 C 
BRANCH   4   5
ATOM      5  C   UNL     1     -95.703 149.345 240.905  1.00  0.00     0.001 C 
BRANCH   5   6
ATOM      6  C   UNL     1     -96.698 148.787 241.939  1.00  0.00     0.009 C 
BRANCH   6   7
ATOM      7  C   UNL     1     -97.727 149.846 242.386  1.00  0.00     0.032 C 
ATOM      8  C   UNL     1     -98.860 149.963 241.362  1.00  0.00     0.014 C 
BRANCH   7   9
ATOM      9  C   UNL     1     -98.300 149.518 243.738  1.00  0.00     0.044 C 
ATOM     10  O   UNL     1     -98.972 150.379 244.365  1.00  0.00    -0.550 OA
ATOM     11  O   UNL     1     -98.099 148.263 244.302  1.00  0.00    -0.550 OA
ENDBRANCH   7   9
ENDBRANCH   6   7
ENDBRANCH   5   6
ENDBRANCH   4   5
ENDBRANCH   3   4
ENDBRANCH   2   3
ENDBRANCH   1   2
BRANCH   1  12
ATOM     12  C   UNL     1     -93.143 146.369 237.685  1.00  0.00     0.000 C 
BRANCH  12  13
ATOM     13  C   UNL     1     -94.317 146.871 236.826  1.00  0.00    -0.000 C 
BRANCH  13  14
ATOM     14  C   UNL     1     -94.818 148.256 237.264  1.00  0.00    -0.000 C 
BRANCH  14  15
ATOM     15  C   UNL     1     -96.348 148.319 237.385  1.00  0.00    -0.000 C 
BRANCH  15  16
ATOM     16  C   UNL     1     -96.935 146.930 237.673  1.00  0.00    -0.000 C 
BRANCH  16  17
ATOM     17  C   UNL     1     -97.705 146.868 239.003  1.00  0.00    -0.000 C 
BRANCH  17  18
ATOM     18  C   UNL     1     -97.874 145.438 239.555  1.00  0.00    -0.003 C 
ATOM     19  C   UNL     1     -97.923 145.405 241.082  1.00  0.00     0.004 C 
ENDBRANCH  17  18
ENDBRANCH  16  17
ENDBRANCH  15  16
ENDBRANCH  14  15
ENDBRANCH  13  14
ENDBRANCH  12  13
ENDBRANCH   1  12
TORSDOF 14
ENDMDL
MODEL 2
REMARK VINA RESULT:    -3.334      3.856      5.941
REMARK INTER + INTRA:          -8.759
REMARK INTER:                  -6.402
REMARK INTRA:                  -2.356
REMARK UNBOUND:                -2.696
REMARK SMILES CCCCCCCCCCCCCC[C@@H](C)C(=O)[O-]
REMARK SMILES IDX 9 1 10 2 11 3 12 4 13 5 14 6 15 7 16 8 17 9 18 10 19 11 8 12
REMARK SMILES IDX 7 13 6 14 5 15 4 16 3 17 2 18 1 19
REMARK H PARENT
REMARK Flexibility Score: inf
ROOT
ATOM      1  C   UNL     1     -93.010 146.239 237.793  1.00  0.00     0.000 C 
ENDROOT
BRANCH   1   2
ATOM      2  C   UNL     1     -93.916 147.141 236.940  1.00  0.00     0.000 C 
BRANCH   2   3
ATOM      3  C   UNL     1     -95.352 146.604 236.908  1.00  0.00     0.000 C 
BRANCH   3   4
ATOM      4  C   UNL     1     -96.328 147.610 237.538  1.00  0.00     0.000 C 
BRANCH   4   5
ATOM      5  C   UNL     1     -95.908 149.070 237.304  1.00  0.00     0.001 C 
BRANCH   5   6
ATOM      6  C   UNL     1     -96.446 149.637 235.977  1.00  0.00     0.009 C 
BRANCH   6   7
ATOM      7  C   UNL     1     -95.318 150.201 235.087  1.00  0.00     0.032 C 
ATOM      8  C   UNL     1     -94.962 149.210 233.974  1.00  0.00     0.014 C 
BRANCH   7   9
ATOM      9  C   UNL     1     -95.707 151.523 234.481  1.00  0.00     0.044 C 
ATOM     10  O   UNL     1     -95.677 151.677 233.231  1.00  0.00    -0.550 OA
ATOM     11  O   UNL     1     -96.106 152.579 235.292  1.00  0.00    -0.550 OA
ENDBRANCH   7   9
ENDBRANCH   6   7
ENDBRANCH   5   6
ENDBRANCH   4   5
ENDBRANCH   3   4
ENDBRANCH   2   3
ENDBRANCH   1   2
BRANCH   1  12
ATOM     12  C   UNL     1     -92.862 146.747 239.235  1.00  0.00     0.000 C 
BRANCH  12  13
ATOM     13  C   UNL     1     -93.776 146.000 240.222  1.00  0.00    -0.000 C 
BRANCH  13  14
ATOM     14  C   UNL     1     -94.550 146.953 241.146  1.00  0.00    -0.000 C 
BRANCH  14  15
ATOM     15  C   UNL     1     -94.474 148.416 240.683  1.00  0.00    -0.000 C 
BRANCH  15  16
ATOM     16  C   UNL     1     -95.761 149.174 241.040  1.00  0.00    -0.000 C 
BRANCH  16  17
ATOM     17  C   UNL     1     -96.958 148.240 241.286  1.00  0.00    -0.000 C 
BRANCH  17  18
ATOM     18  C   UNL     1     -98.266 148.724 240.629  1.00  0.00    -0.003 C 
ATOM     19  C   UNL     1     -98.355 150.248 240.560  1.00  0.00     0.004 C 
ENDBRANCH  17  18
ENDBRANCH  16  17
ENDBRANCH  15  16
ENDBRANCH  14  15
ENDBRANCH  13  14
ENDBRANCH  12  13
ENDBRANCH   1  12
TORSDOF 14
ENDMDL
MODEL 3
REMARK VINA RESULT:    -3.285      3.664      5.705
REMARK INTER + INTRA:          -8.671
REMARK INTER:                  -6.008
REMARK INTRA:                  -2.662
REMARK UNBOUND:                -2.696
REMARK SMILES CCCCCCCCCCCCCC[C@@H](C)C(=O)[O-]
REMARK SMILES IDX 9 1 10 2 11 3 12 4 13 5 14 6 15 7 16 8 17 9 18 10 19 11 8 12
REMARK SMILES IDX 7 13 6 14 5 15 4 16 3 17 2 18 1 19
REMARK H PARENT
REMARK Flexibility Score: inf
ROOT
ATOM      1  C   UNL     1     -96.964 145.770 241.185  1.00  0.00     0.000 C 
ENDROOT
BRANCH   1   2
ATOM      2  C   UNL     1     -95.970 146.680 241.922  1.00  0.00     0.000 C 
BRANCH   2   3
ATOM      3  C   UNL     1     -94.645 146.780 241.156  1.00  0.00     0.000 C 
BRANCH   3   4
ATOM      4  C   UNL     1     -94.383 148.223 240.698  1.00  0.00     0.000 C 
BRANCH   4   5
ATOM      5  C   UNL     1     -93.701 148.295 239.322  1.00  0.00     0.001 C 
BRANCH   5   6
ATOM      6  C   UNL     1     -93.479 146.906 238.697  1.00  0.00     0.009 C 
BRANCH   6   7
ATOM      7  C   UNL     1     -94.202 146.757 237.341  1.00  0.00     0.032 C 
ATOM      8  C   UNL     1     -94.885 148.071 236.947  1.00  0.00     0.014 C 
BRANCH   7   9
ATOM      9  C   UNL     1     -93.249 146.338 236.254  1.00  0.00     0.044 C 
ATOM     10  O   UNL     1     -93.420 146.743 235.074  1.00  0.00    -0.550 OA
ATOM     11  O   UNL     1     -92.171 145.509 236.545  1.00  0.00    -0.550 OA
ENDBRANCH   7   9
ENDBRANCH   6   7
ENDBRANCH   5   6
ENDBRANCH   4   5
ENDBRANCH   3   4
ENDBRANCH   2   3
ENDBRANCH   1   2
BRANCH   1  12
ATOM     12  C   UNL     1     -97.074 146.105 239.690  1.00  0.00     0.000 C 
BRANCH  12  13
ATOM     13  C   UNL     1     -98.192 147.120 239.392  1.00  0.00    -0.000 C 
BRANCH  13  14
ATOM     14  C   UNL     1     -97.658 148.550 239.213  1.00  0.00    -0.000 C 
BRANCH  14  15
ATOM     15  C   UNL     1     -98.776 149.603 239.228  1.00  0.00    -0.000 C 
BRANCH  15  16
ATOM     16  C   UNL     1     -98.697 150.473 240.491  1.00  0.00    -0.000 C 
BRANCH  16  17
ATOM     17  C   UNL     1     -97.522 150.092 241.408  1.00  0.00    -0.000 C 
BRANCH  17  18
ATOM     18  C   UNL     1     -97.954 149.697 242.835  1.00  0.00    -0.003 C 
ATOM     19  C   UNL     1     -98.979 148.563 242.841  1.00  0.00     0.004 C 
ENDBRANCH  17  18
ENDBRANCH  16  17
ENDBRANCH  15  16
ENDBRANCH  14  15
ENDBRANCH  13  14
ENDBRANCH  12  13
ENDBRANCH   1  12
TORSDOF 14
ENDMDL
MODEL 4
REMARK VINA RESULT:    -3.277      1.947      3.077
REMARK INTER + INTRA:          -8.656
REMARK INTER:                  -6.334
REMARK INTRA:                  -2.321
REMARK UNBOUND:                -2.696
REMARK SMILES CCCCCCCCCCCCCC[C@@H](C)C(=O)[O-]
REMARK SMILES IDX 9 1 10 2 11 3 12 4 13 5 14 6 15 7 16 8 17 9 18 10 19 11 8 12
REMARK SMILES IDX 7 13 6 14 5 15 4 16 3 17 2 18 1 19
REMARK H PARENT
REMARK Flexibility Score: inf
ROOT
ATOM      1  C   UNL     1     -91.988 146.006 238.583  1.00  0.00     0.000 C 
ENDROOT
BRANCH   1   2
ATOM      2  C   UNL     1     -93.064 146.907 239.209  1.00  0.00     0.000 C 
BRANCH   2   3
ATOM      3  C   UNL     1     -93.916 146.125 240.216  1.00  0.00     0.000 C 
BRANCH   3   4
ATOM      4  C   UNL     1     -94.883 147.059 240.959  1.00  0.00     0.000 C 
BRANCH   4   5
ATOM      5  C   UNL     1     -94.728 148.529 240.540  1.00  0.00     0.001 C 
BRANCH   5   6
ATOM      6  C   UNL     1     -95.807 149.439 241.156  1.00  0.00     0.009 C 
BRANCH   6   7
ATOM      7  C   UNL     1     -97.115 148.674 241.447  1.00  0.00     0.032 C 
ATOM      8  C   UNL     1     -97.545 148.876 242.904  1.00  0.00     0.014 C 
BRANCH   7   9
ATOM      9  C   UNL     1     -98.223 149.112 240.528  1.00  0.00     0.044 C 
ATOM     10  O   UNL     1     -98.470 150.338 240.376  1.00  0.00    -0.550 OA
ATOM     11  O   UNL     1     -98.978 148.171 239.837  1.00  0.00    -0.550 OA
ENDBRANCH   7   9
ENDBRANCH   6   7
ENDBRANCH   5   6
ENDBRANCH   4   5
ENDBRANCH   3   4
ENDBRANCH   2   3
ENDBRANCH   1   2
BRANCH   1  12
ATOM     12  C   UNL     1     -92.258 145.708 237.100  1.00  0.00     0.000 C 
BRANCH  12  13
ATOM     13  C   UNL     1     -93.435 146.524 236.537  1.00  0.00    -0.000 C 
BRANCH  13  14
ATOM     14  C   UNL     1     -94.651 145.648 236.196  1.00  0.00    -0.000 C 
BRANCH  14  15
ATOM     15  C   UNL     1     -95.946 146.463 236.066  1.00  0.00    -0.000 C 
BRANCH  15  16
ATOM     16  C   UNL     1     -96.330 147.105 237.406  1.00  0.00    -0.000 C 
BRANCH  16  17
ATOM     17  C   UNL     1     -96.557 148.622 237.302  1.00  0.00    -0.000 C 
BRANCH  17  18
ATOM     18  C   UNL     1     -95.282 149.416 236.950  1.00  0.00    -0.003 C 
ATOM     19  C   UNL     1     -95.435 150.225 235.662  1.00  0.00     0.004 C 
ENDBRANCH  17  18
ENDBRANCH  16  17
ENDBRANCH  15  16
ENDBRANCH  14  15
ENDBRANCH  13  14
ENDBRANCH  12  13
ENDBRANCH   1  12
TORSDOF 14
ENDMDL
MODEL 5
REMARK VINA RESULT:    -3.277      1.472      2.612
REMARK INTER + INTRA:          -8.655
REMARK INTER:                  -6.567
REMARK INTRA:                  -2.088
REMARK UNBOUND:                -2.696
REMARK SMILES CCCCCCCCCCCCCC[C@@H](C)C(=O)[O-]
REMARK SMILES IDX 9 1 10 2 11 3 12 4 13 5 14 6 15 7 16 8 17 9 18 10 19 11 8 12
REMARK SMILES IDX 7 13 6 14 5 15 4 16 3 17 2 18 1 19
REMARK H PARENT
REMARK Flexibility Score: inf
ROOT
ATOM      1  C   UNL     1     -91.781 145.664 237.429  1.00  0.00     0.000 C 
ENDROOT
BRANCH   1   2
ATOM      2  C   UNL     1     -92.110 146.075 238.873  1.00  0.00     0.000 C 
BRANCH   2   3
ATOM      3  C   UNL     1     -93.553 146.586 238.983  1.00  0.00     0.000 C 
BRANCH   3   4
ATOM      4  C   UNL     1     -93.581 148.069 239.384  1.00  0.00     0.000 C 
BRANCH   4   5
ATOM      5  C   UNL     1     -94.299 148.308 240.722  1.00  0.00     0.001 C 
BRANCH   5   6
ATOM      6  C   UNL     1     -95.648 149.030 240.551  1.00  0.00     0.009 C 
BRANCH   6   7
ATOM      7  C   UNL     1     -96.808 148.256 241.211  1.00  0.00     0.032 C 
ATOM      8  C   UNL     1     -96.297 146.964 241.856  1.00  0.00     0.014 C 
BRANCH   7   9
ATOM      9  C   UNL     1     -97.507 149.095 242.248  1.00  0.00     0.044 C 
ATOM     10  O   UNL     1     -97.992 150.214 241.933  1.00  0.00    -0.550 OA
ATOM     11  O   UNL     1     -97.629 148.640 243.556  1.00  0.00    -0.550 OA
ENDBRANCH   7   9
ENDBRANCH   6   7
ENDBRANCH   5   6
ENDBRANCH   4   5
ENDBRANCH   3   4
ENDBRANCH   2   3
ENDBRANCH   1   2
BRANCH   1  12
ATOM     12  C   UNL     1     -92.959 145.890 236.468  1.00  0.00     0.000 C 
BRANCH  12  13
ATOM     13  C   UNL     1     -92.515 146.479 235.118  1.00  0.00    -0.000 C 
BRANCH  13  14
ATOM     14  C   UNL     1     -93.666 147.165 234.366  1.00  0.00    -0.000 C 
BRANCH  14  15
ATOM     15  C   UNL     1     -94.945 147.267 235.211  1.00  0.00    -0.000 C 
BRANCH  15  16
ATOM     16  C   UNL     1     -95.105 148.676 235.799  1.00  0.00    -0.000 C 
BRANCH  16  17
ATOM     17  C   UNL     1     -96.186 148.750 236.892  1.00  0.00    -0.000 C 
BRANCH  17  18
ATOM     18  C   UNL     1     -97.233 147.621 236.804  1.00  0.00    -0.003 C 
ATOM     19  C   UNL     1     -97.072 146.590 237.922  1.00  0.00     0.004 C 
ENDBRANCH  17  18
ENDBRANCH  16  17
ENDBRANCH  15  16
ENDBRANCH  14  15
ENDBRANCH  13  14
ENDBRANCH  12  13
ENDBRANCH   1  12
TORSDOF 14
ENDMDL
MODEL 6
REMARK VINA RESULT:    -3.276      3.509      5.687
REMARK INTER + INTRA:          -8.654
REMARK INTER:                  -6.787
REMARK INTRA:                  -1.867
REMARK UNBOUND:                -2.696
REMARK SMILES CCCCCCCCCCCCCC[C@@H](C)C(=O)[O-]
REMARK SMILES IDX 9 1 10 2 11 3 12 4 13 5 14 6 15 7 16 8 17 9 18 10 19 11 8 12
REMARK SMILES IDX 7 13 6 14 5 15 4 16 3 17 2 18 1 19
REMARK H PARENT
REMARK Flexibility Score: inf
ROOT
ATOM      1  C   UNL     1     -91.739 145.625 237.416  1.00  0.00     0.000 C 
ENDROOT
BRANCH   1   2
ATOM      2  C   UNL     1     -92.900 145.983 236.477  1.00  0.00     0.000 C 
BRANCH   2   3
ATOM      3  C   UNL     1     -92.388 146.300 235.066  1.00  0.00     0.000 C 
BRANCH   3   4
ATOM      4  C   UNL     1     -93.474 146.994 234.230  1.00  0.00     0.000 C 
BRANCH   4   5
ATOM      5  C   UNL     1     -94.451 147.813 235.089  1.00  0.00     0.001 C 
BRANCH   5   6
ATOM      6  C   UNL     1     -95.014 149.037 234.344  1.00  0.00     0.009 C 
BRANCH   6   7
ATOM      7  C   UNL     1     -95.659 150.056 235.306  1.00  0.00     0.032 C 
ATOM      8  C   UNL     1     -95.426 151.487 234.812  1.00  0.00     0.014 C 
BRANCH   7   9
ATOM      9  C   UNL     1     -97.137 149.809 235.457  1.00  0.00     0.044 C 
ATOM     10  O   UNL     1     -97.684 148.860 234.835  1.00  0.00    -0.550 OA
ATOM     11  O   UNL     1     -97.905 150.618 236.286  1.00  0.00    -0.550 OA
ENDBRANCH   7   9
ENDBRANCH   6   7
ENDBRANCH   5   6
ENDBRANCH   4   5
ENDBRANCH   3   4
ENDBRANCH   2   3
ENDBRANCH   1   2
BRANCH   1  12
ATOM     12  C   UNL     1     -92.017 146.019 238.875  1.00  0.00     0.000 C 
BRANCH  12  13
ATOM     13  C   UNL     1     -93.452 146.533 239.086  1.00  0.00    -0.000 C 
BRANCH  13  14
ATOM     14  C   UNL     1     -93.499 148.032 239.419  1.00  0.00    -0.000 C 
BRANCH  14  15
ATOM     15  C   UNL     1     -94.528 148.794 238.570  1.00  0.00    -0.000 C 
BRANCH  15  16
ATOM     16  C   UNL     1     -95.850 148.019 238.483  1.00  0.00    -0.000 C 
BRANCH  16  17
ATOM     17  C   UNL     1     -97.014 148.739 239.186  1.00  0.00    -0.000 C 
BRANCH  17  18
ATOM     18  C   UNL     1     -97.028 148.545 240.716  1.00  0.00    -0.003 C 
ATOM     19  C   UNL     1     -96.561 149.792 241.466  1.00  0.00     0.004 C 
ENDBRANCH  17  18
ENDBRANCH  16  17
ENDBRANCH  15  16
ENDBRANCH  14  15
ENDBRANCH  13  14
ENDBRANCH  12  13
ENDBRANCH   1  12
TORSDOF 14
ENDMDL
MODEL 7
REMARK VINA RESULT:    -3.214      1.439      2.274
REMARK INTER + INTRA:          -8.541
REMARK INTER:                  -6.403
REMARK INTRA:                  -2.138
REMARK UNBOUND:                -2.696
REMARK SMILES CCCCCCCCCCCCCC[C@@H](C)C(=O)[O-]
REMARK SMILES IDX 9 1 10 2 11 3 12 4 13 5 14 6 15 7 16 8 17 9 18 10 19 11 8 12
REMARK SMILES IDX 7 13 6 14 5 15 4 16 3 17 2 18 1 19
REMARK H PARENT
REMARK Flexibility Score: inf
ROOT
ATOM      1  C   UNL     1     -94.449 145.855 240.554  1.00  0.00     0.000 C 
ENDROOT
BRANCH   1   2
ATOM      2  C   UNL     1     -94.619 147.116 241.414  1.00  0.00     0.000 C 
BRANCH   2   3
ATOM      3  C   UNL     1     -95.928 147.841 241.074  1.00  0.00     0.000 C 
BRANCH   3   4
ATOM      4  C   UNL     1     -95.731 149.365 241.088  1.00  0.00     0.000 C 
BRANCH   4   5
ATOM      5  C   UNL     1     -96.984 150.120 241.561  1.00  0.00     0.001 C 
BRANCH   5   6
ATOM      6  C   UNL     1     -98.050 149.186 242.160  1.00  0.00     0.009 C 
BRANCH   6   7
ATOM      7  C   UNL     1     -97.962 149.115 243.699  1.00  0.00     0.032 C 
ATOM      8  C   UNL     1     -98.881 150.159 244.340  1.00  0.00     0.014 C 
BRANCH   7   9
ATOM      9  C   UNL     1     -98.323 147.745 244.206  1.00  0.00     0.044 C 
ATOM     10  O   UNL     1     -99.409 147.564 244.819  1.00  0.00    -0.550 OA
ATOM     11  O   UNL     1     -97.467 146.669 243.998  1.00  0.00    -0.550 OA
ENDBRANCH   7   9
ENDBRANCH   6   7
ENDBRANCH   5   6
ENDBRANCH   4   5
ENDBRANCH   3   4
ENDBRANCH   2   3
ENDBRANCH   1   2
BRANCH   1  12
ATOM     12  C   UNL     1     -93.159 145.878 239.721  1.00  0.00     0.000 C 
BRANCH  12  13
ATOM     13  C   UNL     1     -93.136 147.028 238.698  1.00  0.00    -0.000 C 
BRANCH  13  14
ATOM     14  C   UNL     1     -93.468 146.558 237.274  1.00  0.00    -0.000 C 
BRANCH  14  15
ATOM     15  C   UNL     1     -94.604 147.371 236.634  1.00  0.00    -0.000 C 
BRANCH  15  16
ATOM     16  C   UNL     1     -94.956 148.594 237.493  1.00  0.00    -0.000 C 
BRANCH  16  17
ATOM     17  C   UNL     1     -96.463 148.904 237.505  1.00  0.00    -0.000 C 
BRANCH  17  18
ATOM     18  C   UNL     1     -97.352 147.649 237.616  1.00  0.00    -0.003 C 
ATOM     19  C   UNL     1     -98.505 147.836 238.602  1.00  0.00     0.004 C 
ENDBRANCH  17  18
ENDBRANCH  16  17
ENDBRANCH  15  16
ENDBRANCH  14  15
ENDBRANCH  13  14
ENDBRANCH  12  13
ENDBRANCH   1  12
TORSDOF 14
ENDMDL
MODEL 8
REMARK VINA RESULT:    -3.201      4.083      6.842
REMARK INTER + INTRA:          -8.517
REMARK INTER:                  -5.915
REMARK INTRA:                  -2.602
REMARK UNBOUND:                -2.696
REMARK SMILES CCCCCCCCCCCCCC[C@@H](C)C(=O)[O-]
REMARK SMILES IDX 9 1 10 2 11 3 12 4 13 5 14 6 15 7 16 8 17 9 18 10 19 11 8 12
REMARK SMILES IDX 7 13 6 14 5 15 4 16 3 17 2 18 1 19
REMARK H PARENT
REMARK Flexibility Score: inf
ROOT
ATOM      1  C   UNL     1     -95.977 148.453 237.710  1.00  0.00     0.000 C 
ENDROOT
BRANCH   1   2
ATOM      2  C   UNL     1     -96.520 149.270 236.528  1.00  0.00     0.000 C 
BRANCH   2   3
ATOM      3  C   UNL     1     -95.388 150.013 235.808  1.00  0.00     0.000 C 
BRANCH   3   4
ATOM      4  C   UNL     1     -95.427 149.742 234.296  1.00  0.00     0.000 C 
BRANCH   4   5
ATOM      5  C   UNL     1     -95.177 148.265 233.951  1.00  0.00     0.001 C 
BRANCH   5   6
ATOM      6  C   UNL     1     -93.742 147.813 234.280  1.00  0.00     0.009 C 
BRANCH   6   7
ATOM      7  C   UNL     1     -93.712 146.735 235.385  1.00  0.00     0.032 C 
ATOM      8  C   UNL     1     -94.977 145.873 235.332  1.00  0.00     0.014 C 
BRANCH   7   9
ATOM      9  C   UNL     1     -92.496 145.856 235.259  1.00  0.00     0.044 C 
ATOM     10  O   UNL     1     -91.900 145.756 234.154  1.00  0.00    -0.550 OA
ATOM     11  O   UNL     1     -92.019 145.154 236.361  1.00  0.00    -0.550 OA
ENDBRANCH   7   9
ENDBRANCH   6   7
ENDBRANCH   5   6
ENDBRANCH   4   5
ENDBRANCH   3   4
ENDBRANCH   2   3
ENDBRANCH   1   2
BRANCH   1  12
ATOM     12  C   UNL     1     -94.624 148.975 238.216  1.00  0.00     0.000 C 
BRANCH  12  13
ATOM     13  C   UNL     1     -93.737 147.857 238.794  1.00  0.00    -0.000 C 
BRANCH  13  14
ATOM     14  C   UNL     1     -94.501 146.537 238.986  1.00  0.00    -0.000 C 
BRANCH  14  15
ATOM     15  C   UNL     1     -94.474 146.046 240.441  1.00  0.00    -0.000 C 
BRANCH  15  16
ATOM     16  C   UNL     1     -94.861 147.173 241.410  1.00  0.00    -0.000 C 
BRANCH  16  17
ATOM     17  C   UNL     1     -96.363 147.190 241.741  1.00  0.00    -0.000 C 
BRANCH  17  18
ATOM     18  C   UNL     1     -97.100 148.435 241.207  1.00  0.00    -0.003 C 
ATOM     19  C   UNL     1     -96.285 149.716 241.386  1.00  0.00     0.004 C 
ENDBRANCH  17  18
ENDBRANCH  16  17
ENDBRANCH  15  16
ENDBRANCH  14  15
ENDBRANCH  13  14
ENDBRANCH  12  13
ENDBRANCH   1  12
TORSDOF 14
ENDMDL
MODEL 9
REMARK VINA RESULT:    -3.188      3.282      5.236
REMARK INTER + INTRA:          -8.493
REMARK INTER:                  -6.480
REMARK INTRA:                  -2.013
REMARK UNBOUND:                -2.696
REMARK SMILES CCCCCCCCCCCCCC[C@@H](C)C(=O)[O-]
REMARK SMILES IDX 9 1 10 2 11 3 12 4 13 5 14 6 15 7 16 8 17 9 18 10 19 11 8 12
REMARK SMILES IDX 7 13 6 14 5 15 4 16 3 17 2 18 1 19
REMARK H PARENT
REMARK Flexibility Score: inf
ROOT
ATOM      1  C   UNL     1     -92.345 145.866 234.673  1.00  0.00     0.000 C 
ENDROOT
BRANCH   1   2
ATOM      2  C   UNL     1     -93.606 145.676 235.530  1.00  0.00     0.000 C 
BRANCH   2   3
ATOM      3  C   UNL     1     -93.611 146.641 236.722  1.00  0.00     0.000 C 
BRANCH   3   4
ATOM      4  C   UNL     1     -95.022 147.191 236.979  1.00  0.00     0.000 C 
BRANCH   4   5
ATOM      5  C   UNL     1     -95.030 148.370 237.964  1.00  0.00     0.001 C 
BRANCH   5   6
ATOM      6  C   UNL     1     -93.803 148.376 238.894  1.00  0.00     0.009 C 
BRANCH   6   7
ATOM      7  C   UNL     1     -94.191 148.143 240.369  1.00  0.00     0.032 C 
ATOM      8  C   UNL     1     -95.439 148.953 240.733  1.00  0.00     0.014 C 
BRANCH   7   9
ATOM      9  C   UNL     1     -94.438 146.684 240.648  1.00  0.00     0.044 C 
ATOM     10  O   UNL     1     -95.532 146.313 241.148  1.00  0.00    -0.550 OA
ATOM     11  O   UNL     1     -93.465 145.737 240.350  1.00  0.00    -0.550 OA
ENDBRANCH   7   9
ENDBRANCH   6   7
ENDBRANCH   5   6
ENDBRANCH   4   5
ENDBRANCH   3   4
ENDBRANCH   2   3
ENDBRANCH   1   2
BRANCH   1  12
ATOM     12  C   UNL     1     -92.265 147.264 234.041  1.00  0.00     0.000 C 
BRANCH  12  13
ATOM     13  C   UNL     1     -92.726 147.277 232.573  1.00  0.00    -0.000 C 
BRANCH  13  14
ATOM     14  C   UNL     1     -94.148 147.835 232.406  1.00  0.00    -0.000 C 
BRANCH  14  15
ATOM     15  C   UNL     1     -94.562 148.752 233.566  1.00  0.00    -0.000 C 
BRANCH  15  16
ATOM     16  C   UNL     1     -96.064 148.629 233.856  1.00  0.00    -0.000 C 
BRANCH  16  17
ATOM     17  C   UNL     1     -96.610 149.795 234.697  1.00  0.00    -0.000 C 
BRANCH  17  18
ATOM     18  C   UNL     1     -95.543 150.846 235.065  1.00  0.00    -0.003 C 
ATOM     19  C   UNL     1     -96.108 152.266 235.091  1.00  0.00     0.004 C 
ENDBRANCH  17  18
ENDBRANCH  16  17
ENDBRANCH  15  16
ENDBRANCH  14  15
ENDBRANCH  13  14
ENDBRANCH  12  13
ENDBRANCH   1  12
TORSDOF 14
ENDMDL
