MODEL 1
REMARK VINA RESULT:    -5.357      0.000      0.000
REMARK INTER + INTRA:          -6.111
REMARK INTER:                  -5.983
REMARK INTRA:                  -0.127
REMARK UNBOUND:                -0.127
REMARK SMILES COc1cc2ccc(=O)oc2cc1OC
REMARK SMILES IDX 3 1 13 2 12 3 11 4 5 5 4 6 6 7 7 8 8 9 9 10 10 11 2 12 1 13
REMARK SMILES IDX 14 14 15 15
REMARK H PARENT
REMARK Flexibility Score: inf
ROOT
ATOM      1  C   UNL     1       1.597  -1.845 -23.444  1.00  0.00     0.161 A 
ATOM      2  C   UNL     1       1.607  -1.273 -24.728  1.00  0.00     0.164 A 
ATOM      3  C   UNL     1       2.506  -0.229 -25.022  1.00  0.00     0.098 A 
ATOM      4  C   UNL     1       3.389   0.240 -24.046  1.00  0.00     0.142 A 
ATOM      5  C   UNL     1       3.380  -0.333 -22.758  1.00  0.00     0.022 A 
ATOM      6  C   UNL     1       2.488  -1.370 -22.460  1.00  0.00     0.062 A 
ATOM      7  C   UNL     1       4.275   0.160 -21.802  1.00  0.00     0.019 A 
ATOM      8  C   UNL     1       5.143   1.195 -22.148  1.00  0.00     0.094 A 
ATOM      9  C   UNL     1       5.096   1.714 -23.446  1.00  0.00     0.336 A 
ATOM     10  O   UNL     1       5.872   2.648 -23.777  1.00  0.00    -0.246 OA
ATOM     11  O   UNL     1       4.234   1.227 -24.334  1.00  0.00    -0.423 OA
ENDROOT
BRANCH   1  12
ATOM     12  O   UNL     1       0.688  -2.883 -23.186  1.00  0.00    -0.493 OA
ATOM     13  C   UNL     1       1.010  -4.269 -23.235  1.00  0.00     0.278 C 
ENDBRANCH   1  12
BRANCH   2  14
ATOM     14  O   UNL     1       0.707  -1.771 -25.684  1.00  0.00    -0.493 OA
ATOM     15  C   UNL     1      -0.335  -1.009 -26.285  1.00  0.00     0.278 C 
ENDBRANCH   2  14
TORSDOF 2
ENDMDL
MODEL 2
REMARK VINA RESULT:    -5.353      3.004      5.533
REMARK INTER + INTRA:          -6.106
REMARK INTER:                  -5.949
REMARK INTRA:                  -0.157
REMARK UNBOUND:                -0.127
REMARK SMILES COc1cc2ccc(=O)oc2cc1OC
REMARK SMILES IDX 3 1 13 2 12 3 11 4 5 5 4 6 6 7 7 8 8 9 9 10 10 11 2 12 1 13
REMARK SMILES IDX 14 14 15 15
REMARK H PARENT
REMARK Flexibility Score: inf
ROOT
ATOM      1  C   UNL     1       4.643   3.447 -23.057  1.00  0.00     0.161 A 
ATOM      2  C   UNL     1       4.086   3.407 -24.346  1.00  0.00     0.164 A 
ATOM      3  C   UNL     1       3.950   2.174 -25.013  1.00  0.00     0.098 A 
ATOM      4  C   UNL     1       4.366   0.989 -24.399  1.00  0.00     0.142 A 
ATOM      5  C   UNL     1       4.925   1.028 -23.106  1.00  0.00     0.022 A 
ATOM      6  C   UNL     1       5.062   2.251 -22.439  1.00  0.00     0.062 A 
ATOM      7  C   UNL     1       5.332  -0.175 -22.519  1.00  0.00     0.019 A 
ATOM      8  C   UNL     1       5.175  -1.368 -23.224  1.00  0.00     0.094 A 
ATOM      9  C   UNL     1       4.612  -1.329 -24.503  1.00  0.00     0.336 A 
ATOM     10  O   UNL     1       4.461  -2.395 -25.155  1.00  0.00    -0.246 OA
ATOM     11  O   UNL     1       4.234  -0.172 -25.038  1.00  0.00    -0.423 OA
ENDROOT
BRANCH   1  12
ATOM     12  O   UNL     1       4.763   4.694 -22.423  1.00  0.00    -0.493 OA
ATOM     13  C   UNL     1       5.944   5.489 -22.422  1.00  0.00     0.278 C 
ENDBRANCH   1  12
BRANCH   2  14
ATOM     14  O   UNL     1       3.677   4.617 -24.932  1.00  0.00    -0.493 OA
ATOM     15  C   UNL     1       4.428   5.335 -25.906  1.00  0.00     0.278 C 
ENDBRANCH   2  14
TORSDOF 2
ENDMDL
MODEL 3
REMARK VINA RESULT:    -5.289      2.421      3.372
REMARK INTER + INTRA:          -6.035
REMARK INTER:                  -5.898
REMARK INTRA:                  -0.137
REMARK UNBOUND:                -0.127
REMARK SMILES COc1cc2ccc(=O)oc2cc1OC
REMARK SMILES IDX 3 1 13 2 12 3 11 4 5 5 4 6 6 7 7 8 8 9 9 10 10 11 2 12 1 13
REMARK SMILES IDX 14 14 15 15
REMARK H PARENT
REMARK Flexibility Score: inf
ROOT
ATOM      1  C   UNL     1       4.365  -1.357 -24.082  1.00  0.00     0.161 A 
ATOM      2  C   UNL     1       3.712  -1.412 -22.839  1.00  0.00     0.164 A 
ATOM      3  C   UNL     1       3.590  -0.246 -22.059  1.00  0.00     0.098 A 
ATOM      4  C   UNL     1       4.114   0.968 -22.514  1.00  0.00     0.142 A 
ATOM      5  C   UNL     1       4.769   1.025 -23.761  1.00  0.00     0.022 A 
ATOM      6  C   UNL     1       4.893  -0.132 -24.540  1.00  0.00     0.062 A 
ATOM      7  C   UNL     1       5.283   2.253 -24.189  1.00  0.00     0.019 A 
ATOM      8  C   UNL     1       5.134   3.377 -23.377  1.00  0.00     0.094 A 
ATOM      9  C   UNL     1       4.472   3.245 -22.153  1.00  0.00     0.336 A 
ATOM     10  O   UNL     1       4.327   4.247 -21.405  1.00  0.00    -0.246 OA
ATOM     11  O   UNL     1       3.993   2.064 -21.770  1.00  0.00    -0.423 OA
ENDROOT
BRANCH   1  12
ATOM     12  O   UNL     1       4.468  -2.538 -24.832  1.00  0.00    -0.493 OA
ATOM     13  C   UNL     1       5.684  -3.243 -25.066  1.00  0.00     0.278 C 
ENDBRANCH   1  12
BRANCH   2  14
ATOM     14  O   UNL     1       3.197  -2.648 -22.413  1.00  0.00    -0.493 OA
ATOM     15  C   UNL     1       1.812  -2.976 -22.381  1.00  0.00     0.278 C 
ENDBRANCH   2  14
TORSDOF 2
ENDMDL
MODEL 4
REMARK VINA RESULT:    -5.280      1.777      5.052
REMARK INTER + INTRA:          -6.025
REMARK INTER:                  -5.920
REMARK INTRA:                  -0.105
REMARK UNBOUND:                -0.127
REMARK SMILES COc1cc2ccc(=O)oc2cc1OC
REMARK SMILES IDX 3 1 13 2 12 3 11 4 5 5 4 6 6 7 7 8 8 9 9 10 10 11 2 12 1 13
REMARK SMILES IDX 14 14 15 15
REMARK H PARENT
REMARK Flexibility Score: inf
ROOT
ATOM      1  C   UNL     1       4.527   0.158 -23.896  1.00  0.00     0.161 A 
ATOM      2  C   UNL     1       4.387  -0.459 -25.151  1.00  0.00     0.164 A 
ATOM      3  C   UNL     1       3.631  -1.642 -25.269  1.00  0.00     0.098 A 
ATOM      4  C   UNL     1       3.019  -2.206 -24.146  1.00  0.00     0.142 A 
ATOM      5  C   UNL     1       3.158  -1.588 -22.887  1.00  0.00     0.022 A 
ATOM      6  C   UNL     1       3.908  -0.412 -22.764  1.00  0.00     0.062 A 
ATOM      7  C   UNL     1       2.534  -2.176 -21.782  1.00  0.00     0.019 A 
ATOM      8  C   UNL     1       1.798  -3.348 -21.956  1.00  0.00     0.094 A 
ATOM      9  C   UNL     1       1.703  -3.904 -23.236  1.00  0.00     0.336 A 
ATOM     10  O   UNL     1       1.043  -4.961 -23.414  1.00  0.00    -0.246 OA
ATOM     11  O   UNL     1       2.307  -3.324 -24.269  1.00  0.00    -0.423 OA
ENDROOT
BRANCH   1  12
ATOM     12  O   UNL     1       5.287   1.335 -23.815  1.00  0.00    -0.493 OA
ATOM     13  C   UNL     1       5.216   2.270 -22.743  1.00  0.00     0.278 C 
ENDBRANCH   1  12
BRANCH   2  14
ATOM     14  O   UNL     1       5.015   0.136 -26.257  1.00  0.00    -0.493 OA
ATOM     15  C   UNL     1       5.514  -0.580 -27.382  1.00  0.00     0.278 C 
ENDBRANCH   2  14
TORSDOF 2
ENDMDL
MODEL 5
REMARK VINA RESULT:    -5.184      2.313      2.960
REMARK INTER + INTRA:          -5.918
REMARK INTER:                  -5.781
REMARK INTRA:                  -0.137
REMARK UNBOUND:                -0.127
REMARK SMILES COc1cc2ccc(=O)oc2cc1OC
REMARK SMILES IDX 3 1 13 2 12 3 11 4 5 5 4 6 6 7 7 8 8 9 9 10 10 11 2 12 1 13
REMARK SMILES IDX 14 14 15 15
REMARK H PARENT
REMARK Flexibility Score: inf
ROOT
ATOM      1  C   UNL     1       3.988  -0.779 -22.942  1.00  0.00     0.161 A 
ATOM      2  C   UNL     1       4.354  -0.692 -24.296  1.00  0.00     0.164 A 
ATOM      3  C   UNL     1       4.749   0.547 -24.837  1.00  0.00     0.098 A 
ATOM      4  C   UNL     1       4.781   1.691 -24.035  1.00  0.00     0.142 A 
ATOM      5  C   UNL     1       4.415   1.605 -22.676  1.00  0.00     0.022 A 
ATOM      6  C   UNL     1       4.021   0.376 -22.134  1.00  0.00     0.062 A 
ATOM      7  C   UNL     1       4.457   2.768 -21.899  1.00  0.00     0.019 A 
ATOM      8  C   UNL     1       4.856   3.968 -22.486  1.00  0.00     0.094 A 
ATOM      9  C   UNL     1       5.205   3.977 -23.840  1.00  0.00     0.336 A 
ATOM     10  O   UNL     1       5.569   5.051 -24.388  1.00  0.00    -0.246 OA
ATOM     11  O   UNL     1       5.156   2.857 -24.556  1.00  0.00    -0.423 OA
ENDROOT
BRANCH   1  12
ATOM     12  O   UNL     1       3.600  -2.030 -22.437  1.00  0.00    -0.493 OA
ATOM     13  C   UNL     1       2.260  -2.391 -22.119  1.00  0.00     0.278 C 
ENDBRANCH   1  12
BRANCH   2  14
ATOM     14  O   UNL     1       4.311  -1.862 -25.072  1.00  0.00    -0.493 OA
ATOM     15  C   UNL     1       5.449  -2.648 -25.411  1.00  0.00     0.278 C 
ENDBRANCH   2  14
TORSDOF 2
ENDMDL
MODEL 6
REMARK VINA RESULT:    -5.088      2.608      3.904
REMARK INTER + INTRA:          -5.810
REMARK INTER:                  -5.660
REMARK INTRA:                  -0.151
REMARK UNBOUND:                -0.127
REMARK SMILES COc1cc2ccc(=O)oc2cc1OC
REMARK SMILES IDX 3 1 13 2 12 3 11 4 5 5 4 6 6 7 7 8 8 9 9 10 10 11 2 12 1 13
REMARK SMILES IDX 14 14 15 15
REMARK H PARENT
REMARK Flexibility Score: inf
ROOT
ATOM      1  C   UNL     1       4.442   0.700 -23.013  1.00  0.00     0.161 A 
ATOM      2  C   UNL     1       4.634   0.933 -24.386  1.00  0.00     0.164 A 
ATOM      3  C   UNL     1       4.730   2.254 -24.865  1.00  0.00     0.098 A 
ATOM      4  C   UNL     1       4.636   3.335 -23.983  1.00  0.00     0.142 A 
ATOM      5  C   UNL     1       4.443   3.102 -22.607  1.00  0.00     0.022 A 
ATOM      6  C   UNL     1       4.347   1.791 -22.125  1.00  0.00     0.062 A 
ATOM      7  C   UNL     1       4.352   4.204 -21.750  1.00  0.00     0.019 A 
ATOM      8  C   UNL     1       4.454   5.491 -22.278  1.00  0.00     0.094 A 
ATOM      9  C   UNL     1       4.646   5.645 -23.654  1.00  0.00     0.336 A 
ATOM     10  O   UNL     1       4.740   6.798 -24.150  1.00  0.00    -0.246 OA
ATOM     11  O   UNL     1       4.728   4.579 -24.446  1.00  0.00    -0.423 OA
ENDROOT
BRANCH   1  12
ATOM     12  O   UNL     1       4.350  -0.629 -22.572  1.00  0.00    -0.493 OA
ATOM     13  C   UNL     1       3.144  -1.261 -22.157  1.00  0.00     0.278 C 
ENDBRANCH   1  12
BRANCH   2  14
ATOM     14  O   UNL     1       4.725  -0.177 -25.242  1.00  0.00    -0.493 OA
ATOM     15  C   UNL     1       3.784  -0.485 -26.266  1.00  0.00     0.278 C 
ENDBRANCH   2  14
TORSDOF 2
ENDMDL
MODEL 7
REMARK VINA RESULT:    -5.079      1.979      5.555
REMARK INTER + INTRA:          -5.800
REMARK INTER:                  -5.635
REMARK INTRA:                  -0.165
REMARK UNBOUND:                -0.127
REMARK SMILES COc1cc2ccc(=O)oc2cc1OC
REMARK SMILES IDX 3 1 13 2 12 3 11 4 5 5 4 6 6 7 7 8 8 9 9 10 10 11 2 12 1 13
REMARK SMILES IDX 14 14 15 15
REMARK H PARENT
REMARK Flexibility Score: inf
ROOT
ATOM      1  C   UNL     1       4.546   1.742 -24.177  1.00  0.00     0.161 A 
ATOM      2  C   UNL     1       4.559   1.884 -22.779  1.00  0.00     0.164 A 
ATOM      3  C   UNL     1       4.014   0.870 -21.966  1.00  0.00     0.098 A 
ATOM      4  C   UNL     1       3.462  -0.277 -22.542  1.00  0.00     0.142 A 
ATOM      5  C   UNL     1       3.449  -0.421 -23.944  1.00  0.00     0.022 A 
ATOM      6  C   UNL     1       3.988   0.584 -24.756  1.00  0.00     0.062 A 
ATOM      7  C   UNL     1       2.888  -1.580 -24.491  1.00  0.00     0.019 A 
ATOM      8  C   UNL     1       2.363  -2.553 -23.640  1.00  0.00     0.094 A 
ATOM      9  C   UNL     1       2.412  -2.342 -22.259  1.00  0.00     0.336 A 
ATOM     10  O   UNL     1       1.943  -3.208 -21.474  1.00  0.00    -0.246 OA
ATOM     11  O   UNL     1       2.950  -1.229 -21.766  1.00  0.00    -0.423 OA
ENDROOT
BRANCH   1  12
ATOM     12  O   UNL     1       5.097   2.772 -24.954  1.00  0.00    -0.493 OA
ATOM     13  C   UNL     1       4.335   3.749 -25.657  1.00  0.00     0.278 C 
ENDBRANCH   1  12
BRANCH   2  14
ATOM     14  O   UNL     1       5.123   3.050 -22.234  1.00  0.00    -0.493 OA
ATOM     15  C   UNL     1       4.375   4.176 -21.790  1.00  0.00     0.278 C 
ENDBRANCH   2  14
TORSDOF 2
ENDMDL
MODEL 8
REMARK VINA RESULT:    -4.914      1.233      2.856
REMARK INTER + INTRA:          -5.615
REMARK INTER:                  -5.494
REMARK INTRA:                  -0.121
REMARK UNBOUND:                -0.127
REMARK SMILES COc1cc2ccc(=O)oc2cc1OC
REMARK SMILES IDX 3 1 13 2 12 3 11 4 5 5 4 6 6 7 7 8 8 9 9 10 10 11 2 12 1 13
REMARK SMILES IDX 14 14 15 15
REMARK H PARENT
REMARK Flexibility Score: inf
ROOT
ATOM      1  C   UNL     1       0.889  -1.025 -25.221  1.00  0.00     0.161 A 
ATOM      2  C   UNL     1       0.908  -1.627 -23.951  1.00  0.00     0.164 A 
ATOM      3  C   UNL     1       1.949  -1.327 -23.050  1.00  0.00     0.098 A 
ATOM      4  C   UNL     1       2.962  -0.434 -23.412  1.00  0.00     0.142 A 
ATOM      5  C   UNL     1       2.943   0.170 -24.685  1.00  0.00     0.022 A 
ATOM      6  C   UNL     1       1.911  -0.125 -25.584  1.00  0.00     0.062 A 
ATOM      7  C   UNL     1       3.972   1.058 -25.018  1.00  0.00     0.019 A 
ATOM      8  C   UNL     1       4.977   1.319 -24.088  1.00  0.00     0.094 A 
ATOM      9  C   UNL     1       4.930   0.683 -22.843  1.00  0.00     0.336 A 
ATOM     10  O   UNL     1       5.829   0.905 -21.990  1.00  0.00    -0.246 OA
ATOM     11  O   UNL     1       3.941  -0.158 -22.553  1.00  0.00    -0.423 OA
ENDROOT
BRANCH   1  12
ATOM     12  O   UNL     1      -0.163  -1.347 -26.092  1.00  0.00    -0.493 OA
ATOM     13  C   UNL     1      -0.910  -0.395 -26.843  1.00  0.00     0.278 C 
ENDBRANCH   1  12
BRANCH   2  14
ATOM     14  O   UNL     1      -0.126  -2.517 -23.621  1.00  0.00    -0.493 OA
ATOM     15  C   UNL     1       0.072  -3.860 -23.190  1.00  0.00     0.278 C 
ENDBRANCH   2  14
TORSDOF 2
ENDMDL
MODEL 9
REMARK VINA RESULT:    -4.898      2.741      3.902
REMARK INTER + INTRA:          -5.598
REMARK INTER:                  -5.509
REMARK INTRA:                  -0.089
REMARK UNBOUND:                -0.127
REMARK SMILES COc1cc2ccc(=O)oc2cc1OC
REMARK SMILES IDX 3 1 13 2 12 3 11 4 5 5 4 6 6 7 7 8 8 9 9 10 10 11 2 12 1 13
REMARK SMILES IDX 14 14 15 15
REMARK H PARENT
REMARK Flexibility Score: inf
ROOT
ATOM      1  C   UNL     1       4.714  -0.713 -25.080  1.00  0.00     0.161 A 
ATOM      2  C   UNL     1       4.723  -1.081 -23.724  1.00  0.00     0.164 A 
ATOM      3  C   UNL     1       4.668  -0.087 -22.728  1.00  0.00     0.098 A 
ATOM      4  C   UNL     1       4.603   1.264 -23.079  1.00  0.00     0.142 A 
ATOM      5  C   UNL     1       4.594   1.635 -24.439  1.00  0.00     0.022 A 
ATOM      6  C   UNL     1       4.649   0.651 -25.434  1.00  0.00     0.062 A 
ATOM      7  C   UNL     1       4.529   2.995 -24.759  1.00  0.00     0.019 A 
ATOM      8  C   UNL     1       4.476   3.937 -23.733  1.00  0.00     0.094 A 
ATOM      9  C   UNL     1       4.489   3.495 -22.406  1.00  0.00     0.336 A 
ATOM     10  O   UNL     1       4.441   4.330 -21.465  1.00  0.00    -0.246 OA
ATOM     11  O   UNL     1       4.552   2.195 -22.130  1.00  0.00    -0.423 OA
ENDROOT
BRANCH   1  12
ATOM     12  O   UNL     1       4.770  -1.730 -26.046  1.00  0.00    -0.493 OA
ATOM     13  C   UNL     1       4.544  -1.535 -27.438  1.00  0.00     0.278 C 
ENDBRANCH   1  12
BRANCH   2  14
ATOM     14  O   UNL     1       4.788  -2.448 -23.408  1.00  0.00    -0.493 OA
ATOM     15  C   UNL     1       3.653  -3.283 -23.202  1.00  0.00     0.278 C 
ENDBRANCH   2  14
TORSDOF 2
ENDMDL
