MODEL 1
REMARK VINA RESULT:    -3.762      0.000      0.000
REMARK INTER + INTRA:          -5.733
REMARK INTER:                  -5.301
REMARK INTRA:                  -0.432
REMARK UNBOUND:                -0.432
REMARK SMILES CCCCCCCCC(=O)[O-]
REMARK SMILES IDX 6 1 7 2 8 3 9 4 10 5 11 6 5 7 4 8 3 9 2 10 1 11
REMARK H PARENT
REMARK Flexibility Score: inf
ROOT
ATOM      1  C   UNL     1     -16.774  44.018  -7.153  1.00  0.00     0.000 C 
ENDROOT
BRANCH   1   2
ATOM      2  C   UNL     1     -18.286  43.756  -7.104  1.00  0.00     0.006 C 
BRANCH   2   3
ATOM      3  C   UNL     1     -19.065  44.670  -8.058  1.00  0.00     0.053 C 
BRANCH   3   4
ATOM      4  C   UNL     1     -19.502  43.940  -9.292  1.00  0.00     0.041 C 
ATOM      5  O   UNL     1     -19.286  42.706  -9.409  1.00  0.00    -0.550 OA
ATOM      6  O   UNL     1     -20.116  44.634 -10.327  1.00  0.00    -0.550 OA
ENDBRANCH   3   4
ENDBRANCH   2   3
ENDBRANCH   1   2
BRANCH   1   7
ATOM      7  C   UNL     1     -16.070  43.401  -5.937  1.00  0.00     0.000 C 
BRANCH   7   8
ATOM      8  C   UNL     1     -17.070  42.673  -5.032  1.00  0.00    -0.000 C 
BRANCH   8   9
ATOM      9  C   UNL     1     -17.237  43.404  -3.696  1.00  0.00    -0.000 C 
BRANCH   9  10
ATOM     10  C   UNL     1     -18.715  43.686  -3.403  1.00  0.00    -0.003 C 
ATOM     11  C   UNL     1     -19.486  42.391  -3.163  1.00  0.00     0.004 C 
ENDBRANCH   9  10
ENDBRANCH   8   9
ENDBRANCH   7   8
ENDBRANCH   1   7
TORSDOF 7
ENDMDL
MODEL 2
REMARK VINA RESULT:    -3.747      2.674      4.991
REMARK INTER + INTRA:          -5.712
REMARK INTER:                  -5.272
REMARK INTRA:                  -0.440
REMARK UNBOUND:                -0.432
REMARK SMILES CCCCCCCCC(=O)[O-]
REMARK SMILES IDX 6 1 7 2 8 3 9 4 10 5 11 6 5 7 4 8 3 9 2 10 1 11
REMARK H PARENT
REMARK Flexibility Score: inf
ROOT
ATOM      1  C   UNL     1     -15.984  43.588  -5.896  1.00  0.00     0.000 C 
ENDROOT
BRANCH   1   2
ATOM      2  C   UNL     1     -16.978  42.637  -5.213  1.00  0.00     0.006 C 
BRANCH   2   3
ATOM      3  C   UNL     1     -17.271  43.045  -3.764  1.00  0.00     0.053 C 
BRANCH   3   4
ATOM      4  C   UNL     1     -18.719  43.368  -3.560  1.00  0.00     0.041 C 
ATOM      5  O   UNL     1     -19.245  44.336  -4.169  1.00  0.00    -0.550 OA
ATOM      6  O   UNL     1     -19.479  42.620  -2.670  1.00  0.00    -0.550 OA
ENDBRANCH   3   4
ENDBRANCH   2   3
ENDBRANCH   1   2
BRANCH   1   7
ATOM      7  C   UNL     1     -16.523  44.067  -7.250  1.00  0.00     0.000 C 
BRANCH   7   8
ATOM      8  C   UNL     1     -18.021  43.767  -7.384  1.00  0.00    -0.000 C 
BRANCH   8   9
ATOM      9  C   UNL     1     -18.691  44.735  -8.365  1.00  0.00    -0.000 C 
BRANCH   9  10
ATOM     10  C   UNL     1     -19.547  43.979  -9.386  1.00  0.00    -0.003 C 
ATOM     11  C   UNL     1     -19.036  42.555  -9.589  1.00  0.00     0.004 C 
ENDBRANCH   9  10
ENDBRANCH   8   9
ENDBRANCH   7   8
ENDBRANCH   1   7
TORSDOF 7
ENDMDL
MODEL 3
REMARK VINA RESULT:    -3.718      0.311      1.020
REMARK INTER + INTRA:          -5.672
REMARK INTER:                  -5.301
REMARK INTRA:                  -0.371
REMARK UNBOUND:                -0.432
REMARK SMILES CCCCCCCCC(=O)[O-]
REMARK SMILES IDX 6 1 7 2 8 3 9 4 10 5 11 6 5 7 4 8 3 9 2 10 1 11
REMARK H PARENT
REMARK Flexibility Score: inf
ROOT
ATOM      1  C   UNL     1     -16.546  44.152  -7.243  1.00  0.00     0.000 C 
ENDROOT
BRANCH   1   2
ATOM      2  C   UNL     1     -17.999  43.766  -7.560  1.00  0.00     0.006 C 
BRANCH   2   3
ATOM      3  C   UNL     1     -18.664  44.754  -8.527  1.00  0.00     0.053 C 
BRANCH   3   4
ATOM      4  C   UNL     1     -19.502  44.050  -9.549  1.00  0.00     0.041 C 
ATOM      5  O   UNL     1     -20.298  44.701 -10.276  1.00  0.00    -0.550 OA
ATOM      6  O   UNL     1     -19.428  42.668  -9.676  1.00  0.00    -0.550 OA
ENDBRANCH   3   4
ENDBRANCH   2   3
ENDBRANCH   1   2
BRANCH   1   7
ATOM      7  C   UNL     1     -16.031  43.388  -6.016  1.00  0.00     0.000 C 
BRANCH   7   8
ATOM      8  C   UNL     1     -17.189  42.763  -5.230  1.00  0.00    -0.000 C 
BRANCH   8   9
ATOM      9  C   UNL     1     -17.259  43.330  -3.808  1.00  0.00    -0.000 C 
BRANCH   9  10
ATOM     10  C   UNL     1     -18.703  43.656  -3.416  1.00  0.00    -0.003 C 
ATOM     11  C   UNL     1     -19.481  42.389  -3.070  1.00  0.00     0.004 C 
ENDBRANCH   9  10
ENDBRANCH   8   9
ENDBRANCH   7   8
ENDBRANCH   1   7
TORSDOF 7
ENDMDL
MODEL 4
REMARK VINA RESULT:    -3.597      3.087      5.421
REMARK INTER + INTRA:          -5.501
REMARK INTER:                  -5.107
REMARK INTRA:                  -0.394
REMARK UNBOUND:                -0.432
REMARK SMILES CCCCCCCCC(=O)[O-]
REMARK SMILES IDX 6 1 7 2 8 3 9 4 10 5 11 6 5 7 4 8 3 9 2 10 1 11
REMARK H PARENT
REMARK Flexibility Score: inf
ROOT
ATOM      1  C   UNL     1     -17.946  43.696  -6.736  1.00  0.00     0.000 C 
ENDROOT
BRANCH   1   2
ATOM      2  C   UNL     1     -17.090  43.259  -5.538  1.00  0.00     0.006 C 
BRANCH   2   3
ATOM      3  C   UNL     1     -17.791  42.198  -4.679  1.00  0.00     0.053 C 
BRANCH   3   4
ATOM      4  C   UNL     1     -18.673  42.820  -3.641  1.00  0.00     0.041 C 
ATOM      5  O   UNL     1     -18.493  44.014  -3.287  1.00  0.00    -0.550 OA
ATOM      6  O   UNL     1     -19.674  42.066  -3.039  1.00  0.00    -0.550 OA
ENDBRANCH   3   4
ENDBRANCH   2   3
ENDBRANCH   1   2
BRANCH   1   7
ATOM      7  C   UNL     1     -17.070  44.274  -7.855  1.00  0.00     0.000 C 
BRANCH   7   8
ATOM      8  C   UNL     1     -17.522  43.762  -9.228  1.00  0.00    -0.000 C 
BRANCH   8   9
ATOM      9  C   UNL     1     -18.819  42.954  -9.115  1.00  0.00    -0.000 C 
BRANCH   9  10
ATOM     10  C   UNL     1     -19.712  43.172 -10.341  1.00  0.00    -0.003 C 
ATOM     11  C   UNL     1     -20.126  44.636 -10.469  1.00  0.00     0.004 C 
ENDBRANCH   9  10
ENDBRANCH   8   9
ENDBRANCH   7   8
ENDBRANCH   1   7
TORSDOF 7
ENDMDL
MODEL 5
REMARK VINA RESULT:    -3.584      1.369      1.689
REMARK INTER + INTRA:          -5.482
REMARK INTER:                  -5.168
REMARK INTRA:                  -0.315
REMARK UNBOUND:                -0.432
REMARK SMILES CCCCCCCCC(=O)[O-]
REMARK SMILES IDX 6 1 7 2 8 3 9 4 10 5 11 6 5 7 4 8 3 9 2 10 1 11
REMARK H PARENT
REMARK Flexibility Score: inf
ROOT
ATOM      1  C   UNL     1     -17.559  44.123  -7.614  1.00  0.00     0.000 C 
ENDROOT
BRANCH   1   2
ATOM      2  C   UNL     1     -18.686  44.287  -8.645  1.00  0.00     0.006 C 
BRANCH   2   3
ATOM      3  C   UNL     1     -19.086  42.953  -9.287  1.00  0.00     0.053 C 
BRANCH   3   4
ATOM      4  C   UNL     1     -18.183  42.591 -10.425  1.00  0.00     0.041 C 
ATOM      5  O   UNL     1     -18.002  41.384 -10.733  1.00  0.00    -0.550 OA
ATOM      6  O   UNL     1     -17.515  43.588 -11.125  1.00  0.00    -0.550 OA
ENDBRANCH   3   4
ENDBRANCH   2   3
ENDBRANCH   1   2
BRANCH   1   7
ATOM      7  C   UNL     1     -18.117  43.675  -6.257  1.00  0.00     0.000 C 
BRANCH   7   8
ATOM      8  C   UNL     1     -17.026  43.018  -5.403  1.00  0.00    -0.000 C 
BRANCH   8   9
ATOM      9  C   UNL     1     -17.243  43.307  -3.914  1.00  0.00    -0.000 C 
BRANCH   9  10
ATOM     10  C   UNL     1     -18.715  43.618  -3.623  1.00  0.00    -0.003 C 
ATOM     11  C   UNL     1     -19.428  42.407  -3.027  1.00  0.00     0.004 C 
ENDBRANCH   9  10
ENDBRANCH   8   9
ENDBRANCH   7   8
ENDBRANCH   1   7
TORSDOF 7
ENDMDL
MODEL 6
REMARK VINA RESULT:    -3.546      1.076      1.374
REMARK INTER + INTRA:          -5.429
REMARK INTER:                  -5.128
REMARK INTRA:                  -0.301
REMARK UNBOUND:                -0.432
REMARK SMILES CCCCCCCCC(=O)[O-]
REMARK SMILES IDX 6 1 7 2 8 3 9 4 10 5 11 6 5 7 4 8 3 9 2 10 1 11
REMARK H PARENT
REMARK Flexibility Score: inf
ROOT
ATOM      1  C   UNL     1     -17.883  43.697  -7.015  1.00  0.00     0.000 C 
ENDROOT
BRANCH   1   2
ATOM      2  C   UNL     1     -17.427  44.141  -8.413  1.00  0.00     0.006 C 
BRANCH   2   3
ATOM      3  C   UNL     1     -18.377  43.656  -9.516  1.00  0.00     0.053 C 
BRANCH   3   4
ATOM      4  C   UNL     1     -19.075  44.798 -10.188  1.00  0.00     0.041 C 
ATOM      5  O   UNL     1     -20.285  44.696 -10.520  1.00  0.00    -0.550 OA
ATOM      6  O   UNL     1     -18.377  45.964 -10.479  1.00  0.00    -0.550 OA
ENDBRANCH   3   4
ENDBRANCH   2   3
ENDBRANCH   1   2
BRANCH   1   7
ATOM      7  C   UNL     1     -16.680  43.443  -6.099  1.00  0.00     0.000 C 
BRANCH   7   8
ATOM      8  C   UNL     1     -17.060  42.522  -4.933  1.00  0.00    -0.000 C 
BRANCH   8   9
ATOM      9  C   UNL     1     -17.202  43.315  -3.629  1.00  0.00    -0.000 C 
BRANCH   9  10
ATOM     10  C   UNL     1     -18.670  43.654  -3.349  1.00  0.00    -0.003 C 
ATOM     11  C   UNL     1     -19.506  42.389  -3.175  1.00  0.00     0.004 C 
ENDBRANCH   9  10
ENDBRANCH   8   9
ENDBRANCH   7   8
ENDBRANCH   1   7
TORSDOF 7
ENDMDL
MODEL 7
REMARK VINA RESULT:    -3.325      2.360      2.927
REMARK INTER + INTRA:          -5.118
REMARK INTER:                  -4.621
REMARK INTRA:                  -0.497
REMARK UNBOUND:                -0.432
REMARK SMILES CCCCCCCCC(=O)[O-]
REMARK SMILES IDX 6 1 7 2 8 3 9 4 10 5 11 6 5 7 4 8 3 9 2 10 1 11
REMARK H PARENT
REMARK Flexibility Score: inf
ROOT
ATOM      1  C   UNL     1     -18.852  44.730  -7.613  1.00  0.00     0.000 C 
ENDROOT
BRANCH   1   2
ATOM      2  C   UNL     1     -18.096  43.703  -8.468  1.00  0.00     0.006 C 
BRANCH   2   3
ATOM      3  C   UNL     1     -17.074  44.363  -9.402  1.00  0.00     0.053 C 
BRANCH   3   4
ATOM      4  C   UNL     1     -15.970  45.025  -8.637  1.00  0.00     0.041 C 
ATOM      5  O   UNL     1     -15.881  46.281  -8.609  1.00  0.00    -0.550 OA
ATOM      6  O   UNL     1     -15.019  44.253  -7.982  1.00  0.00    -0.550 OA
ENDBRANCH   3   4
ENDBRANCH   2   3
ENDBRANCH   1   2
BRANCH   1   7
ATOM      7  C   UNL     1     -18.834  44.332  -6.131  1.00  0.00     0.000 C 
BRANCH   7   8
ATOM      8  C   UNL     1     -17.745  43.289  -5.855  1.00  0.00    -0.000 C 
BRANCH   8   9
ATOM      9  C   UNL     1     -17.507  43.127  -4.349  1.00  0.00    -0.000 C 
BRANCH   9  10
ATOM     10  C   UNL     1     -18.715  43.618  -3.545  1.00  0.00    -0.003 C 
ATOM     11  C   UNL     1     -19.464  42.452  -2.906  1.00  0.00     0.004 C 
ENDBRANCH   9  10
ENDBRANCH   8   9
ENDBRANCH   7   8
ENDBRANCH   1   7
TORSDOF 7
ENDMDL
MODEL 8
REMARK VINA RESULT:    -3.118      3.099      5.607
REMARK INTER + INTRA:          -4.826
REMARK INTER:                  -4.331
REMARK INTRA:                  -0.495
REMARK UNBOUND:                -0.432
REMARK SMILES CCCCCCCCC(=O)[O-]
REMARK SMILES IDX 6 1 7 2 8 3 9 4 10 5 11 6 5 7 4 8 3 9 2 10 1 11
REMARK H PARENT
REMARK Flexibility Score: inf
ROOT
ATOM      1  C   UNL     1     -18.950  44.562  -6.951  1.00  0.00     0.000 C 
ENDROOT
BRANCH   1   2
ATOM      2  C   UNL     1     -17.734  43.684  -6.621  1.00  0.00     0.006 C 
BRANCH   2   3
ATOM      3  C   UNL     1     -18.006  42.728  -5.453  1.00  0.00     0.053 C 
BRANCH   3   4
ATOM      4  C   UNL     1     -17.754  43.382  -4.130  1.00  0.00     0.041 C 
ATOM      5  O   UNL     1     -16.613  43.326  -3.601  1.00  0.00    -0.550 OA
ATOM      6  O   UNL     1     -18.791  44.025  -3.464  1.00  0.00    -0.550 OA
ENDBRANCH   3   4
ENDBRANCH   2   3
ENDBRANCH   1   2
BRANCH   1   7
ATOM      7  C   UNL     1     -19.325  44.447  -8.434  1.00  0.00     0.000 C 
BRANCH   7   8
ATOM      8  C   UNL     1     -18.831  43.122  -9.026  1.00  0.00    -0.000 C 
BRANCH   8   9
ATOM      9  C   UNL     1     -18.501  43.273 -10.515  1.00  0.00    -0.000 C 
BRANCH   9  10
ATOM     10  C   UNL     1     -17.026  42.963 -10.786  1.00  0.00    -0.003 C 
ATOM     11  C   UNL     1     -16.123  44.084 -10.278  1.00  0.00     0.004 C 
ENDBRANCH   9  10
ENDBRANCH   8   9
ENDBRANCH   7   8
ENDBRANCH   1   7
TORSDOF 7
ENDMDL
MODEL 9
REMARK VINA RESULT:    -2.836      3.394      5.703
REMARK INTER + INTRA:          -4.429
REMARK INTER:                  -4.178
REMARK INTRA:                  -0.251
REMARK UNBOUND:                -0.432
REMARK SMILES CCCCCCCCC(=O)[O-]
REMARK SMILES IDX 6 1 7 2 8 3 9 4 10 5 11 6 5 7 4 8 3 9 2 10 1 11
REMARK H PARENT
REMARK Flexibility Score: inf
ROOT
ATOM      1  C   UNL     1     -16.141  43.684  -6.134  1.00  0.00     0.000 C 
ENDROOT
BRANCH   1   2
ATOM      2  C   UNL     1     -17.542  43.176  -5.762  1.00  0.00     0.006 C 
BRANCH   2   3
ATOM      3  C   UNL     1     -17.574  42.519  -4.377  1.00  0.00     0.053 C 
BRANCH   3   4
ATOM      4  C   UNL     1     -18.696  43.049  -3.537  1.00  0.00     0.041 C 
ATOM      5  O   UNL     1     -19.007  44.267  -3.588  1.00  0.00    -0.550 OA
ATOM      6  O   UNL     1     -19.375  42.201  -2.671  1.00  0.00    -0.550 OA
ENDBRANCH   3   4
ENDBRANCH   2   3
ENDBRANCH   1   2
BRANCH   1   7
ATOM      7  C   UNL     1     -16.083  44.108  -7.607  1.00  0.00     0.000 C 
BRANCH   7   8
ATOM      8  C   UNL     1     -15.069  45.239  -7.815  1.00  0.00    -0.000 C 
BRANCH   8   9
ATOM      9  C   UNL     1     -15.142  45.789  -9.243  1.00  0.00    -0.000 C 
BRANCH   9  10
ATOM     10  C   UNL     1     -16.543  45.598  -9.835  1.00  0.00    -0.003 C 
ATOM     11  C   UNL     1     -16.846  46.660 -10.889  1.00  0.00     0.004 C 
ENDBRANCH   9  10
ENDBRANCH   8   9
ENDBRANCH   7   8
ENDBRANCH   1   7
TORSDOF 7
ENDMDL
