MODEL 1
REMARK VINA RESULT:    -4.002      0.000      0.000
REMARK INTER + INTRA:          -9.579
REMARK INTER:                  -7.511
REMARK INTRA:                  -2.068
REMARK UNBOUND:                -2.068
REMARK SMILES O=C([O-])CCCCCCCCCCCCCCC(=O)[O-]
REMARK SMILES IDX 10 1 9 2 8 3 7 4 6 5 5 6 4 7 2 8 1 9 3 10 11 11 12 12 13 13
REMARK SMILES IDX 14 14 15 15 16 16 17 17 18 18 19 19 20 20
REMARK H PARENT
REMARK Flexibility Score: inf
ROOT
ATOM      1  C   UNL     1     -30.473 -45.394  34.772  1.00  0.00     0.000 C 
ENDROOT
BRANCH   1   2
ATOM      2  C   UNL     1     -29.320 -45.782  33.830  1.00  0.00     0.000 C 
BRANCH   2   3
ATOM      3  C   UNL     1     -29.386 -47.268  33.416  1.00  0.00     0.000 C 
BRANCH   3   4
ATOM      4  C   UNL     1     -28.142 -48.076  33.823  1.00  0.00     0.000 C 
BRANCH   4   5
ATOM      5  C   UNL     1     -27.870 -48.033  35.334  1.00  0.00     0.000 C 
BRANCH   5   6
ATOM      6  C   UNL     1     -27.146 -49.301  35.799  1.00  0.00     0.006 C 
BRANCH   6   7
ATOM      7  C   UNL     1     -25.659 -49.249  35.437  1.00  0.00     0.053 C 
BRANCH   7   8
ATOM      8  C   UNL     1     -25.202 -50.571  34.906  1.00  0.00     0.041 C 
ATOM      9  O   UNL     1     -23.973 -50.806  34.765  1.00  0.00    -0.550 OA
ATOM     10  O   UNL     1     -26.130 -51.561  34.613  1.00  0.00    -0.550 OA
ENDBRANCH   7   8
ENDBRANCH   6   7
ENDBRANCH   5   6
ENDBRANCH   4   5
ENDBRANCH   3   4
ENDBRANCH   2   3
ENDBRANCH   1   2
BRANCH   1  11
ATOM     11  C   UNL     1     -31.474 -46.542  34.983  1.00  0.00     0.000 C 
BRANCH  11  12
ATOM     12  C   UNL     1     -31.456 -47.079  36.425  1.00  0.00     0.000 C 
BRANCH  12  13
ATOM     13  C   UNL     1     -31.428 -48.615  36.482  1.00  0.00     0.000 C 
BRANCH  13  14
ATOM     14  C   UNL     1     -32.567 -49.256  35.675  1.00  0.00     0.000 C 
BRANCH  14  15
ATOM     15  C   UNL     1     -32.096 -50.544  34.989  1.00  0.00     0.000 C 
BRANCH  15  16
ATOM     16  C   UNL     1     -30.566 -50.671  35.046  1.00  0.00     0.006 C 
BRANCH  16  17
ATOM     17  C   UNL     1     -30.116 -52.012  35.638  1.00  0.00     0.053 C 
BRANCH  17  18
ATOM     18  C   UNL     1     -30.002 -53.071  34.586  1.00  0.00     0.041 C 
ATOM     19  O   UNL     1     -28.878 -53.365  34.100  1.00  0.00    -0.550 OA
ATOM     20  O   UNL     1     -31.133 -53.758  34.165  1.00  0.00    -0.550 OA
ENDBRANCH  17  18
ENDBRANCH  16  17
ENDBRANCH  15  16
ENDBRANCH  14  15
ENDBRANCH  13  14
ENDBRANCH  12  13
ENDBRANCH  11  12
ENDBRANCH   1  11
TORSDOF 15
ENDMDL
MODEL 2
REMARK VINA RESULT:    -3.962      5.233      8.675
REMARK INTER + INTRA:          -9.504
REMARK INTER:                  -8.382
REMARK INTRA:                  -1.122
REMARK UNBOUND:                -2.068
REMARK SMILES O=C([O-])CCCCCCCCCCCCCCC(=O)[O-]
REMARK SMILES IDX 10 1 9 2 8 3 7 4 6 5 5 6 4 7 2 8 1 9 3 10 11 11 12 12 13 13
REMARK SMILES IDX 14 14 15 15 16 16 17 17 18 18 19 19 20 20
REMARK H PARENT
REMARK Flexibility Score: inf
ROOT
ATOM      1  C   UNL     1     -29.896 -52.254  33.502  1.00  0.00     0.000 C 
ENDROOT
BRANCH   1   2
ATOM      2  C   UNL     1     -31.408 -51.971  33.483  1.00  0.00     0.000 C 
BRANCH   2   3
ATOM      3  C   UNL     1     -32.241 -53.264  33.609  1.00  0.00     0.000 C 
BRANCH   3   4
ATOM      4  C   UNL     1     -33.111 -53.559  32.374  1.00  0.00     0.000 C 
BRANCH   4   5
ATOM      5  C   UNL     1     -32.705 -52.731  31.146  1.00  0.00     0.000 C 
BRANCH   5   6
ATOM      6  C   UNL     1     -33.639 -53.009  29.963  1.00  0.00     0.006 C 
BRANCH   6   7
ATOM      7  C   UNL     1     -33.554 -54.476  29.529  1.00  0.00     0.053 C 
BRANCH   7   8
ATOM      8  C   UNL     1     -34.923 -55.069  29.419  1.00  0.00     0.041 C 
ATOM      9  O   UNL     1     -35.919 -54.453  29.879  1.00  0.00    -0.550 OA
ATOM     10  O   UNL     1     -35.104 -56.281  28.765  1.00  0.00    -0.550 OA
ENDBRANCH   7   8
ENDBRANCH   6   7
ENDBRANCH   5   6
ENDBRANCH   4   5
ENDBRANCH   3   4
ENDBRANCH   2   3
ENDBRANCH   1   2
BRANCH   1  11
ATOM     11  C   UNL     1     -29.553 -53.575  34.210  1.00  0.00     0.000 C 
BRANCH  11  12
ATOM     12  C   UNL     1     -28.162 -54.105  33.819  1.00  0.00     0.000 C 
BRANCH  12  13
ATOM     13  C   UNL     1     -27.222 -52.992  33.328  1.00  0.00     0.000 C 
BRANCH  13  14
ATOM     14  C   UNL     1     -26.566 -53.327  31.980  1.00  0.00     0.000 C 
BRANCH  14  15
ATOM     15  C   UNL     1     -27.392 -52.768  30.815  1.00  0.00     0.000 C 
BRANCH  15  16
ATOM     16  C   UNL     1     -26.481 -52.201  29.716  1.00  0.00     0.006 C 
BRANCH  16  17
ATOM     17  C   UNL     1     -25.231 -53.064  29.495  1.00  0.00     0.053 C 
BRANCH  17  18
ATOM     18  C   UNL     1     -25.398 -53.991  28.331  1.00  0.00     0.041 C 
ATOM     19  O   UNL     1     -24.943 -53.678  27.200  1.00  0.00    -0.550 OA
ATOM     20  O   UNL     1     -26.027 -55.217  28.503  1.00  0.00    -0.550 OA
ENDBRANCH  17  18
ENDBRANCH  16  17
ENDBRANCH  15  16
ENDBRANCH  14  15
ENDBRANCH  13  14
ENDBRANCH  12  13
ENDBRANCH  11  12
ENDBRANCH   1  11
TORSDOF 15
ENDMDL
MODEL 3
REMARK VINA RESULT:    -3.959      5.221      7.057
REMARK INTER + INTRA:          -9.499
REMARK INTER:                  -8.512
REMARK INTRA:                  -0.987
REMARK UNBOUND:                -2.068
REMARK SMILES O=C([O-])CCCCCCCCCCCCCCC(=O)[O-]
REMARK SMILES IDX 10 1 9 2 8 3 7 4 6 5 5 6 4 7 2 8 1 9 3 10 11 11 12 12 13 13
REMARK SMILES IDX 14 14 15 15 16 16 17 17 18 18 19 19 20 20
REMARK H PARENT
REMARK Flexibility Score: inf
ROOT
ATOM      1  C   UNL     1     -30.092 -54.028  34.084  1.00  0.00     0.000 C 
ENDROOT
BRANCH   1   2
ATOM      2  C   UNL     1     -28.568 -54.212  33.975  1.00  0.00     0.000 C 
BRANCH   2   3
ATOM      3  C   UNL     1     -27.808 -52.885  34.182  1.00  0.00     0.000 C 
BRANCH   3   4
ATOM      4  C   UNL     1     -26.819 -52.559  33.050  1.00  0.00     0.000 C 
BRANCH   4   5
ATOM      5  C   UNL     1     -26.950 -53.508  31.850  1.00  0.00     0.000 C 
BRANCH   5   6
ATOM      6  C   UNL     1     -25.686 -53.479  30.984  1.00  0.00     0.006 C 
BRANCH   6   7
ATOM      7  C   UNL     1     -25.994 -52.947  29.581  1.00  0.00     0.053 C 
BRANCH   7   8
ATOM      8  C   UNL     1     -26.489 -54.050  28.700  1.00  0.00     0.041 C 
ATOM      9  O   UNL     1     -27.338 -53.811  27.802  1.00  0.00    -0.550 OA
ATOM     10  O   UNL     1     -25.976 -55.333  28.838  1.00  0.00    -0.550 OA
ENDBRANCH   7   8
ENDBRANCH   6   7
ENDBRANCH   5   6
ENDBRANCH   4   5
ENDBRANCH   3   4
ENDBRANCH   2   3
ENDBRANCH   1   2
BRANCH   1  11
ATOM     11  C   UNL     1     -30.481 -52.628  34.587  1.00  0.00     0.000 C 
BRANCH  11  12
ATOM     12  C   UNL     1     -31.716 -52.066  33.860  1.00  0.00     0.000 C 
BRANCH  12  13
ATOM     13  C   UNL     1     -32.580 -53.167  33.226  1.00  0.00     0.000 C 
BRANCH  13  14
ATOM     14  C   UNL     1     -32.826 -52.935  31.728  1.00  0.00     0.000 C 
BRANCH  14  15
ATOM     15  C   UNL     1     -33.672 -54.066  31.129  1.00  0.00     0.000 C 
BRANCH  15  16
ATOM     16  C   UNL     1     -33.342 -54.273  29.643  1.00  0.00     0.006 C 
BRANCH  16  17
ATOM     17  C   UNL     1     -34.484 -54.963  28.886  1.00  0.00     0.053 C 
BRANCH  17  18
ATOM     18  C   UNL     1     -35.768 -54.203  29.007  1.00  0.00     0.041 C 
ATOM     19  O   UNL     1     -36.810 -54.780  29.415  1.00  0.00    -0.550 OA
ATOM     20  O   UNL     1     -35.806 -52.849  28.702  1.00  0.00    -0.550 OA
ENDBRANCH  17  18
ENDBRANCH  16  17
ENDBRANCH  15  16
ENDBRANCH  14  15
ENDBRANCH  13  14
ENDBRANCH  12  13
ENDBRANCH  11  12
ENDBRANCH   1  11
TORSDOF 15
ENDMDL
MODEL 4
REMARK VINA RESULT:    -3.914      3.900      5.701
REMARK INTER + INTRA:          -9.414
REMARK INTER:                  -8.115
REMARK INTRA:                  -1.299
REMARK UNBOUND:                -2.068
REMARK SMILES O=C([O-])CCCCCCCCCCCCCCC(=O)[O-]
REMARK SMILES IDX 10 1 9 2 8 3 7 4 6 5 5 6 4 7 2 8 1 9 3 10 11 11 12 12 13 13
REMARK SMILES IDX 14 14 15 15 16 16 17 17 18 18 19 19 20 20
REMARK H PARENT
REMARK Flexibility Score: inf
ROOT
ATOM      1  C   UNL     1     -29.162 -53.645  33.971  1.00  0.00     0.000 C 
ENDROOT
BRANCH   1   2
ATOM      2  C   UNL     1     -27.870 -53.315  33.205  1.00  0.00     0.000 C 
BRANCH   2   3
ATOM      3  C   UNL     1     -28.081 -52.190  32.170  1.00  0.00     0.000 C 
BRANCH   3   4
ATOM      4  C   UNL     1     -26.769 -51.639  31.584  1.00  0.00     0.000 C 
BRANCH   4   5
ATOM      5  C   UNL     1     -25.533 -52.048  32.397  1.00  0.00     0.000 C 
BRANCH   5   6
ATOM      6  C   UNL     1     -24.769 -50.816  32.894  1.00  0.00     0.006 C 
BRANCH   6   7
ATOM      7  C   UNL     1     -24.692 -50.797  34.423  1.00  0.00     0.053 C 
BRANCH   7   8
ATOM      8  C   UNL     1     -25.746 -49.899  34.990  1.00  0.00     0.041 C 
ATOM      9  O   UNL     1     -26.945 -50.277  35.032  1.00  0.00    -0.550 OA
ATOM     10  O   UNL     1     -25.395 -48.663  35.517  1.00  0.00    -0.550 OA
ENDBRANCH   7   8
ENDBRANCH   6   7
ENDBRANCH   5   6
ENDBRANCH   4   5
ENDBRANCH   3   4
ENDBRANCH   2   3
ENDBRANCH   1   2
BRANCH   1  11
ATOM     11  C   UNL     1     -29.877 -52.387  34.490  1.00  0.00     0.000 C 
BRANCH  11  12
ATOM     12  C   UNL     1     -31.342 -52.310  34.024  1.00  0.00     0.000 C 
BRANCH  12  13
ATOM     13  C   UNL     1     -31.904 -53.681  33.614  1.00  0.00     0.000 C 
BRANCH  13  14
ATOM     14  C   UNL     1     -33.005 -53.572  32.549  1.00  0.00     0.000 C 
BRANCH  14  15
ATOM     15  C   UNL     1     -32.591 -52.613  31.427  1.00  0.00     0.000 C 
BRANCH  15  16
ATOM     16  C   UNL     1     -33.358 -52.916  30.131  1.00  0.00     0.006 C 
BRANCH  16  17
ATOM     17  C   UNL     1     -33.220 -54.383  29.704  1.00  0.00     0.053 C 
BRANCH  17  18
ATOM     18  C   UNL     1     -34.529 -54.954  29.255  1.00  0.00     0.041 C 
ATOM     19  O   UNL     1     -35.016 -54.624  28.141  1.00  0.00    -0.550 OA
ATOM     20  O   UNL     1     -35.196 -55.876  30.051  1.00  0.00    -0.550 OA
ENDBRANCH  17  18
ENDBRANCH  16  17
ENDBRANCH  15  16
ENDBRANCH  14  15
ENDBRANCH  13  14
ENDBRANCH  12  13
ENDBRANCH  11  12
ENDBRANCH   1  11
TORSDOF 15
ENDMDL
MODEL 5
REMARK VINA RESULT:    -3.891      9.610     11.792
REMARK INTER + INTRA:          -9.371
REMARK INTER:                  -7.685
REMARK INTRA:                  -1.686
REMARK UNBOUND:                -2.068
REMARK SMILES O=C([O-])CCCCCCCCCCCCCCC(=O)[O-]
REMARK SMILES IDX 10 1 9 2 8 3 7 4 6 5 5 6 4 7 2 8 1 9 3 10 11 11 12 12 13 13
REMARK SMILES IDX 14 14 15 15 16 16 17 17 18 18 19 19 20 20
REMARK H PARENT
REMARK Flexibility Score: inf
ROOT
ATOM      1  C   UNL     1     -33.920 -49.693  24.208  1.00  0.00     0.000 C 
ENDROOT
BRANCH   1   2
ATOM      2  C   UNL     1     -34.854 -50.916  24.196  1.00  0.00     0.000 C 
BRANCH   2   3
ATOM      3  C   UNL     1     -34.304 -52.072  25.057  1.00  0.00     0.000 C 
BRANCH   3   4
ATOM      4  C   UNL     1     -33.473 -51.601  26.264  1.00  0.00     0.000 C 
BRANCH   4   5
ATOM      5  C   UNL     1     -33.715 -52.447  27.522  1.00  0.00     0.000 C 
BRANCH   5   6
ATOM      6  C   UNL     1     -35.073 -53.153  27.458  1.00  0.00     0.006 C 
BRANCH   6   7
ATOM      7  C   UNL     1     -35.718 -53.231  28.845  1.00  0.00     0.053 C 
BRANCH   7   8
ATOM      8  C   UNL     1     -35.288 -54.477  29.553  1.00  0.00     0.041 C 
ATOM      9  O   UNL     1     -34.513 -54.408  30.542  1.00  0.00    -0.550 OA
ATOM     10  O   UNL     1     -35.783 -55.710  29.151  1.00  0.00    -0.550 OA
ENDBRANCH   7   8
ENDBRANCH   6   7
ENDBRANCH   5   6
ENDBRANCH   4   5
ENDBRANCH   3   4
ENDBRANCH   2   3
ENDBRANCH   1   2
BRANCH   1  11
ATOM     11  C   UNL     1     -33.262 -49.441  22.841  1.00  0.00     0.000 C 
BRANCH  11  12
ATOM     12  C   UNL     1     -31.737 -49.646  22.877  1.00  0.00     0.000 C 
BRANCH  12  13
ATOM     13  C   UNL     1     -31.333 -51.108  22.631  1.00  0.00     0.000 C 
BRANCH  13  14
ATOM     14  C   UNL     1     -30.552 -51.710  23.809  1.00  0.00     0.000 C 
BRANCH  14  15
ATOM     15  C   UNL     1     -30.261 -50.647  24.875  1.00  0.00     0.000 C 
BRANCH  15  16
ATOM     16  C   UNL     1     -28.755 -50.554  25.163  1.00  0.00     0.006 C 
BRANCH  16  17
ATOM     17  C   UNL     1     -27.915 -50.582  23.880  1.00  0.00     0.053 C 
BRANCH  17  18
ATOM     18  C   UNL     1     -26.839 -51.622  23.945  1.00  0.00     0.041 C 
ATOM     19  O   UNL     1     -27.135 -52.828  24.152  1.00  0.00    -0.550 OA
ATOM     20  O   UNL     1     -25.512 -51.264  23.744  1.00  0.00    -0.550 OA
ENDBRANCH  17  18
ENDBRANCH  16  17
ENDBRANCH  15  16
ENDBRANCH  14  15
ENDBRANCH  13  14
ENDBRANCH  12  13
ENDBRANCH  11  12
ENDBRANCH   1  11
TORSDOF 15
ENDMDL
MODEL 6
REMARK VINA RESULT:    -3.874      2.576      4.866
REMARK INTER + INTRA:          -9.339
REMARK INTER:                  -7.612
REMARK INTRA:                  -1.727
REMARK UNBOUND:                -2.068
REMARK SMILES O=C([O-])CCCCCCCCCCCCCCC(=O)[O-]
REMARK SMILES IDX 10 1 9 2 8 3 7 4 6 5 5 6 4 7 2 8 1 9 3 10 11 11 12 12 13 13
REMARK SMILES IDX 14 14 15 15 16 16 17 17 18 18 19 19 20 20
REMARK H PARENT
REMARK Flexibility Score: inf
ROOT
ATOM      1  C   UNL     1     -31.998 -49.121  34.904  1.00  0.00     0.000 C 
ENDROOT
BRANCH   1   2
ATOM      2  C   UNL     1     -31.468 -50.562  34.999  1.00  0.00     0.000 C 
BRANCH   2   3
ATOM      3  C   UNL     1     -30.135 -50.639  35.773  1.00  0.00     0.000 C 
BRANCH   3   4
ATOM      4  C   UNL     1     -28.959 -49.968  35.041  1.00  0.00     0.000 C 
BRANCH   4   5
ATOM      5  C   UNL     1     -27.921 -49.370  36.002  1.00  0.00     0.000 C 
BRANCH   5   6
ATOM      6  C   UNL     1     -26.984 -48.405  35.268  1.00  0.00     0.006 C 
BRANCH   6   7
ATOM      7  C   UNL     1     -25.518 -48.798  35.476  1.00  0.00     0.053 C 
BRANCH   7   8
ATOM      8  C   UNL     1     -25.151 -49.944  34.587  1.00  0.00     0.041 C 
ATOM      9  O   UNL     1     -25.563 -49.980  33.398  1.00  0.00    -0.550 OA
ATOM     10  O   UNL     1     -24.314 -50.947  35.056  1.00  0.00    -0.550 OA
ENDBRANCH   7   8
ENDBRANCH   6   7
ENDBRANCH   5   6
ENDBRANCH   4   5
ENDBRANCH   3   4
ENDBRANCH   2   3
ENDBRANCH   1   2
BRANCH   1  11
ATOM     11  C   UNL     1     -32.226 -48.485  36.285  1.00  0.00     0.000 C 
BRANCH  11  12
ATOM     12  C   UNL     1     -31.786 -47.010  36.332  1.00  0.00     0.000 C 
BRANCH  12  13
ATOM     13  C   UNL     1     -30.444 -46.772  35.621  1.00  0.00     0.000 C 
BRANCH  13  14
ATOM     14  C   UNL     1     -30.465 -45.525  34.724  1.00  0.00     0.000 C 
BRANCH  14  15
ATOM     15  C   UNL     1     -29.685 -45.769  33.427  1.00  0.00     0.000 C 
BRANCH  15  16
ATOM     16  C   UNL     1     -28.256 -45.215  33.531  1.00  0.00     0.006 C 
BRANCH  16  17
ATOM     17  C   UNL     1     -27.766 -44.620  32.204  1.00  0.00     0.053 C 
BRANCH  17  18
ATOM     18  C   UNL     1     -27.743 -45.646  31.113  1.00  0.00     0.041 C 
ATOM     19  O   UNL     1     -27.002 -46.659  31.210  1.00  0.00    -0.550 OA
ATOM     20  O   UNL     1     -28.565 -45.499  30.003  1.00  0.00    -0.550 OA
ENDBRANCH  17  18
ENDBRANCH  16  17
ENDBRANCH  15  16
ENDBRANCH  14  15
ENDBRANCH  13  14
ENDBRANCH  12  13
ENDBRANCH  11  12
ENDBRANCH   1  11
TORSDOF 15
ENDMDL
MODEL 7
REMARK VINA RESULT:    -3.830      8.704     10.438
REMARK INTER + INTRA:          -9.256
REMARK INTER:                  -7.264
REMARK INTRA:                  -1.992
REMARK UNBOUND:                -2.068
REMARK SMILES O=C([O-])CCCCCCCCCCCCCCC(=O)[O-]
REMARK SMILES IDX 10 1 9 2 8 3 7 4 6 5 5 6 4 7 2 8 1 9 3 10 11 11 12 12 13 13
REMARK SMILES IDX 14 14 15 15 16 16 17 17 18 18 19 19 20 20
REMARK H PARENT
REMARK Flexibility Score: inf
ROOT
ATOM      1  C   UNL     1     -33.002 -46.675  27.773  1.00  0.00     0.000 C 
ENDROOT
BRANCH   1   2
ATOM      2  C   UNL     1     -32.325 -45.597  28.637  1.00  0.00     0.000 C 
BRANCH   2   3
ATOM      3  C   UNL     1     -31.836 -44.401  27.793  1.00  0.00     0.000 C 
BRANCH   3   4
ATOM      4  C   UNL     1     -31.907 -44.648  26.275  1.00  0.00     0.000 C 
BRANCH   4   5
ATOM      5  C   UNL     1     -32.804 -43.638  25.547  1.00  0.00     0.000 C 
BRANCH   5   6
ATOM      6  C   UNL     1     -33.068 -44.079  24.103  1.00  0.00     0.006 C 
BRANCH   6   7
ATOM      7  C   UNL     1     -32.261 -45.333  23.755  1.00  0.00     0.053 C 
BRANCH   7   8
ATOM      8  C   UNL     1     -31.104 -44.984  22.873  1.00  0.00     0.041 C 
ATOM      9  O   UNL     1     -30.813 -43.779  22.658  1.00  0.00    -0.550 OA
ATOM     10  O   UNL     1     -30.318 -45.990  22.328  1.00  0.00    -0.550 OA
ENDBRANCH   7   8
ENDBRANCH   6   7
ENDBRANCH   5   6
ENDBRANCH   4   5
ENDBRANCH   3   4
ENDBRANCH   2   3
ENDBRANCH   1   2
BRANCH   1  11
ATOM     11  C   UNL     1     -34.500 -46.825  28.086  1.00  0.00     0.000 C 
BRANCH  11  12
ATOM     12  C   UNL     1     -35.335 -45.656  27.534  1.00  0.00     0.000 C 
BRANCH  12  13
ATOM     13  C   UNL     1     -36.132 -44.931  28.630  1.00  0.00     0.000 C 
BRANCH  13  14
ATOM     14  C   UNL     1     -35.398 -43.696  29.174  1.00  0.00     0.000 C 
BRANCH  14  15
ATOM     15  C   UNL     1     -35.266 -43.765  30.700  1.00  0.00     0.000 C 
BRANCH  15  16
ATOM     16  C   UNL     1     -35.483 -45.198  31.208  1.00  0.00     0.006 C 
BRANCH  16  17
ATOM     17  C   UNL     1     -34.267 -45.733  31.976  1.00  0.00     0.053 C 
BRANCH  17  18
ATOM     18  C   UNL     1     -34.650 -46.249  33.328  1.00  0.00     0.041 C 
ATOM     19  O   UNL     1     -35.839 -46.593  33.563  1.00  0.00    -0.550 OA
ATOM     20  O   UNL     1     -33.688 -46.380  34.321  1.00  0.00    -0.550 OA
ENDBRANCH  17  18
ENDBRANCH  16  17
ENDBRANCH  15  16
ENDBRANCH  14  15
ENDBRANCH  13  14
ENDBRANCH  12  13
ENDBRANCH  11  12
ENDBRANCH   1  11
TORSDOF 15
ENDMDL
MODEL 8
REMARK VINA RESULT:    -3.817      4.115      8.234
REMARK INTER + INTRA:          -9.233
REMARK INTER:                  -7.679
REMARK INTRA:                  -1.553
REMARK UNBOUND:                -2.068
REMARK SMILES O=C([O-])CCCCCCCCCCCCCCC(=O)[O-]
REMARK SMILES IDX 10 1 9 2 8 3 7 4 6 5 5 6 4 7 2 8 1 9 3 10 11 11 12 12 13 13
REMARK SMILES IDX 14 14 15 15 16 16 17 17 18 18 19 19 20 20
REMARK H PARENT
REMARK Flexibility Score: inf
ROOT
ATOM      1  C   UNL     1     -29.576 -52.456  34.412  1.00  0.00     0.000 C 
ENDROOT
BRANCH   1   2
ATOM      2  C   UNL     1     -31.065 -52.212  34.111  1.00  0.00     0.000 C 
BRANCH   2   3
ATOM      3  C   UNL     1     -31.823 -53.527  33.832  1.00  0.00     0.000 C 
BRANCH   3   4
ATOM      4  C   UNL     1     -33.014 -53.360  32.873  1.00  0.00     0.000 C 
BRANCH   4   5
ATOM      5  C   UNL     1     -32.654 -52.572  31.606  1.00  0.00     0.000 C 
BRANCH   5   6
ATOM      6  C   UNL     1     -33.169 -53.283  30.350  1.00  0.00     0.006 C 
BRANCH   6   7
ATOM      7  C   UNL     1     -34.217 -54.341  30.709  1.00  0.00     0.053 C 
BRANCH   7   8
ATOM      8  C   UNL     1     -35.295 -54.384  29.672  1.00  0.00     0.041 C 
ATOM      9  O   UNL     1     -35.816 -55.482  29.346  1.00  0.00    -0.550 OA
ATOM     10  O   UNL     1     -35.758 -53.206  29.102  1.00  0.00    -0.550 OA
ENDBRANCH   7   8
ENDBRANCH   6   7
ENDBRANCH   5   6
ENDBRANCH   4   5
ENDBRANCH   3   4
ENDBRANCH   2   3
ENDBRANCH   1   2
BRANCH   1  11
ATOM     11  C   UNL     1     -28.745 -52.671  33.137  1.00  0.00     0.000 C 
BRANCH  11  12
ATOM     12  C   UNL     1     -29.054 -51.625  32.051  1.00  0.00     0.000 C 
BRANCH  12  13
ATOM     13  C   UNL     1     -28.577 -52.063  30.657  1.00  0.00     0.000 C 
BRANCH  13  14
ATOM     14  C   UNL     1     -27.240 -52.819  30.701  1.00  0.00     0.000 C 
BRANCH  14  15
ATOM     15  C   UNL     1     -26.058 -51.848  30.594  1.00  0.00     0.000 C 
BRANCH  15  16
ATOM     16  C   UNL     1     -25.264 -51.799  31.908  1.00  0.00     0.006 C 
BRANCH  16  17
ATOM     17  C   UNL     1     -25.514 -50.503  32.689  1.00  0.00     0.053 C 
BRANCH  17  18
ATOM     18  C   UNL     1     -25.368 -50.710  34.165  1.00  0.00     0.041 C 
ATOM     19  O   UNL     1     -26.371 -50.616  34.921  1.00  0.00    -0.550 OA
ATOM     20  O   UNL     1     -24.130 -51.038  34.702  1.00  0.00    -0.550 OA
ENDBRANCH  17  18
ENDBRANCH  16  17
ENDBRANCH  15  16
ENDBRANCH  14  15
ENDBRANCH  13  14
ENDBRANCH  12  13
ENDBRANCH  11  12
ENDBRANCH   1  11
TORSDOF 15
ENDMDL
MODEL 9
REMARK VINA RESULT:    -3.817      8.384     10.258
REMARK INTER + INTRA:          -9.232
REMARK INTER:                  -7.448
REMARK INTRA:                  -1.784
REMARK UNBOUND:                -2.068
REMARK SMILES O=C([O-])CCCCCCCCCCCCCCC(=O)[O-]
REMARK SMILES IDX 10 1 9 2 8 3 7 4 6 5 5 6 4 7 2 8 1 9 3 10 11 11 12 12 13 13
REMARK SMILES IDX 14 14 15 15 16 16 17 17 18 18 19 19 20 20
REMARK H PARENT
REMARK Flexibility Score: inf
ROOT
ATOM      1  C   UNL     1     -27.677 -53.425  28.119  1.00  0.00     0.000 C 
ENDROOT
BRANCH   1   2
ATOM      2  C   UNL     1     -26.971 -52.192  27.528  1.00  0.00     0.000 C 
BRANCH   2   3
ATOM      3  C   UNL     1     -25.487 -52.472  27.208  1.00  0.00     0.000 C 
BRANCH   3   4
ATOM      4  C   UNL     1     -24.826 -53.467  28.177  1.00  0.00     0.000 C 
BRANCH   4   5
ATOM      5  C   UNL     1     -24.006 -52.775  29.276  1.00  0.00     0.000 C 
BRANCH   5   6
ATOM      6  C   UNL     1     -24.854 -52.542  30.530  1.00  0.00     0.006 C 
BRANCH   6   7
ATOM      7  C   UNL     1     -24.940 -51.050  30.865  1.00  0.00     0.053 C 
BRANCH   7   8
ATOM      8  C   UNL     1     -25.356 -50.855  32.289  1.00  0.00     0.041 C 
ATOM      9  O   UNL     1     -25.074 -51.723  33.155  1.00  0.00    -0.550 OA
ATOM     10  O   UNL     1     -26.011 -49.691  32.668  1.00  0.00    -0.550 OA
ENDBRANCH   7   8
ENDBRANCH   6   7
ENDBRANCH   5   6
ENDBRANCH   4   5
ENDBRANCH   3   4
ENDBRANCH   2   3
ENDBRANCH   1   2
BRANCH   1  11
ATOM     11  C   UNL     1     -28.487 -54.200  27.067  1.00  0.00     0.000 C 
BRANCH  11  12
ATOM     12  C   UNL     1     -28.900 -53.317  25.876  1.00  0.00     0.000 C 
BRANCH  12  13
ATOM     13  C   UNL     1     -28.708 -54.022  24.524  1.00  0.00     0.000 C 
BRANCH  13  14
ATOM     14  C   UNL     1     -27.441 -53.558  23.791  1.00  0.00     0.000 C 
BRANCH  14  15
ATOM     15  C   UNL     1     -27.485 -52.049  23.522  1.00  0.00     0.000 C 
BRANCH  15  16
ATOM     16  C   UNL     1     -26.109 -51.407  23.753  1.00  0.00     0.006 C 
BRANCH  16  17
ATOM     17  C   UNL     1     -26.207 -50.076  24.510  1.00  0.00     0.053 C 
BRANCH  17  18
ATOM     18  C   UNL     1     -26.030 -48.905  23.594  1.00  0.00     0.041 C 
ATOM     19  O   UNL     1     -26.858 -48.690  22.670  1.00  0.00    -0.550 OA
ATOM     20  O   UNL     1     -24.967 -48.031  23.780  1.00  0.00    -0.550 OA
ENDBRANCH  17  18
ENDBRANCH  16  17
ENDBRANCH  15  16
ENDBRANCH  14  15
ENDBRANCH  13  14
ENDBRANCH  12  13
ENDBRANCH  11  12
ENDBRANCH   1  11
TORSDOF 15
ENDMDL
