MODEL 1
REMARK VINA RESULT:    -4.957      0.000      0.000
REMARK INTER + INTRA:          -6.972
REMARK INTER:                  -6.695
REMARK INTRA:                  -0.276
REMARK UNBOUND:                -0.276
REMARK SMILES CCCCCCC=CC(=O)[O-]
REMARK SMILES IDX 5 1 6 2 7 3 8 4 9 5 10 6 11 7 4 8 3 9 2 10 1 11
REMARK H PARENT
REMARK Flexibility Score: inf
ROOT
ATOM      1  C   UNL     1      22.421 -12.023  21.593  1.00  0.00     0.004 C 
ENDROOT
BRANCH   1   2
ATOM      2  C   UNL     1      21.173 -12.804  21.160  1.00  0.00     0.027 C 
BRANCH   2   3
ATOM      3  C   UNL     1      21.512 -13.844  20.131  1.00  0.00    -0.025 C 
ATOM      4  C   UNL     1      22.589 -14.626  20.257  1.00  0.00     0.020 C 
BRANCH   4   5
ATOM      5  C   UNL     1      22.926 -15.658  19.264  1.00  0.00     0.064 C 
ATOM      6  O   UNL     1      22.780 -15.413  18.039  1.00  0.00    -0.545 OA
ATOM      7  O   UNL     1      23.402 -16.904  19.660  1.00  0.00    -0.545 OA
ENDBRANCH   4   5
ENDBRANCH   2   3
ENDBRANCH   1   2
BRANCH   1   8
ATOM      8  C   UNL     1      22.053 -10.906  22.580  1.00  0.00     0.000 C 
BRANCH   8   9
ATOM      9  C   UNL     1      20.646 -11.079  23.174  1.00  0.00    -0.000 C 
BRANCH   9  10
ATOM     10  C   UNL     1      20.576 -10.678  24.654  1.00  0.00    -0.003 C 
ATOM     11  C   UNL     1      20.671  -9.163  24.818  1.00  0.00     0.004 C 
ENDBRANCH   9  10
ENDBRANCH   8   9
ENDBRANCH   1   8
TORSDOF 6
ENDMDL
MODEL 2
REMARK VINA RESULT:    -4.805      3.754      6.689
REMARK INTER + INTRA:          -6.767
REMARK INTER:                  -6.603
REMARK INTRA:                  -0.164
REMARK UNBOUND:                -0.276
REMARK SMILES CCCCCCC=CC(=O)[O-]
REMARK SMILES IDX 5 1 6 2 7 3 8 4 9 5 10 6 11 7 4 8 3 9 2 10 1 11
REMARK H PARENT
REMARK Flexibility Score: inf
ROOT
ATOM      1  C   UNL     1      22.450 -14.043  20.871  1.00  0.00     0.004 C 
ENDROOT
BRANCH   1   2
ATOM      2  C   UNL     1      21.307 -13.020  20.899  1.00  0.00     0.027 C 
BRANCH   2   3
ATOM      3  C   UNL     1      21.575 -11.933  21.901  1.00  0.00    -0.025 C 
ATOM      4  C   UNL     1      20.651 -11.563  22.793  1.00  0.00     0.020 C 
BRANCH   4   5
ATOM      5  C   UNL     1      20.904 -10.510  23.789  1.00  0.00     0.064 C 
ATOM      6  O   UNL     1      21.593  -9.507  23.471  1.00  0.00    -0.545 OA
ATOM      7  O   UNL     1      20.393 -10.608  25.079  1.00  0.00    -0.545 OA
ENDBRANCH   4   5
ENDBRANCH   2   3
ENDBRANCH   1   2
BRANCH   1   8
ATOM      8  C   UNL     1      22.472 -14.804  19.537  1.00  0.00     0.000 C 
BRANCH   8   9
ATOM      9  C   UNL     1      23.079 -16.210  19.667  1.00  0.00    -0.000 C 
BRANCH   9  10
ATOM     10  C   UNL     1      23.046 -16.993  18.347  1.00  0.00    -0.003 C 
ATOM     11  C   UNL     1      22.901 -16.051  17.154  1.00  0.00     0.004 C 
ENDBRANCH   9  10
ENDBRANCH   8   9
ENDBRANCH   1   8
TORSDOF 6
ENDMDL
MODEL 3
REMARK VINA RESULT:    -4.770      0.987      1.730
REMARK INTER + INTRA:          -6.720
REMARK INTER:                  -6.466
REMARK INTRA:                  -0.254
REMARK UNBOUND:                -0.276
REMARK SMILES CCCCCCC=CC(=O)[O-]
REMARK SMILES IDX 5 1 6 2 7 3 8 4 9 5 10 6 11 7 4 8 3 9 2 10 1 11
REMARK H PARENT
REMARK Flexibility Score: inf
ROOT
ATOM      1  C   UNL     1      21.287 -13.009  20.914  1.00  0.00     0.004 C 
ENDROOT
BRANCH   1   2
ATOM      2  C   UNL     1      22.720 -13.489  21.181  1.00  0.00     0.027 C 
BRANCH   2   3
ATOM      3  C   UNL     1      22.934 -14.880  20.658  1.00  0.00    -0.025 C 
ATOM      4  C   UNL     1      22.776 -15.171  19.363  1.00  0.00     0.020 C 
BRANCH   4   5
ATOM      5  C   UNL     1      22.996 -16.526  18.834  1.00  0.00     0.064 C 
ATOM      6  O   UNL     1      23.205 -17.477  19.630  1.00  0.00    -0.545 OA
ATOM      7  O   UNL     1      22.979 -16.771  17.465  1.00  0.00    -0.545 OA
ENDBRANCH   4   5
ENDBRANCH   2   3
ENDBRANCH   1   2
BRANCH   1   8
ATOM      8  C   UNL     1      20.799 -12.086  22.040  1.00  0.00     0.000 C 
BRANCH   8   9
ATOM      9  C   UNL     1      21.901 -11.145  22.554  1.00  0.00    -0.000 C 
BRANCH   9  10
ATOM     10  C   UNL     1      21.359 -10.058  23.493  1.00  0.00    -0.003 C 
ATOM     11  C   UNL     1      20.532 -10.671  24.622  1.00  0.00     0.004 C 
ENDBRANCH   9  10
ENDBRANCH   8   9
ENDBRANCH   1   8
TORSDOF 6
ENDMDL
MODEL 4
REMARK VINA RESULT:    -4.731      1.555      2.899
REMARK INTER + INTRA:          -6.667
REMARK INTER:                  -6.443
REMARK INTRA:                  -0.223
REMARK UNBOUND:                -0.276
REMARK SMILES CCCCCCC=CC(=O)[O-]
REMARK SMILES IDX 5 1 6 2 7 3 8 4 9 5 10 6 11 7 4 8 3 9 2 10 1 11
REMARK H PARENT
REMARK Flexibility Score: inf
ROOT
ATOM      1  C   UNL     1      20.740 -10.820  23.553  1.00  0.00     0.004 C 
ENDROOT
BRANCH   1   2
ATOM      2  C   UNL     1      21.887 -10.478  22.593  1.00  0.00     0.027 C 
BRANCH   2   3
ATOM      3  C   UNL     1      22.426 -11.712  21.929  1.00  0.00    -0.025 C 
ATOM      4  C   UNL     1      21.615 -12.618  21.374  1.00  0.00     0.020 C 
BRANCH   4   5
ATOM      5  C   UNL     1      22.131 -13.824  20.707  1.00  0.00     0.064 C 
ATOM      6  O   UNL     1      23.077 -14.466  21.231  1.00  0.00    -0.545 OA
ATOM      7  O   UNL     1      21.587 -14.265  19.505  1.00  0.00    -0.545 OA
ENDBRANCH   4   5
ENDBRANCH   2   3
ENDBRANCH   1   2
BRANCH   1   8
ATOM      8  C   UNL     1      20.746  -9.884  24.770  1.00  0.00     0.000 C 
BRANCH   8   9
ATOM      9  C   UNL     1      20.808  -8.399  24.375  1.00  0.00    -0.000 C 
BRANCH   9  10
ATOM     10  C   UNL     1      20.200  -7.478  25.442  1.00  0.00    -0.003 C 
ATOM     11  C   UNL     1      21.110  -7.377  26.664  1.00  0.00     0.004 C 
ENDBRANCH   9  10
ENDBRANCH   8   9
ENDBRANCH   1   8
TORSDOF 6
ENDMDL
MODEL 5
REMARK VINA RESULT:    -4.726      4.995      7.150
REMARK INTER + INTRA:          -6.660
REMARK INTER:                  -6.356
REMARK INTRA:                  -0.303
REMARK UNBOUND:                -0.276
REMARK SMILES CCCCCCC=CC(=O)[O-]
REMARK SMILES IDX 5 1 6 2 7 3 8 4 9 5 10 6 11 7 4 8 3 9 2 10 1 11
REMARK H PARENT
REMARK Flexibility Score: inf
ROOT
ATOM      1  C   UNL     1      21.988 -10.723  22.646  1.00  0.00     0.004 C 
ENDROOT
BRANCH   1   2
ATOM      2  C   UNL     1      20.818 -11.179  23.527  1.00  0.00     0.027 C 
BRANCH   2   3
ATOM      3  C   UNL     1      20.486 -10.147  24.566  1.00  0.00    -0.025 C 
ATOM      4  C   UNL     1      21.057  -8.939  24.559  1.00  0.00     0.020 C 
BRANCH   4   5
ATOM      5  C   UNL     1      20.731  -7.914  25.562  1.00  0.00     0.064 C 
ATOM      6  O   UNL     1      19.565  -7.443  25.612  1.00  0.00    -0.545 OA
ATOM      7  O   UNL     1      21.692  -7.456  26.457  1.00  0.00    -0.545 OA
ENDBRANCH   4   5
ENDBRANCH   2   3
ENDBRANCH   1   2
BRANCH   1   8
ATOM      8  C   UNL     1      22.423 -11.843  21.689  1.00  0.00     0.000 C 
BRANCH   8   9
ATOM      9  C   UNL     1      21.254 -12.744  21.261  1.00  0.00    -0.000 C 
BRANCH   9  10
ATOM     10  C   UNL     1      21.688 -13.858  20.298  1.00  0.00    -0.003 C 
ATOM     11  C   UNL     1      22.936 -14.572  20.812  1.00  0.00     0.004 C 
ENDBRANCH   9  10
ENDBRANCH   8   9
ENDBRANCH   1   8
TORSDOF 6
ENDMDL
MODEL 6
REMARK VINA RESULT:    -4.721      3.165      7.045
REMARK INTER + INTRA:          -6.654
REMARK INTER:                  -6.365
REMARK INTRA:                  -0.289
REMARK UNBOUND:                -0.276
REMARK SMILES CCCCCCC=CC(=O)[O-]
REMARK SMILES IDX 5 1 6 2 7 3 8 4 9 5 10 6 11 7 4 8 3 9 2 10 1 11
REMARK H PARENT
REMARK Flexibility Score: inf
ROOT
ATOM      1  C   UNL     1      23.106 -16.501  20.188  1.00  0.00     0.004 C 
ENDROOT
BRANCH   1   2
ATOM      2  C   UNL     1      22.755 -15.157  19.537  1.00  0.00     0.027 C 
BRANCH   2   3
ATOM      3  C   UNL     1      22.539 -14.091  20.573  1.00  0.00    -0.025 C 
ATOM      4  C   UNL     1      21.408 -13.380  20.618  1.00  0.00     0.020 C 
BRANCH   4   5
ATOM      5  C   UNL     1      21.177 -12.343  21.636  1.00  0.00     0.064 C 
ATOM      6  O   UNL     1      22.097 -11.531  21.916  1.00  0.00    -0.545 OA
ATOM      7  O   UNL     1      19.956 -12.246  22.294  1.00  0.00    -0.545 OA
ENDBRANCH   4   5
ENDBRANCH   2   3
ENDBRANCH   1   2
BRANCH   1   8
ATOM      8  C   UNL     1      23.116 -17.629  19.146  1.00  0.00     0.000 C 
BRANCH   8   9
ATOM      9  C   UNL     1      23.104 -17.101  17.702  1.00  0.00    -0.000 C 
BRANCH   9  10
ATOM     10  C   UNL     1      22.741 -18.187  16.679  1.00  0.00    -0.003 C 
ATOM     11  C   UNL     1      22.133 -19.407  17.366  1.00  0.00     0.004 C 
ENDBRANCH   9  10
ENDBRANCH   8   9
ENDBRANCH   1   8
TORSDOF 6
ENDMDL
MODEL 7
REMARK VINA RESULT:    -4.686      4.078      6.669
REMARK INTER + INTRA:          -6.606
REMARK INTER:                  -6.372
REMARK INTRA:                  -0.234
REMARK UNBOUND:                -0.276
REMARK SMILES CCCCCCC=CC(=O)[O-]
REMARK SMILES IDX 5 1 6 2 7 3 8 4 9 5 10 6 11 7 4 8 3 9 2 10 1 11
REMARK H PARENT
REMARK Flexibility Score: inf
ROOT
ATOM      1  C   UNL     1      21.131 -12.673  21.224  1.00  0.00     0.004 C 
ENDROOT
BRANCH   1   2
ATOM      2  C   UNL     1      22.469 -12.079  21.684  1.00  0.00     0.027 C 
BRANCH   2   3
ATOM      3  C   UNL     1      22.267 -10.774  22.398  1.00  0.00    -0.025 C 
ATOM      4  C   UNL     1      21.312 -10.623  23.321  1.00  0.00     0.020 C 
BRANCH   4   5
ATOM      5  C   UNL     1      21.113  -9.354  24.039  1.00  0.00     0.064 C 
ATOM      6  O   UNL     1      20.713  -9.372  25.232  1.00  0.00    -0.545 OA
ATOM      7  O   UNL     1      21.359  -8.134  23.418  1.00  0.00    -0.545 OA
ENDBRANCH   4   5
ENDBRANCH   2   3
ENDBRANCH   1   2
BRANCH   1   8
ATOM      8  C   UNL     1      21.349 -13.745  20.145  1.00  0.00     0.000 C 
BRANCH   8   9
ATOM      9  C   UNL     1      22.629 -14.564  20.374  1.00  0.00    -0.000 C 
BRANCH   9  10
ATOM     10  C   UNL     1      22.869 -15.605  19.272  1.00  0.00    -0.003 C 
ATOM     11  C   UNL     1      23.236 -16.962  19.869  1.00  0.00     0.004 C 
ENDBRANCH   9  10
ENDBRANCH   8   9
ENDBRANCH   1   8
TORSDOF 6
ENDMDL
MODEL 8
REMARK VINA RESULT:    -4.513      2.221      3.739
REMARK INTER + INTRA:          -6.373
REMARK INTER:                  -6.082
REMARK INTRA:                  -0.291
REMARK UNBOUND:                -0.276
REMARK SMILES CCCCCCC=CC(=O)[O-]
REMARK SMILES IDX 5 1 6 2 7 3 8 4 9 5 10 6 11 7 4 8 3 9 2 10 1 11
REMARK H PARENT
REMARK Flexibility Score: inf
ROOT
ATOM      1  C   UNL     1      20.718  -9.778  24.662  1.00  0.00     0.004 C 
ENDROOT
BRANCH   1   2
ATOM      2  C   UNL     1      21.486  -9.874  23.337  1.00  0.00     0.027 C 
BRANCH   2   3
ATOM      3  C   UNL     1      21.293 -11.216  22.692  1.00  0.00    -0.025 C 
ATOM      4  C   UNL     1      22.197 -11.721  21.847  1.00  0.00     0.020 C 
BRANCH   4   5
ATOM      5  C   UNL     1      22.028 -13.041  21.219  1.00  0.00     0.064 C 
ATOM      6  O   UNL     1      20.961 -13.306  20.607  1.00  0.00    -0.545 OA
ATOM      7  O   UNL     1      23.031 -14.002  21.293  1.00  0.00    -0.545 OA
ENDBRANCH   4   5
ENDBRANCH   2   3
ENDBRANCH   1   2
BRANCH   1   8
ATOM      8  C   UNL     1      20.366  -8.319  24.989  1.00  0.00     0.000 C 
BRANCH   8   9
ATOM      9  C   UNL     1      21.511  -7.347  24.661  1.00  0.00    -0.000 C 
BRANCH   9  10
ATOM     10  C   UNL     1      22.425  -7.083  25.865  1.00  0.00    -0.003 C 
ATOM     11  C   UNL     1      21.613  -6.936  27.149  1.00  0.00     0.004 C 
ENDBRANCH   9  10
ENDBRANCH   8   9
ENDBRANCH   1   8
TORSDOF 6
ENDMDL
MODEL 9
REMARK VINA RESULT:    -4.484      2.251      3.714
REMARK INTER + INTRA:          -6.333
REMARK INTER:                  -5.957
REMARK INTRA:                  -0.377
REMARK UNBOUND:                -0.276
REMARK SMILES CCCCCCC=CC(=O)[O-]
REMARK SMILES IDX 5 1 6 2 7 3 8 4 9 5 10 6 11 7 4 8 3 9 2 10 1 11
REMARK H PARENT
REMARK Flexibility Score: inf
ROOT
ATOM      1  C   UNL     1      21.680  -9.106  23.282  1.00  0.00     0.004 C 
ENDROOT
BRANCH   1   2
ATOM      2  C   UNL     1      20.754 -10.213  23.801  1.00  0.00     0.027 C 
BRANCH   2   3
ATOM      3  C   UNL     1      20.905 -11.471  22.996  1.00  0.00    -0.025 C 
ATOM      4  C   UNL     1      21.814 -11.571  22.021  1.00  0.00     0.020 C 
BRANCH   4   5
ATOM      5  C   UNL     1      21.983 -12.803  21.233  1.00  0.00     0.064 C 
ATOM      6  O   UNL     1      23.098 -13.385  21.224  1.00  0.00    -0.545 OA
ATOM      7  O   UNL     1      20.928 -13.333  20.498  1.00  0.00    -0.545 OA
ENDBRANCH   4   5
ENDBRANCH   2   3
ENDBRANCH   1   2
BRANCH   1   8
ATOM      8  C   UNL     1      21.785  -7.958  24.296  1.00  0.00     0.000 C 
BRANCH   8   9
ATOM      9  C   UNL     1      20.750  -8.070  25.428  1.00  0.00    -0.000 C 
BRANCH   9  10
ATOM     10  C   UNL     1      19.689  -6.963  25.369  1.00  0.00    -0.003 C 
ATOM     11  C   UNL     1      19.966  -5.996  24.221  1.00  0.00     0.004 C 
ENDBRANCH   9  10
ENDBRANCH   8   9
ENDBRANCH   1   8
TORSDOF 6
ENDMDL
