MODEL 1
REMARK VINA RESULT:    -5.258      0.000      0.000
REMARK INTER + INTRA:          -7.919
REMARK INTER:                  -7.255
REMARK INTRA:                  -0.664
REMARK UNBOUND:                -0.664
REMARK SMILES CCCCc1cccc(O)c1CCCC
REMARK SMILES IDX 5 1 11 2 9 3 8 4 7 5 6 6 4 7 3 8 2 9 1 10 12 11 13 12 14 13
REMARK SMILES IDX 15 14 10 15
REMARK H PARENT 10 16
REMARK Flexibility Score: inf
ROOT
ATOM      1  C   UNL     1      21.138  22.610  20.087  1.00  0.00    -0.041 A 
ATOM      2  C   UNL     1      19.850  23.224  20.057  1.00  0.00    -0.003 A 
ATOM      3  C   UNL     1      19.468  23.958  18.909  1.00  0.00     0.119 A 
ATOM      4  C   UNL     1      20.324  24.043  17.805  1.00  0.00     0.046 A 
ATOM      5  C   UNL     1      21.560  23.406  17.823  1.00  0.00     0.004 A 
ATOM      6  C   UNL     1      21.965  22.697  18.952  1.00  0.00     0.004 A 
ENDROOT
BRANCH   1   7
ATOM      7  C   UNL     1      21.679  21.864  21.291  1.00  0.00     0.036 C 
BRANCH   7   8
ATOM      8  C   UNL     1      22.801  20.895  20.900  1.00  0.00     0.004 C 
BRANCH   8   9
ATOM      9  C   UNL     1      22.627  19.541  21.595  1.00  0.00    -0.003 C 
ATOM     10  C   UNL     1      23.741  18.574  21.204  1.00  0.00     0.004 C 
ENDBRANCH   8   9
ENDBRANCH   7   8
ENDBRANCH   1   7
BRANCH   2  11
ATOM     11  C   UNL     1      18.849  23.089  21.191  1.00  0.00     0.040 C 
BRANCH  11  12
ATOM     12  C   UNL     1      17.929  21.876  20.977  1.00  0.00     0.005 C 
BRANCH  12  13
ATOM     13  C   UNL     1      17.153  21.540  22.256  1.00  0.00    -0.003 C 
ATOM     14  C   UNL     1      17.575  22.444  23.410  1.00  0.00     0.004 C 
ENDBRANCH  12  13
ENDBRANCH  11  12
ENDBRANCH   2  11
BRANCH   3  15
ATOM     15  O   UNL     1      18.233  24.607  18.868  1.00  0.00    -0.508 OA
ATOM     16  H   UNL     1      17.754  24.897  19.712  1.00  0.00     0.293 HD
ENDBRANCH   3  15
TORSDOF 7
ENDMDL
MODEL 2
REMARK VINA RESULT:    -5.031      1.902      4.178
REMARK INTER + INTRA:          -7.606
REMARK INTER:                  -6.553
REMARK INTRA:                  -1.053
REMARK UNBOUND:                -0.664
REMARK SMILES CCCCc1cccc(O)c1CCCC
REMARK SMILES IDX 5 1 11 2 9 3 8 4 7 5 6 6 4 7 3 8 2 9 1 10 12 11 13 12 14 13
REMARK SMILES IDX 15 14 10 15
REMARK H PARENT 10 16
REMARK Flexibility Score: inf
ROOT
ATOM      1  C   UNL     1      19.865  22.847  20.411  1.00  0.00    -0.041 A 
ATOM      2  C   UNL     1      20.223  23.021  19.040  1.00  0.00    -0.003 A 
ATOM      3  C   UNL     1      21.567  22.811  18.651  1.00  0.00     0.119 A 
ATOM      4  C   UNL     1      22.519  22.397  19.589  1.00  0.00     0.046 A 
ATOM      5  C   UNL     1      22.156  22.186  20.915  1.00  0.00     0.004 A 
ATOM      6  C   UNL     1      20.843  22.410  21.324  1.00  0.00     0.004 A 
ENDROOT
BRANCH   1   7
ATOM      7  C   UNL     1      18.474  23.117  20.951  1.00  0.00     0.036 C 
BRANCH   7   8
ATOM      8  C   UNL     1      18.364  22.758  22.437  1.00  0.00     0.004 C 
BRANCH   8   9
ATOM      9  C   UNL     1      17.080  21.971  22.721  1.00  0.00    -0.003 C 
ATOM     10  C   UNL     1      16.903  20.829  21.726  1.00  0.00     0.004 C 
ENDBRANCH   8   9
ENDBRANCH   7   8
ENDBRANCH   1   7
BRANCH   2  11
ATOM     11  C   UNL     1      19.211  23.384  17.966  1.00  0.00     0.040 C 
BRANCH  11  12
ATOM     12  C   UNL     1      18.804  22.148  17.147  1.00  0.00     0.005 C 
BRANCH  12  13
ATOM     13  C   UNL     1      17.786  21.292  17.910  1.00  0.00    -0.003 C 
ATOM     14  C   UNL     1      18.409  19.979  18.375  1.00  0.00     0.004 C 
ENDBRANCH  12  13
ENDBRANCH  11  12
ENDBRANCH   2  11
BRANCH   3  15
ATOM     15  O   UNL     1      21.956  23.016  17.327  1.00  0.00    -0.508 OA
ATOM     16  H   UNL     1      22.288  23.916  17.001  1.00  0.00     0.293 HD
ENDBRANCH   3  15
TORSDOF 7
ENDMDL
MODEL 3
REMARK VINA RESULT:    -5.004      1.714      4.872
REMARK INTER + INTRA:          -7.570
REMARK INTER:                  -6.399
REMARK INTRA:                  -1.171
REMARK UNBOUND:                -0.664
REMARK SMILES CCCCc1cccc(O)c1CCCC
REMARK SMILES IDX 5 1 11 2 9 3 8 4 7 5 6 6 4 7 3 8 2 9 1 10 12 11 13 12 14 13
REMARK SMILES IDX 15 14 10 15
REMARK H PARENT 10 16
REMARK Flexibility Score: inf
ROOT
ATOM      1  C   UNL     1      18.676  21.826  19.886  1.00  0.00    -0.041 A 
ATOM      2  C   UNL     1      18.949  22.700  20.982  1.00  0.00    -0.003 A 
ATOM      3  C   UNL     1      18.154  22.602  22.149  1.00  0.00     0.119 A 
ATOM      4  C   UNL     1      17.147  21.636  22.241  1.00  0.00     0.046 A 
ATOM      5  C   UNL     1      16.914  20.758  21.187  1.00  0.00     0.004 A 
ATOM      6  C   UNL     1      17.670  20.852  20.020  1.00  0.00     0.004 A 
ENDROOT
BRANCH   1   7
ATOM      7  C   UNL     1      19.414  21.892  18.563  1.00  0.00     0.036 C 
BRANCH   7   8
ATOM      8  C   UNL     1      18.761  22.890  17.600  1.00  0.00     0.004 C 
BRANCH   8   9
ATOM      9  C   UNL     1      19.669  24.101  17.360  1.00  0.00    -0.003 C 
ATOM     10  C   UNL     1      21.140  23.700  17.385  1.00  0.00     0.004 C 
ENDBRANCH   8   9
ENDBRANCH   7   8
ENDBRANCH   1   7
BRANCH   2  11
ATOM     11  C   UNL     1      20.087  23.706  20.967  1.00  0.00     0.040 C 
BRANCH  11  12
ATOM     12  C   UNL     1      21.336  23.141  21.662  1.00  0.00     0.005 C 
BRANCH  12  13
ATOM     13  C   UNL     1      22.221  22.377  20.670  1.00  0.00    -0.003 C 
ATOM     14  C   UNL     1      22.450  20.940  21.130  1.00  0.00     0.004 C 
ENDBRANCH  12  13
ENDBRANCH  11  12
ENDBRANCH   2  11
BRANCH   3  15
ATOM     15  O   UNL     1      18.368  23.472  23.219  1.00  0.00    -0.508 OA
ATOM     16  H   UNL     1      19.212  24.027  23.296  1.00  0.00     0.293 HD
ENDBRANCH   3  15
TORSDOF 7
ENDMDL
MODEL 4
REMARK VINA RESULT:    -4.989      1.529      4.249
REMARK INTER + INTRA:          -7.548
REMARK INTER:                  -6.617
REMARK INTRA:                  -0.931
REMARK UNBOUND:                -0.664
REMARK SMILES CCCCc1cccc(O)c1CCCC
REMARK SMILES IDX 5 1 11 2 9 3 8 4 7 5 6 6 4 7 3 8 2 9 1 10 12 11 13 12 14 13
REMARK SMILES IDX 15 14 10 15
REMARK H PARENT 10 16
REMARK Flexibility Score: inf
ROOT
ATOM      1  C   UNL     1      19.902  23.556  20.430  1.00  0.00    -0.041 A 
ATOM      2  C   UNL     1      21.073  22.910  19.930  1.00  0.00    -0.003 A 
ATOM      3  C   UNL     1      21.320  22.925  18.537  1.00  0.00     0.119 A 
ATOM      4  C   UNL     1      20.452  23.598  17.670  1.00  0.00     0.046 A 
ATOM      5  C   UNL     1      19.337  24.263  18.168  1.00  0.00     0.004 A 
ATOM      6  C   UNL     1      19.062  24.242  19.534  1.00  0.00     0.004 A 
ENDROOT
BRANCH   1   7
ATOM      7  C   UNL     1      19.500  23.539  21.893  1.00  0.00     0.036 C 
BRANCH   7   8
ATOM      8  C   UNL     1      18.155  22.835  22.102  1.00  0.00     0.004 C 
BRANCH   8   9
ATOM      9  C   UNL     1      18.185  21.410  21.539  1.00  0.00    -0.003 C 
ATOM     10  C   UNL     1      17.101  21.211  20.486  1.00  0.00     0.004 C 
ENDBRANCH   8   9
ENDBRANCH   7   8
ENDBRANCH   1   7
BRANCH   2  11
ATOM     11  C   UNL     1      22.093  22.241  20.836  1.00  0.00     0.040 C 
BRANCH  11  12
ATOM     12  C   UNL     1      21.763  20.753  21.036  1.00  0.00     0.005 C 
BRANCH  12  13
ATOM     13  C   UNL     1      23.012  19.960  21.439  1.00  0.00    -0.003 C 
ATOM     14  C   UNL     1      22.746  18.458  21.407  1.00  0.00     0.004 C 
ENDBRANCH  12  13
ENDBRANCH  11  12
ENDBRANCH   2  11
BRANCH   3  15
ATOM     15  O   UNL     1      22.433  22.265  18.013  1.00  0.00    -0.508 OA
ATOM     16  H   UNL     1      23.308  22.210  18.520  1.00  0.00     0.293 HD
ENDBRANCH   3  15
TORSDOF 7
ENDMDL
MODEL 5
REMARK VINA RESULT:    -4.862      2.511      4.992
REMARK INTER + INTRA:          -7.373
REMARK INTER:                  -6.343
REMARK INTRA:                  -1.030
REMARK UNBOUND:                -0.664
REMARK SMILES CCCCc1cccc(O)c1CCCC
REMARK SMILES IDX 5 1 11 2 9 3 8 4 7 5 6 6 4 7 3 8 2 9 1 10 12 11 13 12 14 13
REMARK SMILES IDX 15 14 10 15
REMARK H PARENT 10 16
REMARK Flexibility Score: inf
ROOT
ATOM      1  C   UNL     1      19.037  21.960  20.117  1.00  0.00    -0.041 A 
ATOM      2  C   UNL     1      19.932  22.973  20.577  1.00  0.00    -0.003 A 
ATOM      3  C   UNL     1      19.676  23.599  21.820  1.00  0.00     0.119 A 
ATOM      4  C   UNL     1      18.588  23.199  22.604  1.00  0.00     0.046 A 
ATOM      5  C   UNL     1      17.745  22.181  22.171  1.00  0.00     0.004 A 
ATOM      6  C   UNL     1      17.966  21.567  20.939  1.00  0.00     0.004 A 
ENDROOT
BRANCH   1   7
ATOM      7  C   UNL     1      19.173  21.276  18.769  1.00  0.00     0.036 C 
BRANCH   7   8
ATOM      8  C   UNL     1      17.946  21.523  17.884  1.00  0.00     0.004 C 
BRANCH   8   9
ATOM      9  C   UNL     1      17.458  20.220  17.243  1.00  0.00    -0.003 C 
ATOM     10  C   UNL     1      17.953  19.004  18.020  1.00  0.00     0.004 C 
ENDBRANCH   8   9
ENDBRANCH   7   8
ENDBRANCH   1   7
BRANCH   2  11
ATOM     11  C   UNL     1      21.176  23.383  19.806  1.00  0.00     0.040 C 
BRANCH  11  12
ATOM     12  C   UNL     1      20.922  24.656  18.983  1.00  0.00     0.005 C 
BRANCH  12  13
ATOM     13  C   UNL     1      20.895  24.345  17.482  1.00  0.00    -0.003 C 
ATOM     14  C   UNL     1      19.533  24.669  16.876  1.00  0.00     0.004 C 
ENDBRANCH  12  13
ENDBRANCH  11  12
ENDBRANCH   2  11
BRANCH   3  15
ATOM     15  O   UNL     1      20.507  24.623  22.276  1.00  0.00    -0.508 OA
ATOM     16  H   UNL     1      21.412  24.802  21.858  1.00  0.00     0.293 HD
ENDBRANCH   3  15
TORSDOF 7
ENDMDL
MODEL 6
REMARK VINA RESULT:    -4.781      1.620      4.285
REMARK INTER + INTRA:          -7.261
REMARK INTER:                  -6.056
REMARK INTRA:                  -1.206
REMARK UNBOUND:                -0.664
REMARK SMILES CCCCc1cccc(O)c1CCCC
REMARK SMILES IDX 5 1 11 2 9 3 8 4 7 5 6 6 4 7 3 8 2 9 1 10 12 11 13 12 14 13
REMARK SMILES IDX 15 14 10 15
REMARK H PARENT 10 16
REMARK Flexibility Score: inf
ROOT
ATOM      1  C   UNL     1      19.105  22.909  21.208  1.00  0.00    -0.041 A 
ATOM      2  C   UNL     1      18.664  22.165  20.071  1.00  0.00    -0.003 A 
ATOM      3  C   UNL     1      17.555  21.298  20.209  1.00  0.00     0.119 A 
ATOM      4  C   UNL     1      16.876  21.205  21.429  1.00  0.00     0.046 A 
ATOM      5  C   UNL     1      17.282  21.964  22.521  1.00  0.00     0.004 A 
ATOM      6  C   UNL     1      18.387  22.807  22.413  1.00  0.00     0.004 A 
ENDROOT
BRANCH   1   7
ATOM      7  C   UNL     1      20.325  23.809  21.193  1.00  0.00     0.036 C 
BRANCH   7   8
ATOM      8  C   UNL     1      21.548  23.115  21.803  1.00  0.00     0.004 C 
BRANCH   8   9
ATOM      9  C   UNL     1      22.299  22.294  20.749  1.00  0.00    -0.003 C 
ATOM     10  C   UNL     1      22.485  20.850  21.205  1.00  0.00     0.004 C 
ENDBRANCH   8   9
ENDBRANCH   7   8
ENDBRANCH   1   7
BRANCH   2  11
ATOM     11  C   UNL     1      19.311  22.296  18.703  1.00  0.00     0.040 C 
BRANCH  11  12
ATOM     12  C   UNL     1      18.813  23.554  17.973  1.00  0.00     0.005 C 
BRANCH  12  13
ATOM     13  C   UNL     1      19.988  24.420  17.504  1.00  0.00    -0.003 C 
ATOM     14  C   UNL     1      21.294  23.631  17.518  1.00  0.00     0.004 C 
ENDBRANCH  12  13
ENDBRANCH  11  12
ENDBRANCH   2  11
BRANCH   3  15
ATOM     15  O   UNL     1      17.128  20.525  19.129  1.00  0.00    -0.508 OA
ATOM     16  H   UNL     1      16.699  19.617  19.259  1.00  0.00     0.293 HD
ENDBRANCH   3  15
TORSDOF 7
ENDMDL
MODEL 7
REMARK VINA RESULT:    -4.735      1.486      3.908
REMARK INTER + INTRA:          -7.199
REMARK INTER:                  -6.359
REMARK INTRA:                  -0.840
REMARK UNBOUND:                -0.664
REMARK SMILES CCCCc1cccc(O)c1CCCC
REMARK SMILES IDX 5 1 11 2 9 3 8 4 7 5 6 6 4 7 3 8 2 9 1 10 12 11 13 12 14 13
REMARK SMILES IDX 15 14 10 15
REMARK H PARENT 10 16
REMARK Flexibility Score: inf
ROOT
ATOM      1  C   UNL     1      19.420  22.135  18.964  1.00  0.00    -0.041 A 
ATOM      2  C   UNL     1      20.014  23.241  19.644  1.00  0.00    -0.003 A 
ATOM      3  C   UNL     1      20.322  24.411  18.910  1.00  0.00     0.119 A 
ATOM      4  C   UNL     1      20.008  24.496  17.549  1.00  0.00     0.046 A 
ATOM      5  C   UNL     1      19.389  23.432  16.901  1.00  0.00     0.004 A 
ATOM      6  C   UNL     1      19.098  22.262  17.600  1.00  0.00     0.004 A 
ENDROOT
BRANCH   1   7
ATOM      7  C   UNL     1      19.116  20.809  19.634  1.00  0.00     0.036 C 
BRANCH   7   8
ATOM      8  C   UNL     1      17.669  20.747  20.136  1.00  0.00     0.004 C 
BRANCH   8   9
ATOM      9  C   UNL     1      17.621  20.531  21.652  1.00  0.00    -0.003 C 
ATOM     10  C   UNL     1      17.210  21.808  22.378  1.00  0.00     0.004 C 
ENDBRANCH   8   9
ENDBRANCH   7   8
ENDBRANCH   1   7
BRANCH   2  11
ATOM     11  C   UNL     1      20.294  23.233  21.137  1.00  0.00     0.040 C 
BRANCH  11  12
ATOM     12  C   UNL     1      21.792  23.030  21.418  1.00  0.00     0.005 C 
BRANCH  12  13
ATOM     13  C   UNL     1      22.370  21.910  20.546  1.00  0.00    -0.003 C 
ATOM     14  C   UNL     1      22.503  20.610  21.335  1.00  0.00     0.004 C 
ENDBRANCH  12  13
ENDBRANCH  11  12
ENDBRANCH   2  11
BRANCH   3  15
ATOM     15  O   UNL     1      20.944  25.491  19.537  1.00  0.00    -0.508 OA
ATOM     16  H   UNL     1      21.599  25.362  20.298  1.00  0.00     0.293 HD
ENDBRANCH   3  15
TORSDOF 7
ENDMDL
MODEL 8
REMARK VINA RESULT:    -4.553      2.413      3.415
REMARK INTER + INTRA:          -6.946
REMARK INTER:                  -5.726
REMARK INTRA:                  -1.220
REMARK UNBOUND:                -0.664
REMARK SMILES CCCCc1cccc(O)c1CCCC
REMARK SMILES IDX 5 1 11 2 9 3 8 4 7 5 6 6 4 7 3 8 2 9 1 10 12 11 13 12 14 13
REMARK SMILES IDX 15 14 10 15
REMARK H PARENT 10 16
REMARK Flexibility Score: inf
ROOT
ATOM      1  C   UNL     1      19.004  22.395  18.312  1.00  0.00    -0.041 A 
ATOM      2  C   UNL     1      19.925  22.516  19.397  1.00  0.00    -0.003 A 
ATOM      3  C   UNL     1      21.151  23.189  19.183  1.00  0.00     0.119 A 
ATOM      4  C   UNL     1      21.436  23.764  17.939  1.00  0.00     0.046 A 
ATOM      5  C   UNL     1      20.516  23.681  16.898  1.00  0.00     0.004 A 
ATOM      6  C   UNL     1      19.313  23.003  17.081  1.00  0.00     0.004 A 
ENDROOT
BRANCH   1   7
ATOM      7  C   UNL     1      17.697  21.633  18.408  1.00  0.00     0.036 C 
BRANCH   7   8
ATOM      8  C   UNL     1      17.833  20.206  17.866  1.00  0.00     0.004 C 
BRANCH   8   9
ATOM      9  C   UNL     1      17.471  19.172  18.938  1.00  0.00    -0.003 C 
ATOM     10  C   UNL     1      18.722  18.549  19.548  1.00  0.00     0.004 C 
ENDBRANCH   8   9
ENDBRANCH   7   8
ENDBRANCH   1   7
BRANCH   2  11
ATOM     11  C   UNL     1      19.627  21.988  20.790  1.00  0.00     0.040 C 
BRANCH  11  12
ATOM     12  C   UNL     1      18.978  23.072  21.666  1.00  0.00     0.005 C 
BRANCH  12  13
ATOM     13  C   UNL     1      17.978  22.457  22.653  1.00  0.00    -0.003 C 
ATOM     14  C   UNL     1      17.346  21.191  22.081  1.00  0.00     0.004 C 
ENDBRANCH  12  13
ENDBRANCH  11  12
ENDBRANCH   2  11
BRANCH   3  15
ATOM     15  O   UNL     1      22.090  23.285  20.211  1.00  0.00    -0.508 OA
ATOM     16  H   UNL     1      22.166  24.113  20.789  1.00  0.00     0.293 HD
ENDBRANCH   3  15
TORSDOF 7
ENDMDL
MODEL 9
REMARK VINA RESULT:    -4.482      2.258      4.534
REMARK INTER + INTRA:          -6.849
REMARK INTER:                  -5.640
REMARK INTRA:                  -1.209
REMARK UNBOUND:                -0.664
REMARK SMILES CCCCc1cccc(O)c1CCCC
REMARK SMILES IDX 5 1 11 2 9 3 8 4 7 5 6 6 4 7 3 8 2 9 1 10 12 11 13 12 14 13
REMARK SMILES IDX 15 14 10 15
REMARK H PARENT 10 16
REMARK Flexibility Score: inf
ROOT
ATOM      1  C   UNL     1      20.263  22.694  21.148  1.00  0.00    -0.041 A 
ATOM      2  C   UNL     1      19.699  21.410  20.882  1.00  0.00    -0.003 A 
ATOM      3  C   UNL     1      20.553  20.282  20.844  1.00  0.00     0.119 A 
ATOM      4  C   UNL     1      21.921  20.420  21.106  1.00  0.00     0.046 A 
ATOM      5  C   UNL     1      22.457  21.667  21.407  1.00  0.00     0.004 A 
ATOM      6  C   UNL     1      21.638  22.794  21.427  1.00  0.00     0.004 A 
ENDROOT
BRANCH   1   7
ATOM      7  C   UNL     1      19.454  23.978  21.139  1.00  0.00     0.036 C 
BRANCH   7   8
ATOM      8  C   UNL     1      20.063  25.023  20.197  1.00  0.00     0.004 C 
BRANCH   8   9
ATOM      9  C   UNL     1      19.766  24.684  18.732  1.00  0.00    -0.003 C 
ATOM     10  C   UNL     1      21.037  24.282  17.991  1.00  0.00     0.004 C 
ENDBRANCH   8   9
ENDBRANCH   7   8
ENDBRANCH   1   7
BRANCH   2  11
ATOM     11  C   UNL     1      18.209  21.192  20.678  1.00  0.00     0.040 C 
BRANCH  11  12
ATOM     12  C   UNL     1      17.755  21.720  19.307  1.00  0.00     0.005 C 
BRANCH  12  13
ATOM     13  C   UNL     1      18.449  20.964  18.168  1.00  0.00    -0.003 C 
ATOM     14  C   UNL     1      18.430  21.776  16.876  1.00  0.00     0.004 C 
ENDBRANCH  12  13
ENDBRANCH  11  12
ENDBRANCH   2  11
BRANCH   3  15
ATOM     15  O   UNL     1      20.039  19.020  20.543  1.00  0.00    -0.508 OA
ATOM     16  H   UNL     1      20.553  18.355  19.978  1.00  0.00     0.293 HD
ENDBRANCH   3  15
TORSDOF 7
ENDMDL
