MODEL 1
REMARK VINA RESULT:    -3.955      0.000      0.000
REMARK INTER + INTRA:          -4.285
REMARK INTER:                  -4.186
REMARK INTRA:                  -0.099
REMARK UNBOUND:                -0.099
REMARK SMILES C=C(C)[C@@H]1CC=C(C)C(=O)C1
REMARK SMILES IDX 8 1 7 2 6 3 5 4 4 5 11 6 9 7 10 8 2 9 1 10 3 11
REMARK H PARENT
REMARK Flexibility Score: inf
ROOT
ATOM      1  C   UNL     1     149.346 159.623 196.747  1.00  0.00     0.048 C 
ATOM      2  C   UNL     1     150.244 159.844 197.932  1.00  0.00    -0.012 C 
ATOM      3  C   UNL     1     149.718 160.213 199.112  1.00  0.00    -0.019 C 
ATOM      4  C   UNL     1     150.570 160.431 200.335  1.00  0.00     0.036 C 
ATOM      5  C   UNL     1     151.963 160.966 199.951  1.00  0.00     0.025 C 
ATOM      6  C   UNL     1     152.635 160.029 198.930  1.00  0.00     0.089 C 
ATOM      7  C   UNL     1     151.718 159.774 197.765  1.00  0.00     0.158 C 
ATOM      8  O   UNL     1     152.216 159.462 196.650  1.00  0.00    -0.295 OA
ENDROOT
BRANCH   5   9
ATOM      9  C   UNL     1     152.838 161.186 201.175  1.00  0.00    -0.077 C 
ATOM     10  C   UNL     1     154.091 160.702 201.238  1.00  0.00     0.008 C 
ATOM     11  C   UNL     1     152.273 161.965 202.335  1.00  0.00     0.039 C 
ENDBRANCH   5   9
TORSDOF 1
ENDMDL
MODEL 2
REMARK VINA RESULT:    -3.918      2.514      3.593
REMARK INTER + INTRA:          -4.246
REMARK INTER:                  -4.151
REMARK INTRA:                  -0.095
REMARK UNBOUND:                -0.099
REMARK SMILES C=C(C)[C@@H]1CC=C(C)C(=O)C1
REMARK SMILES IDX 8 1 7 2 6 3 5 4 4 5 11 6 9 7 10 8 2 9 1 10 3 11
REMARK H PARENT
REMARK Flexibility Score: inf
ROOT
ATOM      1  C   UNL     1     155.168 160.508 197.513  1.00  0.00     0.048 C 
ATOM      2  C   UNL     1     154.322 160.577 198.754  1.00  0.00    -0.012 C 
ATOM      3  C   UNL     1     152.991 160.730 198.650  1.00  0.00    -0.019 C 
ATOM      4  C   UNL     1     152.096 160.788 199.860  1.00  0.00     0.036 C 
ATOM      5  C   UNL     1     152.819 161.438 201.054  1.00  0.00     0.025 C 
ATOM      6  C   UNL     1     154.144 160.707 201.342  1.00  0.00     0.089 C 
ATOM      7  C   UNL     1     154.970 160.600 200.089  1.00  0.00     0.158 C 
ATOM      8  O   UNL     1     156.222 160.492 200.189  1.00  0.00    -0.295 OA
ENDROOT
BRANCH   5   9
ATOM      9  C   UNL     1     151.930 161.499 202.285  1.00  0.00    -0.077 C 
ATOM     10  C   UNL     1     151.954 162.557 203.117  1.00  0.00     0.008 C 
ATOM     11  C   UNL     1     151.009 160.341 202.568  1.00  0.00     0.039 C 
ENDBRANCH   5   9
TORSDOF 1
ENDMDL
MODEL 3
REMARK VINA RESULT:    -3.895      1.480      1.660
REMARK INTER + INTRA:          -4.221
REMARK INTER:                  -4.127
REMARK INTRA:                  -0.094
REMARK UNBOUND:                -0.099
REMARK SMILES C=C(C)[C@@H]1CC=C(C)C(=O)C1
REMARK SMILES IDX 8 1 7 2 6 3 5 4 4 5 11 6 9 7 10 8 2 9 1 10 3 11
REMARK H PARENT
REMARK Flexibility Score: inf
ROOT
ATOM      1  C   UNL     1     150.035 158.704 196.426  1.00  0.00     0.048 C 
ATOM      2  C   UNL     1     150.310 159.054 197.862  1.00  0.00    -0.012 C 
ATOM      3  C   UNL     1     149.600 160.026 198.461  1.00  0.00    -0.019 C 
ATOM      4  C   UNL     1     149.822 160.404 199.902  1.00  0.00     0.036 C 
ATOM      5  C   UNL     1     151.298 160.217 200.304  1.00  0.00     0.025 C 
ATOM      6  C   UNL     1     151.757 158.779 200.000  1.00  0.00     0.089 C 
ATOM      7  C   UNL     1     151.443 158.414 198.575  1.00  0.00     0.158 C 
ATOM      8  O   UNL     1     152.133 157.527 198.003  1.00  0.00    -0.295 OA
ENDROOT
BRANCH   5   9
ATOM      9  C   UNL     1     151.537 160.590 201.758  1.00  0.00    -0.077 C 
ATOM     10  C   UNL     1     151.154 159.782 202.762  1.00  0.00     0.008 C 
ATOM     11  C   UNL     1     152.220 161.898 202.064  1.00  0.00     0.039 C 
ENDBRANCH   5   9
TORSDOF 1
ENDMDL
MODEL 4
REMARK VINA RESULT:    -3.876      1.577      2.270
REMARK INTER + INTRA:          -4.201
REMARK INTER:                  -4.106
REMARK INTRA:                  -0.096
REMARK UNBOUND:                -0.099
REMARK SMILES C=C(C)[C@@H]1CC=C(C)C(=O)C1
REMARK SMILES IDX 8 1 7 2 6 3 5 4 4 5 11 6 9 7 10 8 2 9 1 10 3 11
REMARK H PARENT
REMARK Flexibility Score: inf
ROOT
ATOM      1  C   UNL     1     151.118 159.973 196.206  1.00  0.00     0.048 C 
ATOM      2  C   UNL     1     151.229 160.328 197.663  1.00  0.00    -0.012 C 
ATOM      3  C   UNL     1     152.386 160.808 198.149  1.00  0.00    -0.019 C 
ATOM      4  C   UNL     1     152.546 161.195 199.596  1.00  0.00     0.036 C 
ATOM      5  C   UNL     1     151.679 160.306 200.507  1.00  0.00     0.025 C 
ATOM      6  C   UNL     1     150.208 160.345 200.051  1.00  0.00     0.089 C 
ATOM      7  C   UNL     1     150.102 160.032 198.583  1.00  0.00     0.158 C 
ATOM      8  O   UNL     1     149.027 159.549 198.136  1.00  0.00    -0.295 OA
ENDROOT
BRANCH   5   9
ATOM      9  C   UNL     1     151.825 160.688 201.971  1.00  0.00    -0.077 C 
ATOM     10  C   UNL     1     152.197 161.927 202.339  1.00  0.00     0.008 C 
ATOM     11  C   UNL     1     151.545 159.644 203.020  1.00  0.00     0.039 C 
ENDBRANCH   5   9
TORSDOF 1
ENDMDL
MODEL 5
REMARK VINA RESULT:    -3.849      2.096      3.371
REMARK INTER + INTRA:          -4.173
REMARK INTER:                  -4.079
REMARK INTRA:                  -0.094
REMARK UNBOUND:                -0.099
REMARK SMILES C=C(C)[C@@H]1CC=C(C)C(=O)C1
REMARK SMILES IDX 8 1 7 2 6 3 5 4 4 5 11 6 9 7 10 8 2 9 1 10 3 11
REMARK H PARENT
REMARK Flexibility Score: inf
ROOT
ATOM      1  C   UNL     1     155.453 159.641 197.637  1.00  0.00     0.048 C 
ATOM      2  C   UNL     1     154.599 160.206 198.737  1.00  0.00    -0.012 C 
ATOM      3  C   UNL     1     155.034 160.170 200.008  1.00  0.00    -0.019 C 
ATOM      4  C   UNL     1     154.226 160.736 201.146  1.00  0.00     0.036 C 
ATOM      5  C   UNL     1     152.716 160.588 200.881  1.00  0.00     0.025 C 
ATOM      6  C   UNL     1     152.343 161.222 199.528  1.00  0.00     0.089 C 
ATOM      7  C   UNL     1     153.228 160.689 198.434  1.00  0.00     0.158 C 
ATOM      8  O   UNL     1     152.804 160.691 197.247  1.00  0.00    -0.295 OA
ENDROOT
BRANCH   5   9
ATOM      9  C   UNL     1     151.886 161.160 202.019  1.00  0.00    -0.077 C 
ATOM     10  C   UNL     1     152.195 162.339 202.589  1.00  0.00     0.008 C 
ATOM     11  C   UNL     1     150.694 160.378 202.507  1.00  0.00     0.039 C 
ENDBRANCH   5   9
TORSDOF 1
ENDMDL
MODEL 6
REMARK VINA RESULT:    -3.743      2.582      4.659
REMARK INTER + INTRA:          -4.061
REMARK INTER:                  -3.964
REMARK INTRA:                  -0.097
REMARK UNBOUND:                -0.099
REMARK SMILES C=C(C)[C@@H]1CC=C(C)C(=O)C1
REMARK SMILES IDX 8 1 7 2 6 3 5 4 4 5 11 6 9 7 10 8 2 9 1 10 3 11
REMARK H PARENT
REMARK Flexibility Score: inf
ROOT
ATOM      1  C   UNL     1     152.113 162.183 202.721  1.00  0.00     0.048 C 
ATOM      2  C   UNL     1     152.140 161.105 201.673  1.00  0.00    -0.012 C 
ATOM      3  C   UNL     1     152.273 161.435 200.377  1.00  0.00    -0.019 C 
ATOM      4  C   UNL     1     152.323 160.395 199.289  1.00  0.00     0.036 C 
ATOM      5  C   UNL     1     151.458 159.172 199.651  1.00  0.00     0.025 C 
ATOM      6  C   UNL     1     151.878 158.605 201.020  1.00  0.00     0.089 C 
ATOM      7  C   UNL     1     151.894 159.693 202.059  1.00  0.00     0.158 C 
ATOM      8  O   UNL     1     151.733 159.385 203.271  1.00  0.00    -0.295 OA
ENDROOT
BRANCH   5   9
ATOM      9  C   UNL     1     151.502 158.110 198.564  1.00  0.00    -0.077 C 
ATOM     10  C   UNL     1     152.189 156.965 198.728  1.00  0.00     0.008 C 
ATOM     11  C   UNL     1     150.754 158.361 197.280  1.00  0.00     0.039 C 
ENDBRANCH   5   9
TORSDOF 1
ENDMDL
MODEL 7
REMARK VINA RESULT:    -3.725      2.320      3.230
REMARK INTER + INTRA:          -4.042
REMARK INTER:                  -3.940
REMARK INTRA:                  -0.101
REMARK UNBOUND:                -0.099
REMARK SMILES C=C(C)[C@@H]1CC=C(C)C(=O)C1
REMARK SMILES IDX 8 1 7 2 6 3 5 4 4 5 11 6 9 7 10 8 2 9 1 10 3 11
REMARK H PARENT
REMARK Flexibility Score: inf
ROOT
ATOM      1  C   UNL     1     148.879 160.411 199.948  1.00  0.00     0.048 C 
ATOM      2  C   UNL     1     150.370 160.589 200.023  1.00  0.00    -0.012 C 
ATOM      3  C   UNL     1     151.092 160.669 198.892  1.00  0.00    -0.019 C 
ATOM      4  C   UNL     1     152.585 160.864 198.910  1.00  0.00     0.036 C 
ATOM      5  C   UNL     1     153.219 160.187 200.140  1.00  0.00     0.025 C 
ATOM      6  C   UNL     1     152.549 160.689 201.433  1.00  0.00     0.089 C 
ATOM      7  C   UNL     1     151.054 160.551 201.340  1.00  0.00     0.158 C 
ATOM      8  O   UNL     1     150.382 160.441 202.401  1.00  0.00    -0.295 OA
ENDROOT
BRANCH   5   9
ATOM      9  C   UNL     1     154.726 160.380 200.175  1.00  0.00    -0.077 C 
ATOM     10  C   UNL     1     155.437 160.153 201.295  1.00  0.00     0.008 C 
ATOM     11  C   UNL     1     155.424 160.836 198.921  1.00  0.00     0.039 C 
ENDBRANCH   5   9
TORSDOF 1
ENDMDL
MODEL 8
REMARK VINA RESULT:    -3.688      2.631      4.571
REMARK INTER + INTRA:          -4.003
REMARK INTER:                  -3.905
REMARK INTRA:                  -0.098
REMARK UNBOUND:                -0.099
REMARK SMILES C=C(C)[C@@H]1CC=C(C)C(=O)C1
REMARK SMILES IDX 8 1 7 2 6 3 5 4 4 5 11 6 9 7 10 8 2 9 1 10 3 11
REMARK H PARENT
REMARK Flexibility Score: inf
ROOT
ATOM      1  C   UNL     1     157.068 160.610 199.406  1.00  0.00     0.048 C 
ATOM      2  C   UNL     1     155.620 160.429 199.771  1.00  0.00    -0.012 C 
ATOM      3  C   UNL     1     154.660 160.840 198.925  1.00  0.00    -0.019 C 
ATOM      4  C   UNL     1     153.196 160.667 199.233  1.00  0.00     0.036 C 
ATOM      5  C   UNL     1     152.933 160.766 200.748  1.00  0.00     0.025 C 
ATOM      6  C   UNL     1     153.813 159.759 201.511  1.00  0.00     0.089 C 
ATOM      7  C   UNL     1     155.256 159.912 201.113  1.00  0.00     0.158 C 
ATOM      8  O   UNL     1     156.156 159.559 201.923  1.00  0.00    -0.295 OA
ENDROOT
BRANCH   5   9
ATOM      9  C   UNL     1     151.460 160.589 201.076  1.00  0.00    -0.077 C 
ATOM     10  C   UNL     1     150.537 160.443 200.107  1.00  0.00     0.008 C 
ATOM     11  C   UNL     1     151.039 160.578 202.523  1.00  0.00     0.039 C 
ENDBRANCH   5   9
TORSDOF 1
ENDMDL
MODEL 9
REMARK VINA RESULT:    -3.572      6.336      8.235
REMARK INTER + INTRA:          -3.880
REMARK INTER:                  -3.787
REMARK INTRA:                  -0.094
REMARK UNBOUND:                -0.099
REMARK SMILES C=C(C)[C@@H]1CC=C(C)C(=O)C1
REMARK SMILES IDX 8 1 7 2 6 3 5 4 4 5 11 6 9 7 10 8 2 9 1 10 3 11
REMARK H PARENT
REMARK Flexibility Score: inf
ROOT
ATOM      1  C   UNL     1     158.611 166.754 198.190  1.00  0.00     0.048 C 
ATOM      2  C   UNL     1     158.543 165.273 198.441  1.00  0.00    -0.012 C 
ATOM      3  C   UNL     1     157.840 164.485 197.610  1.00  0.00    -0.019 C 
ATOM      4  C   UNL     1     157.753 162.994 197.806  1.00  0.00     0.036 C 
ATOM      5  C   UNL     1     157.802 162.627 199.301  1.00  0.00     0.025 C 
ATOM      6  C   UNL     1     159.057 163.230 199.960  1.00  0.00     0.089 C 
ATOM      7  C   UNL     1     159.147 164.704 199.672  1.00  0.00     0.158 C 
ATOM      8  O   UNL     1     159.778 165.447 200.471  1.00  0.00    -0.295 OA
ENDROOT
BRANCH   5   9
ATOM      9  C   UNL     1     157.721 161.124 199.515  1.00  0.00    -0.077 C 
ATOM     10  C   UNL     1     158.676 160.297 199.053  1.00  0.00     0.008 C 
ATOM     11  C   UNL     1     156.538 160.565 200.261  1.00  0.00     0.039 C 
ENDBRANCH   5   9
TORSDOF 1
ENDMDL
