MODEL 1
REMARK VINA RESULT:    -4.044      0.000      0.000
REMARK INTER + INTRA:          -6.017
REMARK INTER:                  -5.699
REMARK INTRA:                  -0.317
REMARK UNBOUND:                -0.317
REMARK SMILES CCCCCCCCC(=O)[O-]
REMARK SMILES IDX 6 1 7 2 8 3 9 4 10 5 11 6 5 7 4 8 3 9 2 10 1 11
REMARK H PARENT
REMARK Flexibility Score: inf
ROOT
ATOM      1  C   UNL     1      27.794  41.268  45.022  1.00  0.00     0.000 C 
ENDROOT
BRANCH   1   2
ATOM      2  C   UNL     1      27.653  42.796  44.966  1.00  0.00     0.006 C 
BRANCH   2   3
ATOM      3  C   UNL     1      26.427  43.302  45.738  1.00  0.00     0.053 C 
BRANCH   3   4
ATOM      4  C   UNL     1      26.739  43.412  47.197  1.00  0.00     0.041 C 
ATOM      5  O   UNL     1      25.810  43.554  48.035  1.00  0.00    -0.550 OA
ATOM      6  O   UNL     1      28.059  43.407  47.628  1.00  0.00    -0.550 OA
ENDBRANCH   3   4
ENDBRANCH   2   3
ENDBRANCH   1   2
BRANCH   1   7
ATOM      7  C   UNL     1      28.763  40.724  43.956  1.00  0.00     0.000 C 
BRANCH   7   8
ATOM      8  C   UNL     1      29.722  39.656  44.511  1.00  0.00    -0.000 C 
BRANCH   8   9
ATOM      9  C   UNL     1      29.281  39.015  45.839  1.00  0.00    -0.000 C 
BRANCH   9  10
ATOM     10  C   UNL     1      28.738  37.589  45.663  1.00  0.00    -0.003 C 
ATOM     11  C   UNL     1      29.171  36.997  44.326  1.00  0.00     0.004 C 
ENDBRANCH   9  10
ENDBRANCH   8   9
ENDBRANCH   7   8
ENDBRANCH   1   7
TORSDOF 7
ENDMDL
MODEL 2
REMARK VINA RESULT:    -4.010      3.052      5.660
REMARK INTER + INTRA:          -5.968
REMARK INTER:                  -5.564
REMARK INTRA:                  -0.404
REMARK UNBOUND:                -0.317
REMARK SMILES CCCCCCCCC(=O)[O-]
REMARK SMILES IDX 6 1 7 2 8 3 9 4 10 5 11 6 5 7 4 8 3 9 2 10 1 11
REMARK H PARENT
REMARK Flexibility Score: inf
ROOT
ATOM      1  C   UNL     1      28.061  40.171  44.308  1.00  0.00     0.000 C 
ENDROOT
BRANCH   1   2
ATOM      2  C   UNL     1      29.506  39.782  44.654  1.00  0.00     0.006 C 
BRANCH   2   3
ATOM      3  C   UNL     1      29.586  38.808  45.836  1.00  0.00     0.053 C 
BRANCH   3   4
ATOM      4  C   UNL     1      28.957  37.498  45.477  1.00  0.00     0.041 C 
ATOM      5  O   UNL     1      29.279  36.912  44.411  1.00  0.00    -0.550 OA
ATOM      6  O   UNL     1      27.978  36.950  46.295  1.00  0.00    -0.550 OA
ENDBRANCH   3   4
ENDBRANCH   2   3
ENDBRANCH   1   2
BRANCH   1   7
ATOM      7  C   UNL     1      27.355  40.908  45.460  1.00  0.00     0.000 C 
BRANCH   7   8
ATOM      8  C   UNL     1      28.022  42.251  45.808  1.00  0.00    -0.000 C 
BRANCH   8   9
ATOM      9  C   UNL     1      27.275  43.497  45.300  1.00  0.00    -0.000 C 
BRANCH   9  10
ATOM     10  C   UNL     1      25.883  43.657  45.928  1.00  0.00    -0.003 C 
ATOM     11  C   UNL     1      25.982  43.875  47.435  1.00  0.00     0.004 C 
ENDBRANCH   9  10
ENDBRANCH   8   9
ENDBRANCH   7   8
ENDBRANCH   1   7
TORSDOF 7
ENDMDL
MODEL 3
REMARK VINA RESULT:    -3.959     11.409     12.879
REMARK INTER + INTRA:          -5.896
REMARK INTER:                  -5.300
REMARK INTRA:                  -0.596
REMARK UNBOUND:                -0.317
REMARK SMILES CCCCCCCCC(=O)[O-]
REMARK SMILES IDX 6 1 7 2 8 3 9 4 10 5 11 6 5 7 4 8 3 9 2 10 1 11
REMARK H PARENT
REMARK Flexibility Score: inf
ROOT
ATOM      1  C   UNL     1      19.306  31.913  43.938  1.00  0.00     0.000 C 
ENDROOT
BRANCH   1   2
ATOM      2  C   UNL     1      18.904  30.746  44.852  1.00  0.00     0.006 C 
BRANCH   2   3
ATOM      3  C   UNL     1      18.248  31.218  46.156  1.00  0.00     0.053 C 
BRANCH   3   4
ATOM      4  C   UNL     1      19.009  30.706  47.338  1.00  0.00     0.041 C 
ATOM      5  O   UNL     1      19.028  31.361  48.413  1.00  0.00    -0.550 OA
ATOM      6  O   UNL     1      19.738  29.528  47.238  1.00  0.00    -0.550 OA
ENDBRANCH   3   4
ENDBRANCH   2   3
ENDBRANCH   1   2
BRANCH   1   7
ATOM      7  C   UNL     1      20.830  32.117  43.875  1.00  0.00     0.000 C 
BRANCH   7   8
ATOM      8  C   UNL     1      21.274  33.477  44.444  1.00  0.00    -0.000 C 
BRANCH   8   9
ATOM      9  C   UNL     1      20.128  34.387  44.919  1.00  0.00    -0.000 C 
BRANCH   9  10
ATOM     10  C   UNL     1      20.016  34.458  46.449  1.00  0.00    -0.003 C 
ATOM     11  C   UNL     1      19.013  35.525  46.878  1.00  0.00     0.004 C 
ENDBRANCH   9  10
ENDBRANCH   8   9
ENDBRANCH   7   8
ENDBRANCH   1   7
TORSDOF 7
ENDMDL
MODEL 4
REMARK VINA RESULT:    -3.956     11.438     12.842
REMARK INTER + INTRA:          -5.892
REMARK INTER:                  -5.251
REMARK INTRA:                  -0.640
REMARK UNBOUND:                -0.317
REMARK SMILES CCCCCCCCC(=O)[O-]
REMARK SMILES IDX 6 1 7 2 8 3 9 4 10 5 11 6 5 7 4 8 3 9 2 10 1 11
REMARK H PARENT
REMARK Flexibility Score: inf
ROOT
ATOM      1  C   UNL     1      19.405  33.572  44.066  1.00  0.00     0.000 C 
ENDROOT
BRANCH   1   2
ATOM      2  C   UNL     1      20.033  32.175  44.175  1.00  0.00     0.006 C 
BRANCH   2   3
ATOM      3  C   UNL     1      19.028  31.054  43.876  1.00  0.00     0.053 C 
BRANCH   3   4
ATOM      4  C   UNL     1      18.632  30.357  45.140  1.00  0.00     0.041 C 
ATOM      5  O   UNL     1      18.625  29.099  45.194  1.00  0.00    -0.550 OA
ATOM      6  O   UNL     1      18.224  31.096  46.242  1.00  0.00    -0.550 OA
ENDBRANCH   3   4
ENDBRANCH   2   3
ENDBRANCH   1   2
BRANCH   1   7
ATOM      7  C   UNL     1      20.122  34.613  44.944  1.00  0.00     0.000 C 
BRANCH   7   8
ATOM      8  C   UNL     1      19.248  35.118  46.106  1.00  0.00    -0.000 C 
BRANCH   8   9
ATOM      9  C   UNL     1      19.410  34.339  47.424  1.00  0.00    -0.000 C 
BRANCH   9  10
ATOM     10  C   UNL     1      20.874  34.006  47.746  1.00  0.00    -0.003 C 
ATOM     11  C   UNL     1      21.088  32.498  47.837  1.00  0.00     0.004 C 
ENDBRANCH   9  10
ENDBRANCH   8   9
ENDBRANCH   7   8
ENDBRANCH   1   7
TORSDOF 7
ENDMDL
MODEL 5
REMARK VINA RESULT:    -3.942     10.932     12.166
REMARK INTER + INTRA:          -5.872
REMARK INTER:                  -5.175
REMARK INTRA:                  -0.697
REMARK UNBOUND:                -0.317
REMARK SMILES CCCCCCCCC(=O)[O-]
REMARK SMILES IDX 6 1 7 2 8 3 9 4 10 5 11 6 5 7 4 8 3 9 2 10 1 11
REMARK H PARENT
REMARK Flexibility Score: inf
ROOT
ATOM      1  C   UNL     1      19.657  33.430  43.921  1.00  0.00     0.000 C 
ENDROOT
BRANCH   1   2
ATOM      2  C   UNL     1      20.422  34.410  44.824  1.00  0.00     0.006 C 
BRANCH   2   3
ATOM      3  C   UNL     1      20.499  33.930  46.279  1.00  0.00     0.053 C 
BRANCH   3   4
ATOM      4  C   UNL     1      19.401  34.544  47.090  1.00  0.00     0.041 C 
ATOM      5  O   UNL     1      18.826  33.874  47.987  1.00  0.00    -0.550 OA
ATOM      6  O   UNL     1      18.979  35.839  46.821  1.00  0.00    -0.550 OA
ENDBRANCH   3   4
ENDBRANCH   2   3
ENDBRANCH   1   2
BRANCH   1   7
ATOM      7  C   UNL     1      20.095  31.970  44.128  1.00  0.00     0.000 C 
BRANCH   7   8
ATOM      8  C   UNL     1      18.958  30.964  43.875  1.00  0.00    -0.000 C 
BRANCH   8   9
ATOM      9  C   UNL     1      18.652  30.021  45.053  1.00  0.00    -0.000 C 
BRANCH   9  10
ATOM     10  C   UNL     1      18.432  30.769  46.376  1.00  0.00    -0.003 C 
ATOM     11  C   UNL     1      19.493  30.390  47.405  1.00  0.00     0.004 C 
ENDBRANCH   9  10
ENDBRANCH   8   9
ENDBRANCH   7   8
ENDBRANCH   1   7
TORSDOF 7
ENDMDL
MODEL 6
REMARK VINA RESULT:    -3.932      1.476      2.255
REMARK INTER + INTRA:          -5.858
REMARK INTER:                  -5.090
REMARK INTRA:                  -0.769
REMARK UNBOUND:                -0.317
REMARK SMILES CCCCCCCCC(=O)[O-]
REMARK SMILES IDX 6 1 7 2 8 3 9 4 10 5 11 6 5 7 4 8 3 9 2 10 1 11
REMARK H PARENT
REMARK Flexibility Score: inf
ROOT
ATOM      1  C   UNL     1      27.144  40.497  45.485  1.00  0.00     0.000 C 
ENDROOT
BRANCH   1   2
ATOM      2  C   UNL     1      26.984  41.129  46.876  1.00  0.00     0.006 C 
BRANCH   2   3
ATOM      3  C   UNL     1      27.569  42.546  46.948  1.00  0.00     0.053 C 
BRANCH   3   4
ATOM      4  C   UNL     1      26.474  43.565  46.906  1.00  0.00     0.041 C 
ATOM      5  O   UNL     1      25.836  43.852  47.952  1.00  0.00    -0.550 OA
ATOM      6  O   UNL     1      26.126  44.162  45.702  1.00  0.00    -0.550 OA
ENDBRANCH   3   4
ENDBRANCH   2   3
ENDBRANCH   1   2
BRANCH   1   7
ATOM      7  C   UNL     1      28.127  41.272  44.592  1.00  0.00     0.000 C 
BRANCH   7   8
ATOM      8  C   UNL     1      29.237  40.379  44.009  1.00  0.00    -0.000 C 
BRANCH   8   9
ATOM      9  C   UNL     1      29.904  39.430  45.021  1.00  0.00    -0.000 C 
BRANCH   9  10
ATOM     10  C   UNL     1      31.001  40.115  45.849  1.00  0.00    -0.003 C 
ATOM     11  C   UNL     1      30.603  40.207  47.320  1.00  0.00     0.004 C 
ENDBRANCH   9  10
ENDBRANCH   8   9
ENDBRANCH   7   8
ENDBRANCH   1   7
TORSDOF 7
ENDMDL
MODEL 7
REMARK VINA RESULT:    -3.909      1.896      3.142
REMARK INTER + INTRA:          -5.826
REMARK INTER:                  -5.175
REMARK INTRA:                  -0.651
REMARK UNBOUND:                -0.317
REMARK SMILES CCCCCCCCC(=O)[O-]
REMARK SMILES IDX 6 1 7 2 8 3 9 4 10 5 11 6 5 7 4 8 3 9 2 10 1 11
REMARK H PARENT
REMARK Flexibility Score: inf
ROOT
ATOM      1  C   UNL     1      29.764  39.170  45.141  1.00  0.00     0.000 C 
ENDROOT
BRANCH   1   2
ATOM      2  C   UNL     1      29.201  40.300  44.266  1.00  0.00     0.006 C 
BRANCH   2   3
ATOM      3  C   UNL     1      27.813  40.765  44.726  1.00  0.00     0.053 C 
BRANCH   3   4
ATOM      4  C   UNL     1      27.903  42.110  45.377  1.00  0.00     0.041 C 
ATOM      5  O   UNL     1      27.546  43.142  44.751  1.00  0.00    -0.550 OA
ATOM      6  O   UNL     1      28.427  42.228  46.657  1.00  0.00    -0.550 OA
ENDBRANCH   3   4
ENDBRANCH   2   3
ENDBRANCH   1   2
BRANCH   1   7
ATOM      7  C   UNL     1      29.105  37.811  44.847  1.00  0.00     0.000 C 
BRANCH   7   8
ATOM      8  C   UNL     1      28.619  37.095  46.120  1.00  0.00    -0.000 C 
BRANCH   8   9
ATOM      9  C   UNL     1      28.094  38.026  47.227  1.00  0.00    -0.000 C 
BRANCH   9  10
ATOM     10  C   UNL     1      26.566  37.978  47.374  1.00  0.00    -0.003 C 
ATOM     11  C   UNL     1      26.003  39.355  47.717  1.00  0.00     0.004 C 
ENDBRANCH   9  10
ENDBRANCH   8   9
ENDBRANCH   7   8
ENDBRANCH   1   7
TORSDOF 7
ENDMDL
MODEL 8
REMARK VINA RESULT:    -3.897     12.570     14.086
REMARK INTER + INTRA:          -5.810
REMARK INTER:                  -5.144
REMARK INTRA:                  -0.666
REMARK UNBOUND:                -0.317
REMARK SMILES CCCCCCCCC(=O)[O-]
REMARK SMILES IDX 6 1 7 2 8 3 9 4 10 5 11 6 5 7 4 8 3 9 2 10 1 11
REMARK H PARENT
REMARK Flexibility Score: inf
ROOT
ATOM      1  C   UNL     1      19.032  29.914  46.327  1.00  0.00     0.000 C 
ENDROOT
BRANCH   1   2
ATOM      2  C   UNL     1      17.921  30.295  47.317  1.00  0.00     0.006 C 
BRANCH   2   3
ATOM      3  C   UNL     1      18.218  31.604  48.059  1.00  0.00     0.053 C 
BRANCH   3   4
ATOM      4  C   UNL     1      18.546  31.327  49.493  1.00  0.00     0.041 C 
ATOM      5  O   UNL     1      19.134  30.262  49.815  1.00  0.00    -0.550 OA
ATOM      6  O   UNL     1      18.156  32.224  50.480  1.00  0.00    -0.550 OA
ENDBRANCH   3   4
ENDBRANCH   2   3
ENDBRANCH   1   2
BRANCH   1   7
ATOM      7  C   UNL     1      18.481  29.471  44.960  1.00  0.00     0.000 C 
BRANCH   7   8
ATOM      8  C   UNL     1      18.628  30.555  43.877  1.00  0.00    -0.000 C 
BRANCH   8   9
ATOM      9  C   UNL     1      19.838  31.490  44.056  1.00  0.00    -0.000 C 
BRANCH   9  10
ATOM     10  C   UNL     1      19.454  32.977  44.024  1.00  0.00    -0.003 C 
ATOM     11  C   UNL     1      18.134  33.220  44.749  1.00  0.00     0.004 C 
ENDBRANCH   9  10
ENDBRANCH   8   9
ENDBRANCH   7   8
ENDBRANCH   1   7
TORSDOF 7
ENDMDL
MODEL 9
REMARK VINA RESULT:    -2.164     11.720     12.968
REMARK INTER + INTRA:          -3.367
REMARK INTER:                  -2.717
REMARK INTRA:                  -0.650
REMARK UNBOUND:                -0.317
REMARK SMILES CCCCCCCCC(=O)[O-]
REMARK SMILES IDX 6 1 7 2 8 3 9 4 10 5 11 6 5 7 4 8 3 9 2 10 1 11
REMARK H PARENT
REMARK Flexibility Score: inf
ROOT
ATOM      1  C   UNL     1      19.792  31.524  44.008  1.00  0.00     0.000 C 
ENDROOT
BRANCH   1   2
ATOM      2  C   UNL     1      19.306  32.981  43.955  1.00  0.00     0.006 C 
BRANCH   2   3
ATOM      3  C   UNL     1      18.212  33.274  44.991  1.00  0.00     0.053 C 
BRANCH   3   4
ATOM      4  C   UNL     1      18.765  34.093  46.115  1.00  0.00     0.041 C 
ATOM      5  O   UNL     1      19.350  35.181  45.878  1.00  0.00    -0.550 OA
ATOM      6  O   UNL     1      18.676  33.629  47.421  1.00  0.00    -0.550 OA
ENDBRANCH   3   4
ENDBRANCH   2   3
ENDBRANCH   1   2
BRANCH   1   7
ATOM      7  C   UNL     1      18.640  30.512  43.875  1.00  0.00     0.000 C 
BRANCH   7   8
ATOM      8  C   UNL     1      18.628  29.469  45.007  1.00  0.00    -0.000 C 
BRANCH   8   9
ATOM      9  C   UNL     1      18.542  30.055  46.428  1.00  0.00    -0.000 C 
BRANCH   9  10
ATOM     10  C   UNL     1      19.677  29.572  47.343  1.00  0.00    -0.003 C 
ATOM     11  C   UNL     1      20.636  30.711  47.676  1.00  0.00     0.004 C 
ENDBRANCH   9  10
ENDBRANCH   8   9
ENDBRANCH   7   8
ENDBRANCH   1   7
TORSDOF 7
ENDMDL
