MODEL 1
REMARK VINA RESULT:    -3.898      0.000      0.000
REMARK INTER + INTRA:          -4.280
REMARK INTER:                  -4.126
REMARK INTRA:                  -0.154
REMARK UNBOUND:                -0.154
REMARK SMILES Cc1ccc(C(C)C)cc1
REMARK SMILES IDX 1 1 2 2 3 3 4 4 5 5 9 6 10 7 6 8 7 9 8 10
REMARK H PARENT
REMARK Flexibility Score: inf
ROOT
ATOM      1  C   UNL     1      31.261   5.838  20.565  1.00  0.00     0.044 C 
ATOM      2  C   UNL     1      31.695   7.165  21.114  1.00  0.00    -0.051 A 
ATOM      3  C   UNL     1      30.875   7.858  22.016  1.00  0.00     0.004 A 
ATOM      4  C   UNL     1      31.260   9.111  22.500  1.00  0.00     0.004 A 
ATOM      5  C   UNL     1      32.467   9.700  22.080  1.00  0.00    -0.045 A 
ATOM      6  C   UNL     1      33.276   9.007  21.160  1.00  0.00     0.004 A 
ATOM      7  C   UNL     1      32.890   7.754  20.678  1.00  0.00     0.004 A 
ENDROOT
BRANCH   5   8
ATOM      8  C   UNL     1      32.873  11.061  22.611  1.00  0.00     0.013 C 
ATOM      9  C   UNL     1      34.263  11.012  23.255  1.00  0.00     0.012 C 
ATOM     10  C   UNL     1      32.813  12.125  21.509  1.00  0.00     0.012 C 
ENDBRANCH   5   8
TORSDOF 1
ENDMDL
MODEL 2
REMARK VINA RESULT:    -3.850      0.199      1.540
REMARK INTER + INTRA:          -4.230
REMARK INTER:                  -4.073
REMARK INTRA:                  -0.157
REMARK UNBOUND:                -0.154
REMARK SMILES Cc1ccc(C(C)C)cc1
REMARK SMILES IDX 1 1 2 2 3 3 4 4 5 5 9 6 10 7 6 8 7 9 8 10
REMARK H PARENT
REMARK Flexibility Score: inf
ROOT
ATOM      1  C   UNL     1      31.166   5.845  20.726  1.00  0.00     0.044 C 
ATOM      2  C   UNL     1      31.589   7.224  21.139  1.00  0.00    -0.051 A 
ATOM      3  C   UNL     1      32.742   7.803  20.590  1.00  0.00     0.004 A 
ATOM      4  C   UNL     1      33.158   9.073  21.001  1.00  0.00     0.004 A 
ATOM      5  C   UNL     1      32.436   9.780  21.979  1.00  0.00    -0.045 A 
ATOM      6  C   UNL     1      31.290   9.185  22.539  1.00  0.00     0.004 A 
ATOM      7  C   UNL     1      30.875   7.916  22.127  1.00  0.00     0.004 A 
ENDROOT
BRANCH   5   8
ATOM      8  C   UNL     1      32.899  11.156  22.417  1.00  0.00     0.013 C 
ATOM      9  C   UNL     1      34.178  11.068  23.257  1.00  0.00     0.012 C 
ATOM     10  C   UNL     1      33.093  12.083  21.212  1.00  0.00     0.012 C 
ENDBRANCH   5   8
TORSDOF 1
ENDMDL
MODEL 3
REMARK VINA RESULT:    -3.827      0.948      4.566
REMARK INTER + INTRA:          -4.205
REMARK INTER:                  -4.048
REMARK INTRA:                  -0.157
REMARK UNBOUND:                -0.154
REMARK SMILES Cc1ccc(C(C)C)cc1
REMARK SMILES IDX 1 1 2 2 3 3 4 4 5 5 9 6 10 7 6 8 7 9 8 10
REMARK H PARENT
REMARK Flexibility Score: inf
ROOT
ATOM      1  C   UNL     1      33.639  11.722  22.890  1.00  0.00     0.044 C 
ATOM      2  C   UNL     1      33.006  10.437  22.443  1.00  0.00    -0.051 A 
ATOM      3  C   UNL     1      33.608   9.666  21.438  1.00  0.00     0.004 A 
ATOM      4  C   UNL     1      33.001   8.488  20.994  1.00  0.00     0.004 A 
ATOM      5  C   UNL     1      31.774   8.067  21.537  1.00  0.00    -0.045 A 
ATOM      6  C   UNL     1      31.166   8.855  22.532  1.00  0.00     0.004 A 
ATOM      7  C   UNL     1      31.775  10.032  22.976  1.00  0.00     0.004 A 
ENDROOT
BRANCH   5   8
ATOM      8  C   UNL     1      31.125   6.787  21.046  1.00  0.00     0.013 C 
ATOM      9  C   UNL     1      30.875   6.839  19.534  1.00  0.00     0.012 C 
ATOM     10  C   UNL     1      31.964   5.562  21.424  1.00  0.00     0.012 C 
ENDBRANCH   5   8
TORSDOF 1
ENDMDL
MODEL 4
REMARK VINA RESULT:    -3.820      0.898      4.345
REMARK INTER + INTRA:          -4.197
REMARK INTER:                  -4.043
REMARK INTRA:                  -0.154
REMARK UNBOUND:                -0.154
REMARK SMILES Cc1ccc(C(C)C)cc1
REMARK SMILES IDX 1 1 2 2 3 3 4 4 5 5 9 6 10 7 6 8 7 9 8 10
REMARK H PARENT
REMARK Flexibility Score: inf
ROOT
ATOM      1  C   UNL     1      33.067  11.627  22.876  1.00  0.00     0.044 C 
ATOM      2  C   UNL     1      32.556  10.314  22.360  1.00  0.00    -0.051 A 
ATOM      3  C   UNL     1      31.385   9.755  22.890  1.00  0.00     0.004 A 
ATOM      4  C   UNL     1      30.927   8.515  22.437  1.00  0.00     0.004 A 
ATOM      5  C   UNL     1      31.641   7.805  21.455  1.00  0.00    -0.045 A 
ATOM      6  C   UNL     1      32.826   8.363  20.940  1.00  0.00     0.004 A 
ATOM      7  C   UNL     1      33.281   9.604  21.394  1.00  0.00     0.004 A 
ENDROOT
BRANCH   5   8
ATOM      8  C   UNL     1      31.134   6.459  20.973  1.00  0.00     0.013 C 
ATOM      9  C   UNL     1      30.938   6.453  19.453  1.00  0.00     0.012 C 
ATOM     10  C   UNL     1      32.070   5.327  21.413  1.00  0.00     0.012 C 
ENDBRANCH   5   8
TORSDOF 1
ENDMDL
MODEL 5
REMARK VINA RESULT:    -3.732      1.819      3.160
REMARK INTER + INTRA:          -4.105
REMARK INTER:                  -3.951
REMARK INTRA:                  -0.154
REMARK UNBOUND:                -0.154
REMARK SMILES Cc1ccc(C(C)C)cc1
REMARK SMILES IDX 1 1 2 2 3 3 4 4 5 5 9 6 10 7 6 8 7 9 8 10
REMARK H PARENT
REMARK Flexibility Score: inf
ROOT
ATOM      1  C   UNL     1      30.965   9.130  22.507  1.00  0.00     0.044 C 
ATOM      2  C   UNL     1      32.340   9.730  22.512  1.00  0.00    -0.051 A 
ATOM      3  C   UNL     1      32.650  10.779  23.389  1.00  0.00     0.004 A 
ATOM      4  C   UNL     1      33.919  11.364  23.370  1.00  0.00     0.004 A 
ATOM      5  C   UNL     1      34.897  10.919  22.463  1.00  0.00    -0.045 A 
ATOM      6  C   UNL     1      34.575   9.878  21.573  1.00  0.00     0.004 A 
ATOM      7  C   UNL     1      33.305   9.293  21.594  1.00  0.00     0.004 A 
ENDROOT
BRANCH   5   8
ATOM      8  C   UNL     1      36.270  11.563  22.451  1.00  0.00     0.013 C 
ATOM      9  C   UNL     1      37.348  10.579  22.921  1.00  0.00     0.012 C 
ATOM     10  C   UNL     1      36.605  12.125  21.064  1.00  0.00     0.012 C 
ENDBRANCH   5   8
TORSDOF 1
ENDMDL
MODEL 6
REMARK VINA RESULT:    -3.714      2.033      3.927
REMARK INTER + INTRA:          -4.086
REMARK INTER:                  -3.926
REMARK INTRA:                  -0.159
REMARK UNBOUND:                -0.154
REMARK SMILES Cc1ccc(C(C)C)cc1
REMARK SMILES IDX 1 1 2 2 3 3 4 4 5 5 9 6 10 7 6 8 7 9 8 10
REMARK H PARENT
REMARK Flexibility Score: inf
ROOT
ATOM      1  C   UNL     1      31.257   9.736  22.569  1.00  0.00     0.044 C 
ATOM      2  C   UNL     1      32.728  10.016  22.488  1.00  0.00    -0.051 A 
ATOM      3  C   UNL     1      33.555   9.227  21.676  1.00  0.00     0.004 A 
ATOM      4  C   UNL     1      34.931   9.464  21.627  1.00  0.00     0.004 A 
ATOM      5  C   UNL     1      35.508  10.486  22.401  1.00  0.00    -0.045 A 
ATOM      6  C   UNL     1      34.676  11.263  23.229  1.00  0.00     0.004 A 
ATOM      7  C   UNL     1      33.300  11.025  23.276  1.00  0.00     0.004 A 
ENDROOT
BRANCH   5   8
ATOM      8  C   UNL     1      37.004  10.732  22.341  1.00  0.00     0.013 C 
ATOM      9  C   UNL     1      37.358  12.125  22.874  1.00  0.00     0.012 C 
ATOM     10  C   UNL     1      37.773   9.641  23.095  1.00  0.00     0.012 C 
ENDBRANCH   5   8
TORSDOF 1
ENDMDL
MODEL 7
REMARK VINA RESULT:    -3.681      2.320      4.207
REMARK INTER + INTRA:          -4.050
REMARK INTER:                  -3.892
REMARK INTRA:                  -0.158
REMARK UNBOUND:                -0.154
REMARK SMILES Cc1ccc(C(C)C)cc1
REMARK SMILES IDX 1 1 2 2 3 3 4 4 5 5 9 6 10 7 6 8 7 9 8 10
REMARK H PARENT
REMARK Flexibility Score: inf
ROOT
ATOM      1  C   UNL     1      31.540  10.424  22.768  1.00  0.00     0.044 C 
ATOM      2  C   UNL     1      33.037  10.371  22.679  1.00  0.00    -0.051 A 
ATOM      3  C   UNL     1      33.822  11.228  23.463  1.00  0.00     0.004 A 
ATOM      4  C   UNL     1      35.215  11.206  23.355  1.00  0.00     0.004 A 
ATOM      5  C   UNL     1      35.847  10.335  22.449  1.00  0.00    -0.045 A 
ATOM      6  C   UNL     1      35.053   9.490  21.652  1.00  0.00     0.004 A 
ATOM      7  C   UNL     1      33.660   9.513  21.762  1.00  0.00     0.004 A 
ENDROOT
BRANCH   5   8
ATOM      8  C   UNL     1      37.360  10.322  22.340  1.00  0.00     0.013 C 
ATOM      9  C   UNL     1      37.949  11.705  22.638  1.00  0.00     0.012 C 
ATOM     10  C   UNL     1      37.971   9.254  23.255  1.00  0.00     0.012 C 
ENDBRANCH   5   8
TORSDOF 1
ENDMDL
MODEL 8
REMARK VINA RESULT:    -3.590      2.538      4.169
REMARK INTER + INTRA:          -3.955
REMARK INTER:                  -3.801
REMARK INTRA:                  -0.154
REMARK UNBOUND:                -0.154
REMARK SMILES Cc1ccc(C(C)C)cc1
REMARK SMILES IDX 1 1 2 2 3 3 4 4 5 5 9 6 10 7 6 8 7 9 8 10
REMARK H PARENT
REMARK Flexibility Score: inf
ROOT
ATOM      1  C   UNL     1      37.955   8.177  21.928  1.00  0.00     0.044 C 
ATOM      2  C   UNL     1      36.741   9.042  22.092  1.00  0.00    -0.051 A 
ATOM      3  C   UNL     1      36.750  10.107  23.003  1.00  0.00     0.004 A 
ATOM      4  C   UNL     1      35.608  10.892  23.184  1.00  0.00     0.004 A 
ATOM      5  C   UNL     1      34.431  10.617  22.466  1.00  0.00    -0.045 A 
ATOM      6  C   UNL     1      34.422   9.535  21.566  1.00  0.00     0.004 A 
ATOM      7  C   UNL     1      35.565   8.751  21.386  1.00  0.00     0.004 A 
ENDROOT
BRANCH   5   8
ATOM      8  C   UNL     1      33.197  11.475  22.672  1.00  0.00     0.013 C 
ATOM      9  C   UNL     1      32.743  12.117  21.357  1.00  0.00     0.012 C 
ATOM     10  C   UNL     1      32.063  10.666  23.312  1.00  0.00     0.012 C 
ENDBRANCH   5   8
TORSDOF 1
ENDMDL
MODEL 9
REMARK VINA RESULT:    -3.584      1.922      4.405
REMARK INTER + INTRA:          -3.947
REMARK INTER:                  -3.780
REMARK INTRA:                  -0.167
REMARK UNBOUND:                -0.154
REMARK SMILES Cc1ccc(C(C)C)cc1
REMARK SMILES IDX 1 1 2 2 3 3 4 4 5 5 9 6 10 7 6 8 7 9 8 10
REMARK H PARENT
REMARK Flexibility Score: inf
ROOT
ATOM      1  C   UNL     1      37.998  10.077  22.326  1.00  0.00     0.044 C 
ATOM      2  C   UNL     1      36.500  10.138  22.347  1.00  0.00    -0.051 A 
ATOM      3  C   UNL     1      35.747   9.318  21.495  1.00  0.00     0.004 A 
ATOM      4  C   UNL     1      34.352   9.400  21.486  1.00  0.00     0.004 A 
ATOM      5  C   UNL     1      33.685  10.314  22.321  1.00  0.00    -0.045 A 
ATOM      6  C   UNL     1      34.446  11.148  23.160  1.00  0.00     0.004 A 
ATOM      7  C   UNL     1      35.841  11.064  23.168  1.00  0.00     0.004 A 
ENDROOT
BRANCH   5   8
ATOM      8  C   UNL     1      32.170  10.395  22.301  1.00  0.00     0.013 C 
ATOM      9  C   UNL     1      31.542   8.997  22.279  1.00  0.00     0.012 C 
ATOM     10  C   UNL     1      31.645  11.217  23.484  1.00  0.00     0.012 C 
ENDBRANCH   5   8
TORSDOF 1
ENDMDL
