MODEL 1
REMARK VINA RESULT:    -6.492      0.000      0.000
REMARK INTER + INTRA:         -10.028
REMARK INTER:                  -8.579
REMARK INTRA:                  -1.449
REMARK UNBOUND:                -1.449
REMARK SMILES CC(C)=CCC[C@H](C(=O)[O-])[C@@H]1CC[C@@]2(C)C3=C(CC[C@]12C)[C@@]1(C)CC[C@H](O)C(C)(C)[C@H]1CC3
REMARK SMILES IDX 6 1 7 2 8 3 9 4 10 5 11 6 12 7 20 8 13 9 14 10 19 11 21 12
REMARK SMILES IDX 15 13 16 14 18 15 17 16 33 17 22 18 32 19 31 20 24 21 23 22
REMARK SMILES IDX 28 23 25 24 26 25 29 26 30 27 27 28 5 30 4 31 2 32 1 33 3 34
REMARK H PARENT 27 29
REMARK Flexibility Score: inf
ROOT
ATOM      1  C   UNL     1     160.962 161.215 178.997  1.00  0.00     0.014 C 
ENDROOT
BRANCH   1   2
ATOM      2  C   UNL     1     162.147 161.758 179.842  1.00  0.00     0.039 C 
BRANCH   2   3
ATOM      3  C   UNL     1     163.222 160.699 179.889  1.00  0.00     0.045 C 
ATOM      4  O   UNL     1     163.599 160.110 178.842  1.00  0.00    -0.550 OA
ATOM      5  O   UNL     1     163.849 160.412 181.095  1.00  0.00    -0.550 OA
ENDBRANCH   2   3
BRANCH   2   6
ATOM      6  C   UNL     1     161.760 162.267 181.277  1.00  0.00     0.004 C 
ATOM      7  C   UNL     1     160.227 162.437 181.536  1.00  0.00     0.006 C 
ATOM      8  C   UNL     1     162.343 163.653 181.720  1.00  0.00    -0.020 C 
ATOM      9  C   UNL     1     159.977 163.902 181.952  1.00  0.00     0.012 C 
ATOM     10  C   UNL     1     161.194 164.658 181.412  1.00  0.00    -0.006 C 
ATOM     11  C   UNL     1     163.631 164.178 181.051  1.00  0.00     0.012 C 
ATOM     12  C   UNL     1     162.628 163.535 183.265  1.00  0.00     0.012 C 
ATOM     13  C   UNL     1     160.911 164.945 179.900  1.00  0.00     0.017 C 
ATOM     14  C   UNL     1     161.535 166.020 182.007  1.00  0.00    -0.064 C 
ATOM     15  C   UNL     1     163.972 165.584 181.585  1.00  0.00     0.032 C 
ATOM     16  C   UNL     1     162.773 166.550 181.750  1.00  0.00    -0.064 C 
ATOM     17  C   UNL     1     160.460 166.867 182.614  1.00  0.00     0.032 C 
ATOM     18  C   UNL     1     163.041 168.083 181.811  1.00  0.00    -0.008 C 
ATOM     19  C   UNL     1     160.420 168.199 181.912  1.00  0.00     0.009 C 
ATOM     20  C   UNL     1     161.743 168.973 182.136  1.00  0.00     0.007 C 
ATOM     21  C   UNL     1     163.675 168.527 180.446  1.00  0.00     0.014 C 
ATOM     22  C   UNL     1     164.084 168.301 182.936  1.00  0.00     0.016 C 
ATOM     23  C   UNL     1     161.706 170.379 181.396  1.00  0.00    -0.006 C 
ATOM     24  C   UNL     1     162.626 168.930 179.421  1.00  0.00     0.033 C 
ATOM     25  C   UNL     1     161.857 170.200 179.842  1.00  0.00     0.120 C 
ATOM     26  C   UNL     1     162.800 171.323 181.984  1.00  0.00     0.014 C 
ATOM     27  C   UNL     1     160.363 171.118 181.663  1.00  0.00     0.014 C 
BRANCH  25  28
ATOM     28  O   UNL     1     162.463 171.334 179.273  1.00  0.00    -0.393 OA
ATOM     29  H   UNL     1     162.753 171.917 180.024  1.00  0.00     0.210 HD
ENDBRANCH  25  28
ENDBRANCH   2   6
ENDBRANCH   1   2
BRANCH   1  30
ATOM     30  C   UNL     1     160.583 162.106 177.803  1.00  0.00     0.028 C 
BRANCH  30  31
ATOM     31  C   UNL     1     161.817 162.578 177.077  1.00  0.00    -0.028 C 
ATOM     32  C   UNL     1     162.101 162.271 175.790  1.00  0.00    -0.080 C 
ATOM     33  C   UNL     1     163.367 162.789 175.159  1.00  0.00     0.039 C 
ATOM     34  C   UNL     1     161.145 161.480 174.930  1.00  0.00     0.039 C 
ENDBRANCH  30  31
ENDBRANCH   1  30
TORSDOF 6
ENDMDL
MODEL 2
REMARK VINA RESULT:    -6.460     12.656     15.615
REMARK INTER + INTRA:          -9.986
REMARK INTER:                  -8.637
REMARK INTRA:                  -1.349
REMARK UNBOUND:                -1.449
REMARK SMILES CC(C)=CCC[C@H](C(=O)[O-])[C@@H]1CC[C@@]2(C)C3=C(CC[C@]12C)[C@@]1(C)CC[C@H](O)C(C)(C)[C@H]1CC3
REMARK SMILES IDX 6 1 7 2 8 3 9 4 10 5 11 6 12 7 20 8 13 9 14 10 19 11 21 12
REMARK SMILES IDX 15 13 16 14 18 15 17 16 33 17 22 18 32 19 31 20 24 21 23 22
REMARK SMILES IDX 28 23 25 24 26 25 29 26 30 27 27 28 5 30 4 31 2 32 1 33 3 34
REMARK H PARENT 27 29
REMARK Flexibility Score: inf
ROOT
ATOM      1  C   UNL     1     176.936 164.784 184.090  1.00  0.00     0.014 C 
ENDROOT
BRANCH   1   2
ATOM      2  C   UNL     1     175.542 164.746 183.407  1.00  0.00     0.039 C 
BRANCH   2   3
ATOM      3  C   UNL     1     174.538 165.383 184.337  1.00  0.00     0.045 C 
ATOM      4  O   UNL     1     173.849 164.683 185.125  1.00  0.00    -0.550 OA
ATOM      5  O   UNL     1     174.414 166.766 184.369  1.00  0.00    -0.550 OA
ENDBRANCH   2   3
BRANCH   2   6
ATOM      6  C   UNL     1     175.078 163.325 182.925  1.00  0.00     0.004 C 
ATOM      7  C   UNL     1     176.147 162.192 183.054  1.00  0.00     0.006 C 
ATOM      8  C   UNL     1     174.615 163.197 181.433  1.00  0.00    -0.020 C 
ATOM      9  C   UNL     1     176.365 161.583 181.653  1.00  0.00     0.012 C 
ATOM     10  C   UNL     1     175.881 162.672 180.692  1.00  0.00    -0.006 C 
ATOM     11  C   UNL     1     174.110 164.451 180.689  1.00  0.00     0.012 C 
ATOM     12  C   UNL     1     173.445 162.141 181.425  1.00  0.00     0.012 C 
ATOM     13  C   UNL     1     177.060 163.687 180.532  1.00  0.00     0.017 C 
ATOM     14  C   UNL     1     175.511 162.281 179.265  1.00  0.00    -0.064 C 
ATOM     15  C   UNL     1     173.786 164.105 179.221  1.00  0.00     0.032 C 
ATOM     16  C   UNL     1     174.799 163.176 178.510  1.00  0.00    -0.064 C 
ATOM     17  C   UNL     1     176.142 161.083 178.626  1.00  0.00     0.032 C 
ATOM     18  C   UNL     1     174.838 163.153 176.953  1.00  0.00    -0.008 C 
ATOM     19  C   UNL     1     176.840 161.504 177.360  1.00  0.00     0.009 C 
ATOM     20  C   UNL     1     175.819 162.044 176.328  1.00  0.00     0.007 C 
ATOM     21  C   UNL     1     175.245 164.583 176.449  1.00  0.00     0.014 C 
ATOM     22  C   UNL     1     173.392 162.855 176.482  1.00  0.00     0.016 C 
ATOM     23  C   UNL     1     176.552 162.491 174.991  1.00  0.00    -0.006 C 
ATOM     24  C   UNL     1     176.751 164.743 176.308  1.00  0.00     0.033 C 
ATOM     25  C   UNL     1     177.333 163.839 175.201  1.00  0.00     0.120 C 
ATOM     26  C   UNL     1     175.523 162.590 173.822  1.00  0.00     0.014 C 
ATOM     27  C   UNL     1     177.575 161.415 174.524  1.00  0.00     0.014 C 
BRANCH  25  28
ATOM     28  O   UNL     1     177.413 164.556 173.994  1.00  0.00    -0.393 OA
ATOM     29  H   UNL     1     176.491 164.606 173.624  1.00  0.00     0.210 HD
ENDBRANCH  25  28
ENDBRANCH   2   6
ENDBRANCH   1   2
BRANCH   1  30
ATOM     30  C   UNL     1     178.037 165.431 183.234  1.00  0.00     0.028 C 
BRANCH  30  31
ATOM     31  C   UNL     1     177.494 166.611 182.470  1.00  0.00    -0.028 C 
ATOM     32  C   UNL     1     178.264 167.594 181.950  1.00  0.00    -0.080 C 
ATOM     33  C   UNL     1     177.619 168.736 181.207  1.00  0.00     0.039 C 
ATOM     34  C   UNL     1     179.771 167.549 182.022  1.00  0.00     0.039 C 
ENDBRANCH  30  31
ENDBRANCH   1  30
TORSDOF 6
ENDMDL
MODEL 3
REMARK VINA RESULT:    -6.445      4.022      8.062
REMARK INTER + INTRA:          -9.966
REMARK INTER:                  -8.356
REMARK INTRA:                  -1.610
REMARK UNBOUND:                -1.449
REMARK SMILES CC(C)=CCC[C@H](C(=O)[O-])[C@@H]1CC[C@@]2(C)C3=C(CC[C@]12C)[C@@]1(C)CC[C@H](O)C(C)(C)[C@H]1CC3
REMARK SMILES IDX 6 1 7 2 8 3 9 4 10 5 11 6 12 7 20 8 13 9 14 10 19 11 21 12
REMARK SMILES IDX 15 13 16 14 18 15 17 16 33 17 22 18 32 19 31 20 24 21 23 22
REMARK SMILES IDX 28 23 25 24 26 25 29 26 30 27 27 28 5 30 4 31 2 32 1 33 3 34
REMARK H PARENT 27 29
REMARK Flexibility Score: inf
ROOT
ATOM      1  C   UNL     1     163.794 161.102 183.037  1.00  0.00     0.014 C 
ENDROOT
BRANCH   1   2
ATOM      2  C   UNL     1     164.050 162.394 182.214  1.00  0.00     0.039 C 
BRANCH   2   3
ATOM      3  C   UNL     1     164.373 163.514 183.173  1.00  0.00     0.045 C 
ATOM      4  O   UNL     1     165.075 163.308 184.198  1.00  0.00    -0.550 OA
ATOM      5  O   UNL     1     163.940 164.804 182.893  1.00  0.00    -0.550 OA
ENDBRANCH   2   3
BRANCH   2   6
ATOM      6  C   UNL     1     162.898 162.786 181.219  1.00  0.00     0.004 C 
ATOM      7  C   UNL     1     161.858 161.657 180.922  1.00  0.00     0.006 C 
ATOM      8  C   UNL     1     163.327 163.250 179.785  1.00  0.00    -0.020 C 
ATOM      9  C   UNL     1     161.842 161.416 179.398  1.00  0.00     0.012 C 
ATOM     10  C   UNL     1     163.190 161.962 178.919  1.00  0.00    -0.006 C 
ATOM     11  C   UNL     1     164.742 163.823 179.568  1.00  0.00     0.012 C 
ATOM     12  C   UNL     1     162.296 164.362 179.357  1.00  0.00     0.012 C 
ATOM     13  C   UNL     1     164.247 160.838 179.176  1.00  0.00     0.017 C 
ATOM     14  C   UNL     1     163.355 162.318 177.445  1.00  0.00    -0.064 C 
ATOM     15  C   UNL     1     164.967 164.137 178.075  1.00  0.00     0.032 C 
ATOM     16  C   UNL     1     164.434 163.081 177.078  1.00  0.00    -0.064 C 
ATOM     17  C   UNL     1     162.525 161.629 176.407  1.00  0.00     0.032 C 
ATOM     18  C   UNL     1     165.009 163.049 175.631  1.00  0.00    -0.008 C 
ATOM     19  C   UNL     1     163.433 160.961 175.408  1.00  0.00     0.009 C 
ATOM     20  C   UNL     1     164.274 162.015 174.645  1.00  0.00     0.007 C 
ATOM     21  C   UNL     1     166.541 162.721 175.717  1.00  0.00     0.014 C 
ATOM     22  C   UNL     1     164.840 164.480 175.061  1.00  0.00     0.016 C 
ATOM     23  C   UNL     1     165.234 161.314 173.591  1.00  0.00    -0.006 C 
ATOM     24  C   UNL     1     166.819 161.226 175.670  1.00  0.00     0.033 C 
ATOM     25  C   UNL     1     166.437 160.604 174.311  1.00  0.00     0.120 C 
ATOM     26  C   UNL     1     165.719 162.353 172.533  1.00  0.00     0.014 C 
ATOM     27  C   UNL     1     164.471 160.238 172.764  1.00  0.00     0.014 C 
BRANCH  25  28
ATOM     28  O   UNL     1     167.563 160.568 173.470  1.00  0.00    -0.393 OA
ATOM     29  H   UNL     1     167.282 160.941 172.592  1.00  0.00     0.210 HD
ENDBRANCH  25  28
ENDBRANCH   2   6
ENDBRANCH   1   2
BRANCH   1  30
ATOM     30  C   UNL     1     164.753 159.948 182.706  1.00  0.00     0.028 C 
BRANCH  30  31
ATOM     31  C   UNL     1     166.105 160.476 182.299  1.00  0.00    -0.028 C 
ATOM     32  C   UNL     1     167.148 160.618 183.149  1.00  0.00    -0.080 C 
ATOM     33  C   UNL     1     168.458 161.164 182.640  1.00  0.00     0.039 C 
ATOM     34  C   UNL     1     167.070 160.171 184.588  1.00  0.00     0.039 C 
ENDBRANCH  30  31
ENDBRANCH   1  30
TORSDOF 6
ENDMDL
MODEL 4
REMARK VINA RESULT:    -6.346      3.871      7.044
REMARK INTER + INTRA:          -9.835
REMARK INTER:                  -8.456
REMARK INTRA:                  -1.379
REMARK UNBOUND:                -1.449
REMARK SMILES CC(C)=CCC[C@H](C(=O)[O-])[C@@H]1CC[C@@]2(C)C3=C(CC[C@]12C)[C@@]1(C)CC[C@H](O)C(C)(C)[C@H]1CC3
REMARK SMILES IDX 6 1 7 2 8 3 9 4 10 5 11 6 12 7 20 8 13 9 14 10 19 11 21 12
REMARK SMILES IDX 15 13 16 14 18 15 17 16 33 17 22 18 32 19 31 20 24 21 23 22
REMARK SMILES IDX 28 23 25 24 26 25 29 26 30 27 27 28 5 30 4 31 2 32 1 33 3 34
REMARK H PARENT 27 29
REMARK Flexibility Score: inf
ROOT
ATOM      1  C   UNL     1     160.256 163.532 181.150  1.00  0.00     0.014 C 
ENDROOT
BRANCH   1   2
ATOM      2  C   UNL     1     161.203 162.314 180.976  1.00  0.00     0.039 C 
BRANCH   2   3
ATOM      3  C   UNL     1     160.404 161.167 180.406  1.00  0.00     0.045 C 
ATOM      4  O   UNL     1     160.111 160.167 181.113  1.00  0.00    -0.550 OA
ATOM      5  O   UNL     1     159.933 161.240 179.102  1.00  0.00    -0.550 OA
ENDBRANCH   2   3
BRANCH   2   6
ATOM      6  C   UNL     1     161.991 161.896 182.270  1.00  0.00     0.004 C 
ATOM      7  C   UNL     1     162.103 163.001 183.371  1.00  0.00     0.006 C 
ATOM      8  C   UNL     1     163.479 161.443 182.079  1.00  0.00    -0.020 C 
ATOM      9  C   UNL     1     163.602 163.242 183.649  1.00  0.00     0.012 C 
ATOM     10  C   UNL     1     164.304 162.728 182.390  1.00  0.00    -0.006 C 
ATOM     11  C   UNL     1     163.934 160.902 180.708  1.00  0.00     0.012 C 
ATOM     12  C   UNL     1     163.732 160.307 183.142  1.00  0.00     0.012 C 
ATOM     13  C   UNL     1     164.224 163.876 181.330  1.00  0.00     0.017 C 
ATOM     14  C   UNL     1     165.786 162.376 182.468  1.00  0.00    -0.064 C 
ATOM     15  C   UNL     1     165.445 160.594 180.731  1.00  0.00     0.032 C 
ATOM     16  C   UNL     1     166.333 161.639 181.449  1.00  0.00    -0.064 C 
ATOM     17  C   UNL     1     166.666 163.046 183.476  1.00  0.00     0.032 C 
ATOM     18  C   UNL     1     167.856 161.684 181.128  1.00  0.00    -0.008 C 
ATOM     19  C   UNL     1     167.801 163.736 182.766  1.00  0.00     0.009 C 
ATOM     20  C   UNL     1     168.699 162.702 182.042  1.00  0.00     0.007 C 
ATOM     21  C   UNL     1     168.029 162.048 179.611  1.00  0.00     0.014 C 
ATOM     22  C   UNL     1     168.396 160.250 181.358  1.00  0.00     0.016 C 
ATOM     23  C   UNL     1     169.898 163.425 181.290  1.00  0.00    -0.006 C 
ATOM     24  C   UNL     1     168.115 163.548 179.378  1.00  0.00     0.033 C 
ATOM     25  C   UNL     1     169.388 164.162 179.999  1.00  0.00     0.120 C 
ATOM     26  C   UNL     1     171.027 162.398 180.967  1.00  0.00     0.014 C 
ATOM     27  C   UNL     1     170.579 164.483 182.206  1.00  0.00     0.014 C 
BRANCH  25  28
ATOM     28  O   UNL     1     170.407 164.224 179.032  1.00  0.00    -0.393 OA
ATOM     29  H   UNL     1     169.968 164.410 178.158  1.00  0.00     0.210 HD
ENDBRANCH  25  28
ENDBRANCH   2   6
ENDBRANCH   1   2
BRANCH   1  30
ATOM     30  C   UNL     1     160.860 164.867 180.685  1.00  0.00     0.028 C 
BRANCH  30  31
ATOM     31  C   UNL     1     160.338 166.009 181.520  1.00  0.00    -0.028 C 
ATOM     32  C   UNL     1     161.127 166.853 182.223  1.00  0.00    -0.080 C 
ATOM     33  C   UNL     1     160.503 167.960 183.033  1.00  0.00     0.039 C 
ATOM     34  C   UNL     1     162.633 166.772 182.165  1.00  0.00     0.039 C 
ENDBRANCH  30  31
ENDBRANCH   1  30
TORSDOF 6
ENDMDL
MODEL 5
REMARK VINA RESULT:    -6.218      2.564      4.712
REMARK INTER + INTRA:          -9.666
REMARK INTER:                  -8.812
REMARK INTRA:                  -0.854
REMARK UNBOUND:                -1.449
REMARK SMILES CC(C)=CCC[C@H](C(=O)[O-])[C@@H]1CC[C@@]2(C)C3=C(CC[C@]12C)[C@@]1(C)CC[C@H](O)C(C)(C)[C@H]1CC3
REMARK SMILES IDX 6 1 7 2 8 3 9 4 10 5 11 6 12 7 20 8 13 9 14 10 19 11 21 12
REMARK SMILES IDX 15 13 16 14 18 15 17 16 33 17 22 18 32 19 31 20 24 21 23 22
REMARK SMILES IDX 28 23 25 24 26 25 29 26 30 27 27 28 5 30 4 31 2 32 1 33 3 34
REMARK H PARENT 27 29
REMARK Flexibility Score: inf
ROOT
ATOM      1  C   UNL     1     163.500 160.774 182.419  1.00  0.00     0.014 C 
ENDROOT
BRANCH   1   2
ATOM      2  C   UNL     1     162.368 161.831 182.310  1.00  0.00     0.039 C 
BRANCH   2   3
ATOM      3  C   UNL     1     161.060 161.166 182.662  1.00  0.00     0.045 C 
ATOM      4  O   UNL     1     160.516 161.357 183.782  1.00  0.00    -0.550 OA
ATOM      5  O   UNL     1     160.413 160.380 181.716  1.00  0.00    -0.550 OA
ENDBRANCH   2   3
BRANCH   2   6
ATOM      6  C   UNL     1     162.293 162.582 180.931  1.00  0.00     0.004 C 
ATOM      7  C   UNL     1     163.665 162.799 180.212  1.00  0.00     0.006 C 
ATOM      8  C   UNL     1     161.674 164.022 180.940  1.00  0.00    -0.020 C 
ATOM      9  C   UNL     1     163.845 164.315 179.984  1.00  0.00     0.012 C 
ATOM     10  C   UNL     1     162.914 164.962 181.012  1.00  0.00    -0.006 C 
ATOM     11  C   UNL     1     160.706 164.420 182.074  1.00  0.00     0.012 C 
ATOM     12  C   UNL     1     160.895 164.173 179.579  1.00  0.00     0.012 C 
ATOM     13  C   UNL     1     163.690 164.984 182.370  1.00  0.00     0.017 C 
ATOM     14  C   UNL     1     162.473 166.406 180.796  1.00  0.00    -0.064 C 
ATOM     15  C   UNL     1     160.287 165.897 181.922  1.00  0.00     0.032 C 
ATOM     16  C   UNL     1     161.417 166.879 181.531  1.00  0.00    -0.064 C 
ATOM     17  C   UNL     1     163.336 167.347 180.016  1.00  0.00     0.032 C 
ATOM     18  C   UNL     1     161.228 168.399 181.815  1.00  0.00    -0.008 C 
ATOM     19  C   UNL     1     163.675 168.538 180.873  1.00  0.00     0.009 C 
ATOM     20  C   UNL     1     162.396 169.335 181.230  1.00  0.00     0.007 C 
ATOM     21  C   UNL     1     161.099 168.599 183.366  1.00  0.00     0.014 C 
ATOM     22  C   UNL     1     159.889 168.806 181.150  1.00  0.00     0.016 C 
ATOM     23  C   UNL     1     162.749 170.592 182.136  1.00  0.00    -0.006 C 
ATOM     24  C   UNL     1     162.446 168.821 184.038  1.00  0.00     0.033 C 
ATOM     25  C   UNL     1     163.103 170.147 183.601  1.00  0.00     0.120 C 
ATOM     26  C   UNL     1     161.576 171.621 182.107  1.00  0.00     0.014 C 
ATOM     27  C   UNL     1     163.970 171.371 181.566  1.00  0.00     0.014 C 
BRANCH  25  28
ATOM     28  O   UNL     1     162.780 171.163 184.517  1.00  0.00    -0.393 OA
ATOM     29  H   UNL     1     163.474 171.146 185.229  1.00  0.00     0.210 HD
ENDBRANCH  25  28
ENDBRANCH   2   6
ENDBRANCH   1   2
BRANCH   1  30
ATOM     30  C   UNL     1     164.701 161.226 183.266  1.00  0.00     0.028 C 
BRANCH  30  31
ATOM     31  C   UNL     1     165.987 160.676 182.705  1.00  0.00    -0.028 C 
ATOM     32  C   UNL     1     167.205 160.895 183.252  1.00  0.00    -0.080 C 
ATOM     33  C   UNL     1     168.432 160.303 182.607  1.00  0.00     0.039 C 
ATOM     34  C   UNL     1     167.373 161.656 184.545  1.00  0.00     0.039 C 
ENDBRANCH  30  31
ENDBRANCH   1  30
TORSDOF 6
ENDMDL
MODEL 6
REMARK VINA RESULT:    -6.201     12.092     15.093
REMARK INTER + INTRA:          -9.644
REMARK INTER:                  -8.189
REMARK INTRA:                  -1.455
REMARK UNBOUND:                -1.449
REMARK SMILES CC(C)=CCC[C@H](C(=O)[O-])[C@@H]1CC[C@@]2(C)C3=C(CC[C@]12C)[C@@]1(C)CC[C@H](O)C(C)(C)[C@H]1CC3
REMARK SMILES IDX 6 1 7 2 8 3 9 4 10 5 11 6 12 7 20 8 13 9 14 10 19 11 21 12
REMARK SMILES IDX 15 13 16 14 18 15 17 16 33 17 22 18 32 19 31 20 24 21 23 22
REMARK SMILES IDX 28 23 25 24 26 25 29 26 30 27 27 28 5 30 4 31 2 32 1 33 3 34
REMARK H PARENT 27 29
REMARK Flexibility Score: inf
ROOT
ATOM      1  C   UNL     1     175.980 161.611 183.097  1.00  0.00     0.014 C 
ENDROOT
BRANCH   1   2
ATOM      2  C   UNL     1     174.903 162.321 182.233  1.00  0.00     0.039 C 
BRANCH   2   3
ATOM      3  C   UNL     1     174.001 163.111 183.151  1.00  0.00     0.045 C 
ATOM      4  O   UNL     1     173.364 162.545 184.078  1.00  0.00    -0.550 OA
ATOM      5  O   UNL     1     173.917 164.490 183.011  1.00  0.00    -0.550 OA
ENDBRANCH   2   3
BRANCH   2   6
ATOM      6  C   UNL     1     174.088 161.374 181.280  1.00  0.00     0.004 C 
ATOM      7  C   UNL     1     174.757 159.995 180.974  1.00  0.00     0.006 C 
ATOM      8  C   UNL     1     173.754 161.923 179.850  1.00  0.00    -0.020 C 
ATOM      9  C   UNL     1     174.919 159.875 179.444  1.00  0.00     0.012 C 
ATOM     10  C   UNL     1     174.874 161.323 178.949  1.00  0.00    -0.006 C 
ATOM     11  C   UNL     1     173.717 163.448 179.617  1.00  0.00     0.012 C 
ATOM     12  C   UNL     1     172.331 161.354 179.483  1.00  0.00     0.012 C 
ATOM     13  C   UNL     1     176.310 161.911 179.145  1.00  0.00     0.017 C 
ATOM     14  C   UNL     1     174.545 161.587 177.483  1.00  0.00    -0.064 C 
ATOM     15  C   UNL     1     173.448 163.752 178.128  1.00  0.00     0.032 C 
ATOM     16  C   UNL     1     174.206 162.863 177.113  1.00  0.00    -0.064 C 
ATOM     17  C   UNL     1     174.852 160.553 176.445  1.00  0.00     0.032 C 
ATOM     18  C   UNL     1     174.386 163.371 175.652  1.00  0.00    -0.008 C 
ATOM     19  C   UNL     1     175.762 161.149 175.404  1.00  0.00     0.009 C 
ATOM     20  C   UNL     1     175.052 162.302 174.653  1.00  0.00     0.007 C 
ATOM     21  C   UNL     1     175.244 164.685 175.689  1.00  0.00     0.014 C 
ATOM     22  C   UNL     1     172.970 163.719 175.130  1.00  0.00     0.016 C 
ATOM     23  C   UNL     1     176.009 162.935 173.554  1.00  0.00    -0.006 C 
ATOM     24  C   UNL     1     176.736 164.408 175.590  1.00  0.00     0.033 C 
ATOM     25  C   UNL     1     177.129 163.812 174.222  1.00  0.00     0.120 C 
ATOM     26  C   UNL     1     175.173 163.747 172.517  1.00  0.00     0.014 C 
ATOM     27  C   UNL     1     176.709 161.827 172.714  1.00  0.00     0.014 C 
BRANCH  25  28
ATOM     28  O   UNL     1     177.533 164.840 173.353  1.00  0.00    -0.393 OA
ATOM     29  H   UNL     1     178.426 164.585 172.995  1.00  0.00     0.210 HD
ENDBRANCH  25  28
ENDBRANCH   2   6
ENDBRANCH   1   2
BRANCH   1  30
ATOM     30  C   UNL     1     177.413 162.109 182.846  1.00  0.00     0.028 C 
BRANCH  30  31
ATOM     31  C   UNL     1     177.404 163.534 182.354  1.00  0.00    -0.028 C 
ATOM     32  C   UNL     1     177.428 164.615 183.167  1.00  0.00    -0.080 C 
ATOM     33  C   UNL     1     177.409 165.999 182.571  1.00  0.00     0.039 C 
ATOM     34  C   UNL     1     177.549 164.483 184.665  1.00  0.00     0.039 C 
ENDBRANCH  30  31
ENDBRANCH   1  30
TORSDOF 6
ENDMDL
MODEL 7
REMARK VINA RESULT:    -6.162      5.703      8.538
REMARK INTER + INTRA:          -9.591
REMARK INTER:                  -8.485
REMARK INTRA:                  -1.107
REMARK UNBOUND:                -1.449
REMARK SMILES CC(C)=CCC[C@H](C(=O)[O-])[C@@H]1CC[C@@]2(C)C3=C(CC[C@]12C)[C@@]1(C)CC[C@H](O)C(C)(C)[C@H]1CC3
REMARK SMILES IDX 6 1 7 2 8 3 9 4 10 5 11 6 12 7 20 8 13 9 14 10 19 11 21 12
REMARK SMILES IDX 15 13 16 14 18 15 17 16 33 17 22 18 32 19 31 20 24 21 23 22
REMARK SMILES IDX 28 23 25 24 26 25 29 26 30 27 27 28 5 30 4 31 2 32 1 33 3 34
REMARK H PARENT 27 29
REMARK Flexibility Score: inf
ROOT
ATOM      1  C   UNL     1     170.686 160.231 179.967  1.00  0.00     0.014 C 
ENDROOT
BRANCH   1   2
ATOM      2  C   UNL     1     169.831 161.501 180.227  1.00  0.00     0.039 C 
BRANCH   2   3
ATOM      3  C   UNL     1     170.612 162.705 179.758  1.00  0.00     0.045 C 
ATOM      4  O   UNL     1     170.708 162.978 178.532  1.00  0.00    -0.550 OA
ATOM      5  O   UNL     1     171.183 163.559 180.693  1.00  0.00    -0.550 OA
ENDBRANCH   2   3
BRANCH   2   6
ATOM      6  C   UNL     1     169.324 161.668 181.704  1.00  0.00     0.004 C 
ATOM      7  C   UNL     1     169.158 160.339 182.510  1.00  0.00     0.006 C 
ATOM      8  C   UNL     1     167.937 162.371 181.903  1.00  0.00    -0.020 C 
ATOM      9  C   UNL     1     167.694 160.256 182.991  1.00  0.00     0.012 C 
ATOM     10  C   UNL     1     166.935 161.186 182.042  1.00  0.00    -0.006 C 
ATOM     11  C   UNL     1     167.407 163.320 180.808  1.00  0.00     0.012 C 
ATOM     12  C   UNL     1     168.054 163.205 183.235  1.00  0.00     0.012 C 
ATOM     13  C   UNL     1     166.647 160.366 180.742  1.00  0.00     0.017 C 
ATOM     14  C   UNL     1     165.572 161.719 182.472  1.00  0.00    -0.064 C 
ATOM     15  C   UNL     1     166.000 163.830 181.181  1.00  0.00     0.032 C 
ATOM     16  C   UNL     1     165.038 162.774 181.777  1.00  0.00    -0.064 C 
ATOM     17  C   UNL     1     164.729 160.941 183.433  1.00  0.00     0.032 C 
ATOM     18  C   UNL     1     163.505 163.043 181.738  1.00  0.00    -0.008 C 
ATOM     19  C   UNL     1     163.396 160.643 182.798  1.00  0.00     0.009 C 
ATOM     20  C   UNL     1     162.619 161.953 182.520  1.00  0.00     0.007 C 
ATOM     21  C   UNL     1     163.057 163.128 180.236  1.00  0.00     0.014 C 
ATOM     22  C   UNL     1     163.284 164.426 182.400  1.00  0.00     0.016 C 
ATOM     23  C   UNL     1     161.212 161.643 181.848  1.00  0.00    -0.006 C 
ATOM     24  C   UNL     1     162.657 161.774 179.670  1.00  0.00     0.033 C 
ATOM     25  C   UNL     1     161.389 161.211 180.347  1.00  0.00     0.120 C 
ATOM     26  C   UNL     1     160.265 162.874 181.993  1.00  0.00     0.014 C 
ATOM     27  C   UNL     1     160.476 160.491 182.592  1.00  0.00     0.014 C 
BRANCH  25  28
ATOM     28  O   UNL     1     160.254 161.562 179.596  1.00  0.00    -0.393 OA
ATOM     29  H   UNL     1     159.639 160.779 179.615  1.00  0.00     0.210 HD
ENDBRANCH  25  28
ENDBRANCH   2   6
ENDBRANCH   1   2
BRANCH   1  30
ATOM     30  C   UNL     1     172.188 160.423 180.230  1.00  0.00     0.028 C 
BRANCH  30  31
ATOM     31  C   UNL     1     172.566 159.883 181.586  1.00  0.00    -0.028 C 
ATOM     32  C   UNL     1     173.411 160.507 182.440  1.00  0.00    -0.080 C 
ATOM     33  C   UNL     1     173.728 159.877 183.771  1.00  0.00     0.039 C 
ATOM     34  C   UNL     1     173.994 161.864 182.133  1.00  0.00     0.039 C 
ENDBRANCH  30  31
ENDBRANCH   1  30
TORSDOF 6
ENDMDL
MODEL 8
REMARK VINA RESULT:    -6.136      4.110      8.377
REMARK INTER + INTRA:          -9.557
REMARK INTER:                  -8.062
REMARK INTRA:                  -1.496
REMARK UNBOUND:                -1.449
REMARK SMILES CC(C)=CCC[C@H](C(=O)[O-])[C@@H]1CC[C@@]2(C)C3=C(CC[C@]12C)[C@@]1(C)CC[C@H](O)C(C)(C)[C@H]1CC3
REMARK SMILES IDX 6 1 7 2 8 3 9 4 10 5 11 6 12 7 20 8 13 9 14 10 19 11 21 12
REMARK SMILES IDX 15 13 16 14 18 15 17 16 33 17 22 18 32 19 31 20 24 21 23 22
REMARK SMILES IDX 28 23 25 24 26 25 29 26 30 27 27 28 5 30 4 31 2 32 1 33 3 34
REMARK H PARENT 27 29
REMARK Flexibility Score: inf
ROOT
ATOM      1  C   UNL     1     162.877 163.515 180.935  1.00  0.00     0.014 C 
ENDROOT
BRANCH   1   2
ATOM      2  C   UNL     1     163.629 162.350 180.237  1.00  0.00     0.039 C 
BRANCH   2   3
ATOM      3  C   UNL     1     164.131 161.402 181.299  1.00  0.00     0.045 C 
ATOM      4  O   UNL     1     164.141 161.736 182.514  1.00  0.00    -0.550 OA
ATOM      5  O   UNL     1     164.531 160.121 180.942  1.00  0.00    -0.550 OA
ENDBRANCH   2   3
BRANCH   2   6
ATOM      6  C   UNL     1     164.774 162.793 179.256  1.00  0.00     0.004 C 
ATOM      7  C   UNL     1     164.818 164.320 178.924  1.00  0.00     0.006 C 
ATOM      8  C   UNL     1     164.788 162.129 177.836  1.00  0.00    -0.020 C 
ATOM      9  C   UNL     1     164.703 164.477 177.393  1.00  0.00     0.012 C 
ATOM     10  C   UNL     1     164.061 163.166 176.931  1.00  0.00    -0.006 C 
ATOM     11  C   UNL     1     164.107 160.759 177.636  1.00  0.00     0.012 C 
ATOM     12  C   UNL     1     166.306 161.963 177.444  1.00  0.00     0.012 C 
ATOM     13  C   UNL     1     162.520 163.319 177.151  1.00  0.00     0.017 C 
ATOM     14  C   UNL     1     164.203 162.756 175.469  1.00  0.00    -0.064 C 
ATOM     15  C   UNL     1     164.178 160.340 176.153  1.00  0.00     0.032 C 
ATOM     16  C   UNL     1     163.903 161.463 175.124  1.00  0.00    -0.064 C 
ATOM     17  C   UNL     1     164.394 163.797 174.410  1.00  0.00     0.032 C 
ATOM     18  C   UNL     1     163.481 161.074 173.677  1.00  0.00    -0.008 C 
ATOM     19  C   UNL     1     163.293 163.677 173.390  1.00  0.00     0.009 C 
ATOM     20  C   UNL     1     163.372 162.314 172.660  1.00  0.00     0.007 C 
ATOM     21  C   UNL     1     162.111 160.312 173.750  1.00  0.00     0.014 C 
ATOM     22  C   UNL     1     164.563 160.098 173.151  1.00  0.00     0.016 C 
ATOM     23  C   UNL     1     162.211 162.182 171.583  1.00  0.00    -0.006 C 
ATOM     24  C   UNL     1     160.917 161.250 173.657  1.00  0.00     0.033 C 
ATOM     25  C   UNL     1     160.823 161.938 172.279  1.00  0.00     0.120 C 
ATOM     26  C   UNL     1     162.554 161.057 170.557  1.00  0.00     0.014 C 
ATOM     27  C   UNL     1     162.093 163.475 170.724  1.00  0.00     0.014 C 
BRANCH  25  28
ATOM     28  O   UNL     1     159.971 161.203 171.437  1.00  0.00    -0.393 OA
ATOM     29  H   UNL     1     160.143 161.513 170.507  1.00  0.00     0.210 HD
ENDBRANCH  25  28
ENDBRANCH   2   6
ENDBRANCH   1   2
BRANCH   1  30
ATOM     30  C   UNL     1     161.360 163.518 180.690  1.00  0.00     0.028 C 
BRANCH  30  31
ATOM     31  C   UNL     1     160.879 162.144 180.301  1.00  0.00    -0.028 C 
ATOM     32  C   UNL     1     160.419 161.226 181.182  1.00  0.00    -0.080 C 
ATOM     33  C   UNL     1     159.968 159.876 180.688  1.00  0.00     0.039 C 
ATOM     34  C   UNL     1     160.268 161.537 182.651  1.00  0.00     0.039 C 
ENDBRANCH  30  31
ENDBRANCH   1  30
TORSDOF 6
ENDMDL
MODEL 9
REMARK VINA RESULT:    -5.967      4.680      6.976
REMARK INTER + INTRA:          -9.334
REMARK INTER:                  -7.725
REMARK INTRA:                  -1.609
REMARK UNBOUND:                -1.449
REMARK SMILES CC(C)=CCC[C@H](C(=O)[O-])[C@@H]1CC[C@@]2(C)C3=C(CC[C@]12C)[C@@]1(C)CC[C@H](O)C(C)(C)[C@H]1CC3
REMARK SMILES IDX 6 1 7 2 8 3 9 4 10 5 11 6 12 7 20 8 13 9 14 10 19 11 21 12
REMARK SMILES IDX 15 13 16 14 18 15 17 16 33 17 22 18 32 19 31 20 24 21 23 22
REMARK SMILES IDX 28 23 25 24 26 25 29 26 30 27 27 28 5 30 4 31 2 32 1 33 3 34
REMARK H PARENT 27 29
REMARK Flexibility Score: inf
ROOT
ATOM      1  C   UNL     1     161.895 162.919 180.378  1.00  0.00     0.014 C 
ENDROOT
BRANCH   1   2
ATOM      2  C   UNL     1     161.968 161.479 180.955  1.00  0.00     0.039 C 
BRANCH   2   3
ATOM      3  C   UNL     1     160.573 160.902 180.972  1.00  0.00     0.045 C 
ATOM      4  O   UNL     1     160.009 160.601 182.057  1.00  0.00    -0.550 OA
ATOM      5  O   UNL     1     159.875 160.757 179.780  1.00  0.00    -0.550 OA
ENDBRANCH   2   3
BRANCH   2   6
ATOM      6  C   UNL     1     162.670 161.360 182.355  1.00  0.00     0.004 C 
ATOM      7  C   UNL     1     162.626 162.650 183.238  1.00  0.00     0.006 C 
ATOM      8  C   UNL     1     164.193 160.990 182.356  1.00  0.00    -0.020 C 
ATOM      9  C   UNL     1     164.080 163.047 183.570  1.00  0.00     0.012 C 
ATOM     10  C   UNL     1     164.912 162.367 182.480  1.00  0.00    -0.006 C 
ATOM     11  C   UNL     1     164.790 160.246 181.144  1.00  0.00     0.012 C 
ATOM     12  C   UNL     1     164.425 160.086 183.626  1.00  0.00     0.012 C 
ATOM     13  C   UNL     1     164.851 163.296 181.222  1.00  0.00     0.017 C 
ATOM     14  C   UNL     1     166.401 162.145 182.724  1.00  0.00    -0.064 C 
ATOM     15  C   UNL     1     166.310 160.059 181.329  1.00  0.00     0.032 C 
ATOM     16  C   UNL     1     167.073 161.278 181.901  1.00  0.00    -0.064 C 
ATOM     17  C   UNL     1     167.154 163.048 183.650  1.00  0.00     0.032 C 
ATOM     18  C   UNL     1     168.611 161.376 181.683  1.00  0.00    -0.008 C 
ATOM     19  C   UNL     1     168.301 163.680 182.905  1.00  0.00     0.009 C 
ATOM     20  C   UNL     1     169.315 162.601 182.449  1.00  0.00     0.007 C 
ATOM     21  C   UNL     1     168.886 161.472 180.141  1.00  0.00     0.014 C 
ATOM     22  C   UNL     1     169.215 160.051 182.212  1.00  0.00     0.016 C 
ATOM     23  C   UNL     1     170.526 163.263 181.661  1.00  0.00    -0.006 C 
ATOM     24  C   UNL     1     168.902 162.909 179.641  1.00  0.00     0.033 C 
ATOM     25  C   UNL     1     170.081 163.716 180.223  1.00  0.00     0.120 C 
ATOM     26  C   UNL     1     171.737 162.280 181.613  1.00  0.00     0.014 C 
ATOM     27  C   UNL     1     171.066 164.516 182.410  1.00  0.00     0.014 C 
BRANCH  25  28
ATOM     28  O   UNL     1     171.169 163.677 179.335  1.00  0.00    -0.393 OA
ATOM     29  H   UNL     1     170.793 163.648 178.414  1.00  0.00     0.210 HD
ENDBRANCH  25  28
ENDBRANCH   2   6
ENDBRANCH   1   2
BRANCH   1  30
ATOM     30  C   UNL     1     162.318 163.026 178.904  1.00  0.00     0.028 C 
BRANCH  30  31
ATOM     31  C   UNL     1     162.871 161.713 178.411  1.00  0.00    -0.028 C 
ATOM     32  C   UNL     1     164.077 161.577 177.813  1.00  0.00    -0.080 C 
ATOM     33  C   UNL     1     164.533 160.218 177.349  1.00  0.00     0.039 C 
ATOM     34  C   UNL     1     165.026 162.740 177.660  1.00  0.00     0.039 C 
ENDBRANCH  30  31
ENDBRANCH   1  30
TORSDOF 6
ENDMDL
