MODEL 1
REMARK VINA RESULT:    -2.993      0.000      0.000
REMARK INTER + INTRA:          -3.367
REMARK INTER:                  -3.343
REMARK INTRA:                  -0.024
REMARK UNBOUND:                -0.024
REMARK SMILES CCCC(=O)[O-]
REMARK SMILES IDX 3 1 4 2 5 3 6 4 2 5 1 6
REMARK H PARENT
REMARK Flexibility Score: inf
ROOT
ATOM      1  C   UNL     1     -23.195   4.138 -48.515  1.00  0.00     0.052 C 
ENDROOT
BRANCH   1   2
ATOM      2  C   UNL     1     -22.549   2.794 -48.415  1.00  0.00     0.041 C 
ATOM      3  O   UNL     1     -23.253   1.762 -48.255  1.00  0.00    -0.550 OA
ATOM      4  O   UNL     1     -21.165   2.683 -48.448  1.00  0.00    -0.550 OA
ENDBRANCH   1   2
BRANCH   1   5
ATOM      5  C   UNL     1     -24.600   4.014 -49.109  1.00  0.00     0.003 C 
ATOM      6  C   UNL     1     -25.569   4.983 -48.439  1.00  0.00     0.004 C 
ENDBRANCH   1   5
TORSDOF 2
ENDMDL
MODEL 2
REMARK VINA RESULT:    -2.959     13.972     14.603
REMARK INTER + INTRA:          -3.330
REMARK INTER:                  -3.317
REMARK INTRA:                  -0.012
REMARK UNBOUND:                -0.024
REMARK SMILES CCCC(=O)[O-]
REMARK SMILES IDX 3 1 4 2 5 3 6 4 2 5 1 6
REMARK H PARENT
REMARK Flexibility Score: inf
ROOT
ATOM      1  C   UNL     1     -11.963  -1.404 -39.959  1.00  0.00     0.052 C 
ENDROOT
BRANCH   1   2
ATOM      2  C   UNL     1     -13.327  -1.982 -39.752  1.00  0.00     0.041 C 
ATOM      3  O   UNL     1     -13.464  -3.087 -39.164  1.00  0.00    -0.550 OA
ATOM      4  O   UNL     1     -14.444  -1.325 -40.251  1.00  0.00    -0.550 OA
ENDBRANCH   1   2
BRANCH   1   5
ATOM      5  C   UNL     1     -12.049  -0.099 -40.754  1.00  0.00     0.003 C 
ATOM      6  C   UNL     1     -10.729   0.205 -41.457  1.00  0.00     0.004 C 
ENDBRANCH   1   5
TORSDOF 2
ENDMDL
MODEL 3
REMARK VINA RESULT:    -2.956     14.855     15.451
REMARK INTER + INTRA:          -3.325
REMARK INTER:                  -3.317
REMARK INTRA:                  -0.009
REMARK UNBOUND:                -0.024
REMARK SMILES CCCC(=O)[O-]
REMARK SMILES IDX 3 1 4 2 5 3 6 4 2 5 1 6
REMARK H PARENT
REMARK Flexibility Score: inf
ROOT
ATOM      1  C   UNL     1     -10.967  -1.772 -40.027  1.00  0.00     0.052 C 
ENDROOT
BRANCH   1   2
ATOM      2  C   UNL     1     -10.287  -1.394 -41.304  1.00  0.00     0.041 C 
ATOM      3  O   UNL     1     -10.474  -0.256 -41.809  1.00  0.00    -0.550 OA
ATOM      4  O   UNL     1      -9.487  -2.317 -41.966  1.00  0.00    -0.550 OA
ENDBRANCH   1   2
BRANCH   1   5
ATOM      5  C   UNL     1     -12.437  -1.347 -40.055  1.00  0.00     0.003 C 
ATOM      6  C   UNL     1     -13.323  -2.382 -39.368  1.00  0.00     0.004 C 
ENDBRANCH   1   5
TORSDOF 2
ENDMDL
MODEL 4
REMARK VINA RESULT:    -2.943     13.754     14.925
REMARK INTER + INTRA:          -3.311
REMARK INTER:                  -3.305
REMARK INTRA:                  -0.006
REMARK UNBOUND:                -0.024
REMARK SMILES CCCC(=O)[O-]
REMARK SMILES IDX 3 1 4 2 5 3 6 4 2 5 1 6
REMARK H PARENT
REMARK Flexibility Score: inf
ROOT
ATOM      1  C   UNL     1     -12.314  -0.851 -40.343  1.00  0.00     0.052 C 
ENDROOT
BRANCH   1   2
ATOM      2  C   UNL     1     -11.036  -1.625 -40.300  1.00  0.00     0.041 C 
ATOM      3  O   UNL     1     -10.342  -1.762 -41.342  1.00  0.00    -0.550 OA
ATOM      4  O   UNL     1     -10.633  -2.239 -39.121  1.00  0.00    -0.550 OA
ENDBRANCH   1   2
BRANCH   1   5
ATOM      5  C   UNL     1     -13.487  -1.726 -39.895  1.00  0.00     0.003 C 
ATOM      6  C   UNL     1     -14.815  -1.166 -40.396  1.00  0.00     0.004 C 
ENDBRANCH   1   5
TORSDOF 2
ENDMDL
MODEL 5
REMARK VINA RESULT:    -2.913      9.394      9.899
REMARK INTER + INTRA:          -3.277
REMARK INTER:                  -3.245
REMARK INTRA:                  -0.033
REMARK UNBOUND:                -0.024
REMARK SMILES CCCC(=O)[O-]
REMARK SMILES IDX 3 1 4 2 5 3 6 4 2 5 1 6
REMARK H PARENT
REMARK Flexibility Score: inf
ROOT
ATOM      1  C   UNL     1     -16.821   4.653 -40.570  1.00  0.00     0.052 C 
ENDROOT
BRANCH   1   2
ATOM      2  C   UNL     1     -17.648   3.429 -40.801  1.00  0.00     0.041 C 
ATOM      3  O   UNL     1     -18.633   3.468 -41.585  1.00  0.00    -0.550 OA
ATOM      4  O   UNL     1     -17.364   2.257 -40.113  1.00  0.00    -0.550 OA
ENDBRANCH   1   2
BRANCH   1   5
ATOM      5  C   UNL     1     -17.489   5.878 -41.201  1.00  0.00     0.003 C 
ATOM      6  C   UNL     1     -17.854   6.913 -40.140  1.00  0.00     0.004 C 
ENDBRANCH   1   5
TORSDOF 2
ENDMDL
MODEL 6
REMARK VINA RESULT:    -2.911      9.620     10.400
REMARK INTER + INTRA:          -3.275
REMARK INTER:                  -3.239
REMARK INTRA:                  -0.036
REMARK UNBOUND:                -0.024
REMARK SMILES CCCC(=O)[O-]
REMARK SMILES IDX 3 1 4 2 5 3 6 4 2 5 1 6
REMARK H PARENT
REMARK Flexibility Score: inf
ROOT
ATOM      1  C   UNL     1     -17.070   5.559 -40.341  1.00  0.00     0.052 C 
ENDROOT
BRANCH   1   2
ATOM      2  C   UNL     1     -18.041   6.694 -40.395  1.00  0.00     0.041 C 
ATOM      3  O   UNL     1     -19.006   6.665 -41.204  1.00  0.00    -0.550 OA
ATOM      4  O   UNL     1     -17.855   7.809 -39.588  1.00  0.00    -0.550 OA
ENDBRANCH   1   2
BRANCH   1   5
ATOM      5  C   UNL     1     -17.428   4.497 -41.383  1.00  0.00     0.003 C 
ATOM      6  C   UNL     1     -17.765   3.165 -40.719  1.00  0.00     0.004 C 
ENDBRANCH   1   5
TORSDOF 2
ENDMDL
MODEL 7
REMARK VINA RESULT:    -2.872      9.588     10.203
REMARK INTER + INTRA:          -3.232
REMARK INTER:                  -3.172
REMARK INTRA:                  -0.060
REMARK UNBOUND:                -0.024
REMARK SMILES CCCC(=O)[O-]
REMARK SMILES IDX 3 1 4 2 5 3 6 4 2 5 1 6
REMARK H PARENT
REMARK Flexibility Score: inf
ROOT
ATOM      1  C   UNL     1     -17.338   4.646 -41.946  1.00  0.00     0.052 C 
ENDROOT
BRANCH   1   2
ATOM      2  C   UNL     1     -16.788   5.398 -40.776  1.00  0.00     0.041 C 
ATOM      3  O   UNL     1     -17.542   6.128 -40.080  1.00  0.00    -0.550 OA
ATOM      4  O   UNL     1     -15.432   5.332 -40.481  1.00  0.00    -0.550 OA
ENDBRANCH   1   2
BRANCH   1   5
ATOM      5  C   UNL     1     -18.377   3.622 -41.484  1.00  0.00     0.003 C 
ATOM      6  C   UNL     1     -17.784   2.660 -40.459  1.00  0.00     0.004 C 
ENDBRANCH   1   5
TORSDOF 2
ENDMDL
MODEL 8
REMARK VINA RESULT:    -2.777      2.813      3.539
REMARK INTER + INTRA:          -3.125
REMARK INTER:                  -3.119
REMARK INTRA:                  -0.007
REMARK UNBOUND:                -0.024
REMARK SMILES CCCC(=O)[O-]
REMARK SMILES IDX 3 1 4 2 5 3 6 4 2 5 1 6
REMARK H PARENT
REMARK Flexibility Score: inf
ROOT
ATOM      1  C   UNL     1     -23.688   4.655 -48.611  1.00  0.00     0.052 C 
ENDROOT
BRANCH   1   2
ATOM      2  C   UNL     1     -24.933   5.154 -47.952  1.00  0.00     0.041 C 
ATOM      3  O   UNL     1     -26.060   4.913 -48.461  1.00  0.00    -0.550 OA
ATOM      4  O   UNL     1     -24.851   5.929 -46.802  1.00  0.00    -0.550 OA
ENDBRANCH   1   2
BRANCH   1   5
ATOM      5  C   UNL     1     -23.679   3.125 -48.652  1.00  0.00     0.003 C 
ATOM      6  C   UNL     1     -22.280   2.575 -48.386  1.00  0.00     0.004 C 
ENDBRANCH   1   5
TORSDOF 2
ENDMDL
MODEL 9
REMARK VINA RESULT:    -2.727     15.339     16.300
REMARK INTER + INTRA:          -3.070
REMARK INTER:                  -3.034
REMARK INTRA:                  -0.035
REMARK UNBOUND:                -0.024
REMARK SMILES CCCC(=O)[O-]
REMARK SMILES IDX 3 1 4 2 5 3 6 4 2 5 1 6
REMARK H PARENT
REMARK Flexibility Score: inf
ROOT
ATOM      1  C   UNL     1     -11.074  -1.655 -39.092  1.00  0.00     0.052 C 
ENDROOT
BRANCH   1   2
ATOM      2  C   UNL     1     -10.153  -2.722 -39.589  1.00  0.00     0.041 C 
ATOM      3  O   UNL     1      -9.526  -2.565 -40.670  1.00  0.00    -0.550 OA
ATOM      4  O   UNL     1     -10.022  -3.912 -38.886  1.00  0.00    -0.550 OA
ENDBRANCH   1   2
BRANCH   1   5
ATOM      5  C   UNL     1     -12.225  -1.439 -40.077  1.00  0.00     0.003 C 
ATOM      6  C   UNL     1     -13.490  -2.153 -39.611  1.00  0.00     0.004 C 
ENDBRANCH   1   5
TORSDOF 2
ENDMDL
