MODEL 1
REMARK VINA RESULT:    -5.799      0.000      0.000
REMARK INTER + INTRA:          -7.217
REMARK INTER:                  -6.986
REMARK INTRA:                  -0.231
REMARK UNBOUND:                -0.231
REMARK SMILES O=c1c(O)c(-c2ccc(O)c(O)c2)oc2cc(O)cc(O)c12
REMARK SMILES IDX 5 1 3 2 2 3 1 4 22 5 20 6 19 7 17 8 16 9 15 10 14 11 6 12
REMARK SMILES IDX 7 13 8 14 9 15 13 16 11 17 10 18 12 20 4 22 21 24 18 26
REMARK H PARENT 10 19 12 21 4 23 21 25 18 27
REMARK Flexibility Score: inf
ROOT
ATOM      1  C   UNL     1      25.772  37.255  32.075  1.00  0.00     0.180 A 
ATOM      2  C   UNL     1      24.662  37.125  32.927  1.00  0.00     0.208 A 
ATOM      3  C   UNL     1      23.841  38.242  33.152  1.00  0.00     0.238 A 
ATOM      4  O   UNL     1      22.818  38.104  33.872  1.00  0.00    -0.285 OA
ATOM      5  C   UNL     1      24.151  39.480  32.538  1.00  0.00     0.111 A 
ATOM      6  C   UNL     1      23.413  40.686  32.728  1.00  0.00     0.134 A 
ATOM      7  C   UNL     1      23.732  41.817  31.968  1.00  0.00     0.093 A 
ATOM      8  C   UNL     1      24.802  41.807  31.074  1.00  0.00     0.123 A 
ATOM      9  C   UNL     1      25.567  40.650  30.924  1.00  0.00     0.094 A 
ATOM     10  C   UNL     1      25.251  39.494  31.641  1.00  0.00     0.146 A 
ATOM     11  O   UNL     1      25.998  38.412  31.462  1.00  0.00    -0.452 OA
ENDROOT
BRANCH   1  12
ATOM     12  C   UNL     1      26.696  36.130  31.808  1.00  0.00     0.025 A 
ATOM     13  C   UNL     1      26.282  35.078  30.976  1.00  0.00     0.016 A 
ATOM     14  C   UNL     1      27.145  34.016  30.694  1.00  0.00     0.051 A 
ATOM     15  C   UNL     1      28.439  33.998  31.223  1.00  0.00     0.157 A 
ATOM     16  C   UNL     1      28.006  36.120  32.321  1.00  0.00     0.062 A 
ATOM     17  C   UNL     1      28.875  35.056  32.037  1.00  0.00     0.158 A 
BRANCH  15  18
ATOM     18  O   UNL     1      29.278  32.924  30.925  1.00  0.00    -0.504 OA
ATOM     19  H   UNL     1      29.130  32.001  31.314  1.00  0.00     0.293 HD
ENDBRANCH  15  18
BRANCH  17  20
ATOM     20  O   UNL     1      30.168  35.051  32.556  1.00  0.00    -0.504 OA
ATOM     21  H   UNL     1      30.922  35.559  32.109  1.00  0.00     0.293 HD
ENDBRANCH  17  20
ENDBRANCH   1  12
BRANCH   2  22
ATOM     22  O   UNL     1      24.362  35.889  33.506  1.00  0.00    -0.502 OA
ATOM     23  H   UNL     1      24.792  35.572  34.367  1.00  0.00     0.293 HD
ENDBRANCH   2  22
BRANCH   6  24
ATOM     24  O   UNL     1      22.383  40.831  33.664  1.00  0.00    -0.507 OA
ATOM     25  H   UNL     1      21.649  40.158  33.819  1.00  0.00     0.293 HD
ENDBRANCH   6  24
BRANCH   8  26
ATOM     26  O   UNL     1      25.101  42.956  30.346  1.00  0.00    -0.508 OA
ATOM     27  H   UNL     1      24.934  43.010  29.348  1.00  0.00     0.293 HD
ENDBRANCH   8  26
TORSDOF 6
ENDMDL
MODEL 2
REMARK VINA RESULT:    -5.692      1.946      2.467
REMARK INTER + INTRA:          -7.088
REMARK INTER:                  -6.767
REMARK INTRA:                  -0.321
REMARK UNBOUND:                -0.231
REMARK SMILES O=c1c(O)c(-c2ccc(O)c(O)c2)oc2cc(O)cc(O)c12
REMARK SMILES IDX 5 1 3 2 2 3 1 4 22 5 20 6 19 7 17 8 16 9 15 10 14 11 6 12
REMARK SMILES IDX 7 13 8 14 9 15 13 16 11 17 10 18 12 20 4 22 21 24 18 26
REMARK H PARENT 10 19 12 21 4 23 21 25 18 27
REMARK Flexibility Score: inf
ROOT
ATOM      1  C   UNL     1      25.705  38.187  33.694  1.00  0.00     0.180 A 
ATOM      2  C   UNL     1      24.699  38.425  34.646  1.00  0.00     0.208 A 
ATOM      3  C   UNL     1      23.737  39.415  34.388  1.00  0.00     0.238 A 
ATOM      4  O   UNL     1      22.808  39.587  35.220  1.00  0.00    -0.285 OA
ATOM      5  C   UNL     1      23.803  40.167  33.189  1.00  0.00     0.111 A 
ATOM      6  C   UNL     1      22.907  41.221  32.844  1.00  0.00     0.134 A 
ATOM      7  C   UNL     1      22.986  41.806  31.574  1.00  0.00     0.093 A 
ATOM      8  C   UNL     1      23.970  41.422  30.664  1.00  0.00     0.123 A 
ATOM      9  C   UNL     1      24.889  40.433  31.014  1.00  0.00     0.094 A 
ATOM     10  C   UNL     1      24.813  39.805  32.260  1.00  0.00     0.146 A 
ATOM     11  O   UNL     1      25.701  38.862  32.550  1.00  0.00    -0.452 OA
ENDROOT
BRANCH   1  12
ATOM     12  C   UNL     1      26.767  37.177  33.905  1.00  0.00     0.025 A 
ATOM     13  C   UNL     1      27.964  37.554  34.533  1.00  0.00     0.016 A 
ATOM     14  C   UNL     1      28.971  36.613  34.762  1.00  0.00     0.051 A 
ATOM     15  C   UNL     1      28.791  35.280  34.382  1.00  0.00     0.157 A 
ATOM     16  C   UNL     1      26.580  35.830  33.543  1.00  0.00     0.062 A 
ATOM     17  C   UNL     1      27.588  34.883  33.774  1.00  0.00     0.158 A 
BRANCH  15  18
ATOM     18  O   UNL     1      29.814  34.362  34.621  1.00  0.00    -0.504 OA
ATOM     19  H   UNL     1      30.510  34.137  33.921  1.00  0.00     0.293 HD
ENDBRANCH  15  18
BRANCH  17  20
ATOM     20  O   UNL     1      27.397  33.553  33.406  1.00  0.00    -0.504 OA
ATOM     21  H   UNL     1      26.615  33.012  33.757  1.00  0.00     0.293 HD
ENDBRANCH  17  20
ENDBRANCH   1  12
BRANCH   2  22
ATOM     22  O   UNL     1      24.640  37.658  35.813  1.00  0.00    -0.502 OA
ATOM     23  H   UNL     1      25.096  37.939  36.673  1.00  0.00     0.293 HD
ENDBRANCH   2  22
BRANCH   6  24
ATOM     24  O   UNL     1      21.945  41.744  33.714  1.00  0.00    -0.507 OA
ATOM     25  H   UNL     1      21.994  42.656  34.143  1.00  0.00     0.293 HD
ENDBRANCH   6  24
BRANCH   8  26
ATOM     26  O   UNL     1      24.030  42.038  29.416  1.00  0.00    -0.508 OA
ATOM     27  H   UNL     1      23.196  42.193  28.861  1.00  0.00     0.293 HD
ENDBRANCH   8  26
TORSDOF 6
ENDMDL
MODEL 3
REMARK VINA RESULT:    -5.663      1.649      3.005
REMARK INTER + INTRA:          -7.053
REMARK INTER:                  -6.734
REMARK INTRA:                  -0.319
REMARK UNBOUND:                -0.231
REMARK SMILES O=c1c(O)c(-c2ccc(O)c(O)c2)oc2cc(O)cc(O)c12
REMARK SMILES IDX 5 1 3 2 2 3 1 4 22 5 20 6 19 7 17 8 16 9 15 10 14 11 6 12
REMARK SMILES IDX 7 13 8 14 9 15 13 16 11 17 10 18 12 20 4 22 21 24 18 26
REMARK H PARENT 10 19 12 21 4 23 21 25 18 27
REMARK Flexibility Score: inf
ROOT
ATOM      1  C   UNL     1      26.349  37.463  32.291  1.00  0.00     0.180 A 
ATOM      2  C   UNL     1      26.062  38.511  31.399  1.00  0.00     0.208 A 
ATOM      3  C   UNL     1      25.293  39.596  31.848  1.00  0.00     0.238 A 
ATOM      4  O   UNL     1      25.085  40.557  31.061  1.00  0.00    -0.285 OA
ATOM      5  C   UNL     1      24.804  39.612  33.177  1.00  0.00     0.111 A 
ATOM      6  C   UNL     1      23.982  40.640  33.726  1.00  0.00     0.134 A 
ATOM      7  C   UNL     1      23.667  40.618  35.090  1.00  0.00     0.093 A 
ATOM      8  C   UNL     1      24.088  39.573  35.910  1.00  0.00     0.123 A 
ATOM      9  C   UNL     1      24.844  38.531  35.371  1.00  0.00     0.094 A 
ATOM     10  C   UNL     1      25.205  38.543  34.021  1.00  0.00     0.146 A 
ATOM     11  O   UNL     1      25.933  37.539  33.550  1.00  0.00    -0.452 OA
ENDROOT
BRANCH   1  12
ATOM     12  C   UNL     1      27.133  36.275  31.884  1.00  0.00     0.025 A 
ATOM     13  C   UNL     1      26.484  35.198  31.262  1.00  0.00     0.016 A 
ATOM     14  C   UNL     1      27.208  34.076  30.851  1.00  0.00     0.051 A 
ATOM     15  C   UNL     1      28.591  34.020  31.041  1.00  0.00     0.157 A 
ATOM     16  C   UNL     1      28.529  36.225  32.055  1.00  0.00     0.062 A 
ATOM     17  C   UNL     1      29.258  35.100  31.641  1.00  0.00     0.158 A 
BRANCH  15  18
ATOM     18  O   UNL     1      29.288  32.886  30.622  1.00  0.00    -0.504 OA
ATOM     19  H   UNL     1      29.850  32.879  29.780  1.00  0.00     0.293 HD
ENDBRANCH  15  18
BRANCH  17  20
ATOM     20  O   UNL     1      30.640  35.057  31.820  1.00  0.00    -0.504 OA
ATOM     21  H   UNL     1      31.279  35.120  31.037  1.00  0.00     0.293 HD
ENDBRANCH  17  20
ENDBRANCH   1  12
BRANCH   2  22
ATOM     22  O   UNL     1      26.572  38.486  30.098  1.00  0.00    -0.502 OA
ATOM     23  H   UNL     1      27.558  38.354  29.902  1.00  0.00     0.293 HD
ENDBRANCH   2  22
BRANCH   6  24
ATOM     24  O   UNL     1      23.430  41.683  32.975  1.00  0.00    -0.507 OA
ATOM     25  H   UNL     1      23.499  42.661  33.212  1.00  0.00     0.293 HD
ENDBRANCH   6  24
BRANCH   8  26
ATOM     26  O   UNL     1      23.743  39.574  37.260  1.00  0.00    -0.508 OA
ATOM     27  H   UNL     1      24.305  40.058  37.950  1.00  0.00     0.293 HD
ENDBRANCH   8  26
TORSDOF 6
ENDMDL
MODEL 4
REMARK VINA RESULT:    -5.598      1.799      7.129
REMARK INTER + INTRA:          -6.974
REMARK INTER:                  -6.641
REMARK INTRA:                  -0.333
REMARK UNBOUND:                -0.231
REMARK SMILES O=c1c(O)c(-c2ccc(O)c(O)c2)oc2cc(O)cc(O)c12
REMARK SMILES IDX 5 1 3 2 2 3 1 4 22 5 20 6 19 7 17 8 16 9 15 10 14 11 6 12
REMARK SMILES IDX 7 13 8 14 9 15 13 16 11 17 10 18 12 20 4 22 21 24 18 26
REMARK H PARENT 10 19 12 21 4 23 21 25 18 27
REMARK Flexibility Score: inf
ROOT
ATOM      1  C   UNL     1      26.847  36.773  32.211  1.00  0.00     0.180 A 
ATOM      2  C   UNL     1      26.789  35.653  31.364  1.00  0.00     0.208 A 
ATOM      3  C   UNL     1      27.805  34.687  31.442  1.00  0.00     0.238 A 
ATOM      4  O   UNL     1      27.719  33.660  30.719  1.00  0.00    -0.285 OA
ATOM      5  C   UNL     1      28.876  34.862  32.352  1.00  0.00     0.111 A 
ATOM      6  C   UNL     1      29.980  33.968  32.486  1.00  0.00     0.134 A 
ATOM      7  C   UNL     1      30.913  34.172  33.510  1.00  0.00     0.093 A 
ATOM      8  C   UNL     1      30.820  35.272  34.361  1.00  0.00     0.123 A 
ATOM      9  C   UNL     1      29.777  36.185  34.201  1.00  0.00     0.094 A 
ATOM     10  C   UNL     1      28.810  35.989  33.212  1.00  0.00     0.146 A 
ATOM     11  O   UNL     1      27.829  36.876  33.100  1.00  0.00    -0.452 OA
ENDROOT
BRANCH   1  12
ATOM     12  C   UNL     1      25.826  37.845  32.171  1.00  0.00     0.025 A 
ATOM     13  C   UNL     1      24.746  37.805  33.066  1.00  0.00     0.016 A 
ATOM     14  C   UNL     1      23.783  38.816  33.060  1.00  0.00     0.051 A 
ATOM     15  C   UNL     1      23.892  39.890  32.171  1.00  0.00     0.157 A 
ATOM     16  C   UNL     1      25.945  38.937  31.292  1.00  0.00     0.062 A 
ATOM     17  C   UNL     1      24.980  39.955  31.285  1.00  0.00     0.158 A 
BRANCH  15  18
ATOM     18  O   UNL     1      22.913  40.884  32.186  1.00  0.00    -0.504 OA
ATOM     19  H   UNL     1      22.984  41.700  32.781  1.00  0.00     0.293 HD
ENDBRANCH  15  18
BRANCH  17  20
ATOM     20  O   UNL     1      25.102  41.030  30.407  1.00  0.00    -0.504 OA
ATOM     21  H   UNL     1      25.970  41.546  30.316  1.00  0.00     0.293 HD
ENDBRANCH  17  20
ENDBRANCH   1  12
BRANCH   2  22
ATOM     22  O   UNL     1      25.712  35.489  30.488  1.00  0.00    -0.502 OA
ATOM     23  H   UNL     1      25.838  35.289  29.502  1.00  0.00     0.293 HD
ENDBRANCH   2  22
BRANCH   6  24
ATOM     24  O   UNL     1      30.219  32.889  31.629  1.00  0.00    -0.507 OA
ATOM     25  H   UNL     1      29.665  32.668  30.816  1.00  0.00     0.293 HD
ENDBRANCH   6  24
BRANCH   8  26
ATOM     26  O   UNL     1      31.775  35.452  35.359  1.00  0.00    -0.508 OA
ATOM     27  H   UNL     1      31.941  34.747  36.067  1.00  0.00     0.293 HD
ENDBRANCH   8  26
TORSDOF 6
ENDMDL
MODEL 5
REMARK VINA RESULT:    -5.531      2.886      7.410
REMARK INTER + INTRA:          -6.894
REMARK INTER:                  -6.572
REMARK INTRA:                  -0.322
REMARK UNBOUND:                -0.231
REMARK SMILES O=c1c(O)c(-c2ccc(O)c(O)c2)oc2cc(O)cc(O)c12
REMARK SMILES IDX 5 1 3 2 2 3 1 4 22 5 20 6 19 7 17 8 16 9 15 10 14 11 6 12
REMARK SMILES IDX 7 13 8 14 9 15 13 16 11 17 10 18 12 20 4 22 21 24 18 26
REMARK H PARENT 10 19 12 21 4 23 21 25 18 27
REMARK Flexibility Score: inf
ROOT
ATOM      1  C   UNL     1      24.218  39.718  34.249  1.00  0.00     0.180 A 
ATOM      2  C   UNL     1      24.547  40.572  33.182  1.00  0.00     0.208 A 
ATOM      3  C   UNL     1      25.218  40.041  32.068  1.00  0.00     0.238 A 
ATOM      4  O   UNL     1      25.462  40.799  31.093  1.00  0.00    -0.285 OA
ATOM      5  C   UNL     1      25.568  38.669  32.043  1.00  0.00     0.111 A 
ATOM      6  C   UNL     1      26.284  38.035  30.986  1.00  0.00     0.134 A 
ATOM      7  C   UNL     1      26.459  36.645  31.006  1.00  0.00     0.093 A 
ATOM      8  C   UNL     1      26.003  35.877  32.076  1.00  0.00     0.123 A 
ATOM      9  C   UNL     1      25.353  36.496  33.145  1.00  0.00     0.094 A 
ATOM     10  C   UNL     1      25.131  37.875  33.136  1.00  0.00     0.146 A 
ATOM     11  O   UNL     1      24.500  38.423  34.167  1.00  0.00    -0.452 OA
ENDROOT
BRANCH   1  12
ATOM     12  C   UNL     1      23.532  40.208  35.467  1.00  0.00     0.025 A 
ATOM     13  C   UNL     1      24.294  40.694  36.541  1.00  0.00     0.016 A 
ATOM     14  C   UNL     1      23.667  41.181  37.691  1.00  0.00     0.051 A 
ATOM     15  C   UNL     1      22.272  41.204  37.779  1.00  0.00     0.157 A 
ATOM     16  C   UNL     1      22.128  40.253  35.549  1.00  0.00     0.062 A 
ATOM     17  C   UNL     1      21.497  40.743  36.702  1.00  0.00     0.158 A 
BRANCH  15  18
ATOM     18  O   UNL     1      21.674  41.694  38.940  1.00  0.00    -0.504 OA
ATOM     19  H   UNL     1      22.040  41.489  39.862  1.00  0.00     0.293 HD
ENDBRANCH  15  18
BRANCH  17  20
ATOM     20  O   UNL     1      20.106  40.778  36.777  1.00  0.00    -0.504 OA
ATOM     21  H   UNL     1      19.581  40.045  37.241  1.00  0.00     0.293 HD
ENDBRANCH  17  20
ENDBRANCH   1  12
BRANCH   2  22
ATOM     22  O   UNL     1      24.174  41.918  33.218  1.00  0.00    -0.502 OA
ATOM     23  H   UNL     1      23.923  42.435  32.383  1.00  0.00     0.293 HD
ENDBRANCH   2  22
BRANCH   6  24
ATOM     24  O   UNL     1      26.862  38.721  29.913  1.00  0.00    -0.507 OA
ATOM     25  H   UNL     1      27.827  39.010  29.870  1.00  0.00     0.293 HD
ENDBRANCH   6  24
BRANCH   8  26
ATOM     26  O   UNL     1      26.209  34.500  32.072  1.00  0.00    -0.508 OA
ATOM     27  H   UNL     1      26.674  34.031  32.840  1.00  0.00     0.293 HD
ENDBRANCH   8  26
TORSDOF 6
ENDMDL
MODEL 6
REMARK VINA RESULT:    -5.487      1.348      2.960
REMARK INTER + INTRA:          -6.841
REMARK INTER:                  -6.582
REMARK INTRA:                  -0.259
REMARK UNBOUND:                -0.231
REMARK SMILES O=c1c(O)c(-c2ccc(O)c(O)c2)oc2cc(O)cc(O)c12
REMARK SMILES IDX 5 1 3 2 2 3 1 4 22 5 20 6 19 7 17 8 16 9 15 10 14 11 6 12
REMARK SMILES IDX 7 13 8 14 9 15 13 16 11 17 10 18 12 20 4 22 21 24 18 26
REMARK H PARENT 10 19 12 21 4 23 21 25 18 27
REMARK Flexibility Score: inf
ROOT
ATOM      1  C   UNL     1      25.737  37.996  31.968  1.00  0.00     0.180 A 
ATOM      2  C   UNL     1      25.821  39.123  31.132  1.00  0.00     0.208 A 
ATOM      3  C   UNL     1      24.896  40.166  31.300  1.00  0.00     0.238 A 
ATOM      4  O   UNL     1      25.011  41.196  30.585  1.00  0.00    -0.285 OA
ATOM      5  C   UNL     1      23.887  40.062  32.288  1.00  0.00     0.111 A 
ATOM      6  C   UNL     1      22.874  41.039  32.518  1.00  0.00     0.134 A 
ATOM      7  C   UNL     1      22.008  40.893  33.609  1.00  0.00     0.093 A 
ATOM      8  C   UNL     1      22.076  39.775  34.438  1.00  0.00     0.123 A 
ATOM      9  C   UNL     1      23.025  38.783  34.187  1.00  0.00     0.094 A 
ATOM     10  C   UNL     1      23.927  38.918  33.128  1.00  0.00     0.146 A 
ATOM     11  O   UNL     1      24.821  37.958  32.929  1.00  0.00    -0.452 OA
ENDROOT
BRANCH   1  12
ATOM     12  C   UNL     1      26.661  36.847  31.836  1.00  0.00     0.025 A 
ATOM     13  C   UNL     1      26.222  35.678  31.196  1.00  0.00     0.016 A 
ATOM     14  C   UNL     1      27.084  34.589  31.042  1.00  0.00     0.051 A 
ATOM     15  C   UNL     1      28.399  34.657  31.510  1.00  0.00     0.157 A 
ATOM     16  C   UNL     1      27.991  36.921  32.288  1.00  0.00     0.062 A 
ATOM     17  C   UNL     1      28.859  35.830  32.132  1.00  0.00     0.158 A 
BRANCH  15  18
ATOM     18  O   UNL     1      29.236  33.554  31.344  1.00  0.00    -0.504 OA
ATOM     19  H   UNL     1      30.150  33.630  30.914  1.00  0.00     0.293 HD
ENDBRANCH  15  18
BRANCH  17  20
ATOM     20  O   UNL     1      30.173  35.910  32.588  1.00  0.00    -0.504 OA
ATOM     21  H   UNL     1      30.756  36.715  32.389  1.00  0.00     0.293 HD
ENDBRANCH  17  20
ENDBRANCH   1  12
BRANCH   2  22
ATOM     22  O   UNL     1      26.838  39.215  30.177  1.00  0.00    -0.502 OA
ATOM     23  H   UNL     1      27.643  39.819  30.296  1.00  0.00     0.293 HD
ENDBRANCH   2  22
BRANCH   6  24
ATOM     24  O   UNL     1      22.659  42.150  31.695  1.00  0.00    -0.507 OA
ATOM     25  H   UNL     1      22.103  42.952  31.947  1.00  0.00     0.293 HD
ENDBRANCH   6  24
BRANCH   8  26
ATOM     26  O   UNL     1      21.188  39.654  35.504  1.00  0.00    -0.508 OA
ATOM     27  H   UNL     1      20.753  40.466  35.926  1.00  0.00     0.293 HD
ENDBRANCH   8  26
TORSDOF 6
ENDMDL
MODEL 7
REMARK VINA RESULT:    -5.480      3.678      6.993
REMARK INTER + INTRA:          -6.832
REMARK INTER:                  -6.661
REMARK INTRA:                  -0.171
REMARK UNBOUND:                -0.231
REMARK SMILES O=c1c(O)c(-c2ccc(O)c(O)c2)oc2cc(O)cc(O)c12
REMARK SMILES IDX 5 1 3 2 2 3 1 4 22 5 20 6 19 7 17 8 16 9 15 10 14 11 6 12
REMARK SMILES IDX 7 13 8 14 9 15 13 16 11 17 10 18 12 20 4 22 21 24 18 26
REMARK H PARENT 10 19 12 21 4 23 21 25 18 27
REMARK Flexibility Score: inf
ROOT
ATOM      1  C   UNL     1      24.134  40.027  35.296  1.00  0.00     0.180 A 
ATOM      2  C   UNL     1      23.482  40.919  34.427  1.00  0.00     0.208 A 
ATOM      3  C   UNL     1      23.808  40.900  33.061  1.00  0.00     0.238 A 
ATOM      4  O   UNL     1      23.182  41.663  32.280  1.00  0.00    -0.285 OA
ATOM      5  C   UNL     1      24.793  40.002  32.584  1.00  0.00     0.111 A 
ATOM      6  C   UNL     1      25.231  39.924  31.229  1.00  0.00     0.134 A 
ATOM      7  C   UNL     1      26.115  38.909  30.845  1.00  0.00     0.093 A 
ATOM      8  C   UNL     1      26.629  38.010  31.779  1.00  0.00     0.123 A 
ATOM      9  C   UNL     1      26.254  38.114  33.119  1.00  0.00     0.094 A 
ATOM     10  C   UNL     1      25.344  39.094  33.526  1.00  0.00     0.146 A 
ATOM     11  O   UNL     1      25.005  39.152  34.808  1.00  0.00    -0.452 OA
ENDROOT
BRANCH   1  12
ATOM     12  C   UNL     1      23.862  40.005  36.751  1.00  0.00     0.025 A 
ATOM     13  C   UNL     1      24.186  41.125  37.532  1.00  0.00     0.016 A 
ATOM     14  C   UNL     1      23.919  41.133  38.904  1.00  0.00     0.051 A 
ATOM     15  C   UNL     1      23.311  40.032  39.512  1.00  0.00     0.157 A 
ATOM     16  C   UNL     1      23.231  38.906  37.362  1.00  0.00     0.062 A 
ATOM     17  C   UNL     1      22.960  38.913  38.738  1.00  0.00     0.158 A 
BRANCH  15  18
ATOM     18  O   UNL     1      23.058  40.068  40.883  1.00  0.00    -0.504 OA
ATOM     19  H   UNL     1      22.167  39.788  41.274  1.00  0.00     0.293 HD
ENDBRANCH  15  18
BRANCH  17  20
ATOM     20  O   UNL     1      22.339  37.817  39.335  1.00  0.00    -0.504 OA
ATOM     21  H   UNL     1      21.705  37.927  40.118  1.00  0.00     0.293 HD
ENDBRANCH  17  20
ENDBRANCH   1  12
BRANCH   2  22
ATOM     22  O   UNL     1      22.498  41.783  34.915  1.00  0.00    -0.502 OA
ATOM     23  H   UNL     1      21.631  41.447  35.319  1.00  0.00     0.293 HD
ENDBRANCH   2  22
BRANCH   6  24
ATOM     24  O   UNL     1      24.850  40.830  30.233  1.00  0.00    -0.507 OA
ATOM     25  H   UNL     1      24.601  40.574  29.289  1.00  0.00     0.293 HD
ENDBRANCH   6  24
BRANCH   8  26
ATOM     26  O   UNL     1      27.520  37.023  31.366  1.00  0.00    -0.508 OA
ATOM     27  H   UNL     1      27.846  36.970  30.408  1.00  0.00     0.293 HD
ENDBRANCH   8  26
TORSDOF 6
ENDMDL
MODEL 8
REMARK VINA RESULT:    -5.460      5.745      8.086
REMARK INTER + INTRA:          -6.808
REMARK INTER:                  -6.553
REMARK INTRA:                  -0.256
REMARK UNBOUND:                -0.231
REMARK SMILES O=c1c(O)c(-c2ccc(O)c(O)c2)oc2cc(O)cc(O)c12
REMARK SMILES IDX 5 1 3 2 2 3 1 4 22 5 20 6 19 7 17 8 16 9 15 10 14 11 6 12
REMARK SMILES IDX 7 13 8 14 9 15 13 16 11 17 10 18 12 20 4 22 21 24 18 26
REMARK H PARENT 10 19 12 21 4 23 21 25 18 27
REMARK Flexibility Score: inf
ROOT
ATOM      1  C   UNL     1      30.068  38.861  29.535  1.00  0.00     0.180 A 
ATOM      2  C   UNL     1      31.153  39.543  30.111  1.00  0.00     0.208 A 
ATOM      3  C   UNL     1      32.279  39.824  29.319  1.00  0.00     0.238 A 
ATOM      4  O   UNL     1      33.225  40.482  29.826  1.00  0.00    -0.285 OA
ATOM      5  C   UNL     1      32.312  39.403  27.967  1.00  0.00     0.111 A 
ATOM      6  C   UNL     1      33.416  39.598  27.085  1.00  0.00     0.134 A 
ATOM      7  C   UNL     1      33.288  39.259  25.733  1.00  0.00     0.093 A 
ATOM      8  C   UNL     1      32.122  38.672  25.244  1.00  0.00     0.123 A 
ATOM      9  C   UNL     1      31.057  38.423  26.111  1.00  0.00     0.094 A 
ATOM     10  C   UNL     1      31.141  38.784  27.458  1.00  0.00     0.146 A 
ATOM     11  O   UNL     1      30.102  38.538  28.247  1.00  0.00    -0.452 OA
ENDROOT
BRANCH   1  12
ATOM     12  C   UNL     1      28.857  38.508  30.311  1.00  0.00     0.025 A 
ATOM     13  C   UNL     1      28.919  37.471  31.255  1.00  0.00     0.016 A 
ATOM     14  C   UNL     1      27.795  37.136  32.013  1.00  0.00     0.051 A 
ATOM     15  C   UNL     1      26.599  37.841  31.853  1.00  0.00     0.157 A 
ATOM     16  C   UNL     1      27.659  39.230  30.167  1.00  0.00     0.062 A 
ATOM     17  C   UNL     1      26.529  38.896  30.929  1.00  0.00     0.158 A 
BRANCH  15  18
ATOM     18  O   UNL     1      25.492  37.482  32.623  1.00  0.00    -0.504 OA
ATOM     19  H   UNL     1      24.578  37.893  32.477  1.00  0.00     0.293 HD
ENDBRANCH  15  18
BRANCH  17  20
ATOM     20  O   UNL     1      25.344  39.613  30.775  1.00  0.00    -0.504 OA
ATOM     21  H   UNL     1      24.987  39.858  29.859  1.00  0.00     0.293 HD
ENDBRANCH  17  20
ENDBRANCH   1  12
BRANCH   2  22
ATOM     22  O   UNL     1      31.091  39.967  31.441  1.00  0.00    -0.502 OA
ATOM     23  H   UNL     1      30.667  40.847  31.712  1.00  0.00     0.293 HD
ENDBRANCH   2  22
BRANCH   6  24
ATOM     24  O   UNL     1      34.661  40.092  27.490  1.00  0.00    -0.507 OA
ATOM     25  H   UNL     1      35.243  40.702  26.937  1.00  0.00     0.293 HD
ENDBRANCH   6  24
BRANCH   8  26
ATOM     26  O   UNL     1      32.035  38.333  23.897  1.00  0.00    -0.508 OA
ATOM     27  H   UNL     1      32.855  38.308  23.302  1.00  0.00     0.293 HD
ENDBRANCH   8  26
TORSDOF 6
ENDMDL
MODEL 9
REMARK VINA RESULT:    -5.322      2.027      3.321
REMARK INTER + INTRA:          -6.641
REMARK INTER:                  -6.309
REMARK INTRA:                  -0.333
REMARK UNBOUND:                -0.231
REMARK SMILES O=c1c(O)c(-c2ccc(O)c(O)c2)oc2cc(O)cc(O)c12
REMARK SMILES IDX 5 1 3 2 2 3 1 4 22 5 20 6 19 7 17 8 16 9 15 10 14 11 6 12
REMARK SMILES IDX 7 13 8 14 9 15 13 16 11 17 10 18 12 20 4 22 21 24 18 26
REMARK H PARENT 10 19 12 21 4 23 21 25 18 27
REMARK Flexibility Score: inf
ROOT
ATOM      1  C   UNL     1      26.328  38.098  33.198  1.00  0.00     0.180 A 
ATOM      2  C   UNL     1      25.868  38.657  31.993  1.00  0.00     0.208 A 
ATOM      3  C   UNL     1      24.897  39.670  32.039  1.00  0.00     0.238 A 
ATOM      4  O   UNL     1      24.529  40.205  30.960  1.00  0.00    -0.285 OA
ATOM      5  C   UNL     1      24.385  40.099  33.288  1.00  0.00     0.111 A 
ATOM      6  C   UNL     1      23.370  41.089  33.450  1.00  0.00     0.134 A 
ATOM      7  C   UNL     1      23.035  41.529  34.736  1.00  0.00     0.093 A 
ATOM      8  C   UNL     1      23.627  40.970  35.867  1.00  0.00     0.123 A 
ATOM      9  C   UNL     1      24.578  39.959  35.722  1.00  0.00     0.094 A 
ATOM     10  C   UNL     1      24.961  39.524  34.450  1.00  0.00     0.146 A 
ATOM     11  O   UNL     1      25.876  38.568  34.355  1.00  0.00    -0.452 OA
ENDROOT
BRANCH   1  12
ATOM     12  C   UNL     1      27.332  37.010  33.229  1.00  0.00     0.025 A 
ATOM     13  C   UNL     1      28.688  37.326  33.404  1.00  0.00     0.016 A 
ATOM     14  C   UNL     1      29.650  36.314  33.457  1.00  0.00     0.051 A 
ATOM     15  C   UNL     1      29.270  34.973  33.353  1.00  0.00     0.157 A 
ATOM     16  C   UNL     1      26.950  35.659  33.146  1.00  0.00     0.062 A 
ATOM     17  C   UNL     1      27.914  34.641  33.201  1.00  0.00     0.158 A 
BRANCH  15  18
ATOM     18  O   UNL     1      30.253  33.984  33.407  1.00  0.00    -0.504 OA
ATOM     19  H   UNL     1      30.591  33.609  34.285  1.00  0.00     0.293 HD
ENDBRANCH  15  18
BRANCH  17  20
ATOM     20  O   UNL     1      27.527  33.305  33.111  1.00  0.00    -0.504 OA
ATOM     21  H   UNL     1      26.713  33.022  32.578  1.00  0.00     0.293 HD
ENDBRANCH  17  20
ENDBRANCH   1  12
BRANCH   2  22
ATOM     22  O   UNL     1      26.402  38.234  30.773  1.00  0.00    -0.502 OA
ATOM     23  H   UNL     1      25.893  38.311  29.900  1.00  0.00     0.293 HD
ENDBRANCH   2  22
BRANCH   6  24
ATOM     24  O   UNL     1      22.648  41.648  32.391  1.00  0.00    -0.507 OA
ATOM     25  H   UNL     1      22.989  42.381  31.787  1.00  0.00     0.293 HD
ENDBRANCH   6  24
BRANCH   8  26
ATOM     26  O   UNL     1      23.258  41.420  37.132  1.00  0.00    -0.508 OA
ATOM     27  H   UNL     1      23.760  41.133  37.965  1.00  0.00     0.293 HD
ENDBRANCH   8  26
TORSDOF 6
ENDMDL
