MODEL 1
REMARK VINA RESULT:    -6.286      0.000      0.000
REMARK INTER + INTRA:          -7.671
REMARK INTER:                  -7.572
REMARK INTRA:                  -0.099
REMARK UNBOUND:                -0.099
REMARK SMILES O=c1c(O)c(-c2ccc(O)c(O)c2)oc2cc(O)cc(O)c12
REMARK SMILES IDX 5 1 3 2 2 3 1 4 22 5 20 6 19 7 17 8 16 9 15 10 14 11 6 12
REMARK SMILES IDX 7 13 8 14 9 15 13 16 11 17 10 18 12 20 4 22 21 24 18 26
REMARK H PARENT 10 19 12 21 4 23 21 25 18 27
REMARK Flexibility Score: inf
ROOT
ATOM      1  C   UNL     1     -11.823  -8.107  -5.851  1.00  0.00     0.180 A 
ATOM      2  C   UNL     1     -12.532  -7.180  -5.067  1.00  0.00     0.208 A 
ATOM      3  C   UNL     1     -12.514  -5.825  -5.433  1.00  0.00     0.238 A 
ATOM      4  O   UNL     1     -13.194  -5.008  -4.759  1.00  0.00    -0.285 OA
ATOM      5  C   UNL     1     -11.776  -5.411  -6.569  1.00  0.00     0.111 A 
ATOM      6  C   UNL     1     -11.655  -4.058  -7.008  1.00  0.00     0.134 A 
ATOM      7  C   UNL     1     -11.009  -3.780  -8.218  1.00  0.00     0.093 A 
ATOM      8  C   UNL     1     -10.422  -4.797  -8.971  1.00  0.00     0.123 A 
ATOM      9  C   UNL     1     -10.482  -6.116  -8.521  1.00  0.00     0.094 A 
ATOM     10  C   UNL     1     -11.152  -6.429  -7.336  1.00  0.00     0.146 A 
ATOM     11  O   UNL     1     -11.195  -7.698  -6.947  1.00  0.00    -0.452 OA
ENDROOT
BRANCH   1  12
ATOM     12  C   UNL     1     -11.774  -9.548  -5.515  1.00  0.00     0.025 A 
ATOM     13  C   UNL     1     -12.965 -10.292  -5.489  1.00  0.00     0.016 A 
ATOM     14  C   UNL     1     -12.940 -11.658  -5.194  1.00  0.00     0.051 A 
ATOM     15  C   UNL     1     -11.726 -12.304  -4.938  1.00  0.00     0.157 A 
ATOM     16  C   UNL     1     -10.553 -10.204  -5.278  1.00  0.00     0.062 A 
ATOM     17  C   UNL     1     -10.526 -11.575  -4.984  1.00  0.00     0.158 A 
BRANCH  15  18
ATOM     18  O   UNL     1     -11.732 -13.667  -4.644  1.00  0.00    -0.504 OA
ATOM     19  H   UNL     1     -12.415 -14.300  -5.041  1.00  0.00     0.293 HD
ENDBRANCH  15  18
BRANCH  17  20
ATOM     20  O   UNL     1      -9.311 -12.216  -4.744  1.00  0.00    -0.504 OA
ATOM     21  H   UNL     1      -9.263 -13.089  -4.231  1.00  0.00     0.293 HD
ENDBRANCH  17  20
ENDBRANCH   1  12
BRANCH   2  22
ATOM     22  O   UNL     1     -13.270  -7.613  -3.963  1.00  0.00    -0.502 OA
ATOM     23  H   UNL     1     -14.282  -7.657  -3.969  1.00  0.00     0.293 HD
ENDBRANCH   2  22
BRANCH   6  24
ATOM     24  O   UNL     1     -12.126  -2.958  -6.285  1.00  0.00    -0.507 OA
ATOM     25  H   UNL     1     -13.017  -2.919  -5.814  1.00  0.00     0.293 HD
ENDBRANCH   6  24
BRANCH   8  26
ATOM     26  O   UNL     1      -9.772  -4.481 -10.163  1.00  0.00    -0.508 OA
ATOM     27  H   UNL     1      -9.211  -5.166 -10.658  1.00  0.00     0.293 HD
ENDBRANCH   8  26
TORSDOF 6
ENDMDL
MODEL 2
REMARK VINA RESULT:    -6.283      1.462      7.135
REMARK INTER + INTRA:          -7.668
REMARK INTER:                  -7.587
REMARK INTRA:                  -0.082
REMARK UNBOUND:                -0.099
REMARK SMILES O=c1c(O)c(-c2ccc(O)c(O)c2)oc2cc(O)cc(O)c12
REMARK SMILES IDX 5 1 3 2 2 3 1 4 22 5 20 6 19 7 17 8 16 9 15 10 14 11 6 12
REMARK SMILES IDX 7 13 8 14 9 15 13 16 11 17 10 18 12 20 4 22 21 24 18 26
REMARK H PARENT 10 19 12 21 4 23 21 25 18 27
REMARK Flexibility Score: inf
ROOT
ATOM      1  C   UNL     1     -11.162  -8.334  -5.930  1.00  0.00     0.180 A 
ATOM      2  C   UNL     1      -9.860  -8.738  -5.585  1.00  0.00     0.208 A 
ATOM      3  C   UNL     1      -9.649 -10.054  -5.145  1.00  0.00     0.238 A 
ATOM      4  O   UNL     1      -8.474 -10.424  -4.889  1.00  0.00    -0.285 OA
ATOM      5  C   UNL     1     -10.744 -10.945  -5.039  1.00  0.00     0.111 A 
ATOM      6  C   UNL     1     -10.652 -12.289  -4.565  1.00  0.00     0.134 A 
ATOM      7  C   UNL     1     -11.776 -13.121  -4.627  1.00  0.00     0.093 A 
ATOM      8  C   UNL     1     -13.004 -12.641  -5.082  1.00  0.00     0.123 A 
ATOM      9  C   UNL     1     -13.120 -11.313  -5.492  1.00  0.00     0.094 A 
ATOM     10  C   UNL     1     -12.007 -10.468  -5.476  1.00  0.00     0.146 A 
ATOM     11  O   UNL     1     -12.157  -9.213  -5.883  1.00  0.00    -0.452 OA
ENDROOT
BRANCH   1  12
ATOM     12  C   UNL     1     -11.467  -6.957  -6.379  1.00  0.00     0.025 A 
ATOM     13  C   UNL     1     -12.357  -6.169  -5.633  1.00  0.00     0.016 A 
ATOM     14  C   UNL     1     -12.644  -4.859  -6.026  1.00  0.00     0.051 A 
ATOM     15  C   UNL     1     -12.034  -4.311  -7.159  1.00  0.00     0.157 A 
ATOM     16  C   UNL     1     -10.838  -6.398  -7.505  1.00  0.00     0.062 A 
ATOM     17  C   UNL     1     -11.122  -5.082  -7.901  1.00  0.00     0.158 A 
BRANCH  15  18
ATOM     18  O   UNL     1     -12.340  -3.003  -7.529  1.00  0.00    -0.504 OA
ATOM     19  H   UNL     1     -12.437  -2.259  -6.848  1.00  0.00     0.293 HD
ENDBRANCH  15  18
BRANCH  17  20
ATOM     20  O   UNL     1     -10.499  -4.538  -9.023  1.00  0.00    -0.504 OA
ATOM     21  H   UNL     1      -9.520  -4.707  -9.221  1.00  0.00     0.293 HD
ENDBRANCH  17  20
ENDBRANCH   1  12
BRANCH   2  22
ATOM     22  O   UNL     1      -8.791  -7.847  -5.717  1.00  0.00    -0.502 OA
ATOM     23  H   UNL     1      -8.897  -6.927  -6.127  1.00  0.00     0.293 HD
ENDBRANCH   2  22
BRANCH   6  24
ATOM     24  O   UNL     1      -9.496 -12.842  -4.005  1.00  0.00    -0.507 OA
ATOM     25  H   UNL     1      -8.600 -12.889  -4.467  1.00  0.00     0.293 HD
ENDBRANCH   6  24
BRANCH   8  26
ATOM     26  O   UNL     1     -14.105 -13.493  -5.115  1.00  0.00    -0.508 OA
ATOM     27  H   UNL     1     -14.794 -13.441  -5.857  1.00  0.00     0.293 HD
ENDBRANCH   8  26
TORSDOF 6
ENDMDL
MODEL 3
REMARK VINA RESULT:    -5.970      1.807      6.985
REMARK INTER + INTRA:          -7.291
REMARK INTER:                  -6.968
REMARK INTRA:                  -0.323
REMARK UNBOUND:                -0.099
REMARK SMILES O=c1c(O)c(-c2ccc(O)c(O)c2)oc2cc(O)cc(O)c12
REMARK SMILES IDX 5 1 3 2 2 3 1 4 22 5 20 6 19 7 17 8 16 9 15 10 14 11 6 12
REMARK SMILES IDX 7 13 8 14 9 15 13 16 11 17 10 18 12 20 4 22 21 24 18 26
REMARK H PARENT 10 19 12 21 4 23 21 25 18 27
REMARK Flexibility Score: inf
ROOT
ATOM      1  C   UNL     1     -11.113  -8.685  -6.048  1.00  0.00     0.180 A 
ATOM      2  C   UNL     1      -9.973  -9.269  -5.468  1.00  0.00     0.208 A 
ATOM      3  C   UNL     1      -9.815 -10.662  -5.530  1.00  0.00     0.238 A 
ATOM      4  O   UNL     1      -8.767 -11.173  -5.055  1.00  0.00    -0.285 OA
ATOM      5  C   UNL     1     -10.805 -11.456  -6.157  1.00  0.00     0.111 A 
ATOM      6  C   UNL     1     -10.767 -12.881  -6.242  1.00  0.00     0.134 A 
ATOM      7  C   UNL     1     -11.733 -13.553  -7.000  1.00  0.00     0.093 A 
ATOM      8  C   UNL     1     -12.772 -12.861  -7.620  1.00  0.00     0.123 A 
ATOM      9  C   UNL     1     -12.853 -11.474  -7.494  1.00  0.00     0.094 A 
ATOM     10  C   UNL     1     -11.884 -10.771  -6.775  1.00  0.00     0.146 A 
ATOM     11  O   UNL     1     -11.991  -9.451  -6.687  1.00  0.00    -0.452 OA
ENDROOT
BRANCH   1  12
ATOM     12  C   UNL     1     -11.362  -7.227  -6.001  1.00  0.00     0.025 A 
ATOM     13  C   UNL     1     -10.851  -6.406  -7.019  1.00  0.00     0.016 A 
ATOM     14  C   UNL     1     -11.091  -5.029  -7.006  1.00  0.00     0.051 A 
ATOM     15  C   UNL     1     -11.859  -4.455  -5.988  1.00  0.00     0.157 A 
ATOM     16  C   UNL     1     -12.151  -6.651  -4.990  1.00  0.00     0.062 A 
ATOM     17  C   UNL     1     -12.395  -5.270  -4.976  1.00  0.00     0.158 A 
BRANCH  15  18
ATOM     18  O   UNL     1     -12.080  -3.079  -5.999  1.00  0.00    -0.504 OA
ATOM     19  H   UNL     1     -11.990  -2.526  -6.842  1.00  0.00     0.293 HD
ENDBRANCH  15  18
BRANCH  17  20
ATOM     20  O   UNL     1     -13.173  -4.706  -3.965  1.00  0.00    -0.504 OA
ATOM     21  H   UNL     1     -12.955  -3.797  -3.572  1.00  0.00     0.293 HD
ENDBRANCH  17  20
ENDBRANCH   1  12
BRANCH   2  22
ATOM     22  O   UNL     1      -8.999  -8.463  -4.872  1.00  0.00    -0.502 OA
ATOM     23  H   UNL     1      -8.060  -8.383  -5.243  1.00  0.00     0.293 HD
ENDBRANCH   2  22
BRANCH   6  24
ATOM     24  O   UNL     1      -9.824 -13.678  -5.585  1.00  0.00    -0.507 OA
ATOM     25  H   UNL     1      -8.847 -13.733  -5.832  1.00  0.00     0.293 HD
ENDBRANCH   6  24
BRANCH   8  26
ATOM     26  O   UNL     1     -13.726 -13.565  -8.352  1.00  0.00    -0.508 OA
ATOM     27  H   UNL     1     -13.460 -14.264  -9.036  1.00  0.00     0.293 HD
ENDBRANCH   8  26
TORSDOF 6
ENDMDL
MODEL 4
REMARK VINA RESULT:    -5.494      2.119      6.843
REMARK INTER + INTRA:          -6.718
REMARK INTER:                  -6.430
REMARK INTRA:                  -0.288
REMARK UNBOUND:                -0.099
REMARK SMILES O=c1c(O)c(-c2ccc(O)c(O)c2)oc2cc(O)cc(O)c12
REMARK SMILES IDX 5 1 3 2 2 3 1 4 22 5 20 6 19 7 17 8 16 9 15 10 14 11 6 12
REMARK SMILES IDX 7 13 8 14 9 15 13 16 11 17 10 18 12 20 4 22 21 24 18 26
REMARK H PARENT 10 19 12 21 4 23 21 25 18 27
REMARK Flexibility Score: inf
ROOT
ATOM      1  C   UNL     1     -10.463  -7.718  -5.647  1.00  0.00     0.180 A 
ATOM      2  C   UNL     1     -11.407  -8.759  -5.591  1.00  0.00     0.208 A 
ATOM      3  C   UNL     1     -10.954 -10.086  -5.522  1.00  0.00     0.238 A 
ATOM      4  O   UNL     1     -11.803 -11.009  -5.417  1.00  0.00    -0.285 OA
ATOM      5  C   UNL     1      -9.565 -10.357  -5.526  1.00  0.00     0.111 A 
ATOM      6  C   UNL     1      -8.995 -11.666  -5.501  1.00  0.00     0.134 A 
ATOM      7  C   UNL     1      -7.608 -11.813  -5.375  1.00  0.00     0.093 A 
ATOM      8  C   UNL     1      -6.766 -10.702  -5.342  1.00  0.00     0.123 A 
ATOM      9  C   UNL     1      -7.308  -9.419  -5.427  1.00  0.00     0.094 A 
ATOM     10  C   UNL     1      -8.690  -9.239  -5.516  1.00  0.00     0.146 A 
ATOM     11  O   UNL     1      -9.167  -8.002  -5.584  1.00  0.00    -0.452 OA
ENDROOT
BRANCH   1  12
ATOM     12  C   UNL     1     -10.863  -6.296  -5.747  1.00  0.00     0.025 A 
ATOM     13  C   UNL     1     -11.256  -5.607  -4.589  1.00  0.00     0.016 A 
ATOM     14  C   UNL     1     -11.618  -4.259  -4.655  1.00  0.00     0.051 A 
ATOM     15  C   UNL     1     -11.576  -3.575  -5.874  1.00  0.00     0.157 A 
ATOM     16  C   UNL     1     -10.801  -5.602  -6.968  1.00  0.00     0.062 A 
ATOM     17  C   UNL     1     -11.162  -4.248  -7.037  1.00  0.00     0.158 A 
BRANCH  15  18
ATOM     18  O   UNL     1     -11.944  -2.232  -5.912  1.00  0.00    -0.504 OA
ATOM     19  H   UNL     1     -11.340  -1.518  -6.301  1.00  0.00     0.293 HD
ENDBRANCH  15  18
BRANCH  17  20
ATOM     20  O   UNL     1     -11.104  -3.569  -8.253  1.00  0.00    -0.504 OA
ATOM     21  H   UNL     1     -10.247  -3.515  -8.791  1.00  0.00     0.293 HD
ENDBRANCH  17  20
ENDBRANCH   1  12
BRANCH   2  22
ATOM     22  O   UNL     1     -12.773  -8.466  -5.566  1.00  0.00    -0.502 OA
ATOM     23  H   UNL     1     -13.429  -8.879  -6.219  1.00  0.00     0.293 HD
ENDBRANCH   2  22
BRANCH   6  24
ATOM     24  O   UNL     1      -9.739 -12.844  -5.620  1.00  0.00    -0.507 OA
ATOM     25  H   UNL     1     -10.456 -13.003  -6.311  1.00  0.00     0.293 HD
ENDBRANCH   6  24
BRANCH   8  26
ATOM     26  O   UNL     1      -5.390 -10.886  -5.234  1.00  0.00    -0.508 OA
ATOM     27  H   UNL     1      -4.932 -10.946  -4.331  1.00  0.00     0.293 HD
ENDBRANCH   8  26
TORSDOF 6
ENDMDL
MODEL 5
REMARK VINA RESULT:    -5.337      5.591      7.728
REMARK INTER + INTRA:          -6.529
REMARK INTER:                  -6.855
REMARK INTRA:                   0.326
REMARK UNBOUND:                -0.099
REMARK SMILES O=c1c(O)c(-c2ccc(O)c(O)c2)oc2cc(O)cc(O)c12
REMARK SMILES IDX 5 1 3 2 2 3 1 4 22 5 20 6 19 7 17 8 16 9 15 10 14 11 6 12
REMARK SMILES IDX 7 13 8 14 9 15 13 16 11 17 10 18 12 20 4 22 21 24 18 26
REMARK H PARENT 10 19 12 21 4 23 21 25 18 27
REMARK Flexibility Score: inf
ROOT
ATOM      1  C   UNL     1      -9.394 -12.065  -5.897  1.00  0.00     0.180 A 
ATOM      2  C   UNL     1     -10.162 -12.754  -6.852  1.00  0.00     0.208 A 
ATOM      3  C   UNL     1     -11.464 -13.159  -6.516  1.00  0.00     0.238 A 
ATOM      4  O   UNL     1     -12.165 -13.727  -7.393  1.00  0.00    -0.285 OA
ATOM      5  C   UNL     1     -11.976 -12.884  -5.225  1.00  0.00     0.111 A 
ATOM      6  C   UNL     1     -13.266 -13.283  -4.763  1.00  0.00     0.134 A 
ATOM      7  C   UNL     1     -13.719 -12.843  -3.513  1.00  0.00     0.093 A 
ATOM      8  C   UNL     1     -12.904 -12.075  -2.681  1.00  0.00     0.123 A 
ATOM      9  C   UNL     1     -11.618 -11.729  -3.098  1.00  0.00     0.094 A 
ATOM     10  C   UNL     1     -11.152 -12.123  -4.355  1.00  0.00     0.146 A 
ATOM     11  O   UNL     1      -9.927 -11.765  -4.718  1.00  0.00    -0.452 OA
ENDROOT
BRANCH   1  12
ATOM     12  C   UNL     1      -8.006 -11.629  -6.169  1.00  0.00     0.025 A 
ATOM     13  C   UNL     1      -7.440 -10.605  -5.393  1.00  0.00     0.016 A 
ATOM     14  C   UNL     1      -6.124 -10.191  -5.619  1.00  0.00     0.051 A 
ATOM     15  C   UNL     1      -5.349 -10.804  -6.609  1.00  0.00     0.157 A 
ATOM     16  C   UNL     1      -7.219 -12.259  -7.149  1.00  0.00     0.062 A 
ATOM     17  C   UNL     1      -5.898 -11.846  -7.376  1.00  0.00     0.158 A 
BRANCH  15  18
ATOM     18  O   UNL     1      -4.041 -10.369  -6.812  1.00  0.00    -0.504 OA
ATOM     19  H   UNL     1      -3.623 -10.335  -7.734  1.00  0.00     0.293 HD
ENDBRANCH  15  18
BRANCH  17  20
ATOM     20  O   UNL     1      -5.127 -12.472  -8.355  1.00  0.00    -0.504 OA
ATOM     21  H   UNL     1      -5.444 -13.311  -8.825  1.00  0.00     0.293 HD
ENDBRANCH  17  20
ENDBRANCH   1  12
BRANCH   2  22
ATOM     22  O   UNL     1      -9.645 -12.997  -8.127  1.00  0.00    -0.502 OA
ATOM     23  H   UNL     1      -9.282 -12.257  -8.716  1.00  0.00     0.293 HD
ENDBRANCH   2  22
BRANCH   6  24
ATOM     24  O   UNL     1     -14.125 -14.125  -5.476  1.00  0.00    -0.507 OA
ATOM     25  H   UNL     1     -15.096 -13.927  -5.667  1.00  0.00     0.293 HD
ENDBRANCH   6  24
BRANCH   8  26
ATOM     26  O   UNL     1     -13.381 -11.669  -1.437  1.00  0.00    -0.508 OA
ATOM     27  H   UNL     1     -13.829 -12.321  -0.802  1.00  0.00     0.293 HD
ENDBRANCH   8  26
TORSDOF 6
ENDMDL
MODEL 6
REMARK VINA RESULT:    -5.299      1.464      6.789
REMARK INTER + INTRA:          -6.482
REMARK INTER:                  -6.748
REMARK INTRA:                   0.266
REMARK UNBOUND:                -0.099
REMARK SMILES O=c1c(O)c(-c2ccc(O)c(O)c2)oc2cc(O)cc(O)c12
REMARK SMILES IDX 5 1 3 2 2 3 1 4 22 5 20 6 19 7 17 8 16 9 15 10 14 11 6 12
REMARK SMILES IDX 7 13 8 14 9 15 13 16 11 17 10 18 12 20 4 22 21 24 18 26
REMARK H PARENT 10 19 12 21 4 23 21 25 18 27
REMARK Flexibility Score: inf
ROOT
ATOM      1  C   UNL     1     -11.799  -8.614  -5.855  1.00  0.00     0.180 A 
ATOM      2  C   UNL     1     -12.934  -8.998  -5.120  1.00  0.00     0.208 A 
ATOM      3  C   UNL     1     -13.136 -10.359  -4.841  1.00  0.00     0.238 A 
ATOM      4  O   UNL     1     -14.125 -10.691  -4.137  1.00  0.00    -0.285 OA
ATOM      5  C   UNL     1     -12.210 -11.320  -5.314  1.00  0.00     0.111 A 
ATOM      6  C   UNL     1     -12.337 -12.729  -5.125  1.00  0.00     0.134 A 
ATOM      7  C   UNL     1     -11.295 -13.576  -5.521  1.00  0.00     0.093 A 
ATOM      8  C   UNL     1     -10.161 -13.073  -6.159  1.00  0.00     0.123 A 
ATOM      9  C   UNL     1     -10.053 -11.704  -6.403  1.00  0.00     0.094 A 
ATOM     10  C   UNL     1     -11.060 -10.829  -5.986  1.00  0.00     0.146 A 
ATOM     11  O   UNL     1     -10.915  -9.533  -6.228  1.00  0.00    -0.452 OA
ENDROOT
BRANCH   1  12
ATOM     12  C   UNL     1     -11.531  -7.202  -6.210  1.00  0.00     0.025 A 
ATOM     13  C   UNL     1     -11.873  -6.186  -5.304  1.00  0.00     0.016 A 
ATOM     14  C   UNL     1     -11.611  -4.847  -5.609  1.00  0.00     0.051 A 
ATOM     15  C   UNL     1     -10.989  -4.505  -6.814  1.00  0.00     0.157 A 
ATOM     16  C   UNL     1     -10.887  -6.858  -7.412  1.00  0.00     0.062 A 
ATOM     17  C   UNL     1     -10.621  -5.516  -7.719  1.00  0.00     0.158 A 
BRANCH  15  18
ATOM     18  O   UNL     1     -10.742  -3.162  -7.092  1.00  0.00    -0.504 OA
ATOM     19  H   UNL     1     -10.583  -2.828  -8.035  1.00  0.00     0.293 HD
ENDBRANCH  15  18
BRANCH  17  20
ATOM     20  O   UNL     1      -9.987  -5.183  -8.916  1.00  0.00    -0.504 OA
ATOM     21  H   UNL     1      -9.044  -4.814  -8.932  1.00  0.00     0.293 HD
ENDBRANCH  17  20
ENDBRANCH   1  12
BRANCH   2  22
ATOM     22  O   UNL     1     -13.824  -8.031  -4.646  1.00  0.00    -0.502 OA
ATOM     23  H   UNL     1     -13.527  -7.261  -4.058  1.00  0.00     0.293 HD
ENDBRANCH   2  22
BRANCH   6  24
ATOM     24  O   UNL     1     -13.468 -13.345  -4.580  1.00  0.00    -0.507 OA
ATOM     25  H   UNL     1     -14.067 -12.932  -3.881  1.00  0.00     0.293 HD
ENDBRANCH   6  24
BRANCH   8  26
ATOM     26  O   UNL     1      -9.151 -13.947  -6.555  1.00  0.00    -0.508 OA
ATOM     27  H   UNL     1      -8.575 -13.758  -7.367  1.00  0.00     0.293 HD
ENDBRANCH   8  26
TORSDOF 6
ENDMDL
MODEL 7
REMARK VINA RESULT:    -5.067      4.623      6.791
REMARK INTER + INTRA:          -6.203
REMARK INTER:                  -5.924
REMARK INTRA:                  -0.279
REMARK UNBOUND:                -0.099
REMARK SMILES O=c1c(O)c(-c2ccc(O)c(O)c2)oc2cc(O)cc(O)c12
REMARK SMILES IDX 5 1 3 2 2 3 1 4 22 5 20 6 19 7 17 8 16 9 15 10 14 11 6 12
REMARK SMILES IDX 7 13 8 14 9 15 13 16 11 17 10 18 12 20 4 22 21 24 18 26
REMARK H PARENT 10 19 12 21 4 23 21 25 18 27
REMARK Flexibility Score: inf
ROOT
ATOM      1  C   UNL     1      -8.982 -11.528  -5.614  1.00  0.00     0.180 A 
ATOM      2  C   UNL     1      -8.059 -10.563  -5.174  1.00  0.00     0.208 A 
ATOM      3  C   UNL     1      -6.785 -10.521  -5.763  1.00  0.00     0.238 A 
ATOM      4  O   UNL     1      -5.982  -9.621  -5.402  1.00  0.00    -0.285 OA
ATOM      5  C   UNL     1      -6.445 -11.454  -6.772  1.00  0.00     0.111 A 
ATOM      6  C   UNL     1      -5.169 -11.529  -7.409  1.00  0.00     0.134 A 
ATOM      7  C   UNL     1      -4.986 -12.404  -8.486  1.00  0.00     0.093 A 
ATOM      8  C   UNL     1      -6.008 -13.254  -8.906  1.00  0.00     0.123 A 
ATOM      9  C   UNL     1      -7.241 -13.232  -8.252  1.00  0.00     0.094 A 
ATOM     10  C   UNL     1      -7.466 -12.343  -7.197  1.00  0.00     0.146 A 
ATOM     11  O   UNL     1      -8.655 -12.346  -6.608  1.00  0.00    -0.452 OA
ENDROOT
BRANCH   1  12
ATOM     12  C   UNL     1     -10.335 -11.650  -5.024  1.00  0.00     0.025 A 
ATOM     13  C   UNL     1     -10.581 -12.643  -4.063  1.00  0.00     0.016 A 
ATOM     14  C   UNL     1     -11.845 -12.764  -3.478  1.00  0.00     0.051 A 
ATOM     15  C   UNL     1     -12.875 -11.886  -3.831  1.00  0.00     0.157 A 
ATOM     16  C   UNL     1     -11.365 -10.755  -5.363  1.00  0.00     0.062 A 
ATOM     17  C   UNL     1     -12.633 -10.873  -4.775  1.00  0.00     0.158 A 
BRANCH  15  18
ATOM     18  O   UNL     1     -14.125 -12.031  -3.233  1.00  0.00    -0.504 OA
ATOM     19  H   UNL     1     -14.753 -12.788  -3.475  1.00  0.00     0.293 HD
ENDBRANCH  15  18
BRANCH  17  20
ATOM     20  O   UNL     1     -13.651  -9.985  -5.122  1.00  0.00    -0.504 OA
ATOM     21  H   UNL     1     -13.505  -8.983  -5.117  1.00  0.00     0.293 HD
ENDBRANCH  17  20
ENDBRANCH   1  12
BRANCH   2  22
ATOM     22  O   UNL     1      -8.424  -9.639  -4.191  1.00  0.00    -0.502 OA
ATOM     23  H   UNL     1      -9.242  -9.048  -4.277  1.00  0.00     0.293 HD
ENDBRANCH   2  22
BRANCH   6  24
ATOM     24  O   UNL     1      -4.052 -10.790  -7.009  1.00  0.00    -0.507 OA
ATOM     25  H   UNL     1      -4.089  -9.947  -6.455  1.00  0.00     0.293 HD
ENDBRANCH   6  24
BRANCH   8  26
ATOM     26  O   UNL     1      -5.785 -14.125  -9.970  1.00  0.00    -0.508 OA
ATOM     27  H   UNL     1      -5.929 -13.836 -10.931  1.00  0.00     0.293 HD
ENDBRANCH   8  26
TORSDOF 6
ENDMDL
MODEL 8
REMARK VINA RESULT:    -4.762      7.757     10.543
REMARK INTER + INTRA:          -5.836
REMARK INTER:                  -5.585
REMARK INTRA:                  -0.251
REMARK UNBOUND:                -0.099
REMARK SMILES O=c1c(O)c(-c2ccc(O)c(O)c2)oc2cc(O)cc(O)c12
REMARK SMILES IDX 5 1 3 2 2 3 1 4 22 5 20 6 19 7 17 8 16 9 15 10 14 11 6 12
REMARK SMILES IDX 7 13 8 14 9 15 13 16 11 17 10 18 12 20 4 22 21 24 18 26
REMARK H PARENT 10 19 12 21 4 23 21 25 18 27
REMARK Flexibility Score: inf
ROOT
ATOM      1  C   UNL     1      -2.874 -12.485  -5.525  1.00  0.00     0.180 A 
ATOM      2  C   UNL     1      -3.133 -13.230  -6.689  1.00  0.00     0.208 A 
ATOM      3  C   UNL     1      -4.345 -13.033  -7.368  1.00  0.00     0.238 A 
ATOM      4  O   UNL     1      -4.547 -13.664  -8.439  1.00  0.00    -0.285 OA
ATOM      5  C   UNL     1      -5.291 -12.106  -6.868  1.00  0.00     0.111 A 
ATOM      6  C   UNL     1      -6.569 -11.856  -7.453  1.00  0.00     0.134 A 
ATOM      7  C   UNL     1      -7.368 -10.823  -6.950  1.00  0.00     0.093 A 
ATOM      8  C   UNL     1      -6.968 -10.075  -5.843  1.00  0.00     0.123 A 
ATOM      9  C   UNL     1      -5.747 -10.351  -5.226  1.00  0.00     0.094 A 
ATOM     10  C   UNL     1      -4.911 -11.351  -5.727  1.00  0.00     0.146 A 
ATOM     11  O   UNL     1      -3.753 -11.575  -5.118  1.00  0.00    -0.452 OA
ENDROOT
BRANCH   1  12
ATOM     12  C   UNL     1      -1.630 -12.655  -4.740  1.00  0.00     0.025 A 
ATOM     13  C   UNL     1      -0.432 -12.102  -5.219  1.00  0.00     0.016 A 
ATOM     14  C   UNL     1       0.751 -12.233  -4.485  1.00  0.00     0.051 A 
ATOM     15  C   UNL     1       0.750 -12.901  -3.256  1.00  0.00     0.157 A 
ATOM     16  C   UNL     1      -1.634 -13.308  -3.495  1.00  0.00     0.062 A 
ATOM     17  C   UNL     1      -0.449 -13.438  -2.756  1.00  0.00     0.158 A 
BRANCH  15  18
ATOM     18  O   UNL     1       1.944 -13.018  -2.547  1.00  0.00    -0.504 OA
ATOM     19  H   UNL     1       2.737 -13.533  -2.909  1.00  0.00     0.293 HD
ENDBRANCH  15  18
BRANCH  17  20
ATOM     20  O   UNL     1      -0.459 -14.093  -1.525  1.00  0.00    -0.504 OA
ATOM     21  H   UNL     1      -0.395 -13.583  -0.652  1.00  0.00     0.293 HD
ENDBRANCH  17  20
ENDBRANCH   1  12
BRANCH   2  22
ATOM     22  O   UNL     1      -2.176 -14.125  -7.176  1.00  0.00    -0.502 OA
ATOM     23  H   UNL     1      -1.656 -13.953  -8.028  1.00  0.00     0.293 HD
ENDBRANCH   2  22
BRANCH   6  24
ATOM     24  O   UNL     1      -7.105 -12.604  -8.505  1.00  0.00    -0.507 OA
ATOM     25  H   UNL     1      -6.613 -12.835  -9.355  1.00  0.00     0.293 HD
ENDBRANCH   6  24
BRANCH   8  26
ATOM     26  O   UNL     1      -7.797  -9.066  -5.359  1.00  0.00    -0.508 OA
ATOM     27  H   UNL     1      -7.553  -8.531  -4.533  1.00  0.00     0.293 HD
ENDBRANCH   8  26
TORSDOF 6
ENDMDL
