MODEL 1
REMARK VINA RESULT:    -6.185      0.000      0.000
REMARK INTER + INTRA:         -18.176
REMARK INTER:                 -14.140
REMARK INTRA:                  -4.036
REMARK UNBOUND:                -4.036
REMARK SMILES CCCCCCCCCCCCCCCCCCCCCCCC(=O)[O-]
REMARK SMILES IDX 13 1 14 2 15 3 16 4 17 5 18 6 19 7 20 8 21 9 22 10 23 11
REMARK SMILES IDX 24 12 25 13 26 14 12 15 11 16 10 17 9 18 8 19 7 20 6 21 5 22
REMARK SMILES IDX 4 23 3 24 2 25 1 26
REMARK H PARENT
REMARK Flexibility Score: inf
ROOT
ATOM      1  C   UNL     1      16.809   0.498  16.296  1.00  0.00     0.000 C 
ENDROOT
BRANCH   1   2
ATOM      2  C   UNL     1      16.154   1.809  15.841  1.00  0.00     0.000 C 
BRANCH   2   3
ATOM      3  C   UNL     1      14.999   1.535  14.864  1.00  0.00     0.000 C 
BRANCH   3   4
ATOM      4  C   UNL     1      14.474   2.818  14.202  1.00  0.00     0.000 C 
BRANCH   4   5
ATOM      5  C   UNL     1      15.312   3.241  12.982  1.00  0.00     0.000 C 
BRANCH   5   6
ATOM      6  C   UNL     1      15.559   2.068  12.011  1.00  0.00     0.000 C 
BRANCH   6   7
ATOM      7  C   UNL     1      16.891   2.176  11.247  1.00  0.00     0.000 C 
BRANCH   7   8
ATOM      8  C   UNL     1      17.648   0.839  11.176  1.00  0.00     0.000 C 
BRANCH   8   9
ATOM      9  C   UNL     1      17.381  -0.056  12.396  1.00  0.00     0.000 C 
BRANCH   9  10
ATOM     10  C   UNL     1      18.527  -0.008  13.422  1.00  0.00     0.006 C 
BRANCH  10  11
ATOM     11  C   UNL     1      18.940  -1.405  13.898  1.00  0.00     0.053 C 
BRANCH  11  12
ATOM     12  C   UNL     1      19.814  -1.350  15.115  1.00  0.00     0.041 C 
ATOM     13  O   UNL     1      20.214  -2.413  15.656  1.00  0.00    -0.550 OA
ATOM     14  O   UNL     1      20.194  -0.123  15.645  1.00  0.00    -0.550 OA
ENDBRANCH  11  12
ENDBRANCH  10  11
ENDBRANCH   9  10
ENDBRANCH   8   9
ENDBRANCH   7   8
ENDBRANCH   6   7
ENDBRANCH   5   6
ENDBRANCH   4   5
ENDBRANCH   3   4
ENDBRANCH   2   3
ENDBRANCH   1   2
BRANCH   1  15
ATOM     15  C   UNL     1      16.007  -0.748  15.880  1.00  0.00     0.000 C 
BRANCH  15  16
ATOM     16  C   UNL     1      16.131  -1.955  16.831  1.00  0.00     0.000 C 
BRANCH  16  17
ATOM     17  C   UNL     1      17.337  -1.912  17.786  1.00  0.00     0.000 C 
BRANCH  17  18
ATOM     18  C   UNL     1      16.938  -1.617  19.239  1.00  0.00    -0.000 C 
BRANCH  18  19
ATOM     19  C   UNL     1      17.281  -0.168  19.618  1.00  0.00    -0.000 C 
BRANCH  19  20
ATOM     20  C   UNL     1      16.037   0.678  19.942  1.00  0.00    -0.000 C 
BRANCH  20  21
ATOM     21  C   UNL     1      14.841  -0.119  20.492  1.00  0.00    -0.000 C 
BRANCH  21  22
ATOM     22  C   UNL     1      13.575   0.040  19.632  1.00  0.00    -0.000 C 
BRANCH  22  23
ATOM     23  C   UNL     1      13.854   0.736  18.290  1.00  0.00    -0.000 C 
BRANCH  23  24
ATOM     24  C   UNL     1      13.111   2.076  18.155  1.00  0.00    -0.000 C 
BRANCH  24  25
ATOM     25  C   UNL     1      13.885   3.243  18.786  1.00  0.00    -0.003 C 
ATOM     26  C   UNL     1      14.256   4.325  17.773  1.00  0.00     0.004 C 
ENDBRANCH  24  25
ENDBRANCH  23  24
ENDBRANCH  22  23
ENDBRANCH  21  22
ENDBRANCH  20  21
ENDBRANCH  19  20
ENDBRANCH  18  19
ENDBRANCH  17  18
ENDBRANCH  16  17
ENDBRANCH  15  16
ENDBRANCH   1  15
TORSDOF 22
ENDMDL
MODEL 2
REMARK VINA RESULT:    -5.761      1.648      6.727
REMARK INTER + INTRA:         -17.207
REMARK INTER:                 -14.165
REMARK INTRA:                  -3.042
REMARK UNBOUND:                -4.036
REMARK SMILES CCCCCCCCCCCCCCCCCCCCCCCC(=O)[O-]
REMARK SMILES IDX 13 1 14 2 15 3 16 4 17 5 18 6 19 7 20 8 21 9 22 10 23 11
REMARK SMILES IDX 24 12 25 13 26 14 12 15 11 16 10 17 9 18 8 19 7 20 6 21 5 22
REMARK SMILES IDX 4 23 3 24 2 25 1 26
REMARK H PARENT
REMARK Flexibility Score: inf
ROOT
ATOM      1  C   UNL     1      12.901   2.778  15.463  1.00  0.00     0.000 C 
ENDROOT
BRANCH   1   2
ATOM      2  C   UNL     1      12.904   3.461  16.838  1.00  0.00     0.000 C 
BRANCH   2   3
ATOM      3  C   UNL     1      13.373   2.488  17.932  1.00  0.00     0.000 C 
BRANCH   3   4
ATOM      4  C   UNL     1      14.206   3.184  19.019  1.00  0.00     0.000 C 
BRANCH   4   5
ATOM      5  C   UNL     1      14.551   2.247  20.191  1.00  0.00     0.000 C 
BRANCH   5   6
ATOM      6  C   UNL     1      14.143   0.786  19.907  1.00  0.00     0.000 C 
BRANCH   6   7
ATOM      7  C   UNL     1      15.242  -0.234  20.253  1.00  0.00     0.000 C 
BRANCH   7   8
ATOM      8  C   UNL     1      16.660   0.309  20.001  1.00  0.00     0.000 C 
BRANCH   8   9
ATOM      9  C   UNL     1      17.387  -0.441  18.875  1.00  0.00     0.000 C 
BRANCH   9  10
ATOM     10  C   UNL     1      17.169   0.211  17.498  1.00  0.00     0.006 C 
BRANCH  10  11
ATOM     11  C   UNL     1      16.075  -0.495  16.688  1.00  0.00     0.053 C 
BRANCH  11  12
ATOM     12  C   UNL     1      15.961  -1.947  17.042  1.00  0.00     0.041 C 
ATOM     13  O   UNL     1      14.919  -2.384  17.594  1.00  0.00    -0.550 OA
ATOM     14  O   UNL     1      17.003  -2.819  16.751  1.00  0.00    -0.550 OA
ENDBRANCH  11  12
ENDBRANCH  10  11
ENDBRANCH   9  10
ENDBRANCH   8   9
ENDBRANCH   7   8
ENDBRANCH   6   7
ENDBRANCH   5   6
ENDBRANCH   4   5
ENDBRANCH   3   4
ENDBRANCH   2   3
ENDBRANCH   1   2
BRANCH   1  15
ATOM     15  C   UNL     1      14.117   1.859  15.248  1.00  0.00     0.000 C 
BRANCH  15  16
ATOM     16  C   UNL     1      15.393   2.566  14.751  1.00  0.00     0.000 C 
BRANCH  16  17
ATOM     17  C   UNL     1      15.339   3.062  13.295  1.00  0.00     0.000 C 
BRANCH  17  18
ATOM     18  C   UNL     1      15.319   1.916  12.274  1.00  0.00    -0.000 C 
BRANCH  18  19
ATOM     19  C   UNL     1      16.333   2.168  11.148  1.00  0.00    -0.000 C 
BRANCH  19  20
ATOM     20  C   UNL     1      17.674   1.449  11.377  1.00  0.00    -0.000 C 
BRANCH  20  21
ATOM     21  C   UNL     1      17.557  -0.056  11.677  1.00  0.00    -0.000 C 
BRANCH  21  22
ATOM     22  C   UNL     1      17.370  -0.351  13.175  1.00  0.00    -0.000 C 
BRANCH  22  23
ATOM     23  C   UNL     1      18.627  -0.035  14.002  1.00  0.00    -0.000 C 
BRANCH  23  24
ATOM     24  C   UNL     1      19.212  -1.282  14.686  1.00  0.00    -0.000 C 
BRANCH  24  25
ATOM     25  C   UNL     1      20.255  -0.929  15.758  1.00  0.00    -0.003 C 
ATOM     26  C   UNL     1      20.428   0.578  15.942  1.00  0.00     0.004 C 
ENDBRANCH  24  25
ENDBRANCH  23  24
ENDBRANCH  22  23
ENDBRANCH  21  22
ENDBRANCH  20  21
ENDBRANCH  19  20
ENDBRANCH  18  19
ENDBRANCH  17  18
ENDBRANCH  16  17
ENDBRANCH  15  16
ENDBRANCH   1  15
TORSDOF 22
ENDMDL
MODEL 3
REMARK VINA RESULT:    -5.572      1.917      3.499
REMARK INTER + INTRA:         -16.775
REMARK INTER:                 -13.262
REMARK INTRA:                  -3.513
REMARK UNBOUND:                -4.036
REMARK SMILES CCCCCCCCCCCCCCCCCCCCCCCC(=O)[O-]
REMARK SMILES IDX 13 1 14 2 15 3 16 4 17 5 18 6 19 7 20 8 21 9 22 10 23 11
REMARK SMILES IDX 24 12 25 13 26 14 12 15 11 16 10 17 9 18 8 19 7 20 6 21 5 22
REMARK SMILES IDX 4 23 3 24 2 25 1 26
REMARK H PARENT
REMARK Flexibility Score: inf
ROOT
ATOM      1  C   UNL     1      19.646  -0.300  15.204  1.00  0.00     0.000 C 
ENDROOT
BRANCH   1   2
ATOM      2  C   UNL     1      18.539  -0.642  14.196  1.00  0.00     0.000 C 
BRANCH   2   3
ATOM      3  C   UNL     1      17.227   0.071  14.560  1.00  0.00     0.000 C 
BRANCH   3   4
ATOM      4  C   UNL     1      17.339   0.880  15.861  1.00  0.00     0.000 C 
BRANCH   4   5
ATOM      5  C   UNL     1      16.102   1.759  16.120  1.00  0.00     0.000 C 
BRANCH   5   6
ATOM      6  C   UNL     1      14.831   1.181  15.463  1.00  0.00     0.000 C 
BRANCH   6   7
ATOM      7  C   UNL     1      14.207   2.116  14.412  1.00  0.00     0.000 C 
BRANCH   7   8
ATOM      8  C   UNL     1      15.156   3.247  13.981  1.00  0.00     0.000 C 
BRANCH   8   9
ATOM      9  C   UNL     1      15.296   3.350  12.455  1.00  0.00     0.000 C 
BRANCH   9  10
ATOM     10  C   UNL     1      15.682   2.009  11.807  1.00  0.00     0.006 C 
BRANCH  10  11
ATOM     11  C   UNL     1      17.005   2.094  11.037  1.00  0.00     0.053 C 
BRANCH  11  12
ATOM     12  C   UNL     1      17.385   0.780  10.424  1.00  0.00     0.041 C 
ATOM     13  O   UNL     1      17.992   0.747   9.322  1.00  0.00    -0.550 OA
ATOM     14  O   UNL     1      17.078  -0.408  11.075  1.00  0.00    -0.550 OA
ENDBRANCH  11  12
ENDBRANCH  10  11
ENDBRANCH   9  10
ENDBRANCH   8   9
ENDBRANCH   7   8
ENDBRANCH   6   7
ENDBRANCH   5   6
ENDBRANCH   4   5
ENDBRANCH   3   4
ENDBRANCH   2   3
ENDBRANCH   1   2
BRANCH   1  15
ATOM     15  C   UNL     1      19.946  -1.454  16.178  1.00  0.00     0.000 C 
BRANCH  15  16
ATOM     16  C   UNL     1      18.978  -2.650  16.093  1.00  0.00     0.000 C 
BRANCH  16  17
ATOM     17  C   UNL     1      17.776  -2.585  17.053  1.00  0.00     0.000 C 
BRANCH  17  18
ATOM     18  C   UNL     1      18.006  -1.634  18.236  1.00  0.00    -0.000 C 
BRANCH  18  19
ATOM     19  C   UNL     1      16.684  -1.329  18.958  1.00  0.00    -0.000 C 
BRANCH  19  20
ATOM     20  C   UNL     1      16.649   0.080  19.575  1.00  0.00    -0.000 C 
BRANCH  20  21
ATOM     21  C   UNL     1      15.531   0.304  20.609  1.00  0.00    -0.000 C 
BRANCH  21  22
ATOM     22  C   UNL     1      14.147  -0.122  20.090  1.00  0.00    -0.000 C 
BRANCH  22  23
ATOM     23  C   UNL     1      13.636   0.781  18.955  1.00  0.00    -0.000 C 
BRANCH  23  24
ATOM     24  C   UNL     1      13.969   2.264  19.187  1.00  0.00    -0.000 C 
BRANCH  24  25
ATOM     25  C   UNL     1      13.178   3.196  18.255  1.00  0.00    -0.003 C 
ATOM     26  C   UNL     1      14.027   4.341  17.704  1.00  0.00     0.004 C 
ENDBRANCH  24  25
ENDBRANCH  23  24
ENDBRANCH  22  23
ENDBRANCH  21  22
ENDBRANCH  20  21
ENDBRANCH  19  20
ENDBRANCH  18  19
ENDBRANCH  17  18
ENDBRANCH  16  17
ENDBRANCH  15  16
ENDBRANCH   1  15
TORSDOF 22
ENDMDL
MODEL 4
REMARK VINA RESULT:    -5.403      3.013      3.701
REMARK INTER + INTRA:         -16.388
REMARK INTER:                 -14.221
REMARK INTRA:                  -2.168
REMARK UNBOUND:                -4.036
REMARK SMILES CCCCCCCCCCCCCCCCCCCCCCCC(=O)[O-]
REMARK SMILES IDX 13 1 14 2 15 3 16 4 17 5 18 6 19 7 20 8 21 9 22 10 23 11
REMARK SMILES IDX 24 12 25 13 26 14 12 15 11 16 10 17 9 18 8 19 7 20 6 21 5 22
REMARK SMILES IDX 4 23 3 24 2 25 1 26
REMARK H PARENT
REMARK Flexibility Score: inf
ROOT
ATOM      1  C   UNL     1      17.263  -0.297  15.659  1.00  0.00     0.000 C 
ENDROOT
BRANCH   1   2
ATOM      2  C   UNL     1      17.058   0.436  14.326  1.00  0.00     0.000 C 
BRANCH   2   3
ATOM      3  C   UNL     1      15.598   0.894  14.169  1.00  0.00     0.000 C 
BRANCH   3   4
ATOM      4  C   UNL     1      15.458   2.423  14.185  1.00  0.00     0.000 C 
BRANCH   4   5
ATOM      5  C   UNL     1      15.292   3.017  12.775  1.00  0.00     0.000 C 
BRANCH   5   6
ATOM      6  C   UNL     1      15.648   1.999  11.670  1.00  0.00     0.000 C 
BRANCH   6   7
ATOM      7  C   UNL     1      17.065   2.186  11.100  1.00  0.00     0.000 C 
BRANCH   7   8
ATOM      8  C   UNL     1      17.727   0.856  10.700  1.00  0.00     0.000 C 
BRANCH   8   9
ATOM      9  C   UNL     1      17.290   0.375   9.308  1.00  0.00     0.000 C 
BRANCH   9  10
ATOM     10  C   UNL     1      18.474   0.240   8.334  1.00  0.00     0.006 C 
BRANCH  10  11
ATOM     11  C   UNL     1      18.619   1.463   7.421  1.00  0.00     0.053 C 
BRANCH  11  12
ATOM     12  C   UNL     1      20.006   1.589   6.865  1.00  0.00     0.041 C 
ATOM     13  O   UNL     1      20.752   0.579   6.792  1.00  0.00    -0.550 OA
ATOM     14  O   UNL     1      20.469   2.821   6.420  1.00  0.00    -0.550 OA
ENDBRANCH  11  12
ENDBRANCH  10  11
ENDBRANCH   9  10
ENDBRANCH   8   9
ENDBRANCH   7   8
ENDBRANCH   6   7
ENDBRANCH   5   6
ENDBRANCH   4   5
ENDBRANCH   3   4
ENDBRANCH   2   3
ENDBRANCH   1   2
BRANCH   1  15
ATOM     15  C   UNL     1      16.046  -1.147  16.068  1.00  0.00     0.000 C 
BRANCH  15  16
ATOM     16  C   UNL     1      16.337  -2.253  17.102  1.00  0.00     0.000 C 
BRANCH  16  17
ATOM     17  C   UNL     1      17.408  -1.901  18.149  1.00  0.00     0.000 C 
BRANCH  17  18
ATOM     18  C   UNL     1      16.808  -1.446  19.488  1.00  0.00    -0.000 C 
BRANCH  18  19
ATOM     19  C   UNL     1      16.811   0.086  19.597  1.00  0.00    -0.000 C 
BRANCH  19  20
ATOM     20  C   UNL     1      15.609   0.634  20.385  1.00  0.00    -0.000 C 
BRANCH  20  21
ATOM     21  C   UNL     1      14.352  -0.254  20.345  1.00  0.00    -0.000 C 
BRANCH  21  22
ATOM     22  C   UNL     1      13.332   0.206  19.289  1.00  0.00    -0.000 C 
BRANCH  22  23
ATOM     23  C   UNL     1      14.000   0.682  17.989  1.00  0.00    -0.000 C 
BRANCH  23  24
ATOM     24  C   UNL     1      13.428   2.019  17.488  1.00  0.00    -0.000 C 
BRANCH  24  25
ATOM     25  C   UNL     1      13.628   3.158  18.500  1.00  0.00    -0.003 C 
ATOM     26  C   UNL     1      14.318   4.378  17.890  1.00  0.00     0.004 C 
ENDBRANCH  24  25
ENDBRANCH  23  24
ENDBRANCH  22  23
ENDBRANCH  21  22
ENDBRANCH  20  21
ENDBRANCH  19  20
ENDBRANCH  18  19
ENDBRANCH  17  18
ENDBRANCH  16  17
ENDBRANCH  15  16
ENDBRANCH   1  15
TORSDOF 22
ENDMDL
MODEL 5
REMARK VINA RESULT:    -5.375      2.147      7.796
REMARK INTER + INTRA:         -16.324
REMARK INTER:                 -14.003
REMARK INTRA:                  -2.321
REMARK UNBOUND:                -4.036
REMARK SMILES CCCCCCCCCCCCCCCCCCCCCCCC(=O)[O-]
REMARK SMILES IDX 13 1 14 2 15 3 16 4 17 5 18 6 19 7 20 8 21 9 22 10 23 11
REMARK SMILES IDX 24 12 25 13 26 14 12 15 11 16 10 17 9 18 8 19 7 20 6 21 5 22
REMARK SMILES IDX 4 23 3 24 2 25 1 26
REMARK H PARENT
REMARK Flexibility Score: inf
ROOT
ATOM      1  C   UNL     1      15.311   3.259  17.020  1.00  0.00     0.000 C 
ENDROOT
BRANCH   1   2
ATOM      2  C   UNL     1      13.849   3.648  17.277  1.00  0.00     0.000 C 
BRANCH   2   3
ATOM      3  C   UNL     1      13.377   3.138  18.648  1.00  0.00     0.000 C 
BRANCH   3   4
ATOM      4  C   UNL     1      13.863   1.710  18.943  1.00  0.00     0.000 C 
BRANCH   4   5
ATOM      5  C   UNL     1      14.389   1.549  20.380  1.00  0.00     0.000 C 
BRANCH   5   6
ATOM      6  C   UNL     1      15.685   0.712  20.434  1.00  0.00     0.000 C 
BRANCH   6   7
ATOM      7  C   UNL     1      15.593  -0.609  19.650  1.00  0.00     0.000 C 
BRANCH   7   8
ATOM      8  C   UNL     1      16.684  -0.740  18.574  1.00  0.00     0.000 C 
BRANCH   8   9
ATOM      9  C   UNL     1      17.870   0.206  18.817  1.00  0.00     0.000 C 
BRANCH   9  10
ATOM     10  C   UNL     1      18.358   0.883  17.524  1.00  0.00     0.006 C 
BRANCH  10  11
ATOM     11  C   UNL     1      17.975   0.088  16.271  1.00  0.00     0.053 C 
BRANCH  11  12
ATOM     12  C   UNL     1      19.176  -0.305  15.465  1.00  0.00     0.041 C 
ATOM     13  O   UNL     1      19.126  -1.303  14.700  1.00  0.00    -0.550 OA
ATOM     14  O   UNL     1      20.347   0.437  15.551  1.00  0.00    -0.550 OA
ENDBRANCH  11  12
ENDBRANCH  10  11
ENDBRANCH   9  10
ENDBRANCH   8   9
ENDBRANCH   7   8
ENDBRANCH   6   7
ENDBRANCH   5   6
ENDBRANCH   4   5
ENDBRANCH   3   4
ENDBRANCH   2   3
ENDBRANCH   1   2
BRANCH   1  15
ATOM     15  C   UNL     1      15.572   2.839  15.562  1.00  0.00     0.000 C 
BRANCH  15  16
ATOM     16  C   UNL     1      14.720   1.658  15.058  1.00  0.00     0.000 C 
BRANCH  16  17
ATOM     17  C   UNL     1      14.704   1.469  13.531  1.00  0.00     0.000 C 
BRANCH  17  18
ATOM     18  C   UNL     1      15.468   2.572  12.784  1.00  0.00    -0.000 C 
BRANCH  18  19
ATOM     19  C   UNL     1      15.725   2.168  11.324  1.00  0.00    -0.000 C 
BRANCH  19  20
ATOM     20  C   UNL     1      17.207   1.865  11.037  1.00  0.00    -0.000 C 
BRANCH  20  21
ATOM     21  C   UNL     1      17.512   0.394  10.705  1.00  0.00    -0.000 C 
BRANCH  21  22
ATOM     22  C   UNL     1      17.629   0.137   9.193  1.00  0.00    -0.000 C 
BRANCH  22  23
ATOM     23  C   UNL     1      18.380   1.259   8.458  1.00  0.00    -0.000 C 
BRANCH  23  24
ATOM     24  C   UNL     1      18.957   0.798   7.109  1.00  0.00    -0.000 C 
BRANCH  24  25
ATOM     25  C   UNL     1      20.463   1.075   6.989  1.00  0.00    -0.003 C 
ATOM     26  C   UNL     1      21.267  -0.169   6.610  1.00  0.00     0.004 C 
ENDBRANCH  24  25
ENDBRANCH  23  24
ENDBRANCH  22  23
ENDBRANCH  21  22
ENDBRANCH  20  21
ENDBRANCH  19  20
ENDBRANCH  18  19
ENDBRANCH  17  18
ENDBRANCH  16  17
ENDBRANCH  15  16
ENDBRANCH   1  15
TORSDOF 22
ENDMDL
MODEL 6
REMARK VINA RESULT:    -5.302      2.852      5.134
REMARK INTER + INTRA:         -16.156
REMARK INTER:                 -13.723
REMARK INTRA:                  -2.433
REMARK UNBOUND:                -4.036
REMARK SMILES CCCCCCCCCCCCCCCCCCCCCCCC(=O)[O-]
REMARK SMILES IDX 13 1 14 2 15 3 16 4 17 5 18 6 19 7 20 8 21 9 22 10 23 11
REMARK SMILES IDX 24 12 25 13 26 14 12 15 11 16 10 17 9 18 8 19 7 20 6 21 5 22
REMARK SMILES IDX 4 23 3 24 2 25 1 26
REMARK H PARENT
REMARK Flexibility Score: inf
ROOT
ATOM      1  C   UNL     1      16.830  -1.726  18.878  1.00  0.00     0.000 C 
ENDROOT
BRANCH   1   2
ATOM      2  C   UNL     1      16.651  -2.025  17.383  1.00  0.00     0.000 C 
BRANCH   2   3
ATOM      3  C   UNL     1      17.918  -2.668  16.796  1.00  0.00     0.000 C 
BRANCH   3   4
ATOM      4  C   UNL     1      18.828  -1.645  16.100  1.00  0.00     0.000 C 
BRANCH   4   5
ATOM      5  C   UNL     1      18.043  -0.459  15.512  1.00  0.00     0.000 C 
BRANCH   5   6
ATOM      6  C   UNL     1      18.706   0.102  14.236  1.00  0.00     0.000 C 
BRANCH   6   7
ATOM      7  C   UNL     1      17.984  -0.310  12.941  1.00  0.00     0.000 C 
BRANCH   7   8
ATOM      8  C   UNL     1      18.123   0.737  11.822  1.00  0.00     0.000 C 
BRANCH   8   9
ATOM      9  C   UNL     1      17.363   0.342  10.547  1.00  0.00     0.000 C 
BRANCH   9  10
ATOM     10  C   UNL     1      17.863   1.102   9.305  1.00  0.00     0.006 C 
BRANCH  10  11
ATOM     11  C   UNL     1      18.223   0.158   8.152  1.00  0.00     0.053 C 
BRANCH  11  12
ATOM     12  C   UNL     1      19.290   0.732   7.268  1.00  0.00     0.041 C 
ATOM     13  O   UNL     1      19.041   1.729   6.542  1.00  0.00    -0.550 OA
ATOM     14  O   UNL     1      20.561   0.171   7.254  1.00  0.00    -0.550 OA
ENDBRANCH  11  12
ENDBRANCH  10  11
ENDBRANCH   9  10
ENDBRANCH   8   9
ENDBRANCH   7   8
ENDBRANCH   6   7
ENDBRANCH   5   6
ENDBRANCH   4   5
ENDBRANCH   3   4
ENDBRANCH   2   3
ENDBRANCH   1   2
BRANCH   1  15
ATOM     15  C   UNL     1      17.117  -0.239  19.160  1.00  0.00     0.000 C 
BRANCH  15  16
ATOM     16  C   UNL     1      16.056   0.481  20.016  1.00  0.00     0.000 C 
BRANCH  16  17
ATOM     17  C   UNL     1      14.648  -0.138  19.966  1.00  0.00     0.000 C 
BRANCH  17  18
ATOM     18  C   UNL     1      13.625   0.759  19.253  1.00  0.00    -0.000 C 
BRANCH  18  19
ATOM     19  C   UNL     1      14.149   2.199  19.135  1.00  0.00    -0.000 C 
BRANCH  19  20
ATOM     20  C   UNL     1      13.202   3.118  18.344  1.00  0.00    -0.000 C 
BRANCH  20  21
ATOM     21  C   UNL     1      13.675   3.461  16.920  1.00  0.00    -0.000 C 
BRANCH  21  22
ATOM     22  C   UNL     1      13.534   2.279  15.946  1.00  0.00    -0.000 C 
BRANCH  22  23
ATOM     23  C   UNL     1      14.888   1.792  15.405  1.00  0.00    -0.000 C 
BRANCH  23  24
ATOM     24  C   UNL     1      14.747   0.991  14.099  1.00  0.00    -0.000 C 
BRANCH  24  25
ATOM     25  C   UNL     1      14.994   1.854  12.852  1.00  0.00    -0.003 C 
ATOM     26  C   UNL     1      15.382   3.292  13.194  1.00  0.00     0.004 C 
ENDBRANCH  24  25
ENDBRANCH  23  24
ENDBRANCH  22  23
ENDBRANCH  21  22
ENDBRANCH  20  21
ENDBRANCH  19  20
ENDBRANCH  18  19
ENDBRANCH  17  18
ENDBRANCH  16  17
ENDBRANCH  15  16
ENDBRANCH   1  15
TORSDOF 22
ENDMDL
MODEL 7
REMARK VINA RESULT:    -5.289      2.748      8.347
REMARK INTER + INTRA:         -16.127
REMARK INTER:                 -13.934
REMARK INTRA:                  -2.194
REMARK UNBOUND:                -4.036
REMARK SMILES CCCCCCCCCCCCCCCCCCCCCCCC(=O)[O-]
REMARK SMILES IDX 13 1 14 2 15 3 16 4 17 5 18 6 19 7 20 8 21 9 22 10 23 11
REMARK SMILES IDX 24 12 25 13 26 14 12 15 11 16 10 17 9 18 8 19 7 20 6 21 5 22
REMARK SMILES IDX 4 23 3 24 2 25 1 26
REMARK H PARENT
REMARK Flexibility Score: inf
ROOT
ATOM      1  C   UNL     1      16.317  -0.384  16.259  1.00  0.00     0.000 C 
ENDROOT
BRANCH   1   2
ATOM      2  C   UNL     1      16.074  -1.708  16.997  1.00  0.00     0.000 C 
BRANCH   2   3
ATOM      3  C   UNL     1      16.985  -1.824  18.230  1.00  0.00     0.000 C 
BRANCH   3   4
ATOM      4  C   UNL     1      16.308  -1.312  19.511  1.00  0.00     0.000 C 
BRANCH   4   5
ATOM      5  C   UNL     1      16.583   0.180  19.770  1.00  0.00     0.000 C 
BRANCH   5   6
ATOM      6  C   UNL     1      15.343   0.912  20.325  1.00  0.00     0.000 C 
BRANCH   6   7
ATOM      7  C   UNL     1      14.014   0.382  19.758  1.00  0.00     0.000 C 
BRANCH   7   8
ATOM      8  C   UNL     1      13.543   1.160  18.517  1.00  0.00     0.000 C 
BRANCH   8   9
ATOM      9  C   UNL     1      13.826   2.666  18.623  1.00  0.00     0.000 C 
BRANCH   9  10
ATOM     10  C   UNL     1      13.395   3.436  17.362  1.00  0.00     0.006 C 
BRANCH  10  11
ATOM     11  C   UNL     1      13.186   2.510  16.158  1.00  0.00     0.053 C 
BRANCH  11  12
ATOM     12  C   UNL     1      14.336   2.568  15.198  1.00  0.00     0.041 C 
ATOM     13  O   UNL     1      14.156   2.316  13.979  1.00  0.00    -0.550 OA
ATOM     14  O   UNL     1      15.605   2.910  15.650  1.00  0.00    -0.550 OA
ENDBRANCH  11  12
ENDBRANCH  10  11
ENDBRANCH   9  10
ENDBRANCH   8   9
ENDBRANCH   7   8
ENDBRANCH   6   7
ENDBRANCH   5   6
ENDBRANCH   4   5
ENDBRANCH   3   4
ENDBRANCH   2   3
ENDBRANCH   1   2
BRANCH   1  15
ATOM     15  C   UNL     1      17.794   0.050  16.279  1.00  0.00     0.000 C 
BRANCH  15  16
ATOM     16  C   UNL     1      18.721  -0.739  15.334  1.00  0.00     0.000 C 
BRANCH  16  17
ATOM     17  C   UNL     1      18.874  -0.143  13.923  1.00  0.00     0.000 C 
BRANCH  17  18
ATOM     18  C   UNL     1      17.705  -0.500  12.993  1.00  0.00    -0.000 C 
BRANCH  18  19
ATOM     19  C   UNL     1      16.813   0.725  12.740  1.00  0.00    -0.000 C 
BRANCH  19  20
ATOM     20  C   UNL     1      17.073   1.385  11.375  1.00  0.00    -0.000 C 
BRANCH  20  21
ATOM     21  C   UNL     1      17.497   0.414  10.259  1.00  0.00    -0.000 C 
BRANCH  21  22
ATOM     22  C   UNL     1      17.815   1.131   8.935  1.00  0.00    -0.000 C 
BRANCH  22  23
ATOM     23  C   UNL     1      18.649   0.264   7.978  1.00  0.00    -0.000 C 
BRANCH  23  24
ATOM     24  C   UNL     1      19.321   1.091   6.869  1.00  0.00    -0.000 C 
BRANCH  24  25
ATOM     25  C   UNL     1      20.853   0.974   6.896  1.00  0.00    -0.003 C 
ATOM     26  C   UNL     1      21.348  -0.419   6.508  1.00  0.00     0.004 C 
ENDBRANCH  24  25
ENDBRANCH  23  24
ENDBRANCH  22  23
ENDBRANCH  21  22
ENDBRANCH  20  21
ENDBRANCH  19  20
ENDBRANCH  18  19
ENDBRANCH  17  18
ENDBRANCH  16  17
ENDBRANCH  15  16
ENDBRANCH   1  15
TORSDOF 22
ENDMDL
MODEL 8
REMARK VINA RESULT:    -5.222      2.676      5.189
REMARK INTER + INTRA:         -15.975
REMARK INTER:                 -13.049
REMARK INTRA:                  -2.926
REMARK UNBOUND:                -4.036
REMARK SMILES CCCCCCCCCCCCCCCCCCCCCCCC(=O)[O-]
REMARK SMILES IDX 13 1 14 2 15 3 16 4 17 5 18 6 19 7 20 8 21 9 22 10 23 11
REMARK SMILES IDX 24 12 25 13 26 14 12 15 11 16 10 17 9 18 8 19 7 20 6 21 5 22
REMARK SMILES IDX 4 23 3 24 2 25 1 26
REMARK H PARENT
REMARK Flexibility Score: inf
ROOT
ATOM      1  C   UNL     1      15.889  -1.287  16.674  1.00  0.00     0.000 C 
ENDROOT
BRANCH   1   2
ATOM      2  C   UNL     1      16.642  -0.710  15.467  1.00  0.00     0.000 C 
BRANCH   2   3
ATOM      3  C   UNL     1      17.681   0.332  15.914  1.00  0.00     0.000 C 
BRANCH   3   4
ATOM      4  C   UNL     1      19.077   0.054  15.339  1.00  0.00     0.000 C 
BRANCH   4   5
ATOM      5  C   UNL     1      19.227  -1.387  14.819  1.00  0.00     0.000 C 
BRANCH   5   6
ATOM      6  C   UNL     1      20.420  -2.119  15.469  1.00  0.00     0.000 C 
BRANCH   6   7
ATOM      7  C   UNL     1      21.538  -1.171  15.936  1.00  0.00     0.000 C 
BRANCH   7   8
ATOM      8  C   UNL     1      22.835  -1.912  16.302  1.00  0.00     0.000 C 
BRANCH   8   9
ATOM      9  C   UNL     1      24.096  -1.130  15.902  1.00  0.00     0.000 C 
BRANCH   9  10
ATOM     10  C   UNL     1      24.417   0.010  16.884  1.00  0.00     0.006 C 
BRANCH  10  11
ATOM     11  C   UNL     1      24.715   1.331  16.164  1.00  0.00     0.053 C 
BRANCH  11  12
ATOM     12  C   UNL     1      23.782   2.425  16.587  1.00  0.00     0.041 C 
ATOM     13  O   UNL     1      22.579   2.406  16.222  1.00  0.00    -0.550 OA
ATOM     14  O   UNL     1      24.240   3.460  17.393  1.00  0.00    -0.550 OA
ENDBRANCH  11  12
ENDBRANCH  10  11
ENDBRANCH   9  10
ENDBRANCH   8   9
ENDBRANCH   7   8
ENDBRANCH   6   7
ENDBRANCH   5   6
ENDBRANCH   4   5
ENDBRANCH   3   4
ENDBRANCH   2   3
ENDBRANCH   1   2
BRANCH   1  15
ATOM     15  C   UNL     1      16.815  -1.602  17.862  1.00  0.00     0.000 C 
BRANCH  15  16
ATOM     16  C   UNL     1      16.296  -1.139  19.238  1.00  0.00     0.000 C 
BRANCH  16  17
ATOM     17  C   UNL     1      16.571   0.338  19.575  1.00  0.00     0.000 C 
BRANCH  17  18
ATOM     18  C   UNL     1      15.355   1.047  20.189  1.00  0.00    -0.000 C 
BRANCH  18  19
ATOM     19  C   UNL     1      14.056   0.605  19.497  1.00  0.00    -0.000 C 
BRANCH  19  20
ATOM     20  C   UNL     1      13.868   1.246  18.110  1.00  0.00    -0.000 C 
BRANCH  20  21
ATOM     21  C   UNL     1      14.305   2.719  18.015  1.00  0.00    -0.000 C 
BRANCH  21  22
ATOM     22  C   UNL     1      15.187   2.999  16.787  1.00  0.00    -0.000 C 
BRANCH  22  23
ATOM     23  C   UNL     1      14.566   2.480  15.480  1.00  0.00    -0.000 C 
BRANCH  23  24
ATOM     24  C   UNL     1      15.443   2.776  14.252  1.00  0.00    -0.000 C 
BRANCH  24  25
ATOM     25  C   UNL     1      15.108   1.867  13.059  1.00  0.00    -0.003 C 
ATOM     26  C   UNL     1      15.839   2.275  11.780  1.00  0.00     0.004 C 
ENDBRANCH  24  25
ENDBRANCH  23  24
ENDBRANCH  22  23
ENDBRANCH  21  22
ENDBRANCH  20  21
ENDBRANCH  19  20
ENDBRANCH  18  19
ENDBRANCH  17  18
ENDBRANCH  16  17
ENDBRANCH  15  16
ENDBRANCH   1  15
TORSDOF 22
ENDMDL
MODEL 9
REMARK VINA RESULT:    -5.184      2.441      5.076
REMARK INTER + INTRA:         -15.887
REMARK INTER:                 -13.236
REMARK INTRA:                  -2.651
REMARK UNBOUND:                -4.036
REMARK SMILES CCCCCCCCCCCCCCCCCCCCCCCC(=O)[O-]
REMARK SMILES IDX 13 1 14 2 15 3 16 4 17 5 18 6 19 7 20 8 21 9 22 10 23 11
REMARK SMILES IDX 24 12 25 13 26 14 12 15 11 16 10 17 9 18 8 19 7 20 6 21 5 22
REMARK SMILES IDX 4 23 3 24 2 25 1 26
REMARK H PARENT
REMARK Flexibility Score: inf
ROOT
ATOM      1  C   UNL     1      16.952  -1.452  18.795  1.00  0.00     0.000 C 
ENDROOT
BRANCH   1   2
ATOM      2  C   UNL     1      16.320  -1.958  17.490  1.00  0.00     0.000 C 
BRANCH   2   3
ATOM      3  C   UNL     1      15.881  -0.782  16.602  1.00  0.00     0.000 C 
BRANCH   3   4
ATOM      4  C   UNL     1      16.664  -0.719  15.282  1.00  0.00     0.000 C 
BRANCH   4   5
ATOM      5  C   UNL     1      17.970   0.086  15.407  1.00  0.00     0.000 C 
BRANCH   5   6
ATOM      6  C   UNL     1      19.181  -0.678  14.829  1.00  0.00     0.000 C 
BRANCH   6   7
ATOM      7  C   UNL     1      19.592  -1.899  15.671  1.00  0.00     0.000 C 
BRANCH   7   8
ATOM      8  C   UNL     1      21.086  -2.239  15.537  1.00  0.00     0.000 C 
BRANCH   8   9
ATOM      9  C   UNL     1      21.990  -1.214  16.238  1.00  0.00     0.000 C 
BRANCH   9  10
ATOM     10  C   UNL     1      23.478  -1.413  15.900  1.00  0.00     0.006 C 
BRANCH  10  11
ATOM     11  C   UNL     1      24.366  -1.396  17.150  1.00  0.00     0.053 C 
BRANCH  11  12
ATOM     12  C   UNL     1      24.695  -2.779  17.625  1.00  0.00     0.041 C 
ATOM     13  O   UNL     1      25.236  -2.951  18.748  1.00  0.00    -0.550 OA
ATOM     14  O   UNL     1      24.396  -3.879  16.831  1.00  0.00    -0.550 OA
ENDBRANCH  11  12
ENDBRANCH  10  11
ENDBRANCH   9  10
ENDBRANCH   8   9
ENDBRANCH   7   8
ENDBRANCH   6   7
ENDBRANCH   5   6
ENDBRANCH   4   5
ENDBRANCH   3   4
ENDBRANCH   2   3
ENDBRANCH   1   2
BRANCH   1  15
ATOM     15  C   UNL     1      16.847   0.075  18.959  1.00  0.00     0.000 C 
BRANCH  15  16
ATOM     16  C   UNL     1      15.952   0.548  20.122  1.00  0.00     0.000 C 
BRANCH  16  17
ATOM     17  C   UNL     1      14.503   0.034  20.081  1.00  0.00     0.000 C 
BRANCH  17  18
ATOM     18  C   UNL     1      13.655   0.721  19.001  1.00  0.00    -0.000 C 
BRANCH  18  19
ATOM     19  C   UNL     1      14.113   2.172  18.785  1.00  0.00    -0.000 C 
BRANCH  19  20
ATOM     20  C   UNL     1      13.010   3.069  18.196  1.00  0.00    -0.000 C 
BRANCH  20  21
ATOM     21  C   UNL     1      13.266   3.543  16.755  1.00  0.00    -0.000 C 
BRANCH  21  22
ATOM     22  C   UNL     1      13.754   2.412  15.834  1.00  0.00    -0.000 C 
BRANCH  22  23
ATOM     23  C   UNL     1      15.164   2.669  15.276  1.00  0.00    -0.000 C 
BRANCH  23  24
ATOM     24  C   UNL     1      15.151   3.006  13.775  1.00  0.00    -0.000 C 
BRANCH  24  25
ATOM     25  C   UNL     1      15.143   1.750  12.891  1.00  0.00    -0.003 C 
ATOM     26  C   UNL     1      15.875   1.954  11.565  1.00  0.00     0.004 C 
ENDBRANCH  24  25
ENDBRANCH  23  24
ENDBRANCH  22  23
ENDBRANCH  21  22
ENDBRANCH  20  21
ENDBRANCH  19  20
ENDBRANCH  18  19
ENDBRANCH  17  18
ENDBRANCH  16  17
ENDBRANCH  15  16
ENDBRANCH   1  15
TORSDOF 22
ENDMDL
