MODEL 1
REMARK VINA RESULT:    -4.524      0.000      0.000
REMARK INTER + INTRA:          -7.152
REMARK INTER:                  -6.640
REMARK INTRA:                  -0.512
REMARK UNBOUND:                -0.512
REMARK SMILES O=C([O-])CCCCCCCC(=O)[O-]
REMARK SMILES IDX 7 1 6 2 5 3 4 4 2 5 1 6 3 7 8 8 9 9 10 10 11 11 12 12 13 13
REMARK H PARENT
REMARK Flexibility Score: inf
ROOT
ATOM      1  C   UNL     1       8.657  27.302 -13.080  1.00  0.00     0.000 C 
ENDROOT
BRANCH   1   2
ATOM      2  C   UNL     1       8.948  28.813 -13.064  1.00  0.00     0.000 C 
BRANCH   2   3
ATOM      3  C   UNL     1       7.667  29.659 -12.966  1.00  0.00     0.006 C 
BRANCH   3   4
ATOM      4  C   UNL     1       7.457  30.558 -14.190  1.00  0.00     0.053 C 
BRANCH   4   5
ATOM      5  C   UNL     1       6.316  30.054 -15.017  1.00  0.00     0.041 C 
ATOM      6  O   UNL     1       5.180  30.588 -14.923  1.00  0.00    -0.550 OA
ATOM      7  O   UNL     1       6.520  29.024 -15.928  1.00  0.00    -0.550 OA
ENDBRANCH   4   5
ENDBRANCH   3   4
ENDBRANCH   2   3
ENDBRANCH   1   2
BRANCH   1   8
ATOM      8  C   UNL     1       7.152  26.991 -13.049  1.00  0.00     0.000 C 
BRANCH   8   9
ATOM      9  C   UNL     1       6.859  25.486 -12.920  1.00  0.00     0.006 C 
BRANCH   9  10
ATOM     10  C   UNL     1       8.119  24.679 -12.575  1.00  0.00     0.053 C 
BRANCH  10  11
ATOM     11  C   UNL     1       8.070  24.145 -11.177  1.00  0.00     0.041 C 
ATOM     12  O   UNL     1       9.012  24.382 -10.375  1.00  0.00    -0.550 OA
ATOM     13  O   UNL     1       6.968  23.415 -10.749  1.00  0.00    -0.550 OA
ENDBRANCH  10  11
ENDBRANCH   9  10
ENDBRANCH   8   9
ENDBRANCH   1   8
TORSDOF 8
ENDMDL
MODEL 2
REMARK VINA RESULT:    -4.475      1.025      1.746
REMARK INTER + INTRA:          -7.080
REMARK INTER:                  -6.721
REMARK INTRA:                  -0.359
REMARK UNBOUND:                -0.512
REMARK SMILES O=C([O-])CCCCCCCC(=O)[O-]
REMARK SMILES IDX 7 1 6 2 5 3 4 4 2 5 1 6 3 7 8 8 9 9 10 10 11 11 12 12 13 13
REMARK H PARENT
REMARK Flexibility Score: inf
ROOT
ATOM      1  C   UNL     1       6.889  26.546 -13.060  1.00  0.00     0.000 C 
ENDROOT
BRANCH   1   2
ATOM      2  C   UNL     1       8.095  27.500 -13.021  1.00  0.00     0.000 C 
BRANCH   2   3
ATOM      3  C   UNL     1       7.680  28.979 -13.109  1.00  0.00     0.006 C 
BRANCH   3   4
ATOM      4  C   UNL     1       7.849  29.557 -14.520  1.00  0.00     0.053 C 
BRANCH   4   5
ATOM      5  C   UNL     1       6.539  29.551 -15.245  1.00  0.00     0.041 C 
ATOM      6  O   UNL     1       6.321  28.706 -16.152  1.00  0.00    -0.550 OA
ATOM      7  O   UNL     1       5.542  30.449 -14.885  1.00  0.00    -0.550 OA
ENDBRANCH   4   5
ENDBRANCH   3   4
ENDBRANCH   2   3
ENDBRANCH   1   2
BRANCH   1   8
ATOM      8  C   UNL     1       7.274  25.096 -12.726  1.00  0.00     0.000 C 
BRANCH   8   9
ATOM      9  C   UNL     1       8.757  24.948 -12.343  1.00  0.00     0.006 C 
BRANCH   9  10
ATOM     10  C   UNL     1       8.938  24.527 -10.878  1.00  0.00     0.053 C 
BRANCH  10  11
ATOM     11  C   UNL     1       8.304  23.198 -10.600  1.00  0.00     0.041 C 
ATOM     12  O   UNL     1       8.468  22.238 -11.398  1.00  0.00    -0.550 OA
ATOM     13  O   UNL     1       7.561  23.011  -9.441  1.00  0.00    -0.550 OA
ENDBRANCH  10  11
ENDBRANCH   9  10
ENDBRANCH   8   9
ENDBRANCH   1   8
TORSDOF 8
ENDMDL
MODEL 3
REMARK VINA RESULT:    -4.352      1.401      5.673
REMARK INTER + INTRA:          -6.899
REMARK INTER:                  -6.373
REMARK INTRA:                  -0.525
REMARK UNBOUND:                -0.512
REMARK SMILES O=C([O-])CCCCCCCC(=O)[O-]
REMARK SMILES IDX 7 1 6 2 5 3 4 4 2 5 1 6 3 7 8 8 9 9 10 10 11 11 12 12 13 13
REMARK H PARENT
REMARK Flexibility Score: inf
ROOT
ATOM      1  C   UNL     1       9.534  26.996 -13.335  1.00  0.00     0.000 C 
ENDROOT
BRANCH   1   2
ATOM      2  C   UNL     1      10.389  26.257 -12.292  1.00  0.00     0.000 C 
BRANCH   2   3
ATOM      3  C   UNL     1       9.627  25.107 -11.612  1.00  0.00     0.006 C 
BRANCH   3   4
ATOM      4  C   UNL     1       8.708  24.352 -12.580  1.00  0.00     0.053 C 
BRANCH   4   5
ATOM      5  C   UNL     1       7.310  24.313 -12.049  1.00  0.00     0.041 C 
ATOM      6  O   UNL     1       7.053  23.690 -10.986  1.00  0.00    -0.550 OA
ATOM      7  O   UNL     1       6.298  25.006 -12.702  1.00  0.00    -0.550 OA
ENDBRANCH   4   5
ENDBRANCH   3   4
ENDBRANCH   2   3
ENDBRANCH   1   2
BRANCH   1   8
ATOM      8  C   UNL     1       9.377  28.492 -13.016  1.00  0.00     0.000 C 
BRANCH   8   9
ATOM      9  C   UNL     1       7.905  28.921 -12.887  1.00  0.00     0.006 C 
BRANCH   9  10
ATOM     10  C   UNL     1       7.026  28.313 -13.989  1.00  0.00     0.053 C 
BRANCH  10  11
ATOM     11  C   UNL     1       6.807  29.274 -15.117  1.00  0.00     0.041 C 
ATOM     12  O   UNL     1       7.036  30.502 -14.957  1.00  0.00    -0.550 OA
ATOM     13  O   UNL     1       6.385  28.808 -16.356  1.00  0.00    -0.550 OA
ENDBRANCH  10  11
ENDBRANCH   9  10
ENDBRANCH   8   9
ENDBRANCH   1   8
TORSDOF 8
ENDMDL
MODEL 4
REMARK VINA RESULT:    -4.342      1.309      2.014
REMARK INTER + INTRA:          -6.885
REMARK INTER:                  -6.294
REMARK INTRA:                  -0.591
REMARK UNBOUND:                -0.512
REMARK SMILES O=C([O-])CCCCCCCC(=O)[O-]
REMARK SMILES IDX 7 1 6 2 5 3 4 4 2 5 1 6 3 7 8 8 9 9 10 10 11 11 12 12 13 13
REMARK H PARENT
REMARK Flexibility Score: inf
ROOT
ATOM      1  C   UNL     1       9.570  27.310 -13.385  1.00  0.00     0.000 C 
ENDROOT
BRANCH   1   2
ATOM      2  C   UNL     1       9.316  28.730 -12.853  1.00  0.00     0.000 C 
BRANCH   2   3
ATOM      3  C   UNL     1       7.834  29.133 -12.928  1.00  0.00     0.006 C 
BRANCH   3   4
ATOM      4  C   UNL     1       7.038  28.279 -13.924  1.00  0.00     0.053 C 
BRANCH   4   5
ATOM      5  C   UNL     1       6.569  29.118 -15.071  1.00  0.00     0.041 C 
ATOM      6  O   UNL     1       5.986  28.583 -16.050  1.00  0.00    -0.550 OA
ATOM      7  O   UNL     1       6.732  30.497 -15.035  1.00  0.00    -0.550 OA
ENDBRANCH   4   5
ENDBRANCH   3   4
ENDBRANCH   2   3
ENDBRANCH   1   2
BRANCH   1   8
ATOM      8  C   UNL     1      10.306  26.422 -12.368  1.00  0.00     0.000 C 
BRANCH   8   9
ATOM      9  C   UNL     1       9.547  25.120 -12.057  1.00  0.00     0.006 C 
BRANCH   9  10
ATOM     10  C   UNL     1       8.328  24.929 -12.970  1.00  0.00     0.053 C 
BRANCH  10  11
ATOM     11  C   UNL     1       7.121  24.487 -12.200  1.00  0.00     0.041 C 
ATOM     12  O   UNL     1       5.966  24.734 -12.636  1.00  0.00    -0.550 OA
ATOM     13  O   UNL     1       7.273  23.771 -11.020  1.00  0.00    -0.550 OA
ENDBRANCH  10  11
ENDBRANCH   9  10
ENDBRANCH   8   9
ENDBRANCH   1   8
TORSDOF 8
ENDMDL
MODEL 5
REMARK VINA RESULT:    -4.315      1.507      6.546
REMARK INTER + INTRA:          -6.845
REMARK INTER:                  -6.529
REMARK INTRA:                  -0.316
REMARK UNBOUND:                -0.512
REMARK SMILES O=C([O-])CCCCCCCC(=O)[O-]
REMARK SMILES IDX 7 1 6 2 5 3 4 4 2 5 1 6 3 7 8 8 9 9 10 10 11 11 12 12 13 13
REMARK H PARENT
REMARK Flexibility Score: inf
ROOT
ATOM      1  C   UNL     1       7.081  26.577 -13.086  1.00  0.00     0.000 C 
ENDROOT
BRANCH   1   2
ATOM      2  C   UNL     1       8.503  26.171 -12.665  1.00  0.00     0.000 C 
BRANCH   2   3
ATOM      3  C   UNL     1       8.650  24.653 -12.470  1.00  0.00     0.006 C 
BRANCH   3   4
ATOM      4  C   UNL     1       8.890  24.265 -11.005  1.00  0.00     0.053 C 
BRANCH   4   5
ATOM      5  C   UNL     1       7.681  23.588 -10.440  1.00  0.00     0.041 C 
ATOM      6  O   UNL     1       6.584  23.632 -11.055  1.00  0.00    -0.550 OA
ATOM      7  O   UNL     1       7.778  22.866  -9.257  1.00  0.00    -0.550 OA
ENDBRANCH   4   5
ENDBRANCH   3   4
ENDBRANCH   2   3
ENDBRANCH   1   2
BRANCH   1   8
ATOM      8  C   UNL     1       7.004  28.030 -13.582  1.00  0.00     0.000 C 
BRANCH   8   9
ATOM      9  C   UNL     1       8.195  28.882 -13.109  1.00  0.00     0.006 C 
BRANCH   9  10
ATOM     10  C   UNL     1       7.814  30.357 -12.920  1.00  0.00     0.053 C 
BRANCH  10  11
ATOM     11  C   UNL     1       7.932  31.129 -14.197  1.00  0.00     0.041 C 
ATOM     12  O   UNL     1       8.949  31.839 -14.417  1.00  0.00    -0.550 OA
ATOM     13  O   UNL     1       6.935  31.037 -15.161  1.00  0.00    -0.550 OA
ENDBRANCH  10  11
ENDBRANCH   9  10
ENDBRANCH   8   9
ENDBRANCH   1   8
TORSDOF 8
ENDMDL
MODEL 6
REMARK VINA RESULT:    -4.301      0.746      6.331
REMARK INTER + INTRA:          -6.824
REMARK INTER:                  -6.351
REMARK INTRA:                  -0.473
REMARK UNBOUND:                -0.512
REMARK SMILES O=C([O-])CCCCCCCC(=O)[O-]
REMARK SMILES IDX 7 1 6 2 5 3 4 4 2 5 1 6 3 7 8 8 9 9 10 10 11 11 12 12 13 13
REMARK H PARENT
REMARK Flexibility Score: inf
ROOT
ATOM      1  C   UNL     1       9.028  26.993 -12.908  1.00  0.00     0.000 C 
ENDROOT
BRANCH   1   2
ATOM      2  C   UNL     1       7.588  26.453 -12.882  1.00  0.00     0.000 C 
BRANCH   2   3
ATOM      3  C   UNL     1       7.532  24.920 -12.989  1.00  0.00     0.006 C 
BRANCH   3   4
ATOM      4  C   UNL     1       8.799  24.242 -12.452  1.00  0.00     0.053 C 
BRANCH   4   5
ATOM      5  C   UNL     1       8.523  23.595 -11.131  1.00  0.00     0.041 C 
ATOM      6  O   UNL     1       8.156  22.393 -11.078  1.00  0.00    -0.550 OA
ATOM      7  O   UNL     1       8.720  24.308  -9.954  1.00  0.00    -0.550 OA
ENDBRANCH   4   5
ENDBRANCH   3   4
ENDBRANCH   2   3
ENDBRANCH   1   2
BRANCH   1   8
ATOM      8  C   UNL     1       9.081  28.523 -13.055  1.00  0.00     0.000 C 
BRANCH   8   9
ATOM      9  C   UNL     1       7.707  29.187 -12.855  1.00  0.00     0.006 C 
BRANCH   9  10
ATOM     10  C   UNL     1       7.461  30.323 -13.857  1.00  0.00     0.053 C 
BRANCH  10  11
ATOM     11  C   UNL     1       6.374  29.981 -14.829  1.00  0.00     0.041 C 
ATOM     12  O   UNL     1       5.655  30.890 -15.321  1.00  0.00    -0.550 OA
ATOM     13  O   UNL     1       6.178  28.661 -15.217  1.00  0.00    -0.550 OA
ENDBRANCH  10  11
ENDBRANCH   9  10
ENDBRANCH   8   9
ENDBRANCH   1   8
TORSDOF 8
ENDMDL
MODEL 7
REMARK VINA RESULT:    -4.284     11.960     14.723
REMARK INTER + INTRA:          -6.799
REMARK INTER:                  -6.285
REMARK INTRA:                  -0.513
REMARK UNBOUND:                -0.512
REMARK SMILES O=C([O-])CCCCCCCC(=O)[O-]
REMARK SMILES IDX 7 1 6 2 5 3 4 4 2 5 1 6 3 7 8 8 9 9 10 10 11 11 12 12 13 13
REMARK H PARENT
REMARK Flexibility Score: inf
ROOT
ATOM      1  C   UNL     1      -4.696  31.874 -19.149  1.00  0.00     0.000 C 
ENDROOT
BRANCH   1   2
ATOM      2  C   UNL     1      -6.054  31.675 -18.456  1.00  0.00     0.000 C 
BRANCH   2   3
ATOM      3  C   UNL     1      -7.009  32.860 -18.678  1.00  0.00     0.006 C 
BRANCH   3   4
ATOM      4  C   UNL     1      -7.959  33.083 -17.495  1.00  0.00     0.053 C 
BRANCH   4   5
ATOM      5  C   UNL     1      -7.205  33.030 -16.203  1.00  0.00     0.041 C 
ATOM      6  O   UNL     1      -7.474  32.145 -15.349  1.00  0.00    -0.550 OA
ATOM      7  O   UNL     1      -6.172  33.927 -15.964  1.00  0.00    -0.550 OA
ENDBRANCH   4   5
ENDBRANCH   3   4
ENDBRANCH   2   3
ENDBRANCH   1   2
BRANCH   1   8
ATOM      8  C   UNL     1      -4.045  33.221 -18.795  1.00  0.00     0.000 C 
BRANCH   8   9
ATOM      9  C   UNL     1      -3.060  33.113 -17.618  1.00  0.00     0.006 C 
BRANCH   9  10
ATOM     10  C   UNL     1      -1.784  32.348 -17.998  1.00  0.00     0.053 C 
BRANCH  10  11
ATOM     11  C   UNL     1      -0.837  33.204 -18.781  1.00  0.00     0.041 C 
ATOM     12  O   UNL     1      -0.150  32.702 -19.709  1.00  0.00    -0.550 OA
ATOM     13  O   UNL     1      -0.738  34.562 -18.508  1.00  0.00    -0.550 OA
ENDBRANCH  10  11
ENDBRANCH   9  10
ENDBRANCH   8   9
ENDBRANCH   1   8
TORSDOF 8
ENDMDL
MODEL 8
REMARK VINA RESULT:    -4.280      1.742      2.215
REMARK INTER + INTRA:          -6.793
REMARK INTER:                  -6.422
REMARK INTRA:                  -0.371
REMARK UNBOUND:                -0.512
REMARK SMILES O=C([O-])CCCCCCCC(=O)[O-]
REMARK SMILES IDX 7 1 6 2 5 3 4 4 2 5 1 6 3 7 8 8 9 9 10 10 11 11 12 12 13 13
REMARK H PARENT
REMARK Flexibility Score: inf
ROOT
ATOM      1  C   UNL     1       9.649  27.259 -12.756  1.00  0.00     0.000 C 
ENDROOT
BRANCH   1   2
ATOM      2  C   UNL     1       8.187  27.071 -13.193  1.00  0.00     0.000 C 
BRANCH   2   3
ATOM      3  C   UNL     1       7.377  28.376 -13.122  1.00  0.00     0.006 C 
BRANCH   3   4
ATOM      4  C   UNL     1       8.248  29.595 -12.791  1.00  0.00     0.053 C 
BRANCH   4   5
ATOM      5  C   UNL     1       7.568  30.855 -13.227  1.00  0.00     0.041 C 
ATOM      6  O   UNL     1       6.799  31.465 -12.440  1.00  0.00    -0.550 OA
ATOM      7  O   UNL     1       7.822  31.381 -14.488  1.00  0.00    -0.550 OA
ENDBRANCH   4   5
ENDBRANCH   3   4
ENDBRANCH   2   3
ENDBRANCH   1   2
BRANCH   1   8
ATOM      8  C   UNL     1      10.298  25.946 -12.286  1.00  0.00     0.000 C 
BRANCH   8   9
ATOM      9  C   UNL     1       9.300  24.776 -12.235  1.00  0.00     0.006 C 
BRANCH   9  10
ATOM     10  C   UNL     1       8.954  24.374 -10.794  1.00  0.00     0.053 C 
BRANCH  10  11
ATOM     11  C   UNL     1       7.696  23.564 -10.731  1.00  0.00     0.041 C 
ATOM     12  O   UNL     1       7.654  22.510 -10.042  1.00  0.00    -0.550 OA
ATOM     13  O   UNL     1       6.558  23.991 -11.404  1.00  0.00    -0.550 OA
ENDBRANCH  10  11
ENDBRANCH   9  10
ENDBRANCH   8   9
ENDBRANCH   1   8
TORSDOF 8
ENDMDL
MODEL 9
REMARK VINA RESULT:    -4.141     11.957     14.458
REMARK INTER + INTRA:          -6.590
REMARK INTER:                  -6.037
REMARK INTRA:                  -0.553
REMARK UNBOUND:                -0.512
REMARK SMILES O=C([O-])CCCCCCCC(=O)[O-]
REMARK SMILES IDX 7 1 6 2 5 3 4 4 2 5 1 6 3 7 8 8 9 9 10 10 11 11 12 12 13 13
REMARK H PARENT
REMARK Flexibility Score: inf
ROOT
ATOM      1  C   UNL     1      -4.620  31.542 -18.969  1.00  0.00     0.000 C 
ENDROOT
BRANCH   1   2
ATOM      2  C   UNL     1      -3.798  32.819 -18.728  1.00  0.00     0.000 C 
BRANCH   2   3
ATOM      3  C   UNL     1      -2.686  32.618 -17.685  1.00  0.00     0.006 C 
BRANCH   3   4
ATOM      4  C   UNL     1      -1.316  32.355 -18.324  1.00  0.00     0.053 C 
BRANCH   4   5
ATOM      5  C   UNL     1      -0.621  33.647 -18.616  1.00  0.00     0.041 C 
ATOM      6  O   UNL     1      -0.780  34.638 -17.857  1.00  0.00    -0.550 OA
ATOM      7  O   UNL     1       0.242  33.742 -19.701  1.00  0.00    -0.550 OA
ENDBRANCH   4   5
ENDBRANCH   3   4
ENDBRANCH   2   3
ENDBRANCH   1   2
BRANCH   1   8
ATOM      8  C   UNL     1      -6.057  31.656 -18.436  1.00  0.00     0.000 C 
BRANCH   8   9
ATOM      9  C   UNL     1      -6.135  31.528 -16.904  1.00  0.00     0.006 C 
BRANCH   9  10
ATOM     10  C   UNL     1      -7.144  32.509 -16.292  1.00  0.00     0.053 C 
BRANCH  10  11
ATOM     11  C   UNL     1      -6.766  33.933 -16.557  1.00  0.00     0.041 C 
ATOM     12  O   UNL     1      -5.697  34.404 -16.085  1.00  0.00    -0.550 OA
ATOM     13  O   UNL     1      -7.575  34.731 -17.356  1.00  0.00    -0.550 OA
ENDBRANCH  10  11
ENDBRANCH   9  10
ENDBRANCH   8   9
ENDBRANCH   1   8
TORSDOF 8
ENDMDL
