MODEL 1
REMARK VINA RESULT:    -3.477      0.000      0.000
REMARK INTER + INTRA:          -4.343
REMARK INTER:                  -4.290
REMARK INTRA:                  -0.053
REMARK UNBOUND:                -0.053
REMARK SMILES CCCCCC(=O)[O-]
REMARK SMILES IDX 4 1 5 2 6 3 7 4 8 5 3 6 2 7 1 8
REMARK H PARENT
REMARK Flexibility Score: inf
ROOT
ATOM      1  C   UNL     1      17.261  -6.517  16.332  1.00  0.00     0.006 C 
ENDROOT
BRANCH   1   2
ATOM      2  C   UNL     1      16.978  -6.236  14.851  1.00  0.00     0.053 C 
BRANCH   2   3
ATOM      3  C   UNL     1      17.697  -7.199  13.956  1.00  0.00     0.041 C 
ATOM      4  O   UNL     1      18.065  -8.320  14.397  1.00  0.00    -0.550 OA
ATOM      5  O   UNL     1      17.991  -6.844  12.645  1.00  0.00    -0.550 OA
ENDBRANCH   2   3
ENDBRANCH   1   2
BRANCH   1   6
ATOM      6  C   UNL     1      16.258  -5.809  17.259  1.00  0.00     0.000 C 
BRANCH   6   7
ATOM      7  C   UNL     1      16.886  -5.390  18.597  1.00  0.00    -0.003 C 
ATOM      8  C   UNL     1      16.125  -4.252  19.277  1.00  0.00     0.004 C 
ENDBRANCH   6   7
ENDBRANCH   1   6
TORSDOF 4
ENDMDL
MODEL 2
REMARK VINA RESULT:    -3.420      4.623      6.543
REMARK INTER + INTRA:          -4.272
REMARK INTER:                  -4.167
REMARK INTRA:                  -0.105
REMARK UNBOUND:                -0.053
REMARK SMILES CCCCCC(=O)[O-]
REMARK SMILES IDX 4 1 5 2 6 3 7 4 8 5 3 6 2 7 1 8
REMARK H PARENT
REMARK Flexibility Score: inf
ROOT
ATOM      1  C   UNL     1      15.888  -9.776  12.482  1.00  0.00     0.006 C 
ENDROOT
BRANCH   1   2
ATOM      2  C   UNL     1      17.336 -10.238  12.699  1.00  0.00     0.053 C 
BRANCH   2   3
ATOM      3  C   UNL     1      18.122  -9.244  13.498  1.00  0.00     0.041 C 
ATOM      4  O   UNL     1      18.383  -8.109  13.018  1.00  0.00    -0.550 OA
ATOM      5  O   UNL     1      18.596  -9.584  14.759  1.00  0.00    -0.550 OA
ENDBRANCH   2   3
ENDBRANCH   1   2
BRANCH   1   6
ATOM      6  C   UNL     1      14.931 -10.957  12.250  1.00  0.00     0.000 C 
BRANCH   6   7
ATOM      7  C   UNL     1      15.660 -12.309  12.225  1.00  0.00    -0.003 C 
ATOM      8  C   UNL     1      14.741 -13.482  12.567  1.00  0.00     0.004 C 
ENDBRANCH   6   7
ENDBRANCH   1   6
TORSDOF 4
ENDMDL
MODEL 3
REMARK VINA RESULT:    -3.337      5.392      6.856
REMARK INTER + INTRA:          -4.170
REMARK INTER:                  -4.113
REMARK INTRA:                  -0.057
REMARK UNBOUND:                -0.053
REMARK SMILES CCCCCC(=O)[O-]
REMARK SMILES IDX 4 1 5 2 6 3 7 4 8 5 3 6 2 7 1 8
REMARK H PARENT
REMARK Flexibility Score: inf
ROOT
ATOM      1  C   UNL     1      15.871 -10.788  12.410  1.00  0.00     0.006 C 
ENDROOT
BRANCH   1   2
ATOM      2  C   UNL     1      15.541 -12.250  12.078  1.00  0.00     0.053 C 
BRANCH   2   3
ATOM      3  C   UNL     1      14.189 -12.643  12.592  1.00  0.00     0.041 C 
ATOM      4  O   UNL     1      13.309 -11.766  12.798  1.00  0.00    -0.550 OA
ATOM      5  O   UNL     1      13.914 -13.975  12.876  1.00  0.00    -0.550 OA
ENDBRANCH   2   3
ENDBRANCH   1   2
BRANCH   1   6
ATOM      6  C   UNL     1      17.387 -10.542  12.497  1.00  0.00     0.000 C 
BRANCH   6   7
ATOM      7  C   UNL     1      17.733  -9.276  13.295  1.00  0.00    -0.003 C 
ATOM      8  C   UNL     1      18.488  -9.580  14.589  1.00  0.00     0.004 C 
ENDBRANCH   6   7
ENDBRANCH   1   6
TORSDOF 4
ENDMDL
MODEL 4
REMARK VINA RESULT:    -3.304      5.171      6.303
REMARK INTER + INTRA:          -4.129
REMARK INTER:                  -4.029
REMARK INTRA:                  -0.100
REMARK UNBOUND:                -0.053
REMARK SMILES CCCCCC(=O)[O-]
REMARK SMILES IDX 4 1 5 2 6 3 7 4 8 5 3 6 2 7 1 8
REMARK H PARENT
REMARK Flexibility Score: inf
ROOT
ATOM      1  C   UNL     1      16.860 -10.906  13.000  1.00  0.00     0.006 C 
ENDROOT
BRANCH   1   2
ATOM      2  C   UNL     1      16.204 -11.726  11.881  1.00  0.00     0.053 C 
BRANCH   2   3
ATOM      3  C   UNL     1      14.914 -12.343  12.328  1.00  0.00     0.041 C 
ATOM      4  O   UNL     1      14.856 -13.574  12.587  1.00  0.00    -0.550 OA
ATOM      5  O   UNL     1      13.768 -11.563  12.425  1.00  0.00    -0.550 OA
ENDBRANCH   2   3
ENDBRANCH   1   2
BRANCH   1   6
ATOM      6  C   UNL     1      17.037  -9.429  12.610  1.00  0.00     0.000 C 
BRANCH   6   7
ATOM      7  C   UNL     1      18.149  -8.737  13.413  1.00  0.00    -0.003 C 
ATOM      8  C   UNL     1      18.531  -9.507  14.677  1.00  0.00     0.004 C 
ENDBRANCH   6   7
ENDBRANCH   1   6
TORSDOF 4
ENDMDL
MODEL 5
REMARK VINA RESULT:    -3.288      5.057      6.170
REMARK INTER + INTRA:          -4.109
REMARK INTER:                  -4.053
REMARK INTRA:                  -0.057
REMARK UNBOUND:                -0.053
REMARK SMILES CCCCCC(=O)[O-]
REMARK SMILES IDX 4 1 5 2 6 3 7 4 8 5 3 6 2 7 1 8
REMARK H PARENT
REMARK Flexibility Score: inf
ROOT
ATOM      1  C   UNL     1      15.950  -9.910  12.564  1.00  0.00     0.006 C 
ENDROOT
BRANCH   1   2
ATOM      2  C   UNL     1      15.110 -11.148  12.222  1.00  0.00     0.053 C 
BRANCH   2   3
ATOM      3  C   UNL     1      13.706 -11.022  12.728  1.00  0.00     0.041 C 
ATOM      4  O   UNL     1      13.013 -12.053  12.940  1.00  0.00    -0.550 OA
ATOM      5  O   UNL     1      13.150  -9.765  12.931  1.00  0.00    -0.550 OA
ENDBRANCH   2   3
ENDBRANCH   1   2
BRANCH   1   6
ATOM      6  C   UNL     1      17.436 -10.254  12.761  1.00  0.00     0.000 C 
BRANCH   6   7
ATOM      7  C   UNL     1      18.186  -9.184  13.570  1.00  0.00    -0.003 C 
ATOM      8  C   UNL     1      18.597  -9.674  14.959  1.00  0.00     0.004 C 
ENDBRANCH   6   7
ENDBRANCH   1   6
TORSDOF 4
ENDMDL
MODEL 6
REMARK VINA RESULT:    -3.264      5.402      7.227
REMARK INTER + INTRA:          -4.079
REMARK INTER:                  -3.997
REMARK INTRA:                  -0.082
REMARK UNBOUND:                -0.053
REMARK SMILES CCCCCC(=O)[O-]
REMARK SMILES IDX 4 1 5 2 6 3 7 4 8 5 3 6 2 7 1 8
REMARK H PARENT
REMARK Flexibility Score: inf
ROOT
ATOM      1  C   UNL     1      15.185 -11.721  12.197  1.00  0.00     0.006 C 
ENDROOT
BRANCH   1   2
ATOM      2  C   UNL     1      16.652 -11.281  12.097  1.00  0.00     0.053 C 
BRANCH   2   3
ATOM      3  C   UNL     1      16.865  -9.922  12.690  1.00  0.00     0.041 C 
ATOM      4  O   UNL     1      15.935  -9.073  12.680  1.00  0.00    -0.550 OA
ATOM      5  O   UNL     1      18.102  -9.582  13.222  1.00  0.00    -0.550 OA
ENDBRANCH   2   3
ENDBRANCH   1   2
BRANCH   1   6
ATOM      6  C   UNL     1      15.046 -13.244  12.357  1.00  0.00     0.000 C 
BRANCH   6   7
ATOM      7  C   UNL     1      13.674 -13.655  12.914  1.00  0.00    -0.003 C 
ATOM      8  C   UNL     1      12.697 -12.483  13.002  1.00  0.00     0.004 C 
ENDBRANCH   6   7
ENDBRANCH   1   6
TORSDOF 4
ENDMDL
MODEL 7
REMARK VINA RESULT:    -3.244      3.578      4.940
REMARK INTER + INTRA:          -4.055
REMARK INTER:                  -3.942
REMARK INTRA:                  -0.114
REMARK UNBOUND:                -0.053
REMARK SMILES CCCCCC(=O)[O-]
REMARK SMILES IDX 4 1 5 2 6 3 7 4 8 5 3 6 2 7 1 8
REMARK H PARENT
REMARK Flexibility Score: inf
ROOT
ATOM      1  C   UNL     1      17.661  -9.890  12.999  1.00  0.00     0.006 C 
ENDROOT
BRANCH   1   2
ATOM      2  C   UNL     1      16.192  -9.669  12.614  1.00  0.00     0.053 C 
BRANCH   2   3
ATOM      3  C   UNL     1      15.455 -10.965  12.471  1.00  0.00     0.041 C 
ATOM      4  O   UNL     1      14.207 -11.007  12.637  1.00  0.00    -0.550 OA
ATOM      5  O   UNL     1      16.151 -12.134  12.190  1.00  0.00    -0.550 OA
ENDBRANCH   2   3
ENDBRANCH   1   2
BRANCH   1   6
ATOM      6  C   UNL     1      18.245  -8.693  13.768  1.00  0.00     0.000 C 
BRANCH   6   7
ATOM      7  C   UNL     1      17.295  -7.485  13.788  1.00  0.00    -0.003 C 
ATOM      8  C   UNL     1      17.321  -6.735  15.119  1.00  0.00     0.004 C 
ENDBRANCH   6   7
ENDBRANCH   1   6
TORSDOF 4
ENDMDL
MODEL 8
REMARK VINA RESULT:    -3.209      3.032      5.062
REMARK INTER + INTRA:          -4.012
REMARK INTER:                  -3.775
REMARK INTRA:                  -0.237
REMARK UNBOUND:                -0.053
REMARK SMILES CCCCCC(=O)[O-]
REMARK SMILES IDX 4 1 5 2 6 3 7 4 8 5 3 6 2 7 1 8
REMARK H PARENT
REMARK Flexibility Score: inf
ROOT
ATOM      1  C   UNL     1      18.046  -7.828  12.552  1.00  0.00     0.006 C 
ENDROOT
BRANCH   1   2
ATOM      2  C   UNL     1      18.099  -6.566  13.423  1.00  0.00     0.053 C 
BRANCH   2   3
ATOM      3  C   UNL     1      17.041  -6.579  14.483  1.00  0.00     0.041 C 
ATOM      4  O   UNL     1      15.824  -6.520  14.165  1.00  0.00    -0.550 OA
ATOM      5  O   UNL     1      17.401  -6.622  15.825  1.00  0.00    -0.550 OA
ENDBRANCH   2   3
ENDBRANCH   1   2
BRANCH   1   6
ATOM      6  C   UNL     1      18.132  -9.115  13.390  1.00  0.00     0.000 C 
BRANCH   6   7
ATOM      7  C   UNL     1      17.297 -10.260  12.797  1.00  0.00    -0.003 C 
ATOM      8  C   UNL     1      15.880  -9.825  12.422  1.00  0.00     0.004 C 
ENDBRANCH   6   7
ENDBRANCH   1   6
TORSDOF 4
ENDMDL
MODEL 9
REMARK VINA RESULT:    -3.190      2.805      4.616
REMARK INTER + INTRA:          -3.989
REMARK INTER:                  -3.762
REMARK INTRA:                  -0.227
REMARK UNBOUND:                -0.053
REMARK SMILES CCCCCC(=O)[O-]
REMARK SMILES IDX 4 1 5 2 6 3 7 4 8 5 3 6 2 7 1 8
REMARK H PARENT
REMARK Flexibility Score: inf
ROOT
ATOM      1  C   UNL     1      17.202  -6.901  12.691  1.00  0.00     0.006 C 
ENDROOT
BRANCH   1   2
ATOM      2  C   UNL     1      17.625  -5.945  13.815  1.00  0.00     0.053 C 
BRANCH   2   3
ATOM      3  C   UNL     1      16.799  -6.140  15.049  1.00  0.00     0.041 C 
ATOM      4  O   UNL     1      17.328  -6.581  16.103  1.00  0.00    -0.550 OA
ATOM      5  O   UNL     1      15.436  -5.868  15.024  1.00  0.00    -0.550 OA
ENDBRANCH   2   3
ENDBRANCH   1   2
BRANCH   1   6
ATOM      6  C   UNL     1      18.207  -8.050  12.500  1.00  0.00     0.000 C 
BRANCH   6   7
ATOM      7  C   UNL     1      17.778  -9.334  13.227  1.00  0.00    -0.003 C 
ATOM      8  C   UNL     1      18.522  -9.542  14.546  1.00  0.00     0.004 C 
ENDBRANCH   6   7
ENDBRANCH   1   6
TORSDOF 4
ENDMDL
