MODEL 1
REMARK VINA RESULT:    -3.943      0.000      0.000
REMARK INTER + INTRA:          -5.448
REMARK INTER:                  -5.211
REMARK INTRA:                  -0.237
REMARK UNBOUND:                -0.237
REMARK SMILES C=C[C@H](O)CCCCC
REMARK SMILES IDX 6 1 7 2 8 3 9 4 5 5 3 6 2 7 1 8 4 9
REMARK H PARENT 4 10
REMARK Flexibility Score: inf
ROOT
ATOM      1  C   UNL     1     -38.997  23.023   5.178  1.00  0.00     0.003 C 
ENDROOT
BRANCH   1   2
ATOM      2  C   UNL     1     -40.121  23.611   4.316  1.00  0.00    -0.000 C 
BRANCH   2   3
ATOM      3  C   UNL     1     -39.810  25.060   3.921  1.00  0.00    -0.003 C 
ATOM      4  C   UNL     1     -40.101  26.019   5.072  1.00  0.00     0.004 C 
ENDBRANCH   2   3
ENDBRANCH   1   2
BRANCH   1   5
ATOM      5  C   UNL     1     -39.536  22.554   6.539  1.00  0.00     0.036 C 
BRANCH   5   6
ATOM      6  C   UNL     1     -38.621  22.972   7.703  1.00  0.00     0.136 C 
BRANCH   6   7
ATOM      7  C   UNL     1     -37.697  24.106   7.317  1.00  0.00    -0.004 C 
ATOM      8  C   UNL     1     -36.401  23.912   7.051  1.00  0.00     0.007 C 
ENDBRANCH   6   7
BRANCH   6   9
ATOM      9  O   UNL     1     -37.868  21.862   8.120  1.00  0.00    -0.389 OA
ATOM     10  H   UNL     1     -36.960  22.197   8.341  1.00  0.00     0.211 HD
ENDBRANCH   6   9
ENDBRANCH   5   6
ENDBRANCH   1   5
TORSDOF 6
ENDMDL
MODEL 2
REMARK VINA RESULT:    -3.587      1.844      3.968
REMARK INTER + INTRA:          -4.977
REMARK INTER:                  -4.581
REMARK INTRA:                  -0.395
REMARK UNBOUND:                -0.237
REMARK SMILES C=C[C@H](O)CCCCC
REMARK SMILES IDX 6 1 7 2 8 3 9 4 5 5 3 6 2 7 1 8 4 9
REMARK H PARENT 4 10
REMARK Flexibility Score: inf
ROOT
ATOM      1  C   UNL     1     -38.798  22.943   6.613  1.00  0.00     0.003 C 
ENDROOT
BRANCH   1   2
ATOM      2  C   UNL     1     -38.172  22.732   7.997  1.00  0.00    -0.000 C 
BRANCH   2   3
ATOM      3  C   UNL     1     -36.754  23.313   8.053  1.00  0.00    -0.003 C 
ATOM      4  C   UNL     1     -36.440  24.124   6.800  1.00  0.00     0.004 C 
ENDBRANCH   2   3
ENDBRANCH   1   2
BRANCH   1   5
ATOM      5  C   UNL     1     -40.124  23.711   6.719  1.00  0.00     0.036 C 
BRANCH   5   6
ATOM      6  C   UNL     1     -40.125  24.993   5.868  1.00  0.00     0.136 C 
BRANCH   6   7
ATOM      7  C   UNL     1     -39.578  24.749   4.479  1.00  0.00    -0.004 C 
ATOM      8  C   UNL     1     -39.743  25.625   3.482  1.00  0.00     0.007 C 
ENDBRANCH   6   7
BRANCH   6   9
ATOM      9  O   UNL     1     -39.362  25.978   6.517  1.00  0.00    -0.389 OA
ATOM     10  H   UNL     1     -39.435  25.803   7.491  1.00  0.00     0.211 HD
ENDBRANCH   6   9
ENDBRANCH   5   6
ENDBRANCH   1   5
TORSDOF 6
ENDMDL
MODEL 3
REMARK VINA RESULT:    -2.470     19.929     21.051
REMARK INTER + INTRA:          -3.501
REMARK INTER:                  -3.295
REMARK INTRA:                  -0.207
REMARK UNBOUND:                -0.237
REMARK SMILES C=C[C@H](O)CCCCC
REMARK SMILES IDX 6 1 7 2 8 3 9 4 5 5 3 6 2 7 1 8 4 9
REMARK H PARENT 4 10
REMARK Flexibility Score: inf
ROOT
ATOM      1  C   UNL     1     -35.865  34.217 -10.923  1.00  0.00     0.003 C 
ENDROOT
BRANCH   1   2
ATOM      2  C   UNL     1     -35.000  34.622 -12.123  1.00  0.00    -0.000 C 
BRANCH   2   3
ATOM      3  C   UNL     1     -34.488  36.059 -11.971  1.00  0.00    -0.003 C 
ATOM      4  C   UNL     1     -32.970  36.121 -12.114  1.00  0.00     0.004 C 
ENDBRANCH   2   3
ENDBRANCH   1   2
BRANCH   1   5
ATOM      5  C   UNL     1     -37.079  35.149 -10.780  1.00  0.00     0.036 C 
BRANCH   5   6
ATOM      6  C   UNL     1     -38.373  34.378 -10.469  1.00  0.00     0.136 C 
BRANCH   6   7
ATOM      7  C   UNL     1     -38.722  33.394 -11.565  1.00  0.00    -0.004 C 
ATOM      8  C   UNL     1     -39.858  32.690 -11.558  1.00  0.00     0.007 C 
ENDBRANCH   6   7
BRANCH   6   9
ATOM      9  O   UNL     1     -39.425  35.292 -10.294  1.00  0.00    -0.389 OA
ATOM     10  H   UNL     1     -40.265  34.807 -10.504  1.00  0.00     0.211 HD
ENDBRANCH   6   9
ENDBRANCH   5   6
ENDBRANCH   1   5
TORSDOF 6
ENDMDL
MODEL 4
REMARK VINA RESULT:    -2.285     16.202     18.282
REMARK INTER + INTRA:          -3.256
REMARK INTER:                  -3.312
REMARK INTRA:                   0.055
REMARK UNBOUND:                -0.237
REMARK SMILES C=C[C@H](O)CCCCC
REMARK SMILES IDX 6 1 7 2 8 3 9 4 5 5 3 6 2 7 1 8 4 9
REMARK H PARENT 4 10
REMARK Flexibility Score: inf
ROOT
ATOM      1  C   UNL     1     -23.129  17.582   6.634  1.00  0.00     0.003 C 
ENDROOT
BRANCH   1   2
ATOM      2  C   UNL     1     -23.178  16.739   7.914  1.00  0.00    -0.000 C 
BRANCH   2   3
ATOM      3  C   UNL     1     -24.561  16.106   8.104  1.00  0.00    -0.003 C 
ATOM      4  C   UNL     1     -25.656  17.169   8.125  1.00  0.00     0.004 C 
ENDBRANCH   2   3
ENDBRANCH   1   2
BRANCH   1   5
ATOM      5  C   UNL     1     -21.684  17.753   6.142  1.00  0.00     0.036 C 
BRANCH   5   6
ATOM      6  C   UNL     1     -21.014  16.405   5.821  1.00  0.00     0.136 C 
BRANCH   6   7
ATOM      7  C   UNL     1     -20.004  16.012   6.876  1.00  0.00    -0.004 C 
ATOM      8  C   UNL     1     -19.881  16.675   8.031  1.00  0.00     0.007 C 
ENDBRANCH   6   7
BRANCH   6   9
ATOM      9  O   UNL     1     -20.388  16.488   4.567  1.00  0.00    -0.389 OA
ATOM     10  H   UNL     1     -20.339  15.563   4.209  1.00  0.00     0.211 HD
ENDBRANCH   6   9
ENDBRANCH   5   6
ENDBRANCH   1   5
TORSDOF 6
ENDMDL
MODEL 5
REMARK VINA RESULT:    -2.200     20.564     21.160
REMARK INTER + INTRA:          -3.144
REMARK INTER:                  -2.673
REMARK INTRA:                  -0.471
REMARK UNBOUND:                -0.237
REMARK SMILES C=C[C@H](O)CCCCC
REMARK SMILES IDX 6 1 7 2 8 3 9 4 5 5 3 6 2 7 1 8 4 9
REMARK H PARENT 4 10
REMARK Flexibility Score: inf
ROOT
ATOM      1  C   UNL     1     -37.408  35.511 -10.576  1.00  0.00     0.003 C 
ENDROOT
BRANCH   1   2
ATOM      2  C   UNL     1     -38.856  35.962 -10.804  1.00  0.00    -0.000 C 
BRANCH   2   3
ATOM      3  C   UNL     1     -39.543  35.091 -11.862  1.00  0.00    -0.003 C 
ATOM      4  C   UNL     1     -39.357  33.607 -11.560  1.00  0.00     0.004 C 
ENDBRANCH   2   3
ENDBRANCH   1   2
BRANCH   1   5
ATOM      5  C   UNL     1     -36.481  36.059 -11.672  1.00  0.00     0.036 C 
BRANCH   5   6
ATOM      6  C   UNL     1     -35.377  35.059 -12.057  1.00  0.00     0.136 C 
BRANCH   6   7
ATOM      7  C   UNL     1     -35.590  33.707 -11.411  1.00  0.00    -0.004 C 
ATOM      8  C   UNL     1     -35.862  32.610 -12.124  1.00  0.00     0.007 C 
ENDBRANCH   6   7
BRANCH   6   9
ATOM      9  O   UNL     1     -34.130  35.580 -11.677  1.00  0.00    -0.389 OA
ATOM     10  H   UNL     1     -33.865  36.231 -12.377  1.00  0.00     0.211 HD
ENDBRANCH   6   9
ENDBRANCH   5   6
ENDBRANCH   1   5
TORSDOF 6
ENDMDL
MODEL 6
REMARK VINA RESULT:    -1.586     16.824     18.799
REMARK INTER + INTRA:          -2.333
REMARK INTER:                  -2.233
REMARK INTRA:                  -0.100
REMARK UNBOUND:                -0.237
REMARK SMILES C=C[C@H](O)CCCCC
REMARK SMILES IDX 6 1 7 2 8 3 9 4 5 5 3 6 2 7 1 8 4 9
REMARK H PARENT 4 10
REMARK Flexibility Score: inf
ROOT
ATOM      1  C   UNL     1     -20.373  29.800   7.818  1.00  0.00     0.003 C 
ENDROOT
BRANCH   1   2
ATOM      2  C   UNL     1     -19.893  31.235   8.067  1.00  0.00    -0.000 C 
BRANCH   2   3
ATOM      3  C   UNL     1     -21.072  32.216   8.076  1.00  0.00    -0.003 C 
ATOM      4  C   UNL     1     -20.590  33.659   7.965  1.00  0.00     0.004 C 
ENDBRANCH   2   3
ENDBRANCH   1   2
BRANCH   1   5
ATOM      5  C   UNL     1     -21.891  29.761   7.580  1.00  0.00     0.036 C 
BRANCH   5   6
ATOM      6  C   UNL     1     -22.247  29.808   6.084  1.00  0.00     0.136 C 
BRANCH   6   7
ATOM      7  C   UNL     1     -23.602  30.438   5.845  1.00  0.00    -0.004 C 
ATOM      8  C   UNL     1     -23.956  31.603   6.399  1.00  0.00     0.007 C 
ENDBRANCH   6   7
BRANCH   6   9
ATOM      9  O   UNL     1     -22.227  28.504   5.563  1.00  0.00    -0.389 OA
ATOM     10  H   UNL     1     -22.012  28.583   4.597  1.00  0.00     0.211 HD
ENDBRANCH   6   9
ENDBRANCH   5   6
ENDBRANCH   1   5
TORSDOF 6
ENDMDL
MODEL 7
REMARK VINA RESULT:    -1.130     19.836     20.677
REMARK INTER + INTRA:          -1.730
REMARK INTER:                  -2.143
REMARK INTRA:                   0.413
REMARK UNBOUND:                -0.237
REMARK SMILES C=C[C@H](O)CCCCC
REMARK SMILES IDX 6 1 7 2 8 3 9 4 5 5 3 6 2 7 1 8 4 9
REMARK H PARENT 4 10
REMARK Flexibility Score: inf
ROOT
ATOM      1  C   UNL     1     -37.165  36.008 -10.858  1.00  0.00     0.003 C 
ENDROOT
BRANCH   1   2
ATOM      2  C   UNL     1     -38.210  36.122 -11.975  1.00  0.00    -0.000 C 
BRANCH   2   3
ATOM      3  C   UNL     1     -39.632  36.112 -11.401  1.00  0.00    -0.003 C 
ATOM      4  C   UNL     1     -39.611  36.122  -9.876  1.00  0.00     0.004 C 
ENDBRANCH   2   3
ENDBRANCH   1   2
BRANCH   1   5
ATOM      5  C   UNL     1     -35.948  35.194 -11.324  1.00  0.00     0.036 C 
BRANCH   5   6
ATOM      6  C   UNL     1     -36.188  33.678 -11.226  1.00  0.00     0.136 C 
BRANCH   6   7
ATOM      7  C   UNL     1     -37.660  33.345 -11.122  1.00  0.00    -0.004 C 
ATOM      8  C   UNL     1     -38.326  32.735 -12.109  1.00  0.00     0.007 C 
ENDBRANCH   6   7
BRANCH   6   9
ATOM      9  O   UNL     1     -35.503  33.173 -10.109  1.00  0.00    -0.389 OA
ATOM     10  H   UNL     1     -34.536  33.326 -10.271  1.00  0.00     0.211 HD
ENDBRANCH   6   9
ENDBRANCH   5   6
ENDBRANCH   1   5
TORSDOF 6
ENDMDL
