MODEL 1
REMARK VINA RESULT:    -1.787      0.000      0.000
REMARK INTER + INTRA:          -2.188
REMARK INTER:                  -1.943
REMARK INTRA:                  -0.245
REMARK UNBOUND:                -0.245
REMARK SMILES O=C([O-])c1ccccc1O
REMARK SMILES IDX 4 1 9 2 5 3 8 4 6 5 7 6 2 7 1 8 3 9 10 10
REMARK H PARENT 10 11
REMARK Flexibility Score: inf
ROOT
ATOM      1  C   UNL     1     -23.555 -11.297 -51.985  1.00  0.00     0.039 A 
ATOM      2  C   UNL     1     -22.460 -11.657 -52.810  1.00  0.00     0.124 A 
ATOM      3  C   UNL     1     -23.309 -10.937 -50.646  1.00  0.00     0.014 A 
ATOM      4  C   UNL     1     -21.157 -11.587 -52.302  1.00  0.00     0.047 A 
ATOM      5  C   UNL     1     -22.006 -10.894 -50.148  1.00  0.00     0.001 A 
ATOM      6  C   UNL     1     -20.930 -11.210 -50.977  1.00  0.00     0.004 A 
ENDROOT
BRANCH   1   7
ATOM      7  C   UNL     1     -24.945 -11.247 -52.488  1.00  0.00     0.075 C 
ATOM      8  O   UNL     1     -25.359 -12.125 -53.292  1.00  0.00    -0.545 OA
ATOM      9  O   UNL     1     -25.832 -10.278 -52.034  1.00  0.00    -0.545 OA
ENDBRANCH   1   7
BRANCH   2  10
ATOM     10  O   UNL     1     -22.623 -12.118 -54.117  1.00  0.00    -0.507 OA
ATOM     11  H   UNL     1     -23.398 -11.851 -54.709  1.00  0.00     0.293 HD
ENDBRANCH   2  10
TORSDOF 2
ENDMDL
MODEL 2
REMARK VINA RESULT:    -1.012     18.159     18.500
REMARK INTER + INTRA:          -1.345
REMARK INTER:                  -1.112
REMARK INTRA:                  -0.233
REMARK UNBOUND:                -0.245
REMARK SMILES O=C([O-])c1ccccc1O
REMARK SMILES IDX 4 1 9 2 5 3 8 4 6 5 7 6 2 7 1 8 3 9 10 10
REMARK H PARENT 10 11
REMARK Flexibility Score: inf
ROOT
ATOM      1  C   UNL     1     -23.494   6.489 -57.263  1.00  0.00     0.039 A 
ATOM      2  C   UNL     1     -23.287   5.430 -58.182  1.00  0.00     0.124 A 
ATOM      3  C   UNL     1     -22.376   7.177 -56.754  1.00  0.00     0.014 A 
ATOM      4  C   UNL     1     -21.989   5.130 -58.614  1.00  0.00     0.047 A 
ATOM      5  C   UNL     1     -21.086   6.851 -57.178  1.00  0.00     0.001 A 
ATOM      6  C   UNL     1     -20.893   5.836 -58.114  1.00  0.00     0.004 A 
ENDROOT
BRANCH   1   7
ATOM      7  C   UNL     1     -24.844   6.926 -56.845  1.00  0.00     0.075 C 
ATOM      8  O   UNL     1     -25.047   8.125 -56.515  1.00  0.00    -0.545 OA
ATOM      9  O   UNL     1     -25.919   6.045 -56.875  1.00  0.00    -0.545 OA
ENDBRANCH   1   7
BRANCH   2  10
ATOM     10  O   UNL     1     -24.330   4.634 -58.659  1.00  0.00    -0.507 OA
ATOM     11  H   UNL     1     -24.535   3.712 -58.301  1.00  0.00     0.293 HD
ENDBRANCH   2  10
TORSDOF 2
ENDMDL
MODEL 3
REMARK VINA RESULT:    -0.866     18.262     18.655
REMARK INTER + INTRA:          -1.187
REMARK INTER:                  -0.964
REMARK INTRA:                  -0.223
REMARK UNBOUND:                -0.245
REMARK SMILES O=C([O-])c1ccccc1O
REMARK SMILES IDX 4 1 9 2 5 3 8 4 6 5 7 6 2 7 1 8 3 9 10 10
REMARK H PARENT 10 11
REMARK Flexibility Score: inf
ROOT
ATOM      1  C   UNL     1     -23.318   6.378 -57.333  1.00  0.00     0.039 A 
ATOM      2  C   UNL     1     -22.089   6.957 -56.928  1.00  0.00     0.124 A 
ATOM      3  C   UNL     1     -23.294   5.256 -58.185  1.00  0.00     0.014 A 
ATOM      4  C   UNL     1     -20.881   6.370 -57.327  1.00  0.00     0.047 A 
ATOM      5  C   UNL     1     -22.081   4.697 -58.591  1.00  0.00     0.001 A 
ATOM      6  C   UNL     1     -20.877   5.247 -58.155  1.00  0.00     0.004 A 
ENDROOT
BRANCH   1   7
ATOM      7  C   UNL     1     -24.627   6.883 -56.865  1.00  0.00     0.075 C 
ATOM      8  O   UNL     1     -24.749   8.084 -56.503  1.00  0.00    -0.545 OA
ATOM      9  O   UNL     1     -25.752   6.067 -56.879  1.00  0.00    -0.545 OA
ENDBRANCH   1   7
BRANCH   2  10
ATOM     10  O   UNL     1     -22.024   8.125 -56.167  1.00  0.00    -0.507 OA
ATOM     11  H   UNL     1     -21.182   8.444 -55.707  1.00  0.00     0.293 HD
ENDBRANCH   2  10
TORSDOF 2
ENDMDL
MODEL 4
REMARK VINA RESULT:    -0.811     18.212     19.165
REMARK INTER + INTRA:          -1.128
REMARK INTER:                  -0.915
REMARK INTRA:                  -0.212
REMARK UNBOUND:                -0.245
REMARK SMILES O=C([O-])c1ccccc1O
REMARK SMILES IDX 4 1 9 2 5 3 8 4 6 5 7 6 2 7 1 8 3 9 10 10
REMARK H PARENT 10 11
REMARK Flexibility Score: inf
ROOT
ATOM      1  C   UNL     1     -22.750   7.257 -47.081  1.00  0.00     0.039 A 
ATOM      2  C   UNL     1     -23.111   6.044 -46.440  1.00  0.00     0.124 A 
ATOM      3  C   UNL     1     -21.637   7.975 -46.601  1.00  0.00     0.014 A 
ATOM      4  C   UNL     1     -22.323   5.554 -45.391  1.00  0.00     0.047 A 
ATOM      5  C   UNL     1     -20.876   7.483 -45.539  1.00  0.00     0.001 A 
ATOM      6  C   UNL     1     -21.212   6.269 -44.941  1.00  0.00     0.004 A 
ENDROOT
BRANCH   1   7
ATOM      7  C   UNL     1     -23.474   7.778 -48.260  1.00  0.00     0.075 C 
ATOM      8  O   UNL     1     -24.681   8.125 -48.159  1.00  0.00    -0.545 OA
ATOM      9  O   UNL     1     -22.822   7.957 -49.474  1.00  0.00    -0.545 OA
ENDBRANCH   1   7
BRANCH   2  10
ATOM     10  O   UNL     1     -24.253   5.322 -46.789  1.00  0.00    -0.507 OA
ATOM     11  H   UNL     1     -24.679   4.630 -46.187  1.00  0.00     0.293 HD
ENDBRANCH   2  10
TORSDOF 2
ENDMDL
MODEL 5
REMARK VINA RESULT:    -0.765     18.257     18.602
REMARK INTER + INTRA:          -1.077
REMARK INTER:                  -0.995
REMARK INTRA:                  -0.082
REMARK UNBOUND:                -0.245
REMARK SMILES O=C([O-])c1ccccc1O
REMARK SMILES IDX 4 1 9 2 5 3 8 4 6 5 7 6 2 7 1 8 3 9 10 10
REMARK H PARENT 10 11
REMARK Flexibility Score: inf
ROOT
ATOM      1  C   UNL     1     -21.870   5.899 -58.022  1.00  0.00     0.039 A 
ATOM      2  C   UNL     1     -23.279   5.931 -57.865  1.00  0.00     0.124 A 
ATOM      3  C   UNL     1     -21.106   6.979 -57.538  1.00  0.00     0.014 A 
ATOM      4  C   UNL     1     -23.876   6.998 -57.182  1.00  0.00     0.047 A 
ATOM      5  C   UNL     1     -21.719   8.046 -56.879  1.00  0.00     0.001 A 
ATOM      6  C   UNL     1     -23.101   8.051 -56.692  1.00  0.00     0.004 A 
ENDROOT
BRANCH   1   7
ATOM      7  C   UNL     1     -21.166   4.755 -58.641  1.00  0.00     0.075 C 
ATOM      8  O   UNL     1     -20.875   3.742 -57.949  1.00  0.00    -0.545 OA
ATOM      9  O   UNL     1     -20.875   4.748 -60.000  1.00  0.00    -0.545 OA
ENDBRANCH   1   7
BRANCH   2  10
ATOM     10  O   UNL     1     -24.117   4.952 -58.400  1.00  0.00    -0.507 OA
ATOM     11  H   UNL     1     -24.846   5.149 -59.071  1.00  0.00     0.293 HD
ENDBRANCH   2  10
TORSDOF 2
ENDMDL
MODEL 6
REMARK VINA RESULT:     0.984     18.383     18.804
REMARK INTER + INTRA:           0.826
REMARK INTER:                   0.903
REMARK INTRA:                  -0.078
REMARK UNBOUND:                -0.245
REMARK SMILES O=C([O-])c1ccccc1O
REMARK SMILES IDX 4 1 9 2 5 3 8 4 6 5 7 6 2 7 1 8 3 9 10 10
REMARK H PARENT 10 11
REMARK Flexibility Score: inf
ROOT
ATOM      1  C   UNL     1     -22.506   5.935 -57.768  1.00  0.00     0.039 A 
ATOM      2  C   UNL     1     -22.186   7.241 -57.318  1.00  0.00     0.124 A 
ATOM      3  C   UNL     1     -23.843   5.497 -57.695  1.00  0.00     0.014 A 
ATOM      4  C   UNL     1     -23.207   8.089 -56.870  1.00  0.00     0.047 A 
ATOM      5  C   UNL     1     -24.845   6.348 -57.224  1.00  0.00     0.001 A 
ATOM      6  C   UNL     1     -24.530   7.645 -56.822  1.00  0.00     0.004 A 
ENDROOT
BRANCH   1   7
ATOM      7  C   UNL     1     -21.495   5.026 -58.350  1.00  0.00     0.075 C 
ATOM      8  O   UNL     1     -20.876   4.213 -57.613  1.00  0.00    -0.545 OA
ATOM      9  O   UNL     1     -21.260   5.005 -59.720  1.00  0.00    -0.545 OA
ENDBRANCH   1   7
BRANCH   2  10
ATOM     10  O   UNL     1     -20.876   7.718 -57.265  1.00  0.00    -0.507 OA
ATOM     11  H   UNL     1     -20.300   7.673 -56.435  1.00  0.00     0.293 HD
ENDBRANCH   2  10
TORSDOF 2
ENDMDL
