MODEL 1
REMARK VINA RESULT:    -4.367      0.000      0.000
REMARK INTER + INTRA:          -8.618
REMARK INTER:                  -7.685
REMARK INTRA:                  -0.932
REMARK UNBOUND:                -0.932
REMARK SMILES CCCCCCC=CCCCCCCCC(=O)[O-]
REMARK SMILES IDX 10 1 11 2 12 3 13 4 14 5 15 6 16 7 17 8 18 9 9 10 8 11 7 12
REMARK SMILES IDX 6 13 5 14 4 15 3 16 2 17 1 18
REMARK H PARENT
REMARK Flexibility Score: inf
ROOT
ATOM      1  C   UNL     1       7.138  -6.330   6.526  1.00  0.00     0.004 C 
ENDROOT
BRANCH   1   2
ATOM      2  C   UNL     1       6.052  -7.351   6.886  1.00  0.00     0.000 C 
BRANCH   2   3
ATOM      3  C   UNL     1       4.783  -6.649   7.392  1.00  0.00     0.000 C 
BRANCH   3   4
ATOM      4  C   UNL     1       3.496  -7.265   6.819  1.00  0.00     0.000 C 
BRANCH   4   5
ATOM      5  C   UNL     1       3.704  -8.703   6.315  1.00  0.00     0.006 C 
BRANCH   5   6
ATOM      6  C   UNL     1       2.582  -9.152   5.369  1.00  0.00     0.053 C 
BRANCH   6   7
ATOM      7  C   UNL     1       2.952  -8.952   3.931  1.00  0.00     0.041 C 
ATOM      8  O   UNL     1       4.089  -8.504   3.624  1.00  0.00    -0.550 OA
ATOM      9  O   UNL     1       2.037  -9.252   2.931  1.00  0.00    -0.550 OA
ENDBRANCH   6   7
ENDBRANCH   5   6
ENDBRANCH   4   5
ENDBRANCH   3   4
ENDBRANCH   2   3
ENDBRANCH   1   2
BRANCH   1  10
ATOM     10  C   UNL     1       7.346  -5.324   7.664  1.00  0.00     0.027 C 
BRANCH  10  11
ATOM     11  C   UNL     1       7.518  -3.930   7.130  1.00  0.00    -0.031 C 
ATOM     12  C   UNL     1       6.480  -3.228   6.651  1.00  0.00    -0.031 C 
BRANCH  12  13
ATOM     13  C   UNL     1       6.658  -1.839   6.103  1.00  0.00     0.027 C 
BRANCH  13  14
ATOM     14  C   UNL     1       8.112  -1.368   6.259  1.00  0.00     0.004 C 
BRANCH  14  15
ATOM     15  C   UNL     1       8.473  -0.258   5.254  1.00  0.00     0.000 C 
BRANCH  15  16
ATOM     16  C   UNL     1       7.254   0.261   4.459  1.00  0.00    -0.000 C 
BRANCH  16  17
ATOM     17  C   UNL     1       7.581   1.454   3.546  1.00  0.00    -0.003 C 
ATOM     18  C   UNL     1       9.067   1.811   3.544  1.00  0.00     0.004 C 
ENDBRANCH  16  17
ENDBRANCH  15  16
ENDBRANCH  14  15
ENDBRANCH  13  14
ENDBRANCH  12  13
ENDBRANCH  10  11
ENDBRANCH   1  10
TORSDOF 13
ENDMDL
MODEL 2
REMARK VINA RESULT:    -4.227      1.350      2.176
REMARK INTER + INTRA:          -8.372
REMARK INTER:                  -7.160
REMARK INTRA:                  -1.212
REMARK UNBOUND:                -0.932
REMARK SMILES CCCCCCC=CCCCCCCCC(=O)[O-]
REMARK SMILES IDX 10 1 11 2 12 3 13 4 14 5 15 6 16 7 17 8 18 9 9 10 8 11 7 12
REMARK SMILES IDX 6 13 5 14 4 15 3 16 2 17 1 18
REMARK H PARENT
REMARK Flexibility Score: inf
ROOT
ATOM      1  C   UNL     1       6.288  -6.163   7.406  1.00  0.00     0.004 C 
ENDROOT
BRANCH   1   2
ATOM      2  C   UNL     1       6.204  -7.190   6.270  1.00  0.00     0.000 C 
BRANCH   2   3
ATOM      3  C   UNL     1       5.669  -8.536   6.783  1.00  0.00     0.000 C 
BRANCH   3   4
ATOM      4  C   UNL     1       4.237  -8.435   7.330  1.00  0.00     0.000 C 
BRANCH   4   5
ATOM      5  C   UNL     1       3.238  -7.924   6.277  1.00  0.00     0.006 C 
BRANCH   5   6
ATOM      6  C   UNL     1       2.653  -9.064   5.433  1.00  0.00     0.053 C 
BRANCH   6   7
ATOM      7  C   UNL     1       2.945  -8.883   3.974  1.00  0.00     0.041 C 
ATOM      8  O   UNL     1       4.073  -8.466   3.599  1.00  0.00    -0.550 OA
ATOM      9  O   UNL     1       1.966  -9.166   3.031  1.00  0.00    -0.550 OA
ENDBRANCH   6   7
ENDBRANCH   5   6
ENDBRANCH   4   5
ENDBRANCH   3   4
ENDBRANCH   2   3
ENDBRANCH   1   2
BRANCH   1  10
ATOM     10  C   UNL     1       7.628  -5.418   7.375  1.00  0.00     0.027 C 
BRANCH  10  11
ATOM     11  C   UNL     1       7.422  -3.930   7.414  1.00  0.00    -0.031 C 
ATOM     12  C   UNL     1       8.407  -3.075   7.099  1.00  0.00    -0.031 C 
BRANCH  12  13
ATOM     13  C   UNL     1       8.202  -1.587   7.154  1.00  0.00     0.027 C 
BRANCH  13  14
ATOM     14  C   UNL     1       8.257  -0.972   5.747  1.00  0.00     0.004 C 
BRANCH  14  15
ATOM     15  C   UNL     1       6.900  -0.385   5.318  1.00  0.00     0.000 C 
BRANCH  15  16
ATOM     16  C   UNL     1       5.891  -1.463   4.858  1.00  0.00    -0.000 C 
BRANCH  16  17
ATOM     17  C   UNL     1       4.741  -1.689   5.854  1.00  0.00    -0.003 C 
ATOM     18  C   UNL     1       4.518  -0.498   6.785  1.00  0.00     0.004 C 
ENDBRANCH  16  17
ENDBRANCH  15  16
ENDBRANCH  14  15
ENDBRANCH  13  14
ENDBRANCH  12  13
ENDBRANCH  10  11
ENDBRANCH   1  10
TORSDOF 13
ENDMDL
MODEL 3
REMARK VINA RESULT:    -4.087      8.281     11.123
REMARK INTER + INTRA:          -8.126
REMARK INTER:                  -6.189
REMARK INTRA:                  -1.937
REMARK UNBOUND:                -0.932
REMARK SMILES CCCCCCC=CCCCCCCCC(=O)[O-]
REMARK SMILES IDX 10 1 11 2 12 3 13 4 14 5 15 6 16 7 17 8 18 9 9 10 8 11 7 12
REMARK SMILES IDX 6 13 5 14 4 15 3 16 2 17 1 18
REMARK H PARENT
REMARK Flexibility Score: inf
ROOT
ATOM      1  C   UNL     1      11.042   3.970   0.569  1.00  0.00     0.004 C 
ENDROOT
BRANCH   1   2
ATOM      2  C   UNL     1      12.407   4.200  -0.091  1.00  0.00     0.000 C 
BRANCH   2   3
ATOM      3  C   UNL     1      13.259   2.922  -0.051  1.00  0.00     0.000 C 
BRANCH   3   4
ATOM      4  C   UNL     1      14.158   2.848   1.193  1.00  0.00     0.000 C 
BRANCH   4   5
ATOM      5  C   UNL     1      14.211   1.435   1.800  1.00  0.00     0.006 C 
BRANCH   5   6
ATOM      6  C   UNL     1      13.771   0.359   0.798  1.00  0.00     0.053 C 
BRANCH   6   7
ATOM      7  C   UNL     1      13.870  -1.018   1.381  1.00  0.00     0.041 C 
ATOM      8  O   UNL     1      13.527  -2.022   0.700  1.00  0.00    -0.550 OA
ATOM      9  O   UNL     1      14.331  -1.191   2.679  1.00  0.00    -0.550 OA
ENDBRANCH   6   7
ENDBRANCH   5   6
ENDBRANCH   4   5
ENDBRANCH   3   4
ENDBRANCH   2   3
ENDBRANCH   1   2
BRANCH   1  10
ATOM     10  C   UNL     1      10.968   4.664   1.934  1.00  0.00     0.027 C 
BRANCH  10  11
ATOM     11  C   UNL     1      11.039   3.665   3.055  1.00  0.00    -0.031 C 
ATOM     12  C   UNL     1      10.635   2.396   2.892  1.00  0.00    -0.031 C 
BRANCH  12  13
ATOM     13  C   UNL     1      10.693   1.402   4.018  1.00  0.00     0.027 C 
BRANCH  13  14
ATOM     14  C   UNL     1       9.283   0.935   4.413  1.00  0.00     0.004 C 
BRANCH  14  15
ATOM     15  C   UNL     1       8.201   1.500   3.475  1.00  0.00     0.000 C 
BRANCH  15  16
ATOM     16  C   UNL     1       7.155   2.370   4.209  1.00  0.00    -0.000 C 
BRANCH  16  17
ATOM     17  C   UNL     1       7.774   3.533   5.002  1.00  0.00    -0.003 C 
ATOM     18  C   UNL     1       7.510   4.895   4.362  1.00  0.00     0.004 C 
ENDBRANCH  16  17
ENDBRANCH  15  16
ENDBRANCH  14  15
ENDBRANCH  13  14
ENDBRANCH  12  13
ENDBRANCH  10  11
ENDBRANCH   1  10
TORSDOF 13
ENDMDL
MODEL 4
REMARK VINA RESULT:    -4.076      4.994      7.222
REMARK INTER + INTRA:          -8.106
REMARK INTER:                  -6.209
REMARK INTRA:                  -1.897
REMARK UNBOUND:                -0.932
REMARK SMILES CCCCCCC=CCCCCCCCC(=O)[O-]
REMARK SMILES IDX 10 1 11 2 12 3 13 4 14 5 15 6 16 7 17 8 18 9 9 10 8 11 7 12
REMARK SMILES IDX 6 13 5 14 4 15 3 16 2 17 1 18
REMARK H PARENT
REMARK Flexibility Score: inf
ROOT
ATOM      1  C   UNL     1       7.195   3.007   4.166  1.00  0.00     0.004 C 
ENDROOT
BRANCH   1   2
ATOM      2  C   UNL     1       5.813   3.359   4.732  1.00  0.00     0.000 C 
BRANCH   2   3
ATOM      3  C   UNL     1       5.678   2.886   6.188  1.00  0.00     0.000 C 
BRANCH   3   4
ATOM      4  C   UNL     1       4.668   1.739   6.347  1.00  0.00     0.000 C 
BRANCH   4   5
ATOM      5  C   UNL     1       5.324   0.439   6.843  1.00  0.00     0.006 C 
BRANCH   5   6
ATOM      6  C   UNL     1       4.479  -0.798   6.512  1.00  0.00     0.053 C 
BRANCH   6   7
ATOM      7  C   UNL     1       5.220  -1.760   5.632  1.00  0.00     0.041 C 
ATOM      8  O   UNL     1       5.693  -2.824   6.112  1.00  0.00    -0.550 OA
ATOM      9  O   UNL     1       5.395  -1.473   4.285  1.00  0.00    -0.550 OA
ENDBRANCH   6   7
ENDBRANCH   5   6
ENDBRANCH   4   5
ENDBRANCH   3   4
ENDBRANCH   2   3
ENDBRANCH   1   2
BRANCH   1  10
ATOM     10  C   UNL     1       7.223   1.565   3.645  1.00  0.00     0.027 C 
BRANCH  10  11
ATOM     11  C   UNL     1       8.495   0.870   4.042  1.00  0.00    -0.031 C 
ATOM     12  C   UNL     1       8.738   0.523   5.315  1.00  0.00    -0.031 C 
BRANCH  12  13
ATOM     13  C   UNL     1      10.018  -0.158   5.713  1.00  0.00     0.027 C 
BRANCH  13  14
ATOM     14  C   UNL     1      11.214   0.798   5.582  1.00  0.00     0.004 C 
BRANCH  14  15
ATOM     15  C   UNL     1      12.189   0.359   4.475  1.00  0.00     0.000 C 
BRANCH  15  16
ATOM     16  C   UNL     1      12.327   1.399   3.340  1.00  0.00    -0.000 C 
BRANCH  16  17
ATOM     17  C   UNL     1      11.757   2.781   3.703  1.00  0.00    -0.003 C 
ATOM     18  C   UNL     1      10.755   3.300   2.673  1.00  0.00     0.004 C 
ENDBRANCH  16  17
ENDBRANCH  15  16
ENDBRANCH  14  15
ENDBRANCH  13  14
ENDBRANCH  12  13
ENDBRANCH  10  11
ENDBRANCH   1  10
TORSDOF 13
ENDMDL
MODEL 5
REMARK VINA RESULT:    -4.074      5.136      8.778
REMARK INTER + INTRA:          -8.102
REMARK INTER:                  -6.493
REMARK INTRA:                  -1.609
REMARK UNBOUND:                -0.932
REMARK SMILES CCCCCCC=CCCCCCCCC(=O)[O-]
REMARK SMILES IDX 10 1 11 2 12 3 13 4 14 5 15 6 16 7 17 8 18 9 9 10 8 11 7 12
REMARK SMILES IDX 6 13 5 14 4 15 3 16 2 17 1 18
REMARK H PARENT
REMARK Flexibility Score: inf
ROOT
ATOM      1  C   UNL     1       9.358   2.753   4.121  1.00  0.00     0.004 C 
ENDROOT
BRANCH   1   2
ATOM      2  C   UNL     1       8.622   1.912   3.071  1.00  0.00     0.000 C 
BRANCH   2   3
ATOM      3  C   UNL     1       7.275   1.410   3.614  1.00  0.00     0.000 C 
BRANCH   3   4
ATOM      4  C   UNL     1       7.014   1.859   5.060  1.00  0.00     0.000 C 
BRANCH   4   5
ATOM      5  C   UNL     1       6.646   0.686   5.986  1.00  0.00     0.006 C 
BRANCH   5   6
ATOM      6  C   UNL     1       7.164  -0.656   5.453  1.00  0.00     0.053 C 
BRANCH   6   7
ATOM      7  C   UNL     1       6.062  -1.660   5.302  1.00  0.00     0.041 C 
ATOM      8  O   UNL     1       5.207  -1.531   4.386  1.00  0.00    -0.550 OA
ATOM      9  O   UNL     1       5.974  -2.731   6.181  1.00  0.00    -0.550 OA
ENDBRANCH   6   7
ENDBRANCH   5   6
ENDBRANCH   4   5
ENDBRANCH   3   4
ENDBRANCH   2   3
ENDBRANCH   1   2
BRANCH   1  10
ATOM     10  C   UNL     1      10.306   3.758   3.455  1.00  0.00     0.027 C 
BRANCH  10  11
ATOM     11  C   UNL     1      10.764   3.261   2.112  1.00  0.00    -0.031 C 
ATOM     12  C   UNL     1      11.853   3.764   1.511  1.00  0.00    -0.031 C 
BRANCH  12  13
ATOM     13  C   UNL     1      12.300   3.277   0.161  1.00  0.00     0.027 C 
BRANCH  13  14
ATOM     14  C   UNL     1      13.665   2.577   0.254  1.00  0.00     0.004 C 
BRANCH  14  15
ATOM     15  C   UNL     1      13.530   1.094   0.647  1.00  0.00     0.000 C 
BRANCH  15  16
ATOM     16  C   UNL     1      14.149   0.774   2.026  1.00  0.00    -0.000 C 
BRANCH  16  17
ATOM     17  C   UNL     1      13.101   0.544   3.129  1.00  0.00    -0.003 C 
ATOM     18  C   UNL     1      13.277   1.485   4.320  1.00  0.00     0.004 C 
ENDBRANCH  16  17
ENDBRANCH  15  16
ENDBRANCH  14  15
ENDBRANCH  13  14
ENDBRANCH  12  13
ENDBRANCH  10  11
ENDBRANCH   1  10
TORSDOF 13
ENDMDL
MODEL 6
REMARK VINA RESULT:    -4.073      1.790      3.305
REMARK INTER + INTRA:          -8.100
REMARK INTER:                  -6.758
REMARK INTRA:                  -1.342
REMARK UNBOUND:                -0.932
REMARK SMILES CCCCCCC=CCCCCCCCC(=O)[O-]
REMARK SMILES IDX 10 1 11 2 12 3 13 4 14 5 15 6 16 7 17 8 18 9 9 10 8 11 7 12
REMARK SMILES IDX 6 13 5 14 4 15 3 16 2 17 1 18
REMARK H PARENT
REMARK Flexibility Score: inf
ROOT
ATOM      1  C   UNL     1       3.364  -5.409   7.135  1.00  0.00     0.004 C 
ENDROOT
BRANCH   1   2
ATOM      2  C   UNL     1       4.815  -5.837   7.384  1.00  0.00     0.000 C 
BRANCH   2   3
ATOM      3  C   UNL     1       4.932  -7.367   7.462  1.00  0.00     0.000 C 
BRANCH   3   4
ATOM      4  C   UNL     1       3.583  -8.076   7.261  1.00  0.00     0.000 C 
BRANCH   4   5
ATOM      5  C   UNL     1       3.666  -9.225   6.241  1.00  0.00     0.006 C 
BRANCH   5   6
ATOM      6  C   UNL     1       2.455  -9.251   5.299  1.00  0.00     0.053 C 
BRANCH   6   7
ATOM      7  C   UNL     1       2.842  -8.941   3.885  1.00  0.00     0.041 C 
ATOM      8  O   UNL     1       2.017  -9.113   2.949  1.00  0.00    -0.550 OA
ATOM      9  O   UNL     1       4.118  -8.473   3.602  1.00  0.00    -0.550 OA
ENDBRANCH   6   7
ENDBRANCH   5   6
ENDBRANCH   4   5
ENDBRANCH   3   4
ENDBRANCH   2   3
ENDBRANCH   1   2
BRANCH   1  10
ATOM     10  C   UNL     1       3.016  -4.151   7.940  1.00  0.00     0.027 C 
BRANCH  10  11
ATOM     11  C   UNL     1       3.959  -3.025   7.619  1.00  0.00    -0.031 C 
ATOM     12  C   UNL     1       3.862  -2.331   6.475  1.00  0.00    -0.031 C 
BRANCH  12  13
ATOM     13  C   UNL     1       4.816  -1.216   6.149  1.00  0.00     0.027 C 
BRANCH  13  14
ATOM     14  C   UNL     1       6.034  -1.742   5.374  1.00  0.00     0.004 C 
BRANCH  14  15
ATOM     15  C   UNL     1       7.361  -1.395   6.073  1.00  0.00     0.000 C 
BRANCH  15  16
ATOM     16  C   UNL     1       7.673  -2.316   7.274  1.00  0.00    -0.000 C 
BRANCH  16  17
ATOM     17  C   UNL     1       7.551  -3.813   6.946  1.00  0.00    -0.003 C 
ATOM     18  C   UNL     1       8.735  -4.632   7.459  1.00  0.00     0.004 C 
ENDBRANCH  16  17
ENDBRANCH  15  16
ENDBRANCH  14  15
ENDBRANCH  13  14
ENDBRANCH  12  13
ENDBRANCH  10  11
ENDBRANCH   1  10
TORSDOF 13
ENDMDL
MODEL 7
REMARK VINA RESULT:    -4.065      7.151     10.606
REMARK INTER + INTRA:          -8.086
REMARK INTER:                  -6.419
REMARK INTRA:                  -1.667
REMARK UNBOUND:                -0.932
REMARK SMILES CCCCCCC=CCCCCCCCC(=O)[O-]
REMARK SMILES IDX 10 1 11 2 12 3 13 4 14 5 15 6 16 7 17 8 18 9 9 10 8 11 7 12
REMARK SMILES IDX 6 13 5 14 4 15 3 16 2 17 1 18
REMARK H PARENT
REMARK Flexibility Score: inf
ROOT
ATOM      1  C   UNL     1      11.257   4.699   1.284  1.00  0.00     0.004 C 
ENDROOT
BRANCH   1   2
ATOM      2  C   UNL     1      10.830   3.468   2.092  1.00  0.00     0.000 C 
BRANCH   2   3
ATOM      3  C   UNL     1      10.969   3.723   3.601  1.00  0.00     0.000 C 
BRANCH   3   4
ATOM      4  C   UNL     1       9.939   2.942   4.432  1.00  0.00     0.000 C 
BRANCH   4   5
ATOM      5  C   UNL     1       8.782   2.397   3.577  1.00  0.00     0.006 C 
BRANCH   5   6
ATOM      6  C   UNL     1       8.428   0.948   3.940  1.00  0.00     0.053 C 
BRANCH   6   7
ATOM      7  C   UNL     1       6.970   0.792   4.252  1.00  0.00     0.041 C 
ATOM      8  O   UNL     1       6.464  -0.356   4.361  1.00  0.00    -0.550 OA
ATOM      9  O   UNL     1       6.171   1.916   4.411  1.00  0.00    -0.550 OA
ENDBRANCH   6   7
ENDBRANCH   5   6
ENDBRANCH   4   5
ENDBRANCH   3   4
ENDBRANCH   2   3
ENDBRANCH   1   2
BRANCH   1  10
ATOM     10  C   UNL     1      11.768   4.296  -0.104  1.00  0.00     0.027 C 
BRANCH  10  11
ATOM     11  C   UNL     1      12.521   2.997  -0.047  1.00  0.00    -0.031 C 
ATOM     12  C   UNL     1      13.853   2.963   0.108  1.00  0.00    -0.031 C 
BRANCH  12  13
ATOM     13  C   UNL     1      14.607   1.662   0.148  1.00  0.00     0.027 C 
BRANCH  13  14
ATOM     14  C   UNL     1      13.644   0.466   0.081  1.00  0.00     0.004 C 
BRANCH  14  15
ATOM     15  C   UNL     1      14.022  -0.640   1.082  1.00  0.00     0.000 C 
BRANCH  15  16
ATOM     16  C   UNL     1      14.163  -0.124   2.532  1.00  0.00    -0.000 C 
BRANCH  16  17
ATOM     17  C   UNL     1      12.853   0.432   3.115  1.00  0.00    -0.003 C 
ATOM     18  C   UNL     1      12.896   0.583   4.635  1.00  0.00     0.004 C 
ENDBRANCH  16  17
ENDBRANCH  15  16
ENDBRANCH  14  15
ENDBRANCH  13  14
ENDBRANCH  12  13
ENDBRANCH  10  11
ENDBRANCH   1  10
TORSDOF 13
ENDMDL
MODEL 8
REMARK VINA RESULT:    -3.997      6.724      9.552
REMARK INTER + INTRA:          -7.968
REMARK INTER:                  -6.175
REMARK INTRA:                  -1.793
REMARK UNBOUND:                -0.932
REMARK SMILES CCCCCCC=CCCCCCCCC(=O)[O-]
REMARK SMILES IDX 10 1 11 2 12 3 13 4 14 5 15 6 16 7 17 8 18 9 9 10 8 11 7 12
REMARK SMILES IDX 6 13 5 14 4 15 3 16 2 17 1 18
REMARK H PARENT
REMARK Flexibility Score: inf
ROOT
ATOM      1  C   UNL     1      11.683   0.812   4.725  1.00  0.00     0.004 C 
ENDROOT
BRANCH   1   2
ATOM      2  C   UNL     1      10.946   1.777   3.789  1.00  0.00     0.000 C 
BRANCH   2   3
ATOM      3  C   UNL     1      10.296   2.922   4.580  1.00  0.00     0.000 C 
BRANCH   3   4
ATOM      4  C   UNL     1       8.957   3.376   3.976  1.00  0.00     0.000 C 
BRANCH   4   5
ATOM      5  C   UNL     1       7.760   2.586   4.532  1.00  0.00     0.006 C 
BRANCH   5   6
ATOM      6  C   UNL     1       7.387   1.395   3.640  1.00  0.00     0.053 C 
BRANCH   6   7
ATOM      7  C   UNL     1       7.235   0.131   4.431  1.00  0.00     0.041 C 
ATOM      8  O   UNL     1       6.126  -0.464   4.469  1.00  0.00    -0.550 OA
ATOM      9  O   UNL     1       8.317  -0.382   5.134  1.00  0.00    -0.550 OA
ENDBRANCH   6   7
ENDBRANCH   5   6
ENDBRANCH   4   5
ENDBRANCH   3   4
ENDBRANCH   2   3
ENDBRANCH   1   2
BRANCH   1  10
ATOM     10  C   UNL     1      12.984   0.312   4.084  1.00  0.00     0.027 C 
BRANCH  10  11
ATOM     11  C   UNL     1      13.200   0.940   2.736  1.00  0.00    -0.031 C 
ATOM     12  C   UNL     1      13.577   0.212   1.674  1.00  0.00    -0.031 C 
BRANCH  12  13
ATOM     13  C   UNL     1      13.808   0.846   0.330  1.00  0.00     0.027 C 
BRANCH  13  14
ATOM     14  C   UNL     1      14.659   2.119   0.460  1.00  0.00     0.004 C 
BRANCH  14  15
ATOM     15  C   UNL     1      13.843   3.393   0.176  1.00  0.00     0.000 C 
BRANCH  15  16
ATOM     16  C   UNL     1      12.390   3.099  -0.262  1.00  0.00    -0.000 C 
BRANCH  16  17
ATOM     17  C   UNL     1      11.333   3.762   0.637  1.00  0.00    -0.003 C 
ATOM     18  C   UNL     1      11.945   4.672   1.701  1.00  0.00     0.004 C 
ENDBRANCH  16  17
ENDBRANCH  15  16
ENDBRANCH  14  15
ENDBRANCH  13  14
ENDBRANCH  12  13
ENDBRANCH  10  11
ENDBRANCH   1  10
TORSDOF 13
ENDMDL
MODEL 9
REMARK VINA RESULT:    -3.993      1.697      2.363
REMARK INTER + INTRA:          -7.959
REMARK INTER:                  -7.171
REMARK INTRA:                  -0.788
REMARK UNBOUND:                -0.932
REMARK SMILES CCCCCCC=CCCCCCCCC(=O)[O-]
REMARK SMILES IDX 10 1 11 2 12 3 13 4 14 5 15 6 16 7 17 8 18 9 9 10 8 11 7 12
REMARK SMILES IDX 6 13 5 14 4 15 3 16 2 17 1 18
REMARK H PARENT
REMARK Flexibility Score: inf
ROOT
ATOM      1  C   UNL     1       3.043  -4.671   7.095  1.00  0.00     0.004 C 
ENDROOT
BRANCH   1   2
ATOM      2  C   UNL     1       4.506  -5.029   7.382  1.00  0.00     0.000 C 
BRANCH   2   3
ATOM      3  C   UNL     1       4.790  -6.500   7.041  1.00  0.00     0.000 C 
BRANCH   3   4
ATOM      4  C   UNL     1       3.506  -7.324   6.856  1.00  0.00     0.000 C 
BRANCH   4   5
ATOM      5  C   UNL     1       3.783  -8.735   6.309  1.00  0.00     0.006 C 
BRANCH   5   6
ATOM      6  C   UNL     1       2.678  -9.214   5.358  1.00  0.00     0.053 C 
BRANCH   6   7
ATOM      7  C   UNL     1       2.994  -8.892   3.929  1.00  0.00     0.041 C 
ATOM      8  O   UNL     1       4.137  -8.467   3.612  1.00  0.00    -0.550 OA
ATOM      9  O   UNL     1       2.022  -9.051   2.951  1.00  0.00    -0.550 OA
ENDBRANCH   6   7
ENDBRANCH   5   6
ENDBRANCH   4   5
ENDBRANCH   3   4
ENDBRANCH   2   3
ENDBRANCH   1   2
BRANCH   1  10
ATOM     10  C   UNL     1       2.840  -3.151   7.089  1.00  0.00     0.027 C 
BRANCH  10  11
ATOM     11  C   UNL     1       4.130  -2.433   6.807  1.00  0.00    -0.031 C 
ATOM     12  C   UNL     1       4.184  -1.096   6.713  1.00  0.00    -0.031 C 
BRANCH  12  13
ATOM     13  C   UNL     1       5.473  -0.381   6.415  1.00  0.00     0.027 C 
BRANCH  13  14
ATOM     14  C   UNL     1       6.144  -0.959   5.159  1.00  0.00     0.004 C 
BRANCH  14  15
ATOM     15  C   UNL     1       7.467  -0.244   4.828  1.00  0.00     0.000 C 
BRANCH  15  16
ATOM     16  C   UNL     1       7.265   1.079   4.055  1.00  0.00    -0.000 C 
BRANCH  16  17
ATOM     17  C   UNL     1       7.407   2.332   4.937  1.00  0.00    -0.003 C 
ATOM     18  C   UNL     1       6.602   3.520   4.415  1.00  0.00     0.004 C 
ENDBRANCH  16  17
ENDBRANCH  15  16
ENDBRANCH  14  15
ENDBRANCH  13  14
ENDBRANCH  12  13
ENDBRANCH  10  11
ENDBRANCH   1  10
TORSDOF 13
ENDMDL
