MODEL 1
REMARK VINA RESULT:    -4.133      0.000      0.000
REMARK INTER + INTRA:          -4.682
REMARK INTER:                  -4.616
REMARK INTRA:                  -0.065
REMARK UNBOUND:                -0.065
REMARK SMILES COc1ccc(C(=O)[O-])cc1
REMARK SMILES IDX 6 1 5 2 10 3 4 4 11 5 3 6 7 7 8 8 9 9 2 10 1 11
REMARK H PARENT
REMARK Flexibility Score: inf
ROOT
ATOM      1  C   UNL     1      -2.282  -6.162   2.690  1.00  0.00    -0.003 A 
ATOM      2  C   UNL     1      -0.914  -6.157   2.370  1.00  0.00     0.014 A 
ATOM      3  C   UNL     1      -2.896  -4.955   3.071  1.00  0.00     0.014 A 
ATOM      4  C   UNL     1      -0.173  -4.973   2.428  1.00  0.00     0.047 A 
ATOM      5  C   UNL     1      -2.154  -3.772   3.129  1.00  0.00     0.047 A 
ATOM      6  C   UNL     1      -0.792  -3.767   2.810  1.00  0.00     0.118 A 
ENDROOT
BRANCH   1   7
ATOM      7  C   UNL     1      -3.060  -7.418   2.627  1.00  0.00     0.071 C 
ATOM      8  O   UNL     1      -2.639  -8.463   3.192  1.00  0.00    -0.545 OA
ATOM      9  O   UNL     1      -4.270  -7.463   1.944  1.00  0.00    -0.545 OA
ENDBRANCH   1   7
BRANCH   6  10
ATOM     10  O   UNL     1      -0.094  -2.553   2.884  1.00  0.00    -0.497 OA
ATOM     11  C   UNL     1      -0.664  -1.324   3.323  1.00  0.00     0.278 C 
ENDBRANCH   6  10
TORSDOF 2
ENDMDL
MODEL 2
REMARK VINA RESULT:    -4.105     11.180     12.242
REMARK INTER + INTRA:          -4.650
REMARK INTER:                  -4.599
REMARK INTRA:                  -0.051
REMARK UNBOUND:                -0.065
REMARK SMILES COc1ccc(C(=O)[O-])cc1
REMARK SMILES IDX 6 1 5 2 10 3 4 4 11 5 3 6 7 7 8 8 9 9 2 10 1 11
REMARK H PARENT
REMARK Flexibility Score: inf
ROOT
ATOM      1  C   UNL     1      -1.269  -7.007  14.060  1.00  0.00    -0.003 A 
ATOM      2  C   UNL     1      -2.540  -6.453  14.285  1.00  0.00     0.014 A 
ATOM      3  C   UNL     1      -1.168  -8.208  13.335  1.00  0.00     0.014 A 
ATOM      4  C   UNL     1      -3.688  -7.085  13.796  1.00  0.00     0.047 A 
ATOM      5  C   UNL     1      -2.317  -8.838  12.847  1.00  0.00     0.047 A 
ATOM      6  C   UNL     1      -3.583  -8.287  13.072  1.00  0.00     0.118 A 
ENDROOT
BRANCH   1   7
ATOM      7  C   UNL     1      -0.058  -6.335  14.579  1.00  0.00     0.071 C 
ATOM      8  O   UNL     1       0.475  -5.389  13.940  1.00  0.00    -0.545 OA
ATOM      9  O   UNL     1       0.511  -6.739  15.782  1.00  0.00    -0.545 OA
ENDBRANCH   1   7
BRANCH   6  10
ATOM     10  O   UNL     1      -4.702  -8.958  12.560  1.00  0.00    -0.497 OA
ATOM     11  C   UNL     1      -5.596  -9.744  13.344  1.00  0.00     0.278 C 
ENDBRANCH   6  10
TORSDOF 2
ENDMDL
MODEL 3
REMARK VINA RESULT:    -4.102     11.166     12.148
REMARK INTER + INTRA:          -4.646
REMARK INTER:                  -4.594
REMARK INTRA:                  -0.052
REMARK UNBOUND:                -0.065
REMARK SMILES COc1ccc(C(=O)[O-])cc1
REMARK SMILES IDX 6 1 5 2 10 3 4 4 11 5 3 6 7 7 8 8 9 9 2 10 1 11
REMARK H PARENT
REMARK Flexibility Score: inf
ROOT
ATOM      1  C   UNL     1      -1.237  -7.038  14.041  1.00  0.00    -0.003 A 
ATOM      2  C   UNL     1      -1.103  -8.255  13.353  1.00  0.00     0.014 A 
ATOM      3  C   UNL     1      -2.523  -6.494  14.218  1.00  0.00     0.014 A 
ATOM      4  C   UNL     1      -2.228  -8.915  12.850  1.00  0.00     0.047 A 
ATOM      5  C   UNL     1      -3.646  -7.156  13.714  1.00  0.00     0.047 A 
ATOM      6  C   UNL     1      -3.512  -8.367  13.028  1.00  0.00     0.118 A 
ENDROOT
BRANCH   1   7
ATOM      7  C   UNL     1      -0.044  -6.342  14.572  1.00  0.00     0.071 C 
ATOM      8  O   UNL     1       0.477  -5.388  13.935  1.00  0.00    -0.545 OA
ATOM      9  O   UNL     1       0.519  -6.732  15.781  1.00  0.00    -0.545 OA
ENDBRANCH   1   7
BRANCH   6  10
ATOM     10  O   UNL     1      -4.671  -8.990  12.544  1.00  0.00    -0.497 OA
ATOM     11  C   UNL     1      -5.576  -9.741  13.348  1.00  0.00     0.278 C 
ENDBRANCH   6  10
TORSDOF 2
ENDMDL
MODEL 4
REMARK VINA RESULT:    -4.090     11.010     12.028
REMARK INTER + INTRA:          -4.633
REMARK INTER:                  -4.573
REMARK INTRA:                  -0.060
REMARK UNBOUND:                -0.065
REMARK SMILES COc1ccc(C(=O)[O-])cc1
REMARK SMILES IDX 6 1 5 2 10 3 4 4 11 5 3 6 7 7 8 8 9 9 2 10 1 11
REMARK H PARENT
REMARK Flexibility Score: inf
ROOT
ATOM      1  C   UNL     1      -0.659  -7.385  13.770  1.00  0.00    -0.003 A 
ATOM      2  C   UNL     1       0.247  -7.953  12.860  1.00  0.00     0.014 A 
ATOM      3  C   UNL     1      -1.884  -8.035  14.007  1.00  0.00     0.014 A 
ATOM      4  C   UNL     1      -0.062  -9.146  12.198  1.00  0.00     0.047 A 
ATOM      5  C   UNL     1      -2.192  -9.226  13.344  1.00  0.00     0.047 A 
ATOM      6  C   UNL     1      -1.290  -9.792  12.437  1.00  0.00     0.118 A 
ENDROOT
BRANCH   1   7
ATOM      7  C   UNL     1      -0.326  -6.123  14.468  1.00  0.00     0.071 C 
ATOM      8  O   UNL     1       0.579  -5.366  14.026  1.00  0.00    -0.545 OA
ATOM      9  O   UNL     1      -1.010  -5.755  15.621  1.00  0.00    -0.545 OA
ENDBRANCH   1   7
BRANCH   6  10
ATOM     10  O   UNL     1      -1.647 -10.989  11.800  1.00  0.00    -0.497 OA
ATOM     11  C   UNL     1      -1.568 -12.276  12.405  1.00  0.00     0.278 C 
ENDBRANCH   6  10
TORSDOF 2
ENDMDL
MODEL 5
REMARK VINA RESULT:    -4.022     11.395     12.149
REMARK INTER + INTRA:          -4.557
REMARK INTER:                  -4.506
REMARK INTRA:                  -0.052
REMARK UNBOUND:                -0.065
REMARK SMILES COc1ccc(C(=O)[O-])cc1
REMARK SMILES IDX 6 1 5 2 10 3 4 4 11 5 3 6 7 7 8 8 9 9 2 10 1 11
REMARK H PARENT
REMARK Flexibility Score: inf
ROOT
ATOM      1  C   UNL     1       0.959  -7.064  14.153  1.00  0.00    -0.003 A 
ATOM      2  C   UNL     1       0.898  -7.649  12.877  1.00  0.00     0.014 A 
ATOM      3  C   UNL     1      -0.242  -6.752  14.816  1.00  0.00     0.014 A 
ATOM      4  C   UNL     1      -0.335  -7.916  12.275  1.00  0.00     0.047 A 
ATOM      5  C   UNL     1      -1.474  -7.020  14.212  1.00  0.00     0.047 A 
ATOM      6  C   UNL     1      -1.534  -7.601  12.941  1.00  0.00     0.118 A 
ENDROOT
BRANCH   1   7
ATOM      7  C   UNL     1       2.266  -6.784  14.786  1.00  0.00     0.071 C 
ATOM      8  O   UNL     1       2.724  -5.610  14.818  1.00  0.00    -0.545 OA
ATOM      9  O   UNL     1       3.008  -7.812  15.356  1.00  0.00    -0.545 OA
ENDBRANCH   1   7
BRANCH   6  10
ATOM     10  O   UNL     1      -2.795  -7.849  12.381  1.00  0.00    -0.497 OA
ATOM     11  C   UNL     1      -3.490  -9.089  12.482  1.00  0.00     0.278 C 
ENDBRANCH   6  10
TORSDOF 2
ENDMDL
MODEL 6
REMARK VINA RESULT:    -3.972      4.643      6.792
REMARK INTER + INTRA:          -4.501
REMARK INTER:                  -4.436
REMARK INTRA:                  -0.066
REMARK UNBOUND:                -0.065
REMARK SMILES COc1ccc(C(=O)[O-])cc1
REMARK SMILES IDX 6 1 5 2 10 3 4 4 11 5 3 6 7 7 8 8 9 9 2 10 1 11
REMARK H PARENT
REMARK Flexibility Score: inf
ROOT
ATOM      1  C   UNL     1      -1.103  -0.191   5.118  1.00  0.00    -0.003 A 
ATOM      2  C   UNL     1       0.159   0.397   4.931  1.00  0.00     0.014 A 
ATOM      3  C   UNL     1      -1.935   0.293   6.143  1.00  0.00     0.014 A 
ATOM      4  C   UNL     1       0.583   1.448   5.751  1.00  0.00     0.047 A 
ATOM      5  C   UNL     1      -1.509   1.344   6.962  1.00  0.00     0.047 A 
ATOM      6  C   UNL     1      -0.253   1.929   6.776  1.00  0.00     0.118 A 
ENDROOT
BRANCH   1   7
ATOM      7  C   UNL     1      -1.546  -1.302   4.248  1.00  0.00     0.071 C 
ATOM      8  O   UNL     1      -0.722  -2.162   3.836  1.00  0.00    -0.545 OA
ATOM      9  O   UNL     1      -2.880  -1.414   3.873  1.00  0.00    -0.545 OA
ENDBRANCH   1   7
BRANCH   6  10
ATOM     10  O   UNL     1       0.125   2.980   7.625  1.00  0.00    -0.497 OA
ATOM     11  C   UNL     1      -0.344   3.143   8.960  1.00  0.00     0.278 C 
ENDBRANCH   6  10
TORSDOF 2
ENDMDL
MODEL 7
REMARK VINA RESULT:    -3.956      2.090      5.393
REMARK INTER + INTRA:          -4.483
REMARK INTER:                  -4.418
REMARK INTRA:                  -0.066
REMARK UNBOUND:                -0.065
REMARK SMILES COc1ccc(C(=O)[O-])cc1
REMARK SMILES IDX 6 1 5 2 10 3 4 4 11 5 3 6 7 7 8 8 9 9 2 10 1 11
REMARK H PARENT
REMARK Flexibility Score: inf
ROOT
ATOM      1  C   UNL     1      -2.098  -1.973   3.809  1.00  0.00    -0.003 A 
ATOM      2  C   UNL     1      -2.969  -1.865   2.711  1.00  0.00     0.014 A 
ATOM      3  C   UNL     1      -1.609  -3.243   4.166  1.00  0.00     0.014 A 
ATOM      4  C   UNL     1      -3.344  -3.000   1.986  1.00  0.00     0.047 A 
ATOM      5  C   UNL     1      -1.985  -4.376   3.440  1.00  0.00     0.047 A 
ATOM      6  C   UNL     1      -2.853  -4.268   2.348  1.00  0.00     0.118 A 
ENDROOT
BRANCH   1   7
ATOM      7  C   UNL     1      -1.704  -0.770   4.573  1.00  0.00     0.071 C 
ATOM      8  O   UNL     1      -2.564   0.089   4.905  1.00  0.00    -0.545 OA
ATOM      9  O   UNL     1      -0.377  -0.570   4.937  1.00  0.00    -0.545 OA
ENDBRANCH   1   7
BRANCH   6  10
ATOM     10  O   UNL     1      -3.198  -5.436   1.653  1.00  0.00    -0.497 OA
ATOM     11  C   UNL     1      -2.949  -6.756   2.126  1.00  0.00     0.278 C 
ENDBRANCH   6  10
TORSDOF 2
ENDMDL
MODEL 8
REMARK VINA RESULT:    -3.945     11.247     12.528
REMARK INTER + INTRA:          -4.472
REMARK INTER:                  -4.414
REMARK INTRA:                  -0.057
REMARK UNBOUND:                -0.065
REMARK SMILES COc1ccc(C(=O)[O-])cc1
REMARK SMILES IDX 6 1 5 2 10 3 4 4 11 5 3 6 7 7 8 8 9 9 2 10 1 11
REMARK H PARENT
REMARK Flexibility Score: inf
ROOT
ATOM      1  C   UNL     1      -3.913  -7.602  13.397  1.00  0.00    -0.003 A 
ATOM      2  C   UNL     1      -4.941  -6.825  13.958  1.00  0.00     0.014 A 
ATOM      3  C   UNL     1      -4.195  -8.925  13.011  1.00  0.00     0.014 A 
ATOM      4  C   UNL     1      -6.222  -7.357  14.129  1.00  0.00     0.047 A 
ATOM      5  C   UNL     1      -5.477  -9.455  13.184  1.00  0.00     0.047 A 
ATOM      6  C   UNL     1      -6.499  -8.681  13.742  1.00  0.00     0.118 A 
ENDROOT
BRANCH   1   7
ATOM      7  C   UNL     1      -2.559  -7.035  13.217  1.00  0.00     0.071 C 
ATOM      8  O   UNL     1      -2.108  -6.184  14.030  1.00  0.00    -0.545 OA
ATOM      9  O   UNL     1      -1.764  -7.434  12.149  1.00  0.00    -0.545 OA
ENDBRANCH   1   7
BRANCH   6  10
ATOM     10  O   UNL     1      -7.767  -9.261  13.893  1.00  0.00    -0.497 OA
ATOM     11  C   UNL     1      -8.218  -9.911  15.078  1.00  0.00     0.278 C 
ENDBRANCH   6  10
TORSDOF 2
ENDMDL
MODEL 9
REMARK VINA RESULT:    -3.885      2.023      2.788
REMARK INTER + INTRA:          -4.405
REMARK INTER:                  -4.338
REMARK INTRA:                  -0.067
REMARK UNBOUND:                -0.065
REMARK SMILES COc1ccc(C(=O)[O-])cc1
REMARK SMILES IDX 6 1 5 2 10 3 4 4 11 5 3 6 7 7 8 8 9 9 2 10 1 11
REMARK H PARENT
REMARK Flexibility Score: inf
ROOT
ATOM      1  C   UNL     1      -2.430  -4.201   2.852  1.00  0.00    -0.003 A 
ATOM      2  C   UNL     1      -3.238  -3.326   2.107  1.00  0.00     0.014 A 
ATOM      3  C   UNL     1      -1.665  -3.683   3.913  1.00  0.00     0.014 A 
ATOM      4  C   UNL     1      -3.282  -1.963   2.414  1.00  0.00     0.047 A 
ATOM      5  C   UNL     1      -1.710  -2.320   4.218  1.00  0.00     0.047 A 
ATOM      6  C   UNL     1      -2.515  -1.449   3.476  1.00  0.00     0.118 A 
ENDROOT
BRANCH   1   7
ATOM      7  C   UNL     1      -2.386  -5.642   2.524  1.00  0.00     0.071 C 
ATOM      8  O   UNL     1      -1.328  -6.306   2.690  1.00  0.00    -0.545 OA
ATOM      9  O   UNL     1      -3.514  -6.286   2.027  1.00  0.00    -0.545 OA
ENDBRANCH   1   7
BRANCH   6  10
ATOM     10  O   UNL     1      -2.524  -0.090   3.824  1.00  0.00    -0.497 OA
ATOM     11  C   UNL     1      -2.105   0.419   5.087  1.00  0.00     0.278 C 
ENDBRANCH   6  10
TORSDOF 2
ENDMDL
