MODEL 1
REMARK VINA RESULT:    -6.396      0.000      0.000
REMARK INTER + INTRA:         -10.649
REMARK INTER:                  -9.761
REMARK INTRA:                  -0.888
REMARK UNBOUND:                -0.888
REMARK SMILES CC(=O)CCC=C(C)CCC=C(C)CCC=C(C)C
REMARK SMILES IDX 10 1 11 2 12 3 13 4 14 5 15 6 16 7 18 8 17 9 19 10 9 11 7 12
REMARK SMILES IDX 6 13 8 14 5 15 4 16 2 17 3 18 1 19
REMARK H PARENT
REMARK Flexibility Score: inf
ROOT
ATOM      1  C   UNL     1       0.217  32.735 -28.625  1.00  0.00     0.032 C 
ENDROOT
BRANCH   1   2
ATOM      2  C   UNL     1      -0.906  33.720 -28.846  1.00  0.00    -0.028 C 
ATOM      3  C   UNL     1      -2.214  33.385 -28.814  1.00  0.00    -0.077 C 
ATOM      4  C   UNL     1      -3.240  34.465 -29.036  1.00  0.00     0.039 C 
BRANCH   3   5
ATOM      5  C   UNL     1      -2.694  31.981 -28.504  1.00  0.00     0.034 C 
BRANCH   5   6
ATOM      6  C   UNL     1      -4.192  31.845 -28.789  1.00  0.00     0.032 C 
BRANCH   6   7
ATOM      7  C   UNL     1      -4.928  31.363 -27.564  1.00  0.00    -0.028 C 
ATOM      8  C   UNL     1      -6.988  32.690 -28.082  1.00  0.00     0.039 C 
ATOM      9  C   UNL     1      -6.194  31.714 -27.245  1.00  0.00    -0.080 C 
ATOM     10  C   UNL     1      -6.814  31.120 -26.007  1.00  0.00     0.039 C 
ENDBRANCH   6   7
ENDBRANCH   5   6
ENDBRANCH   3   5
ENDBRANCH   1   2
BRANCH   1  11
ATOM     11  C   UNL     1       0.790  32.854 -27.207  1.00  0.00     0.034 C 
BRANCH  11  12
ATOM     12  C   UNL     1       1.829  31.784 -26.955  1.00  0.00    -0.077 C 
ATOM     13  C   UNL     1       2.084  31.403 -25.681  1.00  0.00    -0.028 C 
ATOM     14  C   UNL     1       2.564  31.180 -28.128  1.00  0.00     0.039 C 
BRANCH  13  15
ATOM     15  C   UNL     1       3.065  30.327 -25.290  1.00  0.00     0.035 C 
BRANCH  15  16
ATOM     16  C   UNL     1       3.687  30.627 -23.924  1.00  0.00     0.079 C 
BRANCH  16  17
ATOM     17  C   UNL     1       2.623  30.753 -22.869  1.00  0.00     0.130 C 
ATOM     18  O   UNL     1       2.475  31.816 -22.282  1.00  0.00    -0.300 OA
ATOM     19  C   UNL     1       1.759  29.580 -22.515  1.00  0.00     0.087 C 
ENDBRANCH  16  17
ENDBRANCH  15  16
ENDBRANCH  13  15
ENDBRANCH  11  12
ENDBRANCH   1  11
TORSDOF 9
ENDMDL
MODEL 2
REMARK VINA RESULT:    -6.159      9.352     13.448
REMARK INTER + INTRA:         -10.288
REMARK INTER:                  -8.805
REMARK INTRA:                  -1.483
REMARK UNBOUND:                -0.888
REMARK SMILES CC(=O)CCC=C(C)CCC=C(C)CCC=C(C)C
REMARK SMILES IDX 10 1 11 2 12 3 13 4 14 5 15 6 16 7 18 8 17 9 19 10 9 11 7 12
REMARK SMILES IDX 6 13 8 14 5 15 4 16 2 17 3 18 1 19
REMARK H PARENT
REMARK Flexibility Score: inf
ROOT
ATOM      1  C   UNL     1      -4.078  26.099 -16.157  1.00  0.00     0.032 C 
ENDROOT
BRANCH   1   2
ATOM      2  C   UNL     1      -2.619  25.934 -15.804  1.00  0.00    -0.028 C 
ATOM      3  C   UNL     1      -2.118  26.150 -14.568  1.00  0.00    -0.077 C 
ATOM      4  C   UNL     1      -0.644  25.937 -14.340  1.00  0.00     0.039 C 
BRANCH   3   5
ATOM      5  C   UNL     1      -2.987  26.538 -13.387  1.00  0.00     0.034 C 
BRANCH   5   6
ATOM      6  C   UNL     1      -3.271  25.321 -12.502  1.00  0.00     0.032 C 
BRANCH   6   7
ATOM      7  C   UNL     1      -4.594  24.694 -12.864  1.00  0.00    -0.028 C 
ATOM      8  C   UNL     1      -3.534  22.726 -13.993  1.00  0.00     0.039 C 
ATOM      9  C   UNL     1      -4.728  23.516 -13.512  1.00  0.00    -0.080 C 
ATOM     10  C   UNL     1      -6.118  22.992 -13.771  1.00  0.00     0.039 C 
ENDBRANCH   6   7
ENDBRANCH   5   6
ENDBRANCH   3   5
ENDBRANCH   1   2
BRANCH   1  11
ATOM     11  C   UNL     1      -4.314  25.889 -17.657  1.00  0.00     0.034 C 
BRANCH  11  12
ATOM     12  C   UNL     1      -4.478  27.215 -18.368  1.00  0.00    -0.077 C 
ATOM     13  C   UNL     1      -3.669  27.504 -19.414  1.00  0.00    -0.028 C 
ATOM     14  C   UNL     1      -5.530  28.185 -17.882  1.00  0.00     0.039 C 
BRANCH  13  15
ATOM     15  C   UNL     1      -3.749  28.769 -20.231  1.00  0.00     0.035 C 
BRANCH  15  16
ATOM     16  C   UNL     1      -4.338  28.486 -21.616  1.00  0.00     0.079 C 
BRANCH  16  17
ATOM     17  C   UNL     1      -3.515  29.141 -22.691  1.00  0.00     0.130 C 
ATOM     18  O   UNL     1      -3.903  29.118 -23.850  1.00  0.00    -0.300 OA
ATOM     19  C   UNL     1      -2.211  29.801 -22.355  1.00  0.00     0.087 C 
ENDBRANCH  16  17
ENDBRANCH  15  16
ENDBRANCH  13  15
ENDBRANCH  11  12
ENDBRANCH   1  11
TORSDOF 9
ENDMDL
MODEL 3
REMARK VINA RESULT:    -6.063      2.449      4.220
REMARK INTER + INTRA:         -10.142
REMARK INTER:                  -9.301
REMARK INTRA:                  -0.841
REMARK UNBOUND:                -0.888
REMARK SMILES CC(=O)CCC=C(C)CCC=C(C)CCC=C(C)C
REMARK SMILES IDX 10 1 11 2 12 3 13 4 14 5 15 6 16 7 18 8 17 9 19 10 9 11 7 12
REMARK SMILES IDX 6 13 8 14 5 15 4 16 2 17 3 18 1 19
REMARK H PARENT
REMARK Flexibility Score: inf
ROOT
ATOM      1  C   UNL     1      -3.103  31.608 -27.367  1.00  0.00     0.032 C 
ENDROOT
BRANCH   1   2
ATOM      2  C   UNL     1      -4.561  31.453 -27.729  1.00  0.00    -0.028 C 
ATOM      3  C   UNL     1      -5.513  31.060 -26.854  1.00  0.00    -0.077 C 
ATOM      4  C   UNL     1      -6.936  30.958 -27.336  1.00  0.00     0.039 C 
BRANCH   3   5
ATOM      5  C   UNL     1      -5.218  30.776 -25.395  1.00  0.00     0.034 C 
BRANCH   5   6
ATOM      6  C   UNL     1      -5.238  29.269 -25.121  1.00  0.00     0.032 C 
BRANCH   6   7
ATOM      7  C   UNL     1      -5.216  28.994 -23.639  1.00  0.00    -0.028 C 
ATOM      8  C   UNL     1      -2.724  29.183 -23.476  1.00  0.00     0.039 C 
ATOM      9  C   UNL     1      -4.097  28.977 -22.881  1.00  0.00    -0.080 C 
ATOM     10  C   UNL     1      -4.236  28.727 -21.401  1.00  0.00     0.039 C 
ENDBRANCH   6   7
ENDBRANCH   5   6
ENDBRANCH   3   5
ENDBRANCH   1   2
BRANCH   1  11
ATOM     11  C   UNL     1      -2.425  32.674 -28.237  1.00  0.00     0.034 C 
BRANCH  11  12
ATOM     12  C   UNL     1      -0.934  32.707 -27.982  1.00  0.00    -0.077 C 
ATOM     13  C   UNL     1      -0.475  32.444 -26.736  1.00  0.00    -0.028 C 
ATOM     14  C   UNL     1       0.000  33.047 -29.119  1.00  0.00     0.039 C 
BRANCH  13  15
ATOM     15  C   UNL     1       0.984  32.407 -26.352  1.00  0.00     0.035 C 
BRANCH  15  16
ATOM     16  C   UNL     1       1.238  31.345 -25.279  1.00  0.00     0.079 C 
BRANCH  16  17
ATOM     17  C   UNL     1       2.672  31.372 -24.829  1.00  0.00     0.130 C 
ATOM     18  O   UNL     1       3.006  32.107 -23.911  1.00  0.00    -0.300 OA
ATOM     19  C   UNL     1       3.700  30.521 -25.513  1.00  0.00     0.087 C 
ENDBRANCH  16  17
ENDBRANCH  15  16
ENDBRANCH  13  15
ENDBRANCH  11  12
ENDBRANCH   1  11
TORSDOF 9
ENDMDL
MODEL 4
REMARK VINA RESULT:    -5.981     16.108     19.102
REMARK INTER + INTRA:         -10.017
REMARK INTER:                  -9.141
REMARK INTRA:                  -0.876
REMARK UNBOUND:                -0.888
REMARK SMILES CC(=O)CCC=C(C)CCC=C(C)CCC=C(C)C
REMARK SMILES IDX 10 1 11 2 12 3 13 4 14 5 15 6 16 7 18 8 17 9 19 10 9 11 7 12
REMARK SMILES IDX 6 13 8 14 5 15 4 16 2 17 3 18 1 19
REMARK H PARENT
REMARK Flexibility Score: inf
ROOT
ATOM      1  C   UNL     1       7.011  30.887 -10.217  1.00  0.00     0.032 C 
ENDROOT
BRANCH   1   2
ATOM      2  C   UNL     1       8.514  30.856 -10.073  1.00  0.00    -0.028 C 
ATOM      3  C   UNL     1       9.297  31.955 -10.152  1.00  0.00    -0.077 C 
ATOM      4  C   UNL     1      10.785  31.793  -9.977  1.00  0.00     0.039 C 
BRANCH   3   5
ATOM      5  C   UNL     1       8.736  33.349 -10.349  1.00  0.00     0.034 C 
BRANCH   5   6
ATOM      6  C   UNL     1       9.827  34.308 -10.836  1.00  0.00     0.032 C 
BRANCH   6   7
ATOM      7  C   UNL     1       9.263  35.307 -11.815  1.00  0.00    -0.028 C 
ATOM      8  C   UNL     1      10.232  34.144 -13.809  1.00  0.00     0.039 C 
ATOM      9  C   UNL     1       9.415  35.233 -13.155  1.00  0.00    -0.080 C 
ATOM     10  C   UNL     1       8.758  36.285 -14.012  1.00  0.00     0.039 C 
ENDBRANCH   6   7
ENDBRANCH   5   6
ENDBRANCH   3   5
ENDBRANCH   1   2
BRANCH   1  11
ATOM     11  C   UNL     1       6.331  31.184  -8.875  1.00  0.00     0.034 C 
BRANCH  11  12
ATOM     12  C   UNL     1       4.833  30.990  -8.976  1.00  0.00    -0.077 C 
ATOM     13  C   UNL     1       4.035  32.080  -9.073  1.00  0.00    -0.028 C 
ATOM     14  C   UNL     1       4.269  29.589  -8.953  1.00  0.00     0.039 C 
BRANCH  13  15
ATOM     15  C   UNL     1       2.535  32.030  -9.216  1.00  0.00     0.035 C 
BRANCH  15  16
ATOM     16  C   UNL     1       2.132  31.912 -10.689  1.00  0.00     0.079 C 
BRANCH  16  17
ATOM     17  C   UNL     1       1.146  32.984 -11.061  1.00  0.00     0.130 C 
ATOM     18  O   UNL     1       1.096  33.388 -12.214  1.00  0.00    -0.300 OA
ATOM     19  C   UNL     1       0.239  33.576 -10.024  1.00  0.00     0.087 C 
ENDBRANCH  16  17
ENDBRANCH  15  16
ENDBRANCH  13  15
ENDBRANCH  11  12
ENDBRANCH   1  11
TORSDOF 9
ENDMDL
MODEL 5
REMARK VINA RESULT:    -5.960      4.346      7.392
REMARK INTER + INTRA:          -9.983
REMARK INTER:                  -8.988
REMARK INTRA:                  -0.995
REMARK UNBOUND:                -0.888
REMARK SMILES CC(=O)CCC=C(C)CCC=C(C)CCC=C(C)C
REMARK SMILES IDX 10 1 11 2 12 3 13 4 14 5 15 6 16 7 18 8 17 9 19 10 9 11 7 12
REMARK SMILES IDX 6 13 8 14 5 15 4 16 2 17 3 18 1 19
REMARK H PARENT
REMARK Flexibility Score: inf
ROOT
ATOM      1  C   UNL     1      -0.461  29.556 -23.509  1.00  0.00     0.032 C 
ENDROOT
BRANCH   1   2
ATOM      2  C   UNL     1       0.769  30.172 -22.886  1.00  0.00    -0.028 C 
ATOM      3  C   UNL     1       1.812  30.648 -23.601  1.00  0.00    -0.077 C 
ATOM      4  C   UNL     1       2.977  31.253 -22.861  1.00  0.00     0.039 C 
BRANCH   3   5
ATOM      5  C   UNL     1       1.833  30.655 -25.117  1.00  0.00     0.034 C 
BRANCH   5   6
ATOM      6  C   UNL     1       2.108  32.064 -25.649  1.00  0.00     0.032 C 
BRANCH   6   7
ATOM      7  C   UNL     1       1.551  32.229 -27.040  1.00  0.00    -0.028 C 
ATOM      8  C   UNL     1      -0.802  32.531 -26.237  1.00  0.00     0.039 C 
ATOM      9  C   UNL     1       0.250  32.465 -27.320  1.00  0.00    -0.080 C 
ATOM     10  C   UNL     1      -0.154  32.649 -28.760  1.00  0.00     0.039 C 
ENDBRANCH   6   7
ENDBRANCH   5   6
ENDBRANCH   3   5
ENDBRANCH   1   2
BRANCH   1  11
ATOM     11  C   UNL     1      -1.702  30.423 -23.261  1.00  0.00     0.034 C 
BRANCH  11  12
ATOM     12  C   UNL     1      -2.875  29.572 -22.827  1.00  0.00    -0.077 C 
ATOM     13  C   UNL     1      -2.995  29.236 -21.520  1.00  0.00    -0.028 C 
ATOM     14  C   UNL     1      -3.872  29.108 -23.862  1.00  0.00     0.039 C 
BRANCH  13  15
ATOM     15  C   UNL     1      -4.130  28.426 -20.947  1.00  0.00     0.035 C 
BRANCH  15  16
ATOM     16  C   UNL     1      -4.100  28.455 -19.416  1.00  0.00     0.079 C 
BRANCH  16  17
ATOM     17  C   UNL     1      -3.747  27.102 -18.863  1.00  0.00     0.130 C 
ATOM     18  O   UNL     1      -2.573  26.786 -18.737  1.00  0.00    -0.300 OA
ATOM     19  C   UNL     1      -4.824  26.129 -18.487  1.00  0.00     0.087 C 
ENDBRANCH  16  17
ENDBRANCH  15  16
ENDBRANCH  13  15
ENDBRANCH  11  12
ENDBRANCH   1  11
TORSDOF 9
ENDMDL
MODEL 6
REMARK VINA RESULT:    -5.922     15.886     18.265
REMARK INTER + INTRA:          -9.925
REMARK INTER:                  -8.856
REMARK INTRA:                  -1.070
REMARK UNBOUND:                -0.888
REMARK SMILES CC(=O)CCC=C(C)CCC=C(C)CCC=C(C)C
REMARK SMILES IDX 10 1 11 2 12 3 13 4 14 5 15 6 16 7 18 8 17 9 19 10 9 11 7 12
REMARK SMILES IDX 6 13 8 14 5 15 4 16 2 17 3 18 1 19
REMARK H PARENT
REMARK Flexibility Score: inf
ROOT
ATOM      1  C   UNL     1       7.544  30.819  -9.194  1.00  0.00     0.032 C 
ENDROOT
BRANCH   1   2
ATOM      2  C   UNL     1       6.595  30.081 -10.107  1.00  0.00    -0.028 C 
ATOM      3  C   UNL     1       5.257  30.267 -10.105  1.00  0.00    -0.077 C 
ATOM      4  C   UNL     1       4.418  29.478 -11.077  1.00  0.00     0.039 C 
BRANCH   3   5
ATOM      5  C   UNL     1       4.571  31.280  -9.210  1.00  0.00     0.034 C 
BRANCH   5   6
ATOM      6  C   UNL     1       3.070  30.992  -9.118  1.00  0.00     0.032 C 
BRANCH   6   7
ATOM      7  C   UNL     1       2.269  32.249  -9.350  1.00  0.00    -0.028 C 
ATOM      8  C   UNL     1       1.553  31.562 -11.649  1.00  0.00     0.039 C 
ATOM      9  C   UNL     1       1.562  32.508 -10.472  1.00  0.00    -0.080 C 
ATOM     10  C   UNL     1       0.775  33.792 -10.545  1.00  0.00     0.039 C 
ENDBRANCH   6   7
ENDBRANCH   5   6
ENDBRANCH   3   5
ENDBRANCH   1   2
BRANCH   1  11
ATOM     11  C   UNL     1       9.004  30.486  -9.524  1.00  0.00     0.034 C 
BRANCH  11  12
ATOM     12  C   UNL     1       9.776  31.739  -9.877  1.00  0.00    -0.077 C 
ATOM     13  C   UNL     1       9.095  32.888 -10.100  1.00  0.00    -0.028 C 
ATOM     14  C   UNL     1      11.281  31.672  -9.983  1.00  0.00     0.039 C 
BRANCH  13  15
ATOM     15  C   UNL     1       9.739  34.213 -10.423  1.00  0.00     0.035 C 
BRANCH  15  16
ATOM     16  C   UNL     1       9.800  34.433 -11.938  1.00  0.00     0.079 C 
BRANCH  16  17
ATOM     17  C   UNL     1       8.833  35.503 -12.362  1.00  0.00     0.130 C 
ATOM     18  O   UNL     1       7.888  35.787 -11.640  1.00  0.00    -0.300 OA
ATOM     19  C   UNL     1       9.006  36.207 -13.674  1.00  0.00     0.087 C 
ENDBRANCH  16  17
ENDBRANCH  15  16
ENDBRANCH  13  15
ENDBRANCH  11  12
ENDBRANCH   1  11
TORSDOF 9
ENDMDL
MODEL 7
REMARK VINA RESULT:    -5.885      4.943      8.827
REMARK INTER + INTRA:          -9.869
REMARK INTER:                  -8.983
REMARK INTRA:                  -0.886
REMARK UNBOUND:                -0.888
REMARK SMILES CC(=O)CCC=C(C)CCC=C(C)CCC=C(C)C
REMARK SMILES IDX 10 1 11 2 12 3 13 4 14 5 15 6 16 7 18 8 17 9 19 10 9 11 7 12
REMARK SMILES IDX 6 13 8 14 5 15 4 16 2 17 3 18 1 19
REMARK H PARENT
REMARK Flexibility Score: inf
ROOT
ATOM      1  C   UNL     1      -1.948  30.248 -22.938  1.00  0.00     0.032 C 
ENDROOT
BRANCH   1   2
ATOM      2  C   UNL     1      -1.065  30.979 -23.920  1.00  0.00    -0.028 C 
ATOM      3  C   UNL     1       0.271  30.793 -24.008  1.00  0.00    -0.077 C 
ATOM      4  C   UNL     1       1.040  31.575 -25.041  1.00  0.00     0.039 C 
BRANCH   3   5
ATOM      5  C   UNL     1       1.017  29.788 -23.153  1.00  0.00     0.034 C 
BRANCH   5   6
ATOM      6  C   UNL     1       2.449  30.261 -22.887  1.00  0.00     0.032 C 
BRANCH   6   7
ATOM      7  C   UNL     1       3.432  29.136 -23.094  1.00  0.00    -0.028 C 
ATOM      8  C   UNL     1       4.167  29.974 -25.336  1.00  0.00     0.039 C 
ATOM      9  C   UNL     1       4.228  29.007 -24.178  1.00  0.00    -0.080 C 
ATOM     10  C   UNL     1       5.192  27.849 -24.227  1.00  0.00     0.039 C 
ENDBRANCH   6   7
ENDBRANCH   5   6
ENDBRANCH   3   5
ENDBRANCH   1   2
BRANCH   1  11
ATOM     11  C   UNL     1      -3.258  29.799 -23.597  1.00  0.00     0.034 C 
BRANCH  11  12
ATOM     12  C   UNL     1      -4.127  29.048 -22.612  1.00  0.00    -0.077 C 
ATOM     13  C   UNL     1      -3.654  28.814 -21.365  1.00  0.00    -0.028 C 
ATOM     14  C   UNL     1      -5.492  28.570 -23.048  1.00  0.00     0.039 C 
BRANCH  13  15
ATOM     15  C   UNL     1      -4.426  28.112 -20.276  1.00  0.00     0.035 C 
BRANCH  15  16
ATOM     16  C   UNL     1      -3.494  27.677 -19.142  1.00  0.00     0.079 C 
BRANCH  16  17
ATOM     17  C   UNL     1      -4.053  26.484 -18.418  1.00  0.00     0.130 C 
ATOM     18  O   UNL     1      -4.907  25.794 -18.956  1.00  0.00    -0.300 OA
ATOM     19  C   UNL     1      -3.589  26.149 -17.032  1.00  0.00     0.087 C 
ENDBRANCH  16  17
ENDBRANCH  15  16
ENDBRANCH  13  15
ENDBRANCH  11  12
ENDBRANCH   1  11
TORSDOF 9
ENDMDL
MODEL 8
REMARK VINA RESULT:    -5.753     16.549     19.086
REMARK INTER + INTRA:          -9.667
REMARK INTER:                  -7.842
REMARK INTRA:                  -1.825
REMARK UNBOUND:                -0.888
REMARK SMILES CC(=O)CCC=C(C)CCC=C(C)CCC=C(C)C
REMARK SMILES IDX 10 1 11 2 12 3 13 4 14 5 15 6 16 7 18 8 17 9 19 10 9 11 7 12
REMARK SMILES IDX 6 13 8 14 5 15 4 16 2 17 3 18 1 19
REMARK H PARENT
REMARK Flexibility Score: inf
ROOT
ATOM      1  C   UNL     1       7.510  31.265  -9.329  1.00  0.00     0.032 C 
ENDROOT
BRANCH   1   2
ATOM      2  C   UNL     1       8.137  32.485  -9.960  1.00  0.00    -0.028 C 
ATOM      3  C   UNL     1       9.469  32.645 -10.119  1.00  0.00    -0.077 C 
ATOM      4  C   UNL     1       9.971  33.905 -10.776  1.00  0.00     0.039 C 
BRANCH   3   5
ATOM      5  C   UNL     1      10.476  31.585  -9.718  1.00  0.00     0.034 C 
BRANCH   5   6
ATOM      6  C   UNL     1      11.196  31.028 -10.950  1.00  0.00     0.032 C 
BRANCH   6   7
ATOM      7  C   UNL     1      10.333  30.015 -11.660  1.00  0.00    -0.028 C 
ATOM      8  C   UNL     1       9.942  31.497 -13.640  1.00  0.00     0.039 C 
ATOM      9  C   UNL     1       9.783  30.201 -12.880  1.00  0.00    -0.080 C 
ATOM     10  C   UNL     1       8.976  29.081 -13.484  1.00  0.00     0.039 C 
ENDBRANCH   6   7
ENDBRANCH   5   6
ENDBRANCH   3   5
ENDBRANCH   1   2
BRANCH   1  11
ATOM     11  C   UNL     1       7.003  30.287 -10.396  1.00  0.00     0.034 C 
BRANCH  11  12
ATOM     12  C   UNL     1       5.494  30.178 -10.354  1.00  0.00    -0.077 C 
ATOM     13  C   UNL     1       4.820  30.786  -9.349  1.00  0.00    -0.028 C 
ATOM     14  C   UNL     1       4.783  29.385 -11.424  1.00  0.00     0.039 C 
BRANCH  13  15
ATOM     15  C   UNL     1       3.319  30.788  -9.206  1.00  0.00     0.035 C 
BRANCH  15  16
ATOM     16  C   UNL     1       2.786  32.219  -9.084  1.00  0.00     0.079 C 
BRANCH  16  17
ATOM     17  C   UNL     1       1.884  32.553 -10.238  1.00  0.00     0.130 C 
ATOM     18  O   UNL     1       2.183  32.190 -11.367  1.00  0.00    -0.300 OA
ATOM     19  C   UNL     1       0.632  33.349 -10.019  1.00  0.00     0.087 C 
ENDBRANCH  16  17
ENDBRANCH  15  16
ENDBRANCH  13  15
ENDBRANCH  11  12
ENDBRANCH   1  11
TORSDOF 9
ENDMDL
MODEL 9
REMARK VINA RESULT:    -5.741     16.475     19.438
REMARK INTER + INTRA:          -9.649
REMARK INTER:                  -8.286
REMARK INTRA:                  -1.363
REMARK UNBOUND:                -0.888
REMARK SMILES CC(=O)CCC=C(C)CCC=C(C)CCC=C(C)C
REMARK SMILES IDX 10 1 11 2 12 3 13 4 14 5 15 6 16 7 18 8 17 9 19 10 9 11 7 12
REMARK SMILES IDX 6 13 8 14 5 15 4 16 2 17 3 18 1 19
REMARK H PARENT
REMARK Flexibility Score: inf
ROOT
ATOM      1  C   UNL     1       7.798  30.627 -10.728  1.00  0.00     0.032 C 
ENDROOT
BRANCH   1   2
ATOM      2  C   UNL     1       9.046  29.778 -10.747  1.00  0.00    -0.028 C 
ATOM      3  C   UNL     1      10.185  30.106 -10.097  1.00  0.00    -0.077 C 
ATOM      4  C   UNL     1      11.360  29.167 -10.183  1.00  0.00     0.039 C 
BRANCH   3   5
ATOM      5  C   UNL     1      10.309  31.349  -9.237  1.00  0.00     0.034 C 
BRANCH   5   6
ATOM      6  C   UNL     1      11.178  32.402  -9.931  1.00  0.00     0.032 C 
BRANCH   6   7
ATOM      7  C   UNL     1      10.345  33.586 -10.355  1.00  0.00    -0.028 C 
ATOM      8  C   UNL     1      10.234  32.856 -12.747  1.00  0.00     0.039 C 
ATOM      9  C   UNL     1       9.892  33.791 -11.611  1.00  0.00    -0.080 C 
ATOM     10  C   UNL     1       9.034  35.002 -11.877  1.00  0.00     0.039 C 
ENDBRANCH   6   7
ENDBRANCH   5   6
ENDBRANCH   3   5
ENDBRANCH   1   2
BRANCH   1  11
ATOM     11  C   UNL     1       6.785  30.101  -9.703  1.00  0.00     0.034 C 
BRANCH  11  12
ATOM     12  C   UNL     1       5.378  30.161 -10.257  1.00  0.00    -0.077 C 
ATOM     13  C   UNL     1       4.425  30.824  -9.560  1.00  0.00    -0.028 C 
ATOM     14  C   UNL     1       5.071  29.470 -11.565  1.00  0.00     0.039 C 
BRANCH  13  15
ATOM     15  C   UNL     1       2.996  30.991 -10.012  1.00  0.00     0.035 C 
BRANCH  15  16
ATOM     16  C   UNL     1       2.484  32.397  -9.687  1.00  0.00     0.079 C 
BRANCH  16  17
ATOM     17  C   UNL     1       1.380  32.795 -10.627  1.00  0.00     0.130 C 
ATOM     18  O   UNL     1       1.609  32.893 -11.824  1.00  0.00    -0.300 OA
ATOM     19  C   UNL     1       0.007  33.095 -10.104  1.00  0.00     0.087 C 
ENDBRANCH  16  17
ENDBRANCH  15  16
ENDBRANCH  13  15
ENDBRANCH  11  12
ENDBRANCH   1  11
TORSDOF 9
ENDMDL
