MODEL 1
REMARK VINA RESULT:    -3.700      0.000      0.000
REMARK INTER + INTRA:          -6.419
REMARK INTER:                  -5.863
REMARK INTRA:                  -0.556
REMARK UNBOUND:                -0.556
REMARK SMILES CCCCCCCCCCCC(=O)[O-]
REMARK SMILES IDX 7 1 8 2 9 3 10 4 11 5 12 6 13 7 14 8 6 9 5 10 4 11 3 12 2 13
REMARK SMILES IDX 1 14
REMARK H PARENT
REMARK Flexibility Score: inf
ROOT
ATOM      1  C   UNL     1      61.353  31.577  60.537  1.00  0.00     0.000 C 
ENDROOT
BRANCH   1   2
ATOM      2  C   UNL     1      62.465  32.608  60.245  1.00  0.00     0.000 C 
BRANCH   2   3
ATOM      3  C   UNL     1      61.906  34.002  59.928  1.00  0.00     0.000 C 
BRANCH   3   4
ATOM      4  C   UNL     1      62.857  35.101  60.416  1.00  0.00     0.006 C 
BRANCH   4   5
ATOM      5  C   UNL     1      64.183  34.506  60.899  1.00  0.00     0.053 C 
BRANCH   5   6
ATOM      6  C   UNL     1      65.161  35.593  61.214  1.00  0.00     0.041 C 
ATOM      7  O   UNL     1      66.277  35.631  60.632  1.00  0.00    -0.550 OA
ATOM      8  O   UNL     1      64.861  36.537  62.189  1.00  0.00    -0.550 OA
ENDBRANCH   5   6
ENDBRANCH   4   5
ENDBRANCH   3   4
ENDBRANCH   2   3
ENDBRANCH   1   2
BRANCH   1   9
ATOM      9  C   UNL     1      61.815  30.399  61.415  1.00  0.00     0.000 C 
BRANCH   9  10
ATOM     10  C   UNL     1      63.304  30.028  61.270  1.00  0.00    -0.000 C 
BRANCH  10  11
ATOM     11  C   UNL     1      63.570  28.610  60.725  1.00  0.00    -0.000 C 
BRANCH  11  12
ATOM     12  C   UNL     1      62.344  27.675  60.700  1.00  0.00    -0.000 C 
BRANCH  12  13
ATOM     13  C   UNL     1      62.606  26.248  61.214  1.00  0.00    -0.003 C 
ATOM     14  C   UNL     1      61.723  25.873  62.404  1.00  0.00     0.004 C 
ENDBRANCH  12  13
ENDBRANCH  11  12
ENDBRANCH  10  11
ENDBRANCH   9  10
ENDBRANCH   1   9
TORSDOF 10
ENDMDL
MODEL 2
REMARK VINA RESULT:    -3.680     12.507     13.714
REMARK INTER + INTRA:          -6.388
REMARK INTER:                  -5.210
REMARK INTRA:                  -1.178
REMARK UNBOUND:                -0.556
REMARK SMILES CCCCCCCCCCCC(=O)[O-]
REMARK SMILES IDX 7 1 8 2 9 3 10 4 11 5 12 6 13 7 14 8 6 9 5 10 4 11 3 12 2 13
REMARK SMILES IDX 1 14
REMARK H PARENT
REMARK Flexibility Score: inf
ROOT
ATOM      1  C   UNL     1      56.985  26.298  51.325  1.00  0.00     0.000 C 
ENDROOT
BRANCH   1   2
ATOM      2  C   UNL     1      57.807  26.132  50.029  1.00  0.00     0.000 C 
BRANCH   2   3
ATOM      3  C   UNL     1      59.317  26.061  50.295  1.00  0.00     0.000 C 
BRANCH   3   4
ATOM      4  C   UNL     1      60.110  26.705  49.152  1.00  0.00     0.006 C 
BRANCH   4   5
ATOM      5  C   UNL     1      60.810  27.984  49.620  1.00  0.00     0.053 C 
BRANCH   5   6
ATOM      6  C   UNL     1      59.831  29.111  49.717  1.00  0.00     0.041 C 
ATOM      7  O   UNL     1      59.367  29.641  48.672  1.00  0.00    -0.550 OA
ATOM      8  O   UNL     1      59.470  29.613  50.961  1.00  0.00    -0.550 OA
ENDBRANCH   5   6
ENDBRANCH   4   5
ENDBRANCH   3   4
ENDBRANCH   2   3
ENDBRANCH   1   2
BRANCH   1   9
ATOM      9  C   UNL     1      56.512  27.742  51.577  1.00  0.00     0.000 C 
BRANCH   9  10
ATOM     10  C   UNL     1      56.060  28.506  50.317  1.00  0.00    -0.000 C 
BRANCH  10  11
ATOM     11  C   UNL     1      54.563  28.876  50.282  1.00  0.00    -0.000 C 
BRANCH  11  12
ATOM     12  C   UNL     1      53.692  28.000  49.359  1.00  0.00    -0.000 C 
BRANCH  12  13
ATOM     13  C   UNL     1      53.562  26.529  49.794  1.00  0.00    -0.003 C 
ATOM     14  C   UNL     1      54.270  25.564  48.845  1.00  0.00     0.004 C 
ENDBRANCH  12  13
ENDBRANCH  11  12
ENDBRANCH  10  11
ENDBRANCH   9  10
ENDBRANCH   1   9
TORSDOF 10
ENDMDL
MODEL 3
REMARK VINA RESULT:    -3.663     12.789     14.354
REMARK INTER + INTRA:          -6.360
REMARK INTER:                  -4.805
REMARK INTRA:                  -1.556
REMARK UNBOUND:                -0.556
REMARK SMILES CCCCCCCCCCCC(=O)[O-]
REMARK SMILES IDX 7 1 8 2 9 3 10 4 11 5 12 6 13 7 14 8 6 9 5 10 4 11 3 12 2 13
REMARK SMILES IDX 1 14
REMARK H PARENT
REMARK Flexibility Score: inf
ROOT
ATOM      1  C   UNL     1      59.870  25.024  50.431  1.00  0.00     0.000 C 
ENDROOT
BRANCH   1   2
ATOM      2  C   UNL     1      59.101  25.836  51.495  1.00  0.00     0.000 C 
BRANCH   2   3
ATOM      3  C   UNL     1      57.580  25.774  51.296  1.00  0.00     0.000 C 
BRANCH   3   4
ATOM      4  C   UNL     1      57.191  26.207  49.877  1.00  0.00     0.006 C 
BRANCH   4   5
ATOM      5  C   UNL     1      55.815  26.879  49.865  1.00  0.00     0.053 C 
BRANCH   5   6
ATOM      6  C   UNL     1      54.740  25.866  49.625  1.00  0.00     0.041 C 
ATOM      7  O   UNL     1      54.412  25.554  48.450  1.00  0.00    -0.550 OA
ATOM      8  O   UNL     1      54.064  25.304  50.700  1.00  0.00    -0.550 OA
ENDBRANCH   5   6
ENDBRANCH   4   5
ENDBRANCH   3   4
ENDBRANCH   2   3
ENDBRANCH   1   2
BRANCH   1   9
ATOM      9  C   UNL     1      60.910  25.852  49.652  1.00  0.00     0.000 C 
BRANCH   9  10
ATOM     10  C   UNL     1      60.889  27.364  49.949  1.00  0.00    -0.000 C 
BRANCH  10  11
ATOM     11  C   UNL     1      60.231  28.232  48.857  1.00  0.00    -0.000 C 
BRANCH  11  12
ATOM     12  C   UNL     1      59.243  29.298  49.373  1.00  0.00    -0.000 C 
BRANCH  12  13
ATOM     13  C   UNL     1      59.306  29.561  50.888  1.00  0.00    -0.003 C 
ATOM     14  C   UNL     1      57.934  29.501  51.559  1.00  0.00     0.004 C 
ENDBRANCH  12  13
ENDBRANCH  11  12
ENDBRANCH  10  11
ENDBRANCH   9  10
ENDBRANCH   1   9
TORSDOF 10
ENDMDL
MODEL 4
REMARK VINA RESULT:    -3.660     12.189     13.224
REMARK INTER + INTRA:          -6.355
REMARK INTER:                  -5.171
REMARK INTRA:                  -1.185
REMARK UNBOUND:                -0.556
REMARK SMILES CCCCCCCCCCCC(=O)[O-]
REMARK SMILES IDX 7 1 8 2 9 3 10 4 11 5 12 6 13 7 14 8 6 9 5 10 4 11 3 12 2 13
REMARK SMILES IDX 1 14
REMARK H PARENT
REMARK Flexibility Score: inf
ROOT
ATOM      1  C   UNL     1      57.201  28.178  52.211  1.00  0.00     0.000 C 
ENDROOT
BRANCH   1   2
ATOM      2  C   UNL     1      58.703  28.435  52.464  1.00  0.00     0.000 C 
BRANCH   2   3
ATOM      3  C   UNL     1      59.323  29.371  51.417  1.00  0.00     0.000 C 
BRANCH   3   4
ATOM      4  C   UNL     1      58.602  29.246  50.069  1.00  0.00     0.006 C 
BRANCH   4   5
ATOM      5  C   UNL     1      59.606  29.146  48.917  1.00  0.00     0.053 C 
BRANCH   5   6
ATOM      6  C   UNL     1      60.505  27.966  49.106  1.00  0.00     0.041 C 
ATOM      7  O   UNL     1      61.751  28.127  49.204  1.00  0.00    -0.550 OA
ATOM      8  O   UNL     1      59.974  26.683  49.122  1.00  0.00    -0.550 OA
ENDBRANCH   5   6
ENDBRANCH   4   5
ENDBRANCH   3   4
ENDBRANCH   2   3
ENDBRANCH   1   2
BRANCH   1   9
ATOM      9  C   UNL     1      56.809  26.690  52.272  1.00  0.00     0.000 C 
BRANCH   9  10
ATOM     10  C   UNL     1      57.138  25.880  51.004  1.00  0.00    -0.000 C 
BRANCH  10  11
ATOM     11  C   UNL     1      56.521  26.431  49.702  1.00  0.00    -0.000 C 
BRANCH  11  12
ATOM     12  C   UNL     1      55.146  25.841  49.326  1.00  0.00    -0.000 C 
BRANCH  12  13
ATOM     13  C   UNL     1      53.992  26.858  49.293  1.00  0.00    -0.003 C 
ATOM     14  C   UNL     1      54.412  28.250  49.762  1.00  0.00     0.004 C 
ENDBRANCH  12  13
ENDBRANCH  11  12
ENDBRANCH  10  11
ENDBRANCH   9  10
ENDBRANCH   1   9
TORSDOF 10
ENDMDL
MODEL 5
REMARK VINA RESULT:    -3.652      3.655      6.972
REMARK INTER + INTRA:          -6.343
REMARK INTER:                  -5.407
REMARK INTRA:                  -0.936
REMARK UNBOUND:                -0.556
REMARK SMILES CCCCCCCCCCCC(=O)[O-]
REMARK SMILES IDX 7 1 8 2 9 3 10 4 11 5 12 6 13 7 14 8 6 9 5 10 4 11 3 12 2 13
REMARK SMILES IDX 1 14
REMARK H PARENT
REMARK Flexibility Score: inf
ROOT
ATOM      1  C   UNL     1      61.893  31.666  59.251  1.00  0.00     0.000 C 
ENDROOT
BRANCH   1   2
ATOM      2  C   UNL     1      61.050  31.627  60.545  1.00  0.00     0.000 C 
BRANCH   2   3
ATOM      3  C   UNL     1      61.575  30.600  61.558  1.00  0.00     0.000 C 
BRANCH   3   4
ATOM      4  C   UNL     1      62.875  29.954  61.065  1.00  0.00     0.006 C 
BRANCH   4   5
ATOM      5  C   UNL     1      62.771  28.427  61.080  1.00  0.00     0.053 C 
BRANCH   5   6
ATOM      6  C   UNL     1      61.747  27.962  60.094  1.00  0.00     0.041 C 
ATOM      7  O   UNL     1      61.927  28.140  58.860  1.00  0.00    -0.550 OA
ATOM      8  O   UNL     1      60.568  27.377  60.539  1.00  0.00    -0.550 OA
ENDBRANCH   5   6
ENDBRANCH   4   5
ENDBRANCH   3   4
ENDBRANCH   2   3
ENDBRANCH   1   2
BRANCH   1   9
ATOM      9  C   UNL     1      62.357  33.080  58.856  1.00  0.00     0.000 C 
BRANCH   9  10
ATOM     10  C   UNL     1      61.752  34.220  59.699  1.00  0.00    -0.000 C 
BRANCH  10  11
ATOM     11  C   UNL     1      62.775  35.043  60.508  1.00  0.00    -0.000 C 
BRANCH  11  12
ATOM     12  C   UNL     1      64.135  34.355  60.741  1.00  0.00    -0.000 C 
BRANCH  12  13
ATOM     13  C   UNL     1      65.270  35.295  61.183  1.00  0.00    -0.003 C 
ATOM     14  C   UNL     1      64.761  36.637  61.706  1.00  0.00     0.004 C 
ENDBRANCH  12  13
ENDBRANCH  11  12
ENDBRANCH  10  11
ENDBRANCH   9  10
ENDBRANCH   1   9
TORSDOF 10
ENDMDL
MODEL 6
REMARK VINA RESULT:    -3.645      3.716      6.936
REMARK INTER + INTRA:          -6.332
REMARK INTER:                  -5.148
REMARK INTRA:                  -1.183
REMARK UNBOUND:                -0.556
REMARK SMILES CCCCCCCCCCCC(=O)[O-]
REMARK SMILES IDX 7 1 8 2 9 3 10 4 11 5 12 6 13 7 14 8 6 9 5 10 4 11 3 12 2 13
REMARK SMILES IDX 1 14
REMARK H PARENT
REMARK Flexibility Score: inf
ROOT
ATOM      1  C   UNL     1      62.614  31.695  59.279  1.00  0.00     0.000 C 
ENDROOT
BRANCH   1   2
ATOM      2  C   UNL     1      61.488  31.896  60.316  1.00  0.00     0.000 C 
BRANCH   2   3
ATOM      3  C   UNL     1      61.472  30.796  61.387  1.00  0.00     0.000 C 
BRANCH   3   4
ATOM      4  C   UNL     1      62.696  29.881  61.256  1.00  0.00     0.006 C 
BRANCH   4   5
ATOM      5  C   UNL     1      62.281  28.407  61.253  1.00  0.00     0.053 C 
BRANCH   5   6
ATOM      6  C   UNL     1      61.336  28.130  60.127  1.00  0.00     0.041 C 
ATOM      7  O   UNL     1      60.183  27.682  60.362  1.00  0.00    -0.550 OA
ATOM      8  O   UNL     1      61.746  28.319  58.813  1.00  0.00    -0.550 OA
ENDBRANCH   5   6
ENDBRANCH   4   5
ENDBRANCH   3   4
ENDBRANCH   2   3
ENDBRANCH   1   2
BRANCH   1   9
ATOM      9  C   UNL     1      63.587  32.885  59.183  1.00  0.00     0.000 C 
BRANCH   9  10
ATOM     10  C   UNL     1      64.473  33.100  60.425  1.00  0.00    -0.000 C 
BRANCH  10  11
ATOM     11  C   UNL     1      64.445  34.530  61.004  1.00  0.00    -0.000 C 
BRANCH  11  12
ATOM     12  C   UNL     1      63.737  35.580  60.125  1.00  0.00    -0.000 C 
BRANCH  12  13
ATOM     13  C   UNL     1      62.446  36.163  60.725  1.00  0.00    -0.003 C 
ATOM     14  C   UNL     1      61.185  35.664  60.022  1.00  0.00     0.004 C 
ENDBRANCH  12  13
ENDBRANCH  11  12
ENDBRANCH  10  11
ENDBRANCH   9  10
ENDBRANCH   1   9
TORSDOF 10
ENDMDL
MODEL 7
REMARK VINA RESULT:    -3.606      1.943      3.427
REMARK INTER + INTRA:          -6.270
REMARK INTER:                  -4.648
REMARK INTRA:                  -1.622
REMARK UNBOUND:                -0.556
REMARK SMILES CCCCCCCCCCCC(=O)[O-]
REMARK SMILES IDX 7 1 8 2 9 3 10 4 11 5 12 6 13 7 14 8 6 9 5 10 4 11 3 12 2 13
REMARK SMILES IDX 1 14
REMARK H PARENT
REMARK Flexibility Score: inf
ROOT
ATOM      1  C   UNL     1      65.043  30.736  59.993  1.00  0.00     0.000 C 
ENDROOT
BRANCH   1   2
ATOM      2  C   UNL     1      64.792  31.456  58.650  1.00  0.00     0.000 C 
BRANCH   2   3
ATOM      3  C   UNL     1      64.644  32.975  58.816  1.00  0.00     0.000 C 
BRANCH   3   4
ATOM      4  C   UNL     1      64.406  33.349  60.284  1.00  0.00     0.006 C 
BRANCH   4   5
ATOM      5  C   UNL     1      63.377  34.476  60.404  1.00  0.00     0.053 C 
BRANCH   5   6
ATOM      6  C   UNL     1      63.967  35.650  61.120  1.00  0.00     0.041 C 
ATOM      7  O   UNL     1      63.346  36.744  61.165  1.00  0.00    -0.550 OA
ATOM      8  O   UNL     1      65.228  35.551  61.695  1.00  0.00    -0.550 OA
ENDBRANCH   5   6
ENDBRANCH   4   5
ENDBRANCH   3   4
ENDBRANCH   2   3
ENDBRANCH   1   2
BRANCH   1   9
ATOM      9  C   UNL     1      64.046  29.597  60.281  1.00  0.00     0.000 C 
BRANCH   9  10
ATOM     10  C   UNL     1      62.990  29.916  61.357  1.00  0.00    -0.000 C 
BRANCH  10  11
ATOM     11  C   UNL     1      61.553  30.089  60.826  1.00  0.00    -0.000 C 
BRANCH  11  12
ATOM     12  C   UNL     1      61.119  31.547  60.569  1.00  0.00    -0.000 C 
BRANCH  12  13
ATOM     13  C   UNL     1      60.995  31.935  59.085  1.00  0.00    -0.003 C 
ATOM     14  C   UNL     1      61.170  30.745  58.143  1.00  0.00     0.004 C 
ENDBRANCH  12  13
ENDBRANCH  11  12
ENDBRANCH  10  11
ENDBRANCH   9  10
ENDBRANCH   1   9
TORSDOF 10
ENDMDL
MODEL 8
REMARK VINA RESULT:    -3.596     13.036     14.236
REMARK INTER + INTRA:          -6.254
REMARK INTER:                  -4.816
REMARK INTRA:                  -1.438
REMARK UNBOUND:                -0.556
REMARK SMILES CCCCCCCCCCCC(=O)[O-]
REMARK SMILES IDX 7 1 8 2 9 3 10 4 11 5 12 6 13 7 14 8 6 9 5 10 4 11 3 12 2 13
REMARK SMILES IDX 1 14
REMARK H PARENT
REMARK Flexibility Score: inf
ROOT
ATOM      1  C   UNL     1      58.473  29.043  51.068  1.00  0.00     0.000 C 
ENDROOT
BRANCH   1   2
ATOM      2  C   UNL     1      57.209  28.215  51.386  1.00  0.00     0.000 C 
BRANCH   2   3
ATOM      3  C   UNL     1      56.406  27.862  50.125  1.00  0.00     0.000 C 
BRANCH   3   4
ATOM      4  C   UNL     1      56.278  26.343  49.962  1.00  0.00     0.006 C 
BRANCH   4   5
ATOM      5  C   UNL     1      55.088  25.984  49.067  1.00  0.00     0.053 C 
BRANCH   5   6
ATOM      6  C   UNL     1      53.811  26.477  49.672  1.00  0.00     0.041 C 
ATOM      7  O   UNL     1      53.391  25.987  50.754  1.00  0.00    -0.550 OA
ATOM      8  O   UNL     1      53.057  27.441  49.014  1.00  0.00    -0.550 OA
ENDBRANCH   5   6
ENDBRANCH   4   5
ENDBRANCH   3   4
ENDBRANCH   2   3
ENDBRANCH   1   2
BRANCH   1   9
ATOM      9  C   UNL     1      58.737  29.217  49.561  1.00  0.00     0.000 C 
BRANCH   9  10
ATOM     10  C   UNL     1      60.144  28.795  49.096  1.00  0.00    -0.000 C 
BRANCH  10  11
ATOM     11  C   UNL     1      60.672  27.489  49.724  1.00  0.00    -0.000 C 
BRANCH  11  12
ATOM     12  C   UNL     1      59.930  26.207  49.293  1.00  0.00    -0.000 C 
BRANCH  12  13
ATOM     13  C   UNL     1      59.705  25.180  50.417  1.00  0.00    -0.003 C 
ATOM     14  C   UNL     1      60.022  25.737  51.804  1.00  0.00     0.004 C 
ENDBRANCH  12  13
ENDBRANCH  11  12
ENDBRANCH  10  11
ENDBRANCH   9  10
ENDBRANCH   1   9
TORSDOF 10
ENDMDL
MODEL 9
REMARK VINA RESULT:    -3.587     12.761     13.808
REMARK INTER + INTRA:          -6.241
REMARK INTER:                  -5.503
REMARK INTRA:                  -0.738
REMARK UNBOUND:                -0.556
REMARK SMILES CCCCCCCCCCCC(=O)[O-]
REMARK SMILES IDX 7 1 8 2 9 3 10 4 11 5 12 6 13 7 14 8 6 9 5 10 4 11 3 12 2 13
REMARK SMILES IDX 1 14
REMARK H PARENT
REMARK Flexibility Score: inf
ROOT
ATOM      1  C   UNL     1      56.686  28.920  50.921  1.00  0.00     0.000 C 
ENDROOT
BRANCH   1   2
ATOM      2  C   UNL     1      58.152  28.460  50.758  1.00  0.00     0.000 C 
BRANCH   2   3
ATOM      3  C   UNL     1      58.881  29.205  49.632  1.00  0.00     0.000 C 
BRANCH   3   4
ATOM      4  C   UNL     1      60.004  28.346  49.039  1.00  0.00     0.006 C 
BRANCH   4   5
ATOM      5  C   UNL     1      59.792  26.865  49.363  1.00  0.00     0.053 C 
BRANCH   5   6
ATOM      6  C   UNL     1      61.106  26.181  49.574  1.00  0.00     0.041 C 
ATOM      7  O   UNL     1      62.178  26.843  49.545  1.00  0.00    -0.550 OA
ATOM      8  O   UNL     1      61.153  24.804  49.751  1.00  0.00    -0.550 OA
ENDBRANCH   5   6
ENDBRANCH   4   5
ENDBRANCH   3   4
ENDBRANCH   2   3
ENDBRANCH   1   2
BRANCH   1   9
ATOM      9  C   UNL     1      55.684  28.100  50.087  1.00  0.00     0.000 C 
BRANCH   9  10
ATOM     10  C   UNL     1      56.062  26.619  49.891  1.00  0.00    -0.000 C 
BRANCH  10  11
ATOM     11  C   UNL     1      55.094  25.813  49.001  1.00  0.00    -0.000 C 
BRANCH  11  12
ATOM     12  C   UNL     1      54.033  24.992  49.761  1.00  0.00    -0.000 C 
BRANCH  12  13
ATOM     13  C   UNL     1      54.154  25.038  51.294  1.00  0.00    -0.003 C 
ATOM     14  C   UNL     1      53.754  23.722  51.961  1.00  0.00     0.004 C 
ENDBRANCH  12  13
ENDBRANCH  11  12
ENDBRANCH  10  11
ENDBRANCH   9  10
ENDBRANCH   1   9
TORSDOF 10
ENDMDL
