MODEL 1
REMARK VINA RESULT:    -2.887      0.000      0.000
REMARK INTER + INTRA:          -3.660
REMARK INTER:                  -3.562
REMARK INTRA:                  -0.098
REMARK UNBOUND:                -0.098
REMARK SMILES CCCCCC(=O)[O-]
REMARK SMILES IDX 4 1 5 2 6 3 7 4 8 5 3 6 2 7 1 8
REMARK H PARENT
REMARK Flexibility Score: inf
ROOT
ATOM      1  C   UNL     1       8.796 -21.247  14.499  1.00  0.00     0.006 C 
ENDROOT
BRANCH   1   2
ATOM      2  C   UNL     1       8.774 -19.765  14.114  1.00  0.00     0.053 C 
BRANCH   2   3
ATOM      3  C   UNL     1       8.699 -19.611  12.628  1.00  0.00     0.041 C 
ATOM      4  O   UNL     1       8.214 -20.530  11.919  1.00  0.00    -0.550 OA
ATOM      5  O   UNL     1       9.123 -18.430  12.030  1.00  0.00    -0.550 OA
ENDBRANCH   2   3
ENDBRANCH   1   2
BRANCH   1   6
ATOM      6  C   UNL     1       7.488 -21.657  15.186  1.00  0.00     0.000 C 
BRANCH   6   7
ATOM      7  C   UNL     1       7.701 -21.880  16.687  1.00  0.00    -0.003 C 
ATOM      8  C   UNL     1       6.488 -21.419  17.491  1.00  0.00     0.004 C 
ENDBRANCH   6   7
ENDBRANCH   1   6
TORSDOF 4
ENDMDL
MODEL 2
REMARK VINA RESULT:    -2.698     19.441     19.768
REMARK INTER + INTRA:          -3.427
REMARK INTER:                  -3.293
REMARK INTRA:                  -0.134
REMARK UNBOUND:                -0.098
REMARK SMILES CCCCCC(=O)[O-]
REMARK SMILES IDX 4 1 5 2 6 3 7 4 8 5 3 6 2 7 1 8
REMARK H PARENT
REMARK Flexibility Score: inf
ROOT
ATOM      1  C   UNL     1     -10.399 -20.250  21.597  1.00  0.00     0.006 C 
ENDROOT
BRANCH   1   2
ATOM      2  C   UNL     1     -10.294 -19.296  22.790  1.00  0.00     0.053 C 
BRANCH   2   3
ATOM      3  C   UNL     1      -9.683 -17.997  22.368  1.00  0.00     0.041 C 
ATOM      4  O   UNL     1      -9.868 -17.558  21.204  1.00  0.00    -0.550 OA
ATOM      5  O   UNL     1      -8.946 -17.248  23.278  1.00  0.00    -0.550 OA
ENDBRANCH   2   3
ENDBRANCH   1   2
BRANCH   1   6
ATOM      6  C   UNL     1      -9.868 -21.643  21.958  1.00  0.00     0.000 C 
BRANCH   6   7
ATOM      7  C   UNL     1      -9.003 -21.593  23.222  1.00  0.00    -0.003 C 
ATOM      8  C   UNL     1      -9.073 -22.909  23.992  1.00  0.00     0.004 C 
ENDBRANCH   6   7
ENDBRANCH   1   6
TORSDOF 4
ENDMDL
MODEL 3
REMARK VINA RESULT:    -2.655     18.618     19.360
REMARK INTER + INTRA:          -3.374
REMARK INTER:                  -3.262
REMARK INTRA:                  -0.112
REMARK UNBOUND:                -0.098
REMARK SMILES CCCCCC(=O)[O-]
REMARK SMILES IDX 4 1 5 2 6 3 7 4 8 5 3 6 2 7 1 8
REMARK H PARENT
REMARK Flexibility Score: inf
ROOT
ATOM      1  C   UNL     1     -10.998 -18.829  20.064  1.00  0.00     0.006 C 
ENDROOT
BRANCH   1   2
ATOM      2  C   UNL     1     -10.450 -20.249  20.231  1.00  0.00     0.053 C 
BRANCH   2   3
ATOM      3  C   UNL     1      -9.962 -20.780  18.920  1.00  0.00     0.041 C 
ATOM      4  O   UNL     1      -8.943 -21.516  18.875  1.00  0.00    -0.550 OA
ATOM      5  O   UNL     1     -10.662 -20.499  17.753  1.00  0.00    -0.550 OA
ENDBRANCH   2   3
ENDBRANCH   1   2
BRANCH   1   6
ATOM      6  C   UNL     1     -10.241 -17.838  20.957  1.00  0.00     0.000 C 
BRANCH   6   7
ATOM      7  C   UNL     1      -9.846 -18.487  22.288  1.00  0.00    -0.003 C 
ATOM      8  C   UNL     1      -9.036 -17.524  23.152  1.00  0.00     0.004 C 
ENDBRANCH   6   7
ENDBRANCH   1   6
TORSDOF 4
ENDMDL
MODEL 4
REMARK VINA RESULT:    -2.650     19.384     19.953
REMARK INTER + INTRA:          -3.368
REMARK INTER:                  -3.247
REMARK INTRA:                  -0.121
REMARK UNBOUND:                -0.098
REMARK SMILES CCCCCC(=O)[O-]
REMARK SMILES IDX 4 1 5 2 6 3 7 4 8 5 3 6 2 7 1 8
REMARK H PARENT
REMARK Flexibility Score: inf
ROOT
ATOM      1  C   UNL     1     -10.974 -18.911  22.889  1.00  0.00     0.006 C 
ENDROOT
BRANCH   1   2
ATOM      2  C   UNL     1      -9.933 -18.279  21.962  1.00  0.00     0.053 C 
BRANCH   2   3
ATOM      3  C   UNL     1     -10.378 -18.370  20.536  1.00  0.00     0.041 C 
ATOM      4  O   UNL     1     -11.005 -17.418  20.006  1.00  0.00    -0.550 OA
ATOM      5  O   UNL     1     -10.057 -19.490  19.779  1.00  0.00    -0.550 OA
ENDBRANCH   2   3
ENDBRANCH   1   2
BRANCH   1   6
ATOM      6  C   UNL     1     -10.764 -20.426  23.003  1.00  0.00     0.000 C 
BRANCH   6   7
ATOM      7  C   UNL     1      -9.271 -20.775  23.028  1.00  0.00    -0.003 C 
ATOM      8  C   UNL     1      -9.050 -22.222  23.459  1.00  0.00     0.004 C 
ENDBRANCH   6   7
ENDBRANCH   1   6
TORSDOF 4
ENDMDL
MODEL 5
REMARK VINA RESULT:    -2.617      2.084      2.749
REMARK INTER + INTRA:          -3.327
REMARK INTER:                  -3.149
REMARK INTRA:                  -0.178
REMARK UNBOUND:                -0.098
REMARK SMILES CCCCCC(=O)[O-]
REMARK SMILES IDX 4 1 5 2 6 3 7 4 8 5 3 6 2 7 1 8
REMARK H PARENT
REMARK Flexibility Score: inf
ROOT
ATOM      1  C   UNL     1       8.342 -22.060  14.489  1.00  0.00     0.006 C 
ENDROOT
BRANCH   1   2
ATOM      2  C   UNL     1       7.288 -23.066  14.019  1.00  0.00     0.053 C 
BRANCH   2   3
ATOM      3  C   UNL     1       6.248 -22.384  13.187  1.00  0.00     0.041 C 
ATOM      4  O   UNL     1       5.034 -22.686  13.318  1.00  0.00    -0.550 OA
ATOM      5  O   UNL     1       6.617 -21.381  12.300  1.00  0.00    -0.550 OA
ENDBRANCH   2   3
ENDBRANCH   1   2
BRANCH   1   6
ATOM      6  C   UNL     1       7.789 -21.159  15.600  1.00  0.00     0.000 C 
BRANCH   6   7
ATOM      7  C   UNL     1       7.503 -21.965  16.871  1.00  0.00    -0.003 C 
ATOM      8  C   UNL     1       6.192 -21.528  17.519  1.00  0.00     0.004 C 
ENDBRANCH   6   7
ENDBRANCH   1   6
TORSDOF 4
ENDMDL
MODEL 6
REMARK VINA RESULT:    -2.591     19.552     20.072
REMARK INTER + INTRA:          -3.296
REMARK INTER:                  -3.069
REMARK INTRA:                  -0.227
REMARK UNBOUND:                -0.098
REMARK SMILES CCCCCC(=O)[O-]
REMARK SMILES IDX 4 1 5 2 6 3 7 4 8 5 3 6 2 7 1 8
REMARK H PARENT
REMARK Flexibility Score: inf
ROOT
ATOM      1  C   UNL     1     -11.033 -18.746  20.462  1.00  0.00     0.006 C 
ENDROOT
BRANCH   1   2
ATOM      2  C   UNL     1     -10.006 -17.775  21.051  1.00  0.00     0.053 C 
BRANCH   2   3
ATOM      3  C   UNL     1      -9.865 -17.994  22.524  1.00  0.00     0.041 C 
ATOM      4  O   UNL     1      -9.033 -17.322  23.188  1.00  0.00    -0.550 OA
ATOM      5  O   UNL     1     -10.687 -18.907  23.173  1.00  0.00    -0.550 OA
ENDBRANCH   2   3
ENDBRANCH   1   2
BRANCH   1   6
ATOM      6  C   UNL     1     -10.342 -19.923  19.763  1.00  0.00     0.000 C 
BRANCH   6   7
ATOM      7  C   UNL     1     -10.888 -21.263  20.270  1.00  0.00    -0.003 C 
ATOM      8  C   UNL     1      -9.971 -21.867  21.329  1.00  0.00     0.004 C 
ENDBRANCH   6   7
ENDBRANCH   1   6
TORSDOF 4
ENDMDL
MODEL 7
REMARK VINA RESULT:    -2.537     19.627     20.429
REMARK INTER + INTRA:          -3.228
REMARK INTER:                  -3.071
REMARK INTRA:                  -0.157
REMARK UNBOUND:                -0.098
REMARK SMILES CCCCCC(=O)[O-]
REMARK SMILES IDX 4 1 5 2 6 3 7 4 8 5 3 6 2 7 1 8
REMARK H PARENT
REMARK Flexibility Score: inf
ROOT
ATOM      1  C   UNL     1     -10.813 -19.641  22.823  1.00  0.00     0.006 C 
ENDROOT
BRANCH   1   2
ATOM      2  C   UNL     1     -10.886 -21.166  22.708  1.00  0.00     0.053 C 
BRANCH   2   3
ATOM      3  C   UNL     1      -9.819 -21.805  23.539  1.00  0.00     0.041 C 
ATOM      4  O   UNL     1     -10.111 -22.721  24.351  1.00  0.00    -0.550 OA
ATOM      5  O   UNL     1      -8.493 -21.420  23.381  1.00  0.00    -0.550 OA
ENDBRANCH   2   3
ENDBRANCH   1   2
BRANCH   1   6
ATOM      6  C   UNL     1     -10.598 -18.994  21.448  1.00  0.00     0.000 C 
BRANCH   6   7
ATOM      7  C   UNL     1      -9.764 -17.714  21.566  1.00  0.00    -0.003 C 
ATOM      8  C   UNL     1      -9.184 -17.560  22.970  1.00  0.00     0.004 C 
ENDBRANCH   6   7
ENDBRANCH   1   6
TORSDOF 4
ENDMDL
MODEL 8
REMARK VINA RESULT:    -2.532      2.918      4.614
REMARK INTER + INTRA:          -3.222
REMARK INTER:                  -3.134
REMARK INTRA:                  -0.088
REMARK UNBOUND:                -0.098
REMARK SMILES CCCCCC(=O)[O-]
REMARK SMILES IDX 4 1 5 2 6 3 7 4 8 5 3 6 2 7 1 8
REMARK H PARENT
REMARK Flexibility Score: inf
ROOT
ATOM      1  C   UNL     1       8.080 -21.220  14.428  1.00  0.00     0.006 C 
ENDROOT
BRANCH   1   2
ATOM      2  C   UNL     1       8.141 -21.626  15.903  1.00  0.00     0.053 C 
BRANCH   2   3
ATOM      3  C   UNL     1       6.779 -21.994  16.402  1.00  0.00     0.041 C 
ATOM      4  O   UNL     1       6.418 -21.664  17.561  1.00  0.00    -0.550 OA
ATOM      5  O   UNL     1       5.892 -22.662  15.567  1.00  0.00    -0.550 OA
ENDBRANCH   2   3
ENDBRANCH   1   2
BRANCH   1   6
ATOM      6  C   UNL     1       8.758 -19.863  14.202  1.00  0.00     0.000 C 
BRANCH   6   7
ATOM      7  C   UNL     1       8.598 -19.403  12.748  1.00  0.00    -0.003 C 
ATOM      8  C   UNL     1       7.814 -20.424  11.929  1.00  0.00     0.004 C 
ENDBRANCH   6   7
ENDBRANCH   1   6
TORSDOF 4
ENDMDL
MODEL 9
REMARK VINA RESULT:    -2.355     19.309     19.942
REMARK INTER + INTRA:          -3.004
REMARK INTER:                  -2.765
REMARK INTRA:                  -0.238
REMARK UNBOUND:                -0.098
REMARK SMILES CCCCCC(=O)[O-]
REMARK SMILES IDX 4 1 5 2 6 3 7 4 8 5 3 6 2 7 1 8
REMARK H PARENT
REMARK Flexibility Score: inf
ROOT
ATOM      1  C   UNL     1      -9.941 -20.018  22.760  1.00  0.00     0.006 C 
ENDROOT
BRANCH   1   2
ATOM      2  C   UNL     1     -10.768 -21.060  22.000  1.00  0.00     0.053 C 
BRANCH   2   3
ATOM      3  C   UNL     1      -9.966 -21.652  20.884  1.00  0.00     0.041 C 
ATOM      4  O   UNL     1      -9.903 -21.069  19.771  1.00  0.00    -0.550 OA
ATOM      5  O   UNL     1      -9.250 -22.824  21.090  1.00  0.00    -0.550 OA
ENDBRANCH   2   3
ENDBRANCH   1   2
BRANCH   1   6
ATOM      6  C   UNL     1     -10.542 -18.616  22.602  1.00  0.00     0.000 C 
BRANCH   6   7
ATOM      7  C   UNL     1      -9.945 -17.894  21.389  1.00  0.00    -0.003 C 
ATOM      8  C   UNL     1     -10.979 -17.732  20.279  1.00  0.00     0.004 C 
ENDBRANCH   6   7
ENDBRANCH   1   6
TORSDOF 4
ENDMDL
