MODEL 1
REMARK VINA RESULT:    -3.113      0.000      0.000
REMARK INTER + INTRA:          -3.777
REMARK INTER:                  -3.659
REMARK INTRA:                  -0.118
REMARK UNBOUND:                -0.118
REMARK SMILES O=C([O-])CCC(=O)[O-]
REMARK SMILES IDX 4 1 2 2 1 3 3 4 5 5 6 6 7 7 8 8
REMARK H PARENT
REMARK Flexibility Score: inf
ROOT
ATOM      1  C   UNL     1       8.691 -17.769  25.474  1.00  0.00     0.059 C 
ENDROOT
BRANCH   1   2
ATOM      2  C   UNL     1       7.332 -18.397  25.430  1.00  0.00     0.042 C 
ATOM      3  O   UNL     1       7.004 -19.259  26.288  1.00  0.00    -0.550 OA
ATOM      4  O   UNL     1       6.442 -18.059  24.419  1.00  0.00    -0.550 OA
ENDBRANCH   1   2
BRANCH   1   5
ATOM      5  C   UNL     1       8.608 -16.255  25.700  1.00  0.00     0.059 C 
BRANCH   5   6
ATOM      6  C   UNL     1       8.925 -15.492  24.450  1.00  0.00     0.042 C 
ATOM      7  O   UNL     1      10.122 -15.246  24.146  1.00  0.00    -0.550 OA
ATOM      8  O   UNL     1       7.903 -15.089  23.602  1.00  0.00    -0.550 OA
ENDBRANCH   5   6
ENDBRANCH   1   5
TORSDOF 3
ENDMDL
MODEL 2
REMARK VINA RESULT:    -3.109      0.050      3.754
REMARK INTER + INTRA:          -3.773
REMARK INTER:                  -3.659
REMARK INTRA:                  -0.113
REMARK UNBOUND:                -0.118
REMARK SMILES O=C([O-])CCC(=O)[O-]
REMARK SMILES IDX 4 1 2 2 1 3 3 4 5 5 6 6 7 7 8 8
REMARK H PARENT
REMARK Flexibility Score: inf
ROOT
ATOM      1  C   UNL     1       8.614 -16.233  25.699  1.00  0.00     0.059 C 
ENDROOT
BRANCH   1   2
ATOM      2  C   UNL     1       8.935 -15.483  24.442  1.00  0.00     0.042 C 
ATOM      3  O   UNL     1      10.133 -15.242  24.136  1.00  0.00    -0.550 OA
ATOM      4  O   UNL     1       7.910 -15.016  23.630  1.00  0.00    -0.550 OA
ENDBRANCH   1   2
BRANCH   1   5
ATOM      5  C   UNL     1       8.703 -17.748  25.492  1.00  0.00     0.059 C 
BRANCH   5   6
ATOM      6  C   UNL     1       7.345 -18.380  25.447  1.00  0.00     0.042 C 
ATOM      7  O   UNL     1       7.020 -19.244  26.303  1.00  0.00    -0.550 OA
ATOM      8  O   UNL     1       6.425 -17.985  24.485  1.00  0.00    -0.550 OA
ENDBRANCH   5   6
ENDBRANCH   1   5
TORSDOF 3
ENDMDL
MODEL 3
REMARK VINA RESULT:    -3.056      1.762      3.816
REMARK INTER + INTRA:          -3.710
REMARK INTER:                  -3.563
REMARK INTRA:                  -0.147
REMARK UNBOUND:                -0.118
REMARK SMILES O=C([O-])CCC(=O)[O-]
REMARK SMILES IDX 4 1 2 2 1 3 3 4 5 5 6 6 7 7 8 8
REMARK H PARENT
REMARK Flexibility Score: inf
ROOT
ATOM      1  C   UNL     1       7.829 -15.379  23.440  1.00  0.00     0.059 C 
ENDROOT
BRANCH   1   2
ATOM      2  C   UNL     1       9.035 -15.396  24.330  1.00  0.00     0.042 C 
ATOM      3  O   UNL     1      10.168 -15.098  23.867  1.00  0.00    -0.550 OA
ATOM      4  O   UNL     1       8.913 -15.780  25.659  1.00  0.00    -0.550 OA
ENDBRANCH   1   2
BRANCH   1   5
ATOM      5  C   UNL     1       7.761 -16.629  22.558  1.00  0.00     0.059 C 
BRANCH   5   6
ATOM      6  C   UNL     1       7.533 -17.867  23.371  1.00  0.00     0.042 C 
ATOM      7  O   UNL     1       8.357 -18.818  23.319  1.00  0.00    -0.550 OA
ATOM      8  O   UNL     1       6.436 -17.953  24.217  1.00  0.00    -0.550 OA
ENDBRANCH   5   6
ENDBRANCH   1   5
TORSDOF 3
ENDMDL
MODEL 4
REMARK VINA RESULT:    -3.041      1.654      2.062
REMARK INTER + INTRA:          -3.693
REMARK INTER:                  -3.557
REMARK INTRA:                  -0.136
REMARK UNBOUND:                -0.118
REMARK SMILES O=C([O-])CCC(=O)[O-]
REMARK SMILES IDX 4 1 2 2 1 3 3 4 5 5 6 6 7 7 8 8
REMARK H PARENT
REMARK Flexibility Score: inf
ROOT
ATOM      1  C   UNL     1       7.770 -16.886  22.690  1.00  0.00     0.059 C 
ENDROOT
BRANCH   1   2
ATOM      2  C   UNL     1       7.454 -18.061  23.564  1.00  0.00     0.042 C 
ATOM      3  O   UNL     1       8.210 -19.069  23.569  1.00  0.00    -0.550 OA
ATOM      4  O   UNL     1       6.303 -18.061  24.341  1.00  0.00    -0.550 OA
ENDBRANCH   1   2
BRANCH   1   5
ATOM      5  C   UNL     1       7.761 -15.574  23.483  1.00  0.00     0.059 C 
BRANCH   5   6
ATOM      6  C   UNL     1       8.950 -15.468  24.388  1.00  0.00     0.042 C 
ATOM      7  O   UNL     1      10.047 -15.037  23.944  1.00  0.00    -0.550 OA
ATOM      8  O   UNL     1       8.836 -15.806  25.730  1.00  0.00    -0.550 OA
ENDBRANCH   5   6
ENDBRANCH   1   5
TORSDOF 3
ENDMDL
MODEL 5
REMARK VINA RESULT:    -3.031      1.884      3.681
REMARK INTER + INTRA:          -3.680
REMARK INTER:                  -3.518
REMARK INTRA:                  -0.162
REMARK UNBOUND:                -0.118
REMARK SMILES O=C([O-])CCC(=O)[O-]
REMARK SMILES IDX 4 1 2 2 1 3 3 4 5 5 6 6 7 7 8 8
REMARK H PARENT
REMARK Flexibility Score: inf
ROOT
ATOM      1  C   UNL     1       7.881 -15.169  23.620  1.00  0.00     0.059 C 
ENDROOT
BRANCH   1   2
ATOM      2  C   UNL     1       9.103 -15.416  24.450  1.00  0.00     0.042 C 
ATOM      3  O   UNL     1       8.992 -15.754  25.658  1.00  0.00    -0.550 OA
ATOM      4  O   UNL     1      10.366 -15.233  23.901  1.00  0.00    -0.550 OA
ENDBRANCH   1   2
BRANCH   1   5
ATOM      5  C   UNL     1       7.708 -16.238  22.536  1.00  0.00     0.059 C 
BRANCH   5   6
ATOM      6  C   UNL     1       7.561 -17.606  23.129  1.00  0.00     0.042 C 
ATOM      7  O   UNL     1       8.341 -18.533  22.783  1.00  0.00    -0.550 OA
ATOM      8  O   UNL     1       6.591 -17.847  24.093  1.00  0.00    -0.550 OA
ENDBRANCH   5   6
ENDBRANCH   1   5
TORSDOF 3
ENDMDL
MODEL 6
REMARK VINA RESULT:    -3.030      9.664     10.914
REMARK INTER + INTRA:          -3.679
REMARK INTER:                  -3.576
REMARK INTRA:                  -0.103
REMARK UNBOUND:                -0.118
REMARK SMILES O=C([O-])CCC(=O)[O-]
REMARK SMILES IDX 4 1 2 2 1 3 3 4 5 5 6 6 7 7 8 8
REMARK H PARENT
REMARK Flexibility Score: inf
ROOT
ATOM      1  C   UNL     1      17.581 -19.974  23.129  1.00  0.00     0.059 C 
ENDROOT
BRANCH   1   2
ATOM      2  C   UNL     1      19.060 -20.206  23.167  1.00  0.00     0.042 C 
ATOM      3  O   UNL     1      19.519 -21.318  23.541  1.00  0.00    -0.550 OA
ATOM      4  O   UNL     1      19.934 -19.180  22.829  1.00  0.00    -0.550 OA
ENDBRANCH   1   2
BRANCH   1   5
ATOM      5  C   UNL     1      16.804 -21.204  23.612  1.00  0.00     0.059 C 
BRANCH   5   6
ATOM      6  C   UNL     1      16.427 -21.086  25.057  1.00  0.00     0.042 C 
ATOM      7  O   UNL     1      17.094 -21.694  25.937  1.00  0.00    -0.550 OA
ATOM      8  O   UNL     1      15.368 -20.273  25.437  1.00  0.00    -0.550 OA
ENDBRANCH   5   6
ENDBRANCH   1   5
TORSDOF 3
ENDMDL
MODEL 7
REMARK VINA RESULT:    -2.998      2.333      3.638
REMARK INTER + INTRA:          -3.642
REMARK INTER:                  -3.551
REMARK INTRA:                  -0.092
REMARK UNBOUND:                -0.118
REMARK SMILES O=C([O-])CCC(=O)[O-]
REMARK SMILES IDX 4 1 2 2 1 3 3 4 5 5 6 6 7 7 8 8
REMARK H PARENT
REMARK Flexibility Score: inf
ROOT
ATOM      1  C   UNL     1      10.501 -15.647  23.785  1.00  0.00     0.059 C 
ENDROOT
BRANCH   1   2
ATOM      2  C   UNL     1      11.266 -16.666  24.573  1.00  0.00     0.042 C 
ATOM      3  O   UNL     1      12.308 -17.187  24.094  1.00  0.00    -0.550 OA
ATOM      4  O   UNL     1      10.805 -17.071  25.819  1.00  0.00    -0.550 OA
ENDBRANCH   1   2
BRANCH   1   5
ATOM      5  C   UNL     1       9.201 -15.247  24.490  1.00  0.00     0.059 C 
BRANCH   5   6
ATOM      6  C   UNL     1       7.996 -15.654  23.699  1.00  0.00     0.042 C 
ATOM      7  O   UNL     1       7.431 -14.826  22.936  1.00  0.00    -0.550 OA
ATOM      8  O   UNL     1       7.522 -16.957  23.771  1.00  0.00    -0.550 OA
ENDBRANCH   5   6
ENDBRANCH   1   5
TORSDOF 3
ENDMDL
MODEL 8
REMARK VINA RESULT:    -2.984      2.549      3.791
REMARK INTER + INTRA:          -3.625
REMARK INTER:                  -3.524
REMARK INTRA:                  -0.101
REMARK UNBOUND:                -0.118
REMARK SMILES O=C([O-])CCC(=O)[O-]
REMARK SMILES IDX 4 1 2 2 1 3 3 4 5 5 6 6 7 7 8 8
REMARK H PARENT
REMARK Flexibility Score: inf
ROOT
ATOM      1  C   UNL     1       7.562 -16.283  23.687  1.00  0.00     0.059 C 
ENDROOT
BRANCH   1   2
ATOM      2  C   UNL     1       8.686 -15.748  24.520  1.00  0.00     0.042 C 
ATOM      3  O   UNL     1       8.702 -15.943  25.765  1.00  0.00    -0.550 OA
ATOM      4  O   UNL     1       9.695 -14.997  23.929  1.00  0.00    -0.550 OA
ENDBRANCH   1   2
BRANCH   1   5
ATOM      5  C   UNL     1       7.162 -15.301  22.580  1.00  0.00     0.059 C 
BRANCH   5   6
ATOM      6  C   UNL     1       7.270 -15.926  21.223  1.00  0.00     0.042 C 
ATOM      7  O   UNL     1       6.525 -15.535  20.286  1.00  0.00    -0.550 OA
ATOM      8  O   UNL     1       8.218 -16.910  20.982  1.00  0.00    -0.550 OA
ENDBRANCH   5   6
ENDBRANCH   1   5
TORSDOF 3
ENDMDL
MODEL 9
REMARK VINA RESULT:    -2.974      2.595      3.857
REMARK INTER + INTRA:          -3.613
REMARK INTER:                  -3.524
REMARK INTRA:                  -0.089
REMARK UNBOUND:                -0.118
REMARK SMILES O=C([O-])CCC(=O)[O-]
REMARK SMILES IDX 4 1 2 2 1 3 3 4 5 5 6 6 7 7 8 8
REMARK H PARENT
REMARK Flexibility Score: inf
ROOT
ATOM      1  C   UNL     1       7.144 -15.335  22.546  1.00  0.00     0.059 C 
ENDROOT
BRANCH   1   2
ATOM      2  C   UNL     1       7.206 -15.964  21.187  1.00  0.00     0.042 C 
ATOM      3  O   UNL     1       6.525 -15.492  20.239  1.00  0.00    -0.550 OA
ATOM      4  O   UNL     1       7.983 -17.096  20.979  1.00  0.00    -0.550 OA
ENDBRANCH   1   2
BRANCH   1   5
ATOM      5  C   UNL     1       7.603 -16.307  23.639  1.00  0.00     0.059 C 
BRANCH   5   6
ATOM      6  C   UNL     1       8.693 -15.717  24.480  1.00  0.00     0.042 C 
ATOM      7  O   UNL     1       9.600 -15.024  23.945  1.00  0.00    -0.550 OA
ATOM      8  O   UNL     1       8.687 -15.896  25.856  1.00  0.00    -0.550 OA
ENDBRANCH   5   6
ENDBRANCH   1   5
TORSDOF 3
ENDMDL
