MODEL 1
REMARK VINA RESULT:   130.506      0.000      0.000
REMARK INTER + INTRA:         206.408
REMARK INTER:                 206.799
REMARK INTRA:                  -0.391
REMARK UNBOUND:                -0.391
REMARK SMILES C[C@@H]1O[C@H](O[C@H]2CC[C@@]3(C)[C@@H](CC[C@@]4(C)[C@@H]3C=C[C@]35OC[C@@]6(CCC(C)(C)C[C@@H]63)[C@@H](O)C[C@@]45C)[C@@]2(C)CO)[C@H](O)[C@H](O[C@H]2O[C@@H](CO)[C@H](O)[C@H](O)[C@@H]2O)[C@@H]1O
REMARK SMILES IDX 1 1 2 2 54 3 41 4 39 5 4 6 3 7 55 8 42 10 43 11 52 12 44 13
REMARK SMILES IDX 50 14 45 15 48 16 53 17 51 19 46 21 47 22 49 24 5 26 6 27
REMARK SMILES IDX 7 28 35 29 8 30 11 31 36 32 9 33 12 34 10 35 16 36 13 37
REMARK SMILES IDX 14 38 17 39 15 40 33 41 18 42 19 43 32 44 34 45 29 46 20 47
REMARK SMILES IDX 30 48 22 49 28 50 21 51 23 52 25 53 24 54 26 55 27 56 37 57
REMARK SMILES IDX 38 58 31 60 40 62
REMARK H PARENT 55 9 53 18 51 20 47 23 49 25 38 59 31 61 40 63
REMARK Flexibility Score: inf
ROOT
ATOM      1  C   UNL     1       6.824  64.523   6.331  1.00  0.00     0.041 C 
ATOM      2  C   UNL     1       7.504  65.618   7.161  1.00  0.00     0.150 C 
ATOM      3  C   UNL     1       8.535  65.052   8.168  1.00  0.00     0.175 C 
ATOM      4  C   UNL     1       9.590  66.109   8.583  1.00  0.00     0.186 C 
ATOM      5  C   UNL     1       9.015  67.534   8.384  1.00  0.00     0.202 C 
ATOM      6  C   UNL     1       8.448  67.762   6.943  1.00  0.00     0.282 C 
ATOM      7  O   UNL     1       8.142  66.535   6.292  1.00  0.00    -0.344 OA
ENDROOT
BRANCH   3   8
ATOM      8  O   UNL     1       9.178  63.912   7.660  1.00  0.00    -0.388 OA
ATOM      9  H   UNL     1       8.823  63.123   8.165  1.00  0.00     0.211 HD
ENDBRANCH   3   8
BRANCH   4  10
ATOM     10  O   UNL     1      10.822  65.950   7.868  1.00  0.00    -0.341 OA
BRANCH  10  11
ATOM     11  C   UNL     1      11.791  65.195   8.599  1.00  0.00     0.282 C 
ATOM     12  C   UNL     1      12.970  66.104   8.967  1.00  0.00     0.202 C 
ATOM     13  O   UNL     1      12.095  63.988   7.894  1.00  0.00    -0.341 OA
ATOM     14  C   UNL     1      13.918  66.199   7.780  1.00  0.00     0.179 C 
ATOM     15  C   UNL     1      13.298  63.831   7.131  1.00  0.00     0.178 C 
ATOM     16  C   UNL     1      14.467  64.824   7.448  1.00  0.00     0.177 C 
BRANCH  12  17
ATOM     17  O   UNL     1      13.615  65.623  10.125  1.00  0.00    -0.385 OA
ATOM     18  H   UNL     1      14.295  64.964   9.827  1.00  0.00     0.211 HD
ENDBRANCH  12  17
BRANCH  14  19
ATOM     19  O   UNL     1      14.963  67.115   8.026  1.00  0.00    -0.387 OA
ATOM     20  H   UNL     1      14.610  68.002   7.735  1.00  0.00     0.211 HD
ENDBRANCH  14  19
BRANCH  15  21
ATOM     21  C   UNL     1      12.950  63.778   5.637  1.00  0.00     0.191 C 
BRANCH  21  22
ATOM     22  O   UNL     1      13.592  62.719   4.985  1.00  0.00    -0.394 OA
ATOM     23  H   UNL     1      14.458  62.569   5.451  1.00  0.00     0.210 HD
ENDBRANCH  21  22
ENDBRANCH  15  21
BRANCH  16  24
ATOM     24  O   UNL     1      15.327  64.351   8.459  1.00  0.00    -0.387 OA
ATOM     25  H   UNL     1      15.260  64.961   9.238  1.00  0.00     0.211 HD
ENDBRANCH  16  24
ENDBRANCH  10  11
ENDBRANCH   4  10
BRANCH   6  26
ATOM     26  O   UNL     1       9.400  68.533   6.221  1.00  0.00    -0.346 OA
BRANCH  26  27
ATOM     27  C   UNL     1       9.165  69.933   6.156  1.00  0.00     0.130 C 
ATOM     28  C   UNL     1      10.157  70.637   7.112  1.00  0.00     0.033 C 
ATOM     29  C   UNL     1       9.338  70.420   4.670  1.00  0.00     0.020 C 
ATOM     30  C   UNL     1      10.094  72.179   7.025  1.00  0.00     0.010 C 
ATOM     31  C   UNL     1       9.301  71.999   4.646  1.00  0.00     0.006 C 
ATOM     32  C   UNL     1       8.096  69.910   3.889  1.00  0.00     0.017 C 
ATOM     33  C   UNL     1      10.327  72.746   5.583  1.00  0.00    -0.022 C 
ATOM     34  C   UNL     1       9.203  72.578   3.217  1.00  0.00     0.005 C 
ATOM     35  C   UNL     1      11.829  72.474   5.218  1.00  0.00     0.012 C 
ATOM     36  C   UNL     1      10.045  74.339   5.574  1.00  0.00     0.024 C 
ATOM     37  C   UNL     1       9.627  74.031   3.074  1.00  0.00     0.008 C 
ATOM     38  C   UNL     1       9.297  74.951   4.302  1.00  0.00    -0.017 C 
ATOM     39  C   UNL     1      11.309  75.115   5.967  1.00  0.00    -0.024 C 
ATOM     40  C   UNL     1       7.741  74.914   4.526  1.00  0.00     0.013 C 
ATOM     41  C   UNL     1       9.730  76.504   4.057  1.00  0.00     0.009 C 
ATOM     42  C   UNL     1      11.913  76.060   5.221  1.00  0.00     0.005 C 
ATOM     43  C   UNL     1      11.320  76.613   3.940  1.00  0.00     0.096 C 
ATOM     44  C   UNL     1       9.039  77.129   2.776  1.00  0.00     0.043 C 
ATOM     45  C   UNL     1       9.231  77.390   5.258  1.00  0.00     0.015 C 
ATOM     46  C   UNL     1      11.804  78.049   3.585  1.00  0.00     0.037 C 
ATOM     47  O   UNL     1      11.784  75.844   2.851  1.00  0.00    -0.369 OA
ATOM     48  C   UNL     1       9.801  78.319   2.132  1.00  0.00     0.124 C 
ATOM     49  C   UNL     1      11.347  78.088   2.120  1.00  0.00     0.026 C 
ATOM     50  C   UNL     1      13.352  78.264   3.671  1.00  0.00     0.014 C 
ATOM     51  C   UNL     1      11.702  76.647   1.686  1.00  0.00     0.171 C 
ATOM     52  C   UNL     1      12.084  79.165   1.251  1.00  0.00     0.013 C 
ATOM     53  C   UNL     1      13.830  79.627   3.055  1.00  0.00    -0.035 C 
ATOM     54  C   UNL     1      12.764  80.236   2.103  1.00  0.00     0.007 C 
ATOM     55  C   UNL     1      15.150  79.408   2.281  1.00  0.00     0.011 C 
ATOM     56  C   UNL     1      14.100  80.642   4.188  1.00  0.00     0.011 C 
BRANCH  29  57
ATOM     57  C   UNL     1      10.605  69.835   3.945  1.00  0.00     0.165 C 
BRANCH  57  58
ATOM     58  O   UNL     1      10.341  69.189   2.720  1.00  0.00    -0.396 OA
ATOM     59  H   UNL     1      10.929  68.382   2.672  1.00  0.00     0.210 HD
ENDBRANCH  57  58
ENDBRANCH  29  57
BRANCH  48  60
ATOM     60  O   UNL     1       9.280  78.578   0.845  1.00  0.00    -0.392 OA
ATOM     61  H   UNL     1       9.593  79.478   0.564  1.00  0.00     0.210 HD
ENDBRANCH  48  60
ENDBRANCH  26  27
ENDBRANCH   6  26
BRANCH   5  62
ATOM     62  O   UNL     1       9.988  68.498   8.715  1.00  0.00    -0.385 OA
ATOM     63  H   UNL     1      10.087  68.465   9.704  1.00  0.00     0.211 HD
ENDBRANCH   5  62
TORSDOF 14
ENDMDL
