MODEL 1
REMARK VINA RESULT:    -3.654      0.000      0.000
REMARK INTER + INTRA:          -4.321
REMARK INTER:                  -4.295
REMARK INTRA:                  -0.026
REMARK UNBOUND:                -0.026
REMARK SMILES [NH3+][C@@H](CO)C(=O)[O-]
REMARK SMILES IDX 3 1 2 2 1 3 5 7 6 8 7 9 4 10
REMARK H PARENT 1 4 1 5 1 6 4 11
REMARK Flexibility Score: inf
ROOT
ATOM      1  C   UNL     1     133.075 140.303 156.395  1.00  0.00     0.227 C 
ENDROOT
BRANCH   1   2
ATOM      2  C   UNL     1     133.959 139.084 156.717  1.00  0.00     0.253 C 
BRANCH   2   3
ATOM      3  N   UNL     1     133.984 138.816 158.162  1.00  0.00    -0.348 N 
ATOM      4  H   UNL     1     133.354 138.009 158.383  1.00  0.00     0.345 HD
ATOM      5  H   UNL     1     133.637 139.651 158.685  1.00  0.00     0.345 HD
ATOM      6  H   UNL     1     134.955 138.592 158.480  1.00  0.00     0.345 HD
ENDBRANCH   2   3
BRANCH   2   7
ATOM      7  C   UNL     1     135.355 139.306 156.200  1.00  0.00     0.102 C 
ATOM      8  O   UNL     1     136.046 138.337 155.788  1.00  0.00    -0.544 OA
ATOM      9  O   UNL     1     135.896 140.586 156.189  1.00  0.00    -0.544 OA
ENDBRANCH   2   7
ENDBRANCH   1   2
BRANCH   1  10
ATOM     10  O   UNL     1     132.415 140.757 157.545  1.00  0.00    -0.390 OA
ATOM     11  H   UNL     1     132.151 139.951 158.060  1.00  0.00     0.210 HD
ENDBRANCH   1  10
TORSDOF 4
ENDMDL
MODEL 2
REMARK VINA RESULT:    -3.529      1.844      2.113
REMARK INTER + INTRA:          -4.174
REMARK INTER:                  -3.992
REMARK INTRA:                  -0.182
REMARK UNBOUND:                -0.026
REMARK SMILES [NH3+][C@@H](CO)C(=O)[O-]
REMARK SMILES IDX 3 1 2 2 1 3 5 7 6 8 7 9 4 10
REMARK H PARENT 1 4 1 5 1 6 4 11
REMARK Flexibility Score: inf
ROOT
ATOM      1  C   UNL     1     133.633 141.363 155.458  1.00  0.00     0.227 C 
ENDROOT
BRANCH   1   2
ATOM      2  C   UNL     1     132.907 140.238 156.220  1.00  0.00     0.253 C 
BRANCH   2   3
ATOM      3  N   UNL     1     132.495 140.685 157.557  1.00  0.00    -0.348 N 
ATOM      4  H   UNL     1     132.770 139.970 158.270  1.00  0.00     0.345 HD
ATOM      5  H   UNL     1     131.455 140.793 157.591  1.00  0.00     0.345 HD
ATOM      6  H   UNL     1     132.942 141.600 157.796  1.00  0.00     0.345 HD
ENDBRANCH   2   3
BRANCH   2   7
ATOM      7  C   UNL     1     133.794 139.026 156.321  1.00  0.00     0.102 C 
ATOM      8  O   UNL     1     133.340 137.879 156.070  1.00  0.00    -0.544 OA
ATOM      9  O   UNL     1     135.120 139.167 156.711  1.00  0.00    -0.544 OA
ENDBRANCH   2   7
ENDBRANCH   1   2
BRANCH   1  10
ATOM     10  O   UNL     1     134.313 142.208 156.347  1.00  0.00    -0.390 OA
ATOM     11  H   UNL     1     134.952 142.738 155.804  1.00  0.00     0.210 HD
ENDBRANCH   1  10
TORSDOF 4
ENDMDL
MODEL 3
REMARK VINA RESULT:    -3.507      2.211      3.095
REMARK INTER + INTRA:          -4.147
REMARK INTER:                  -3.921
REMARK INTRA:                  -0.226
REMARK UNBOUND:                -0.026
REMARK SMILES [NH3+][C@@H](CO)C(=O)[O-]
REMARK SMILES IDX 3 1 2 2 1 3 5 7 6 8 7 9 4 10
REMARK H PARENT 1 4 1 5 1 6 4 11
REMARK Flexibility Score: inf
ROOT
ATOM      1  C   UNL     1     134.533 139.704 156.178  1.00  0.00     0.227 C 
ENDROOT
BRANCH   1   2
ATOM      2  C   UNL     1     132.997 139.796 156.123  1.00  0.00     0.253 C 
BRANCH   2   3
ATOM      3  N   UNL     1     132.455 140.354 157.370  1.00  0.00    -0.348 N 
ATOM      4  H   UNL     1     132.698 139.728 158.173  1.00  0.00     0.345 HD
ATOM      5  H   UNL     1     131.413 140.413 157.309  1.00  0.00     0.345 HD
ATOM      6  H   UNL     1     132.842 141.309 157.548  1.00  0.00     0.345 HD
ENDBRANCH   2   3
BRANCH   2   7
ATOM      7  C   UNL     1     132.406 138.439 155.854  1.00  0.00     0.102 C 
ATOM      8  O   UNL     1     133.149 137.464 155.564  1.00  0.00    -0.544 OA
ATOM      9  O   UNL     1     131.030 138.257 155.908  1.00  0.00    -0.544 OA
ENDBRANCH   2   7
ENDBRANCH   1   2
BRANCH   1  10
ATOM     10  O   UNL     1     134.949 139.030 157.336  1.00  0.00    -0.390 OA
ATOM     11  H   UNL     1     135.941 139.033 157.325  1.00  0.00     0.210 HD
ENDBRANCH   1  10
TORSDOF 4
ENDMDL
MODEL 4
REMARK VINA RESULT:    -3.334      9.894     10.378
REMARK INTER + INTRA:          -3.944
REMARK INTER:                  -3.713
REMARK INTRA:                  -0.231
REMARK UNBOUND:                -0.026
REMARK SMILES [NH3+][C@@H](CO)C(=O)[O-]
REMARK SMILES IDX 3 1 2 2 1 3 5 7 6 8 7 9 4 10
REMARK H PARENT 1 4 1 5 1 6 4 11
REMARK Flexibility Score: inf
ROOT
ATOM      1  C   UNL     1     139.262 130.412 159.647  1.00  0.00     0.227 C 
ENDROOT
BRANCH   1   2
ATOM      2  C   UNL     1     139.910 131.798 159.474  1.00  0.00     0.253 C 
BRANCH   2   3
ATOM      3  N   UNL     1     138.913 132.869 159.604  1.00  0.00    -0.348 N 
ATOM      4  H   UNL     1     139.379 133.749 159.926  1.00  0.00     0.345 HD
ATOM      5  H   UNL     1     138.196 132.603 160.316  1.00  0.00     0.345 HD
ATOM      6  H   UNL     1     138.438 133.045 158.689  1.00  0.00     0.345 HD
ENDBRANCH   2   3
BRANCH   2   7
ATOM      7  C   UNL     1     140.602 131.882 158.141  1.00  0.00     0.102 C 
ATOM      8  O   UNL     1     140.259 131.127 157.193  1.00  0.00    -0.544 OA
ATOM      9  O   UNL     1     141.640 132.787 157.953  1.00  0.00    -0.544 OA
ENDBRANCH   2   7
ENDBRANCH   1   2
BRANCH   1  10
ATOM     10  O   UNL     1     140.232 129.400 159.611  1.00  0.00    -0.390 OA
ATOM     11  H   UNL     1     140.616 129.407 158.696  1.00  0.00     0.210 HD
ENDBRANCH   1  10
TORSDOF 4
ENDMDL
MODEL 5
REMARK VINA RESULT:    -3.322      8.497      9.468
REMARK INTER + INTRA:          -3.930
REMARK INTER:                  -3.700
REMARK INTRA:                  -0.230
REMARK UNBOUND:                -0.026
REMARK SMILES [NH3+][C@@H](CO)C(=O)[O-]
REMARK SMILES IDX 3 1 2 2 1 3 5 7 6 8 7 9 4 10
REMARK H PARENT 1 4 1 5 1 6 4 11
REMARK Flexibility Score: inf
ROOT
ATOM      1  C   UNL     1     137.558 131.585 158.246  1.00  0.00     0.227 C 
ENDROOT
BRANCH   1   2
ATOM      2  C   UNL     1     138.078 131.539 159.694  1.00  0.00     0.253 C 
BRANCH   2   3
ATOM      3  N   UNL     1     137.747 132.775 160.416  1.00  0.00    -0.348 N 
ATOM      4  H   UNL     1     136.772 132.716 160.793  1.00  0.00     0.345 HD
ATOM      5  H   UNL     1     137.793 133.591 159.764  1.00  0.00     0.345 HD
ATOM      6  H   UNL     1     138.413 132.932 161.207  1.00  0.00     0.345 HD
ENDBRANCH   2   3
BRANCH   2   7
ATOM      7  C   UNL     1     139.565 131.308 159.702  1.00  0.00     0.102 C 
ATOM      8  O   UNL     1     140.039 130.203 160.079  1.00  0.00    -0.544 OA
ATOM      9  O   UNL     1     140.428 132.323 159.307  1.00  0.00    -0.544 OA
ENDBRANCH   2   7
ENDBRANCH   1   2
BRANCH   1  10
ATOM     10  O   UNL     1     138.052 132.713 157.576  1.00  0.00    -0.390 OA
ATOM     11  H   UNL     1     138.674 132.380 156.878  1.00  0.00     0.210 HD
ENDBRANCH   1  10
TORSDOF 4
ENDMDL
MODEL 6
REMARK VINA RESULT:    -3.290      9.435     10.061
REMARK INTER + INTRA:          -3.893
REMARK INTER:                  -3.661
REMARK INTRA:                  -0.232
REMARK UNBOUND:                -0.026
REMARK SMILES [NH3+][C@@H](CO)C(=O)[O-]
REMARK SMILES IDX 3 1 2 2 1 3 5 7 6 8 7 9 4 10
REMARK H PARENT 1 4 1 5 1 6 4 11
REMARK Flexibility Score: inf
ROOT
ATOM      1  C   UNL     1     140.848 132.831 157.171  1.00  0.00     0.227 C 
ENDROOT
BRANCH   1   2
ATOM      2  C   UNL     1     139.748 132.762 158.247  1.00  0.00     0.253 C 
BRANCH   2   3
ATOM      3  N   UNL     1     139.885 133.860 159.215  1.00  0.00    -0.348 N 
ATOM      4  H   UNL     1     140.893 134.127 159.307  1.00  0.00     0.345 HD
ATOM      5  H   UNL     1     139.544 133.550 160.153  1.00  0.00     0.345 HD
ATOM      6  H   UNL     1     139.334 134.694 158.909  1.00  0.00     0.345 HD
ENDBRANCH   2   3
BRANCH   2   7
ATOM      7  C   UNL     1     139.795 131.433 158.950  1.00  0.00     0.102 C 
ATOM      8  O   UNL     1     139.192 131.266 160.044  1.00  0.00    -0.544 OA
ATOM      9  O   UNL     1     140.521 130.382 158.402  1.00  0.00    -0.544 OA
ENDBRANCH   2   7
ENDBRANCH   1   2
BRANCH   1  10
ATOM     10  O   UNL     1     142.121 132.792 157.758  1.00  0.00    -0.390 OA
ATOM     11  H   UNL     1     142.749 132.481 157.055  1.00  0.00     0.210 HD
ENDBRANCH   1  10
TORSDOF 4
ENDMDL
MODEL 7
REMARK VINA RESULT:    -3.235      9.300      9.978
REMARK INTER + INTRA:          -3.828
REMARK INTER:                  -3.605
REMARK INTRA:                  -0.223
REMARK UNBOUND:                -0.026
REMARK SMILES [NH3+][C@@H](CO)C(=O)[O-]
REMARK SMILES IDX 3 1 2 2 1 3 5 7 6 8 7 9 4 10
REMARK H PARENT 1 4 1 5 1 6 4 11
REMARK Flexibility Score: inf
ROOT
ATOM      1  C   UNL     1     140.296 133.066 158.581  1.00  0.00     0.227 C 
ENDROOT
BRANCH   1   2
ATOM      2  C   UNL     1     139.005 132.271 158.851  1.00  0.00     0.253 C 
BRANCH   2   3
ATOM      3  N   UNL     1     138.306 132.784 160.037  1.00  0.00    -0.348 N 
ATOM      4  H   UNL     1     138.400 132.102 160.826  1.00  0.00     0.345 HD
ATOM      5  H   UNL     1     137.288 132.898 159.828  1.00  0.00     0.345 HD
ATOM      6  H   UNL     1     138.701 133.707 160.331  1.00  0.00     0.345 HD
ENDBRANCH   2   3
BRANCH   2   7
ATOM      7  C   UNL     1     139.323 130.810 159.019  1.00  0.00     0.102 C 
ATOM      8  O   UNL     1     138.867 129.959 158.211  1.00  0.00    -0.544 OA
ATOM      9  O   UNL     1     140.112 130.389 160.083  1.00  0.00    -0.544 OA
ENDBRANCH   2   7
ENDBRANCH   1   2
BRANCH   1  10
ATOM     10  O   UNL     1     141.033 133.233 159.762  1.00  0.00    -0.390 OA
ATOM     11  H   UNL     1     141.008 134.201 159.979  1.00  0.00     0.210 HD
ENDBRANCH   1  10
TORSDOF 4
ENDMDL
MODEL 8
REMARK VINA RESULT:    -3.230      9.365      9.607
REMARK INTER + INTRA:          -3.823
REMARK INTER:                  -3.422
REMARK INTRA:                  -0.400
REMARK UNBOUND:                -0.026
REMARK SMILES [NH3+][C@@H](CO)C(=O)[O-]
REMARK SMILES IDX 3 1 2 2 1 3 5 7 6 8 7 9 4 10
REMARK H PARENT 1 4 1 5 1 6 4 11
REMARK Flexibility Score: inf
ROOT
ATOM      1  C   UNL     1     138.045 131.521 160.030  1.00  0.00     0.227 C 
ENDROOT
BRANCH   1   2
ATOM      2  C   UNL     1     139.215 131.078 159.133  1.00  0.00     0.253 C 
BRANCH   2   3
ATOM      3  N   UNL     1     140.139 130.200 159.863  1.00  0.00    -0.348 N 
ATOM      4  H   UNL     1     141.120 130.367 159.536  1.00  0.00     0.345 HD
ATOM      5  H   UNL     1     139.902 129.199 159.676  1.00  0.00     0.345 HD
ATOM      6  H   UNL     1     140.084 130.377 160.892  1.00  0.00     0.345 HD
ENDBRANCH   2   3
BRANCH   2   7
ATOM      7  C   UNL     1     139.944 132.283 158.602  1.00  0.00     0.102 C 
ATOM      8  O   UNL     1     139.626 132.785 157.492  1.00  0.00    -0.544 OA
ATOM      9  O   UNL     1     140.988 132.839 159.331  1.00  0.00    -0.544 OA
ENDBRANCH   2   7
ENDBRANCH   1   2
BRANCH   1  10
ATOM     10  O   UNL     1     138.027 132.915 160.174  1.00  0.00    -0.390 OA
ATOM     11  H   UNL     1     138.238 133.296 159.282  1.00  0.00     0.210 HD
ENDBRANCH   1  10
TORSDOF 4
ENDMDL
MODEL 9
REMARK VINA RESULT:    -3.209      9.053      9.564
REMARK INTER + INTRA:          -3.798
REMARK INTER:                  -3.409
REMARK INTRA:                  -0.389
REMARK UNBOUND:                -0.026
REMARK SMILES [NH3+][C@@H](CO)C(=O)[O-]
REMARK SMILES IDX 3 1 2 2 1 3 5 7 6 8 7 9 4 10
REMARK H PARENT 1 4 1 5 1 6 4 11
REMARK Flexibility Score: inf
ROOT
ATOM      1  C   UNL     1     140.166 132.273 159.198  1.00  0.00     0.227 C 
ENDROOT
BRANCH   1   2
ATOM      2  C   UNL     1     139.098 131.245 159.615  1.00  0.00     0.253 C 
BRANCH   2   3
ATOM      3  N   UNL     1     139.113 130.076 158.725  1.00  0.00    -0.348 N 
ATOM      4  H   UNL     1     139.954 129.486 158.929  1.00  0.00     0.345 HD
ATOM      5  H   UNL     1     139.172 130.388 157.729  1.00  0.00     0.345 HD
ATOM      6  H   UNL     1     138.249 129.501 158.853  1.00  0.00     0.345 HD
ENDBRANCH   2   3
BRANCH   2   7
ATOM      7  C   UNL     1     137.736 131.885 159.617  1.00  0.00     0.102 C 
ATOM      8  O   UNL     1     137.058 131.951 158.557  1.00  0.00    -0.544 OA
ATOM      9  O   UNL     1     137.225 132.425 160.791  1.00  0.00    -0.544 OA
ENDBRANCH   2   7
ENDBRANCH   1   2
BRANCH   1  10
ATOM     10  O   UNL     1     139.657 133.577 159.274  1.00  0.00    -0.390 OA
ATOM     11  H   UNL     1     139.212 133.659 160.158  1.00  0.00     0.210 HD
ENDBRANCH   1  10
TORSDOF 4
ENDMDL
