MODEL 1
REMARK VINA RESULT:    -3.954      0.000      0.000
REMARK INTER + INTRA:          -9.168
REMARK INTER:                  -7.189
REMARK INTRA:                  -1.978
REMARK UNBOUND:                -1.978
REMARK SMILES CCCCCCCCCCCCCCCC(=O)[O-]
REMARK SMILES IDX 9 1 10 2 11 3 12 4 13 5 14 6 15 7 16 8 17 9 18 10 8 11 7 12
REMARK SMILES IDX 6 13 5 14 4 15 3 16 2 17 1 18
REMARK H PARENT
REMARK Flexibility Score: inf
ROOT
ATOM      1  C   UNL     1      41.203  22.866 223.146  1.00  0.00     0.000 C 
ENDROOT
BRANCH   1   2
ATOM      2  C   UNL     1      41.663  23.296 224.557  1.00  0.00     0.000 C 
BRANCH   2   3
ATOM      3  C   UNL     1      41.611  22.163 225.599  1.00  0.00     0.000 C 
BRANCH   3   4
ATOM      4  C   UNL     1      40.644  22.401 226.774  1.00  0.00     0.000 C 
BRANCH   4   5
ATOM      5  C   UNL     1      39.176  22.029 226.494  1.00  0.00     0.000 C 
BRANCH   5   6
ATOM      6  C   UNL     1      39.033  20.880 225.483  1.00  0.00     0.006 C 
BRANCH   6   7
ATOM      7  C   UNL     1      37.645  20.228 225.539  1.00  0.00     0.053 C 
BRANCH   7   8
ATOM      8  C   UNL     1      37.731  18.761 225.831  1.00  0.00     0.041 C 
ATOM      9  O   UNL     1      36.691  18.105 226.103  1.00  0.00    -0.550 OA
ATOM     10  O   UNL     1      38.966  18.124 225.830  1.00  0.00    -0.550 OA
ENDBRANCH   7   8
ENDBRANCH   6   7
ENDBRANCH   5   6
ENDBRANCH   4   5
ENDBRANCH   3   4
ENDBRANCH   2   3
ENDBRANCH   1   2
BRANCH   1  11
ATOM     11  C   UNL     1      39.971  23.654 222.666  1.00  0.00     0.000 C 
BRANCH  11  12
ATOM     12  C   UNL     1      39.438  24.625 223.732  1.00  0.00    -0.000 C 
BRANCH  12  13
ATOM     13  C   UNL     1      37.921  24.854 223.614  1.00  0.00    -0.000 C 
BRANCH  13  14
ATOM     14  C   UNL     1      37.114  23.569 223.859  1.00  0.00    -0.000 C 
BRANCH  14  15
ATOM     15  C   UNL     1      36.317  23.125 222.620  1.00  0.00    -0.000 C 
BRANCH  15  16
ATOM     16  C   UNL     1      36.491  24.100 221.437  1.00  0.00    -0.000 C 
BRANCH  16  17
ATOM     17  C   UNL     1      37.232  23.485 220.237  1.00  0.00    -0.003 C 
ATOM     18  C   UNL     1      36.566  23.795 218.899  1.00  0.00     0.004 C 
ENDBRANCH  16  17
ENDBRANCH  15  16
ENDBRANCH  14  15
ENDBRANCH  13  14
ENDBRANCH  12  13
ENDBRANCH  11  12
ENDBRANCH   1  11
TORSDOF 14
ENDMDL
MODEL 2
REMARK VINA RESULT:    -3.767      2.607      3.579
REMARK INTER + INTRA:          -8.828
REMARK INTER:                  -7.257
REMARK INTRA:                  -1.571
REMARK UNBOUND:                -1.978
REMARK SMILES CCCCCCCCCCCCCCCC(=O)[O-]
REMARK SMILES IDX 9 1 10 2 11 3 12 4 13 5 14 6 15 7 16 8 17 9 18 10 8 11 7 12
REMARK SMILES IDX 6 13 5 14 4 15 3 16 2 17 1 18
REMARK H PARENT
REMARK Flexibility Score: inf
ROOT
ATOM      1  C   UNL     1      38.221  24.918 225.600  1.00  0.00     0.000 C 
ENDROOT
BRANCH   1   2
ATOM      2  C   UNL     1      39.155  25.457 226.706  1.00  0.00     0.000 C 
BRANCH   2   3
ATOM      3  C   UNL     1      40.509  24.725 226.787  1.00  0.00     0.000 C 
BRANCH   3   4
ATOM      4  C   UNL     1      41.462  24.986 225.605  1.00  0.00     0.000 C 
BRANCH   4   5
ATOM      5  C   UNL     1      41.991  23.720 224.905  1.00  0.00     0.000 C 
BRANCH   5   6
ATOM      6  C   UNL     1      41.021  23.173 223.845  1.00  0.00     0.006 C 
BRANCH   6   7
ATOM      7  C   UNL     1      40.782  21.665 224.003  1.00  0.00     0.053 C 
BRANCH   7   8
ATOM      8  C   UNL     1      41.685  20.863 223.117  1.00  0.00     0.041 C 
ATOM      9  O   UNL     1      42.574  21.434 222.432  1.00  0.00    -0.550 OA
ATOM     10  O   UNL     1      41.526  19.486 223.027  1.00  0.00    -0.550 OA
ENDBRANCH   7   8
ENDBRANCH   6   7
ENDBRANCH   5   6
ENDBRANCH   4   5
ENDBRANCH   3   4
ENDBRANCH   2   3
ENDBRANCH   1   2
BRANCH   1  11
ATOM     11  C   UNL     1      38.016  25.933 224.462  1.00  0.00     0.000 C 
BRANCH  11  12
ATOM     12  C   UNL     1      36.982  25.460 223.427  1.00  0.00    -0.000 C 
BRANCH  12  13
ATOM     13  C   UNL     1      36.413  24.069 223.757  1.00  0.00    -0.000 C 
BRANCH  13  14
ATOM     14  C   UNL     1      36.670  23.050 222.636  1.00  0.00    -0.000 C 
BRANCH  14  15
ATOM     15  C   UNL     1      37.670  23.566 221.586  1.00  0.00    -0.000 C 
BRANCH  15  16
ATOM     16  C   UNL     1      37.213  23.253 220.145  1.00  0.00    -0.000 C 
BRANCH  16  17
ATOM     17  C   UNL     1      36.393  24.384 219.501  1.00  0.00    -0.003 C 
ATOM     18  C   UNL     1      34.887  24.210 219.681  1.00  0.00     0.004 C 
ENDBRANCH  16  17
ENDBRANCH  15  16
ENDBRANCH  14  15
ENDBRANCH  13  14
ENDBRANCH  12  13
ENDBRANCH  11  12
ENDBRANCH   1  11
TORSDOF 14
ENDMDL
MODEL 3
REMARK VINA RESULT:    -3.762      3.181      5.890
REMARK INTER + INTRA:          -8.820
REMARK INTER:                  -7.126
REMARK INTRA:                  -1.694
REMARK UNBOUND:                -1.978
REMARK SMILES CCCCCCCCCCCCCCCC(=O)[O-]
REMARK SMILES IDX 9 1 10 2 11 3 12 4 13 5 14 6 15 7 16 8 17 9 18 10 8 11 7 12
REMARK SMILES IDX 6 13 5 14 4 15 3 16 2 17 1 18
REMARK H PARENT
REMARK Flexibility Score: inf
ROOT
ATOM      1  C   UNL     1      40.493  24.053 224.814  1.00  0.00     0.000 C 
ENDROOT
BRANCH   1   2
ATOM      2  C   UNL     1      39.423  24.504 223.797  1.00  0.00     0.000 C 
BRANCH   2   3
ATOM      3  C   UNL     1      38.327  25.401 224.404  1.00  0.00     0.000 C 
BRANCH   3   4
ATOM      4  C   UNL     1      37.016  24.676 224.764  1.00  0.00     0.000 C 
BRANCH   4   5
ATOM      5  C   UNL     1      35.930  24.718 223.674  1.00  0.00     0.000 C 
BRANCH   5   6
ATOM      6  C   UNL     1      36.059  23.572 222.656  1.00  0.00     0.006 C 
BRANCH   6   7
ATOM      7  C   UNL     1      35.511  23.959 221.276  1.00  0.00     0.053 C 
BRANCH   7   8
ATOM      8  C   UNL     1      36.584  23.952 220.231  1.00  0.00     0.041 C 
ATOM      9  O   UNL     1      36.385  24.496 219.112  1.00  0.00    -0.550 OA
ATOM     10  O   UNL     1      37.796  23.320 220.482  1.00  0.00    -0.550 OA
ENDBRANCH   7   8
ENDBRANCH   6   7
ENDBRANCH   5   6
ENDBRANCH   4   5
ENDBRANCH   3   4
ENDBRANCH   2   3
ENDBRANCH   1   2
BRANCH   1  11
ATOM     11  C   UNL     1      41.699  23.378 224.136  1.00  0.00     0.000 C 
BRANCH  11  12
ATOM     12  C   UNL     1      41.283  22.427 223.001  1.00  0.00    -0.000 C 
BRANCH  12  13
ATOM     13  C   UNL     1      42.298  21.291 222.785  1.00  0.00    -0.000 C 
BRANCH  13  14
ATOM     14  C   UNL     1      41.715  19.912 223.129  1.00  0.00    -0.000 C 
BRANCH  14  15
ATOM     15  C   UNL     1      41.714  19.631 224.642  1.00  0.00    -0.000 C 
BRANCH  15  16
ATOM     16  C   UNL     1      40.289  19.403 225.189  1.00  0.00    -0.000 C 
BRANCH  16  17
ATOM     17  C   UNL     1      39.699  20.634 225.899  1.00  0.00    -0.003 C 
ATOM     18  C   UNL     1      38.407  21.133 225.258  1.00  0.00     0.004 C 
ENDBRANCH  16  17
ENDBRANCH  15  16
ENDBRANCH  14  15
ENDBRANCH  13  14
ENDBRANCH  12  13
ENDBRANCH  11  12
ENDBRANCH   1  11
TORSDOF 14
ENDMDL
MODEL 4
REMARK VINA RESULT:    -3.696      1.794      2.248
REMARK INTER + INTRA:          -8.699
REMARK INTER:                  -7.252
REMARK INTRA:                  -1.447
REMARK UNBOUND:                -1.978
REMARK SMILES CCCCCCCCCCCCCCCC(=O)[O-]
REMARK SMILES IDX 9 1 10 2 11 3 12 4 13 5 14 6 15 7 16 8 17 9 18 10 8 11 7 12
REMARK SMILES IDX 6 13 5 14 4 15 3 16 2 17 1 18
REMARK H PARENT
REMARK Flexibility Score: inf
ROOT
ATOM      1  C   UNL     1      41.594  22.605 223.451  1.00  0.00     0.000 C 
ENDROOT
BRANCH   1   2
ATOM      2  C   UNL     1      42.006  21.331 222.682  1.00  0.00     0.000 C 
BRANCH   2   3
ATOM      3  C   UNL     1      42.032  20.061 223.554  1.00  0.00     0.000 C 
BRANCH   3   4
ATOM      4  C   UNL     1      42.170  20.311 225.067  1.00  0.00     0.000 C 
BRANCH   4   5
ATOM      5  C   UNL     1      41.186  19.521 225.950  1.00  0.00     0.000 C 
BRANCH   5   6
ATOM      6  C   UNL     1      40.105  18.792 225.135  1.00  0.00     0.006 C 
BRANCH   6   7
ATOM      7  C   UNL     1      38.914  18.367 226.004  1.00  0.00     0.053 C 
BRANCH   7   8
ATOM      8  C   UNL     1      39.332  17.449 227.111  1.00  0.00     0.041 C 
ATOM      9  O   UNL     1      39.834  16.324 226.849  1.00  0.00    -0.550 OA
ATOM     10  O   UNL     1      39.142  17.826 228.435  1.00  0.00    -0.550 OA
ENDBRANCH   7   8
ENDBRANCH   6   7
ENDBRANCH   5   6
ENDBRANCH   4   5
ENDBRANCH   3   4
ENDBRANCH   2   3
ENDBRANCH   1   2
BRANCH   1  11
ATOM     11  C   UNL     1      40.371  23.298 222.823  1.00  0.00     0.000 C 
BRANCH  11  12
ATOM     12  C   UNL     1      39.317  23.699 223.868  1.00  0.00    -0.000 C 
BRANCH  12  13
ATOM     13  C   UNL     1      38.539  22.489 224.414  1.00  0.00    -0.000 C 
BRANCH  13  14
ATOM     14  C   UNL     1      37.100  22.429 223.879  1.00  0.00    -0.000 C 
BRANCH  14  15
ATOM     15  C   UNL     1      36.439  23.816 223.802  1.00  0.00    -0.000 C 
BRANCH  15  16
ATOM     16  C   UNL     1      35.625  24.001 222.504  1.00  0.00    -0.000 C 
BRANCH  16  17
ATOM     17  C   UNL     1      36.489  24.007 221.232  1.00  0.00    -0.003 C 
ATOM     18  C   UNL     1      35.671  24.169 219.953  1.00  0.00     0.004 C 
ENDBRANCH  16  17
ENDBRANCH  15  16
ENDBRANCH  14  15
ENDBRANCH  13  14
ENDBRANCH  12  13
ENDBRANCH  11  12
ENDBRANCH   1  11
TORSDOF 14
ENDMDL
MODEL 5
REMARK VINA RESULT:    -3.664      3.180      4.160
REMARK INTER + INTRA:          -8.642
REMARK INTER:                  -7.098
REMARK INTRA:                  -1.544
REMARK UNBOUND:                -1.978
REMARK SMILES CCCCCCCCCCCCCCCC(=O)[O-]
REMARK SMILES IDX 9 1 10 2 11 3 12 4 13 5 14 6 15 7 16 8 17 9 18 10 8 11 7 12
REMARK SMILES IDX 6 13 5 14 4 15 3 16 2 17 1 18
REMARK H PARENT
REMARK Flexibility Score: inf
ROOT
ATOM      1  C   UNL     1      39.686  24.701 223.362  1.00  0.00     0.000 C 
ENDROOT
BRANCH   1   2
ATOM      2  C   UNL     1      40.247  23.312 222.988  1.00  0.00     0.000 C 
BRANCH   2   3
ATOM      3  C   UNL     1      41.590  22.981 223.668  1.00  0.00     0.000 C 
BRANCH   3   4
ATOM      4  C   UNL     1      41.602  23.143 225.200  1.00  0.00     0.000 C 
BRANCH   4   5
ATOM      5  C   UNL     1      42.382  24.365 225.718  1.00  0.00     0.000 C 
BRANCH   5   6
ATOM      6  C   UNL     1      41.641  25.116 226.837  1.00  0.00     0.006 C 
BRANCH   6   7
ATOM      7  C   UNL     1      40.214  24.592 227.040  1.00  0.00     0.053 C 
BRANCH   7   8
ATOM      8  C   UNL     1      39.206  25.700 227.014  1.00  0.00     0.041 C 
ATOM      9  O   UNL     1      38.102  25.569 227.607  1.00  0.00    -0.550 OA
ATOM     10  O   UNL     1      39.475  26.869 226.313  1.00  0.00    -0.550 OA
ENDBRANCH   7   8
ENDBRANCH   6   7
ENDBRANCH   5   6
ENDBRANCH   4   5
ENDBRANCH   3   4
ENDBRANCH   2   3
ENDBRANCH   1   2
BRANCH   1  11
ATOM     11  C   UNL     1      38.183  24.655 223.693  1.00  0.00     0.000 C 
BRANCH  11  12
ATOM     12  C   UNL     1      37.677  23.226 223.951  1.00  0.00    -0.000 C 
BRANCH  12  13
ATOM     13  C   UNL     1      36.494  22.848 223.043  1.00  0.00    -0.000 C 
BRANCH  13  14
ATOM     14  C   UNL     1      35.882  24.070 222.340  1.00  0.00    -0.000 C 
BRANCH  14  15
ATOM     15  C   UNL     1      34.583  23.731 221.588  1.00  0.00    -0.000 C 
BRANCH  15  16
ATOM     16  C   UNL     1      34.697  24.012 220.075  1.00  0.00    -0.000 C 
BRANCH  16  17
ATOM     17  C   UNL     1      36.081  24.530 219.648  1.00  0.00    -0.003 C 
ATOM     18  C   UNL     1      37.008  23.423 219.151  1.00  0.00     0.004 C 
ENDBRANCH  16  17
ENDBRANCH  15  16
ENDBRANCH  14  15
ENDBRANCH  13  14
ENDBRANCH  12  13
ENDBRANCH  11  12
ENDBRANCH   1  11
TORSDOF 14
ENDMDL
MODEL 6
REMARK VINA RESULT:    -3.654      3.343      5.844
REMARK INTER + INTRA:          -8.622
REMARK INTER:                  -6.506
REMARK INTRA:                  -2.116
REMARK UNBOUND:                -1.978
REMARK SMILES CCCCCCCCCCCCCCCC(=O)[O-]
REMARK SMILES IDX 9 1 10 2 11 3 12 4 13 5 14 6 15 7 16 8 17 9 18 10 8 11 7 12
REMARK SMILES IDX 6 13 5 14 4 15 3 16 2 17 1 18
REMARK H PARENT
REMARK Flexibility Score: inf
ROOT
ATOM      1  C   UNL     1      38.121  25.731 226.934  1.00  0.00     0.000 C 
ENDROOT
BRANCH   1   2
ATOM      2  C   UNL     1      38.896  26.284 225.718  1.00  0.00     0.000 C 
BRANCH   2   3
ATOM      3  C   UNL     1      38.139  26.146 224.384  1.00  0.00     0.000 C 
BRANCH   3   4
ATOM      4  C   UNL     1      36.830  25.337 224.457  1.00  0.00     0.000 C 
BRANCH   4   5
ATOM      5  C   UNL     1      36.875  23.962 223.764  1.00  0.00     0.000 C 
BRANCH   5   6
ATOM      6  C   UNL     1      36.279  23.988 222.346  1.00  0.00     0.006 C 
BRANCH   6   7
ATOM      7  C   UNL     1      37.264  23.458 221.295  1.00  0.00     0.053 C 
BRANCH   7   8
ATOM      8  C   UNL     1      36.774  23.704 219.901  1.00  0.00     0.041 C 
ATOM      9  O   UNL     1      37.114  22.936 218.963  1.00  0.00    -0.550 OA
ATOM     10  O   UNL     1      35.962  24.799 219.633  1.00  0.00    -0.550 OA
ENDBRANCH   7   8
ENDBRANCH   6   7
ENDBRANCH   5   6
ENDBRANCH   4   5
ENDBRANCH   3   4
ENDBRANCH   2   3
ENDBRANCH   1   2
BRANCH   1  11
ATOM     11  C   UNL     1      38.861  24.571 227.622  1.00  0.00     0.000 C 
BRANCH  11  12
ATOM     12  C   UNL     1      38.493  23.200 227.030  1.00  0.00    -0.000 C 
BRANCH  12  13
ATOM     13  C   UNL     1      39.703  22.487 226.401  1.00  0.00    -0.000 C 
BRANCH  13  14
ATOM     14  C   UNL     1      41.003  23.293 226.556  1.00  0.00    -0.000 C 
BRANCH  14  15
ATOM     15  C   UNL     1      41.859  23.285 225.277  1.00  0.00    -0.000 C 
BRANCH  15  16
ATOM     16  C   UNL     1      41.289  24.220 224.190  1.00  0.00    -0.000 C 
BRANCH  16  17
ATOM     17  C   UNL     1      40.687  23.471 222.989  1.00  0.00    -0.003 C 
ATOM     18  C   UNL     1      41.312  22.096 222.766  1.00  0.00     0.004 C 
ENDBRANCH  16  17
ENDBRANCH  15  16
ENDBRANCH  14  15
ENDBRANCH  13  14
ENDBRANCH  12  13
ENDBRANCH  11  12
ENDBRANCH   1  11
TORSDOF 14
ENDMDL
MODEL 7
REMARK VINA RESULT:    -3.651      1.499      2.264
REMARK INTER + INTRA:          -8.617
REMARK INTER:                  -6.835
REMARK INTRA:                  -1.782
REMARK UNBOUND:                -1.978
REMARK SMILES CCCCCCCCCCCCCCCC(=O)[O-]
REMARK SMILES IDX 9 1 10 2 11 3 12 4 13 5 14 6 15 7 16 8 17 9 18 10 8 11 7 12
REMARK SMILES IDX 6 13 5 14 4 15 3 16 2 17 1 18
REMARK H PARENT
REMARK Flexibility Score: inf
ROOT
ATOM      1  C   UNL     1      39.477  25.180 226.497  1.00  0.00     0.000 C 
ENDROOT
BRANCH   1   2
ATOM      2  C   UNL     1      40.953  24.727 226.482  1.00  0.00     0.000 C 
BRANCH   2   3
ATOM      3  C   UNL     1      41.558  24.629 225.069  1.00  0.00     0.000 C 
BRANCH   3   4
ATOM      4  C   UNL     1      41.607  23.207 224.479  1.00  0.00     0.000 C 
BRANCH   4   5
ATOM      5  C   UNL     1      40.295  22.726 223.831  1.00  0.00     0.000 C 
BRANCH   5   6
ATOM      6  C   UNL     1      39.510  21.751 224.725  1.00  0.00     0.006 C 
BRANCH   6   7
ATOM      7  C   UNL     1      40.274  20.443 224.967  1.00  0.00     0.053 C 
BRANCH   7   8
ATOM      8  C   UNL     1      39.382  19.370 225.513  1.00  0.00     0.041 C 
ATOM      9  O   UNL     1      38.196  19.637 225.841  1.00  0.00    -0.550 OA
ATOM     10  O   UNL     1      39.871  18.081 225.684  1.00  0.00    -0.550 OA
ENDBRANCH   7   8
ENDBRANCH   6   7
ENDBRANCH   5   6
ENDBRANCH   4   5
ENDBRANCH   3   4
ENDBRANCH   2   3
ENDBRANCH   1   2
BRANCH   1  11
ATOM     11  C   UNL     1      39.212  26.348 225.530  1.00  0.00     0.000 C 
BRANCH  11  12
ATOM     12  C   UNL     1      38.167  26.002 224.456  1.00  0.00    -0.000 C 
BRANCH  12  13
ATOM     13  C   UNL     1      37.300  24.792 224.848  1.00  0.00    -0.000 C 
BRANCH  13  14
ATOM     14  C   UNL     1      36.213  24.489 223.805  1.00  0.00    -0.000 C 
BRANCH  14  15
ATOM     15  C   UNL     1      36.496  23.200 223.014  1.00  0.00    -0.000 C 
BRANCH  15  16
ATOM     16  C   UNL     1      37.045  23.493 221.602  1.00  0.00    -0.000 C 
BRANCH  16  17
ATOM     17  C   UNL     1      36.020  24.162 220.670  1.00  0.00    -0.003 C 
ATOM     18  C   UNL     1      36.410  24.084 219.196  1.00  0.00     0.004 C 
ENDBRANCH  16  17
ENDBRANCH  15  16
ENDBRANCH  14  15
ENDBRANCH  13  14
ENDBRANCH  12  13
ENDBRANCH  11  12
ENDBRANCH   1  11
TORSDOF 14
ENDMDL
MODEL 8
REMARK VINA RESULT:    -3.641      3.105      6.059
REMARK INTER + INTRA:          -8.600
REMARK INTER:                  -6.928
REMARK INTRA:                  -1.672
REMARK UNBOUND:                -1.978
REMARK SMILES CCCCCCCCCCCCCCCC(=O)[O-]
REMARK SMILES IDX 9 1 10 2 11 3 12 4 13 5 14 6 15 7 16 8 17 9 18 10 8 11 7 12
REMARK SMILES IDX 6 13 5 14 4 15 3 16 2 17 1 18
REMARK H PARENT
REMARK Flexibility Score: inf
ROOT
ATOM      1  C   UNL     1      40.324  23.009 222.912  1.00  0.00     0.000 C 
ENDROOT
BRANCH   1   2
ATOM      2  C   UNL     1      39.846  24.401 223.381  1.00  0.00     0.000 C 
BRANCH   2   3
ATOM      3  C   UNL     1      38.595  24.359 224.278  1.00  0.00     0.000 C 
BRANCH   3   4
ATOM      4  C   UNL     1      37.926  22.976 224.400  1.00  0.00     0.000 C 
BRANCH   4   5
ATOM      5  C   UNL     1      36.699  22.766 223.493  1.00  0.00     0.000 C 
BRANCH   5   6
ATOM      6  C   UNL     1      36.243  24.058 222.794  1.00  0.00     0.006 C 
BRANCH   6   7
ATOM      7  C   UNL     1      36.210  23.909 221.267  1.00  0.00     0.053 C 
BRANCH   7   8
ATOM      8  C   UNL     1      34.817  24.015 220.728  1.00  0.00     0.041 C 
ATOM      9  O   UNL     1      34.624  24.340 219.527  1.00  0.00    -0.550 OA
ATOM     10  O   UNL     1      33.730  23.782 221.561  1.00  0.00    -0.550 OA
ENDBRANCH   7   8
ENDBRANCH   6   7
ENDBRANCH   5   6
ENDBRANCH   4   5
ENDBRANCH   3   4
ENDBRANCH   2   3
ENDBRANCH   1   2
BRANCH   1  11
ATOM     11  C   UNL     1      41.711  22.647 223.473  1.00  0.00     0.000 C 
BRANCH  11  12
ATOM     12  C   UNL     1      41.842  22.958 224.973  1.00  0.00    -0.000 C 
BRANCH  12  13
ATOM     13  C   UNL     1      41.393  21.784 225.859  1.00  0.00    -0.000 C 
BRANCH  13  14
ATOM     14  C   UNL     1      42.044  20.455 225.445  1.00  0.00    -0.000 C 
BRANCH  14  15
ATOM     15  C   UNL     1      41.021  19.436 224.914  1.00  0.00    -0.000 C 
BRANCH  15  16
ATOM     16  C   UNL     1      39.572  19.821 225.281  1.00  0.00    -0.000 C 
BRANCH  16  17
ATOM     17  C   UNL     1      38.752  18.653 225.856  1.00  0.00    -0.003 C 
ATOM     18  C   UNL     1      38.946  18.469 227.359  1.00  0.00     0.004 C 
ENDBRANCH  16  17
ENDBRANCH  15  16
ENDBRANCH  14  15
ENDBRANCH  13  14
ENDBRANCH  12  13
ENDBRANCH  11  12
ENDBRANCH   1  11
TORSDOF 14
ENDMDL
MODEL 9
REMARK VINA RESULT:    -3.609      1.688      2.220
REMARK INTER + INTRA:          -8.541
REMARK INTER:                  -6.883
REMARK INTRA:                  -1.657
REMARK UNBOUND:                -1.978
REMARK SMILES CCCCCCCCCCCCCCCC(=O)[O-]
REMARK SMILES IDX 9 1 10 2 11 3 12 4 13 5 14 6 15 7 16 8 17 9 18 10 8 11 7 12
REMARK SMILES IDX 6 13 5 14 4 15 3 16 2 17 1 18
REMARK H PARENT
REMARK Flexibility Score: inf
ROOT
ATOM      1  C   UNL     1      39.551  24.670 225.582  1.00  0.00     0.000 C 
ENDROOT
BRANCH   1   2
ATOM      2  C   UNL     1      40.478  23.941 224.585  1.00  0.00     0.000 C 
BRANCH   2   3
ATOM      3  C   UNL     1      39.792  22.790 223.826  1.00  0.00     0.000 C 
BRANCH   3   4
ATOM      4  C   UNL     1      38.591  22.155 224.553  1.00  0.00     0.000 C 
BRANCH   4   5
ATOM      5  C   UNL     1      38.946  21.003 225.512  1.00  0.00     0.000 C 
BRANCH   5   6
ATOM      6  C   UNL     1      37.896  20.799 226.617  1.00  0.00     0.006 C 
BRANCH   6   7
ATOM      7  C   UNL     1      38.520  20.283 227.920  1.00  0.00     0.053 C 
BRANCH   7   8
ATOM      8  C   UNL     1      38.177  18.847 228.171  1.00  0.00     0.041 C 
ATOM      9  O   UNL     1      38.292  18.358 229.326  1.00  0.00    -0.550 OA
ATOM     10  O   UNL     1      37.757  18.039 227.121  1.00  0.00    -0.550 OA
ENDBRANCH   7   8
ENDBRANCH   6   7
ENDBRANCH   5   6
ENDBRANCH   4   5
ENDBRANCH   3   4
ENDBRANCH   2   3
ENDBRANCH   1   2
BRANCH   1  11
ATOM     11  C   UNL     1      38.941  25.951 224.985  1.00  0.00     0.000 C 
BRANCH  11  12
ATOM     12  C   UNL     1      37.426  25.831 224.752  1.00  0.00    -0.000 C 
BRANCH  12  13
ATOM     13  C   UNL     1      37.085  25.359 223.328  1.00  0.00    -0.000 C 
BRANCH  13  14
ATOM     14  C   UNL     1      35.867  24.424 223.296  1.00  0.00    -0.000 C 
BRANCH  14  15
ATOM     15  C   UNL     1      35.959  23.369 222.180  1.00  0.00    -0.000 C 
BRANCH  15  16
ATOM     16  C   UNL     1      37.154  23.624 221.237  1.00  0.00    -0.000 C 
BRANCH  16  17
ATOM     17  C   UNL     1      36.742  23.887 219.779  1.00  0.00    -0.003 C 
ATOM     18  C   UNL     1      35.252  24.181 219.622  1.00  0.00     0.004 C 
ENDBRANCH  16  17
ENDBRANCH  15  16
ENDBRANCH  14  15
ENDBRANCH  13  14
ENDBRANCH  12  13
ENDBRANCH  11  12
ENDBRANCH   1  11
TORSDOF 14
ENDMDL
