MODEL 1
REMARK VINA RESULT:     0.151      0.000      0.000
REMARK INTER + INTRA:           0.151
REMARK INTER:                   0.151
REMARK INTRA:                   0.000
REMARK UNBOUND:                 0.000
REMARK SMILES CC1=CC[C@]2(C)CCCC(C)(C)[C@@]23C[C@@H]13
REMARK SMILES IDX 1 1 2 2 3 3 4 4 5 5 7 6 8 7 9 8 10 9 13 10 15 11 14 12 11 13
REMARK SMILES IDX 12 14 6 15
REMARK H PARENT
REMARK Flexibility Score: inf
ROOT
ATOM      1  C   UNL     1     149.843 137.859 159.624  1.00  0.00     0.039 C 
ATOM      2  C   UNL     1     150.803 137.125 160.516  1.00  0.00    -0.074 C 
ATOM      3  C   UNL     1     151.006 135.816 160.340  1.00  0.00    -0.027 C 
ATOM      4  C   UNL     1     151.861 135.049 161.296  1.00  0.00     0.034 C 
ATOM      5  C   UNL     1     153.208 135.749 161.669  1.00  0.00    -0.022 C 
ATOM      6  C   UNL     1     153.740 134.945 162.903  1.00  0.00     0.008 C 
ATOM      7  C   UNL     1     154.761 135.689 163.739  1.00  0.00     0.001 C 
ATOM      8  C   UNL     1     154.107 136.939 164.311  1.00  0.00     0.007 C 
ATOM      9  C   UNL     1     153.783 137.981 163.214  1.00  0.00    -0.029 C 
ATOM     10  C   UNL     1     153.001 137.305 161.995  1.00  0.00    -0.012 C 
ATOM     11  C   UNL     1     151.650 137.901 161.493  1.00  0.00     0.022 C 
ATOM     12  C   UNL     1     152.936 138.282 160.793  1.00  0.00     0.017 C 
ATOM     13  C   UNL     1     155.125 138.614 162.740  1.00  0.00     0.012 C 
ATOM     14  C   UNL     1     152.958 139.098 163.903  1.00  0.00     0.012 C 
ATOM     15  C   UNL     1     154.215 135.553 160.504  1.00  0.00     0.012 C 
ENDROOT
TORSDOF 0
ENDMDL
MODEL 2
REMARK VINA RESULT:     2.157     19.876     22.589
REMARK INTER + INTRA:           2.157
REMARK INTER:                   2.157
REMARK INTRA:                   0.000
REMARK UNBOUND:                 0.000
REMARK SMILES CC1=CC[C@]2(C)CCCC(C)(C)[C@@]23C[C@@H]13
REMARK SMILES IDX 1 1 2 2 3 3 4 4 5 5 7 6 8 7 9 8 10 9 13 10 15 11 14 12 11 13
REMARK SMILES IDX 12 14 6 15
REMARK H PARENT
REMARK Flexibility Score: inf
ROOT
ATOM      1  C   UNL     1     140.846 152.431 159.871  1.00  0.00     0.039 C 
ATOM      2  C   UNL     1     139.847 153.105 160.768  1.00  0.00    -0.074 C 
ATOM      3  C   UNL     1     139.643 154.422 160.665  1.00  0.00    -0.027 C 
ATOM      4  C   UNL     1     138.747 155.125 161.632  1.00  0.00     0.034 C 
ATOM      5  C   UNL     1     137.391 154.399 161.909  1.00  0.00    -0.022 C 
ATOM      6  C   UNL     1     136.807 155.123 163.168  1.00  0.00     0.008 C 
ATOM      7  C   UNL     1     135.759 154.325 163.917  1.00  0.00     0.001 C 
ATOM      8  C   UNL     1     136.398 153.044 164.436  1.00  0.00     0.007 C 
ATOM      9  C   UNL     1     136.771 152.073 163.290  1.00  0.00    -0.029 C 
ATOM     10  C   UNL     1     137.595 152.826 162.146  1.00  0.00    -0.012 C 
ATOM     11  C   UNL     1     138.968 152.267 161.661  1.00  0.00     0.022 C 
ATOM     12  C   UNL     1     137.713 151.925 160.890  1.00  0.00     0.017 C 
ATOM     13  C   UNL     1     135.452 151.466 162.727  1.00  0.00     0.012 C 
ATOM     14  C   UNL     1     137.575 150.920 163.941  1.00  0.00     0.012 C 
ATOM     15  C   UNL     1     136.429 154.662 160.720  1.00  0.00     0.012 C 
ENDROOT
TORSDOF 0
ENDMDL
