MODEL 1
REMARK VINA RESULT:    -4.712      0.000      0.000
REMARK INTER + INTRA:          -4.849
REMARK INTER:                  -4.849
REMARK INTRA:                   0.000
REMARK UNBOUND:                 0.000
REMARK SMILES O=c1ccc2ccc(O)cc2o1
REMARK SMILES IDX 6 1 7 2 8 3 10 4 11 5 5 6 4 7 3 8 2 9 1 10 12 11 9 12
REMARK H PARENT 9 13
REMARK Flexibility Score: inf
ROOT
ATOM      1  C   UNL     1      16.069 130.117  66.331  1.00  0.00     0.016 A 
ATOM      2  C   UNL     1      15.538 128.840  66.126  1.00  0.00     0.047 A 
ATOM      3  C   UNL     1      16.089 127.990  65.160  1.00  0.00     0.119 A 
ATOM      4  C   UNL     1      17.180 128.421  64.390  1.00  0.00     0.094 A 
ATOM      5  C   UNL     1      17.718 129.697  64.588  1.00  0.00     0.142 A 
ATOM      6  C   UNL     1      17.160 130.551  65.565  1.00  0.00     0.018 A 
ATOM      7  C   UNL     1      17.719 131.821  65.739  1.00  0.00     0.019 A 
ATOM      8  C   UNL     1      18.804 132.204  64.952  1.00  0.00     0.094 A 
ATOM      9  C   UNL     1      19.306 131.306  64.003  1.00  0.00     0.336 A 
ATOM     10  O   UNL     1      20.284 131.634  63.283  1.00  0.00    -0.246 OA
ATOM     11  O   UNL     1      18.754 130.103  63.858  1.00  0.00    -0.423 OA
ENDROOT
BRANCH   3  12
ATOM     12  O   UNL     1      15.544 126.722  64.970  1.00  0.00    -0.508 OA
ATOM     13  H   UNL     1      14.547 126.587  64.852  1.00  0.00     0.293 HD
ENDBRANCH   3  12
TORSDOF 1
ENDMDL
MODEL 2
REMARK VINA RESULT:    -4.455      2.105      4.993
REMARK INTER + INTRA:          -4.585
REMARK INTER:                  -4.585
REMARK INTRA:                   0.000
REMARK UNBOUND:                 0.000
REMARK SMILES O=c1ccc2ccc(O)cc2o1
REMARK SMILES IDX 6 1 7 2 8 3 10 4 11 5 5 6 4 7 3 8 2 9 1 10 12 11 9 12
REMARK H PARENT 9 13
REMARK Flexibility Score: inf
ROOT
ATOM      1  C   UNL     1      19.097 133.025  61.963  1.00  0.00     0.016 A 
ATOM      2  C   UNL     1      20.445 132.766  61.696  1.00  0.00     0.047 A 
ATOM      3  C   UNL     1      21.127 131.765  62.399  1.00  0.00     0.119 A 
ATOM      4  C   UNL     1      20.456 131.017  63.378  1.00  0.00     0.094 A 
ATOM      5  C   UNL     1      19.107 131.270  63.652  1.00  0.00     0.142 A 
ATOM      6  C   UNL     1      18.423 132.279  62.940  1.00  0.00     0.018 A 
ATOM      7  C   UNL     1      17.075 132.508  63.237  1.00  0.00     0.019 A 
ATOM      8  C   UNL     1      16.450 131.739  64.218  1.00  0.00     0.094 A 
ATOM      9  C   UNL     1      17.191 130.755  64.883  1.00  0.00     0.336 A 
ATOM     10  O   UNL     1      16.645 130.051  65.772  1.00  0.00    -0.246 OA
ATOM     11  O   UNL     1      18.472 130.559  64.581  1.00  0.00    -0.423 OA
ENDROOT
BRANCH   3  12
ATOM     12  O   UNL     1      22.469 131.523  62.119  1.00  0.00    -0.508 OA
ATOM     13  H   UNL     1      22.962 132.042  61.401  1.00  0.00     0.293 HD
ENDBRANCH   3  12
TORSDOF 1
ENDMDL
MODEL 3
REMARK VINA RESULT:    -4.404      2.228      3.519
REMARK INTER + INTRA:          -4.533
REMARK INTER:                  -4.533
REMARK INTRA:                   0.000
REMARK UNBOUND:                 0.000
REMARK SMILES O=c1ccc2ccc(O)cc2o1
REMARK SMILES IDX 6 1 7 2 8 3 10 4 11 5 5 6 4 7 3 8 2 9 1 10 12 11 9 12
REMARK H PARENT 9 13
REMARK Flexibility Score: inf
ROOT
ATOM      1  C   UNL     1      18.853 130.322  64.773  1.00  0.00     0.016 A 
ATOM      2  C   UNL     1      19.001 129.132  64.053  1.00  0.00     0.047 A 
ATOM      3  C   UNL     1      17.970 128.185  64.030  1.00  0.00     0.119 A 
ATOM      4  C   UNL     1      16.781 128.428  64.734  1.00  0.00     0.094 A 
ATOM      5  C   UNL     1      16.624 129.616  65.458  1.00  0.00     0.142 A 
ATOM      6  C   UNL     1      17.666 130.569  65.477  1.00  0.00     0.018 A 
ATOM      7  C   UNL     1      17.480 131.746  66.210  1.00  0.00     0.019 A 
ATOM      8  C   UNL     1      16.281 131.944  66.893  1.00  0.00     0.094 A 
ATOM      9  C   UNL     1      15.292 130.956  66.828  1.00  0.00     0.336 A 
ATOM     10  O   UNL     1      14.203 131.116  67.439  1.00  0.00    -0.246 OA
ATOM     11  O   UNL     1      15.495 129.845  66.124  1.00  0.00    -0.423 OA
ENDROOT
BRANCH   3  12
ATOM     12  O   UNL     1      18.137 127.006  63.307  1.00  0.00    -0.508 OA
ATOM     13  H   UNL     1      18.944 126.860  62.712  1.00  0.00     0.293 HD
ENDBRANCH   3  12
TORSDOF 1
ENDMDL
MODEL 4
REMARK VINA RESULT:    -4.402      0.909      4.242
REMARK INTER + INTRA:          -4.530
REMARK INTER:                  -4.530
REMARK INTRA:                   0.000
REMARK UNBOUND:                 0.000
REMARK SMILES O=c1ccc2ccc(O)cc2o1
REMARK SMILES IDX 6 1 7 2 8 3 10 4 11 5 5 6 4 7 3 8 2 9 1 10 12 11 9 12
REMARK H PARENT 9 13
REMARK Flexibility Score: inf
ROOT
ATOM      1  C   UNL     1      17.673 132.071  65.960  1.00  0.00     0.016 A 
ATOM      2  C   UNL     1      18.748 132.382  65.121  1.00  0.00     0.047 A 
ATOM      3  C   UNL     1      19.211 131.447  64.187  1.00  0.00     0.119 A 
ATOM      4  C   UNL     1      18.595 130.191  64.091  1.00  0.00     0.094 A 
ATOM      5  C   UNL     1      17.518 129.871  64.925  1.00  0.00     0.142 A 
ATOM      6  C   UNL     1      17.054 130.817  65.866  1.00  0.00     0.018 A 
ATOM      7  C   UNL     1      15.976 130.467  66.686  1.00  0.00     0.019 A 
ATOM      8  C   UNL     1      15.395 129.207  66.553  1.00  0.00     0.094 A 
ATOM      9  C   UNL     1      15.908 128.321  65.599  1.00  0.00     0.336 A 
ATOM     10  O   UNL     1      15.397 127.178  65.464  1.00  0.00    -0.246 OA
ATOM     11  O   UNL     1      16.935 128.678  64.831  1.00  0.00    -0.423 OA
ENDROOT
BRANCH   3  12
ATOM     12  O   UNL     1      20.284 131.776  63.362  1.00  0.00    -0.508 OA
ATOM     13  H   UNL     1      20.837 131.061  62.903  1.00  0.00     0.293 HD
ENDBRANCH   3  12
TORSDOF 1
ENDMDL
MODEL 5
REMARK VINA RESULT:    -4.395      8.907      9.767
REMARK INTER + INTRA:          -4.524
REMARK INTER:                  -4.524
REMARK INTRA:                   0.000
REMARK UNBOUND:                 0.000
REMARK SMILES O=c1ccc2ccc(O)cc2o1
REMARK SMILES IDX 6 1 7 2 8 3 10 4 11 5 5 6 4 7 3 8 2 9 1 10 12 11 9 12
REMARK H PARENT 9 13
REMARK Flexibility Score: inf
ROOT
ATOM      1  C   UNL     1      16.620 130.810  56.794  1.00  0.00     0.016 A 
ATOM      2  C   UNL     1      16.958 130.750  55.439  1.00  0.00     0.047 A 
ATOM      3  C   UNL     1      16.167 131.397  54.482  1.00  0.00     0.119 A 
ATOM      4  C   UNL     1      15.027 132.110  54.883  1.00  0.00     0.094 A 
ATOM      5  C   UNL     1      14.681 132.176  56.237  1.00  0.00     0.142 A 
ATOM      6  C   UNL     1      15.482 131.522  57.199  1.00  0.00     0.018 A 
ATOM      7  C   UNL     1      15.109 131.605  58.545  1.00  0.00     0.019 A 
ATOM      8  C   UNL     1      13.969 132.326  58.896  1.00  0.00     0.094 A 
ATOM      9  C   UNL     1      13.223 132.949  57.888  1.00  0.00     0.336 A 
ATOM     10  O   UNL     1      12.190 133.603  58.185  1.00  0.00    -0.246 OA
ATOM     11  O   UNL     1      13.599 132.853  56.615  1.00  0.00    -0.423 OA
ENDROOT
BRANCH   3  12
ATOM     12  O   UNL     1      16.521 131.325  53.136  1.00  0.00    -0.508 OA
ATOM     13  H   UNL     1      17.448 131.583  52.818  1.00  0.00     0.293 HD
ENDBRANCH   3  12
TORSDOF 1
ENDMDL
MODEL 6
REMARK VINA RESULT:    -4.389      1.953      2.688
REMARK INTER + INTRA:          -4.517
REMARK INTER:                  -4.517
REMARK INTRA:                   0.000
REMARK UNBOUND:                 0.000
REMARK SMILES O=c1ccc2ccc(O)cc2o1
REMARK SMILES IDX 6 1 7 2 8 3 10 4 11 5 5 6 4 7 3 8 2 9 1 10 12 11 9 12
REMARK H PARENT 9 13
REMARK Flexibility Score: inf
ROOT
ATOM      1  C   UNL     1      19.459 129.472  63.995  1.00  0.00     0.016 A 
ATOM      2  C   UNL     1      18.717 128.286  64.018  1.00  0.00     0.047 A 
ATOM      3  C   UNL     1      17.320 128.327  64.098  1.00  0.00     0.119 A 
ATOM      4  C   UNL     1      16.658 129.562  64.156  1.00  0.00     0.094 A 
ATOM      5  C   UNL     1      17.392 130.754  64.132  1.00  0.00     0.142 A 
ATOM      6  C   UNL     1      18.801 130.709  64.051  1.00  0.00     0.018 A 
ATOM      7  C   UNL     1      19.507 131.916  64.030  1.00  0.00     0.019 A 
ATOM      8  C   UNL     1      18.806 133.119  64.088  1.00  0.00     0.094 A 
ATOM      9  C   UNL     1      17.408 133.087  64.168  1.00  0.00     0.336 A 
ATOM     10  O   UNL     1      16.758 134.164  64.221  1.00  0.00    -0.246 OA
ATOM     11  O   UNL     1      16.762 131.925  64.186  1.00  0.00    -0.423 OA
ENDROOT
BRANCH   3  12
ATOM     12  O   UNL     1      16.599 127.135  64.121  1.00  0.00    -0.508 OA
ATOM     13  H   UNL     1      16.969 126.285  63.711  1.00  0.00     0.293 HD
ENDBRANCH   3  12
TORSDOF 1
ENDMDL
MODEL 7
REMARK VINA RESULT:    -4.255      8.140      9.152
REMARK INTER + INTRA:          -4.379
REMARK INTER:                  -4.379
REMARK INTRA:                   0.000
REMARK UNBOUND:                 0.000
REMARK SMILES O=c1ccc2ccc(O)cc2o1
REMARK SMILES IDX 6 1 7 2 8 3 10 4 11 5 5 6 4 7 3 8 2 9 1 10 12 11 9 12
REMARK H PARENT 9 13
REMARK Flexibility Score: inf
ROOT
ATOM      1  C   UNL     1      16.969 131.163  57.242  1.00  0.00     0.016 A 
ATOM      2  C   UNL     1      16.440 130.701  56.032  1.00  0.00     0.047 A 
ATOM      3  C   UNL     1      16.776 131.329  54.827  1.00  0.00     0.119 A 
ATOM      4  C   UNL     1      17.648 132.428  54.829  1.00  0.00     0.094 A 
ATOM      5  C   UNL     1      18.182 132.897  56.035  1.00  0.00     0.142 A 
ATOM      6  C   UNL     1      17.841 132.261  57.249  1.00  0.00     0.018 A 
ATOM      7  C   UNL     1      18.391 132.753  58.437  1.00  0.00     0.019 A 
ATOM      8  C   UNL     1      19.253 133.848  58.390  1.00  0.00     0.094 A 
ATOM      9  C   UNL     1      19.546 134.428  57.150  1.00  0.00     0.336 A 
ATOM     10  O   UNL     1      20.322 135.417  57.088  1.00  0.00    -0.246 OA
ATOM     11  O   UNL     1      19.009 133.940  56.035  1.00  0.00    -0.423 OA
ENDROOT
BRANCH   3  12
ATOM     12  O   UNL     1      16.238 130.854  53.633  1.00  0.00    -0.508 OA
ATOM     13  H   UNL     1      16.739 130.190  53.054  1.00  0.00     0.293 HD
ENDBRANCH   3  12
TORSDOF 1
ENDMDL
MODEL 8
REMARK VINA RESULT:    -4.158      6.466      7.636
REMARK INTER + INTRA:          -4.279
REMARK INTER:                  -4.279
REMARK INTRA:                   0.000
REMARK UNBOUND:                 0.000
REMARK SMILES O=c1ccc2ccc(O)cc2o1
REMARK SMILES IDX 6 1 7 2 8 3 10 4 11 5 5 6 4 7 3 8 2 9 1 10 12 11 9 12
REMARK H PARENT 9 13
REMARK Flexibility Score: inf
ROOT
ATOM      1  C   UNL     1      15.768 131.244  57.698  1.00  0.00     0.016 A 
ATOM      2  C   UNL     1      16.131 130.923  56.386  1.00  0.00     0.047 A 
ATOM      3  C   UNL     1      17.399 131.262  55.900  1.00  0.00     0.119 A 
ATOM      4  C   UNL     1      18.312 131.928  56.731  1.00  0.00     0.094 A 
ATOM      5  C   UNL     1      17.958 132.253  58.045  1.00  0.00     0.142 A 
ATOM      6  C   UNL     1      16.678 131.909  58.532  1.00  0.00     0.018 A 
ATOM      7  C   UNL     1      16.352 132.248  59.849  1.00  0.00     0.019 A 
ATOM      8  C   UNL     1      17.293 132.909  60.638  1.00  0.00     0.094 A 
ATOM      9  C   UNL     1      18.542 133.218  60.088  1.00  0.00     0.336 A 
ATOM     10  O   UNL     1      19.404 133.815  60.785  1.00  0.00    -0.246 OA
ATOM     11  O   UNL     1      18.826 132.885  58.832  1.00  0.00    -0.423 OA
ENDROOT
BRANCH   3  12
ATOM     12  O   UNL     1      17.742 130.934  54.590  1.00  0.00    -0.508 OA
ATOM     13  H   UNL     1      18.406 130.196  54.386  1.00  0.00     0.293 HD
ENDBRANCH   3  12
TORSDOF 1
ENDMDL
MODEL 9
REMARK VINA RESULT:    -4.145      8.234      9.108
REMARK INTER + INTRA:          -4.266
REMARK INTER:                  -4.266
REMARK INTRA:                   0.000
REMARK UNBOUND:                 0.000
REMARK SMILES O=c1ccc2ccc(O)cc2o1
REMARK SMILES IDX 6 1 7 2 8 3 10 4 11 5 5 6 4 7 3 8 2 9 1 10 12 11 9 12
REMARK H PARENT 9 13
REMARK Flexibility Score: inf
ROOT
ATOM      1  C   UNL     1      14.391 132.687  55.509  1.00  0.00     0.016 A 
ATOM      2  C   UNL     1      15.362 132.183  54.637  1.00  0.00     0.047 A 
ATOM      3  C   UNL     1      16.391 131.365  55.120  1.00  0.00     0.119 A 
ATOM      4  C   UNL     1      16.451 131.048  56.485  1.00  0.00     0.094 A 
ATOM      5  C   UNL     1      15.484 131.547  57.364  1.00  0.00     0.142 A 
ATOM      6  C   UNL     1      14.447 132.371  56.874  1.00  0.00     0.018 A 
ATOM      7  C   UNL     1      13.495 132.854  57.777  1.00  0.00     0.019 A 
ATOM      8  C   UNL     1      13.595 132.511  59.125  1.00  0.00     0.094 A 
ATOM      9  C   UNL     1      14.649 131.690  59.540  1.00  0.00     0.336 A 
ATOM     10  O   UNL     1      14.756 131.370  60.752  1.00  0.00    -0.246 OA
ATOM     11  O   UNL     1      15.542 131.244  58.659  1.00  0.00    -0.423 OA
ENDROOT
BRANCH   3  12
ATOM     12  O   UNL     1      17.350 130.875  54.236  1.00  0.00    -0.508 OA
ATOM     13  H   UNL     1      17.148 130.101  53.613  1.00  0.00     0.293 HD
ENDBRANCH   3  12
TORSDOF 1
ENDMDL
