MODEL 1
REMARK VINA RESULT:    -4.894      0.000      0.000
REMARK INTER + INTRA:         -16.251
REMARK INTER:                 -12.905
REMARK INTRA:                  -3.346
REMARK UNBOUND:                -3.346
REMARK SMILES CCCCCCCCCCCCCCCCCCCCCCCCCCCCCC(=O)[O-]
REMARK SMILES IDX 16 1 17 2 18 3 19 4 20 5 21 6 22 7 23 8 24 9 25 10 26 11
REMARK SMILES IDX 27 12 28 13 29 14 30 15 31 16 32 17 15 18 14 19 13 20 12 21
REMARK SMILES IDX 11 22 10 23 9 24 8 25 7 26 6 27 5 28 4 29 3 30 2 31 1 32
REMARK H PARENT
REMARK Flexibility Score: inf
ROOT
ATOM      1  C   UNL     1      99.526 126.891 125.513  1.00  0.00     0.000 C 
ENDROOT
BRANCH   1   2
ATOM      2  C   UNL     1      98.510 126.035 126.289  1.00  0.00     0.000 C 
BRANCH   2   3
ATOM      3  C   UNL     1      98.971 124.576 126.445  1.00  0.00     0.000 C 
BRANCH   3   4
ATOM      4  C   UNL     1      97.914 123.573 125.950  1.00  0.00     0.000 C 
BRANCH   4   5
ATOM      5  C   UNL     1      96.484 124.149 126.014  1.00  0.00     0.000 C 
BRANCH   5   6
ATOM      6  C   UNL     1      95.647 123.879 124.753  1.00  0.00     0.000 C 
BRANCH   6   7
ATOM      7  C   UNL     1      96.501 123.741 123.485  1.00  0.00     0.000 C 
BRANCH   7   8
ATOM      8  C   UNL     1      96.126 122.476 122.704  1.00  0.00     0.000 C 
BRANCH   8   9
ATOM      9  C   UNL     1      94.600 122.307 122.628  1.00  0.00     0.000 C 
BRANCH   9  10
ATOM     10  C   UNL     1      94.171 121.241 121.608  1.00  0.00     0.000 C 
BRANCH  10  11
ATOM     11  C   UNL     1      95.056 121.234 120.352  1.00  0.00     0.000 C 
BRANCH  11  12
ATOM     12  C   UNL     1      94.210 121.023 119.087  1.00  0.00     0.000 C 
BRANCH  12  13
ATOM     13  C   UNL     1      92.811 121.657 119.194  1.00  0.00     0.006 C 
BRANCH  13  14
ATOM     14  C   UNL     1      91.879 121.339 118.013  1.00  0.00     0.053 C 
BRANCH  14  15
ATOM     15  C   UNL     1      92.368 121.943 116.732  1.00  0.00     0.041 C 
ATOM     16  O   UNL     1      92.459 121.239 115.692  1.00  0.00    -0.550 OA
ATOM     17  O   UNL     1      92.740 123.280 116.692  1.00  0.00    -0.550 OA
ENDBRANCH  14  15
ENDBRANCH  13  14
ENDBRANCH  12  13
ENDBRANCH  11  12
ENDBRANCH  10  11
ENDBRANCH   9  10
ENDBRANCH   8   9
ENDBRANCH   7   8
ENDBRANCH   6   7
ENDBRANCH   5   6
ENDBRANCH   4   5
ENDBRANCH   3   4
ENDBRANCH   2   3
ENDBRANCH   1   2
BRANCH   1  18
ATOM     18  C   UNL     1     100.928 126.256 125.471  1.00  0.00     0.000 C 
BRANCH  18  19
ATOM     19  C   UNL     1     101.887 126.730 126.582  1.00  0.00     0.000 C 
BRANCH  19  20
ATOM     20  C   UNL     1     101.216 127.109 127.919  1.00  0.00     0.000 C 
BRANCH  20  21
ATOM     21  C   UNL     1     102.034 128.052 128.821  1.00  0.00     0.000 C 
BRANCH  21  22
ATOM     22  C   UNL     1     101.538 129.507 128.777  1.00  0.00     0.000 C 
BRANCH  22  23
ATOM     23  C   UNL     1     100.992 129.908 127.395  1.00  0.00     0.000 C 
BRANCH  23  24
ATOM     24  C   UNL     1      99.506 130.315 127.369  1.00  0.00    -0.000 C 
BRANCH  24  25
ATOM     25  C   UNL     1      98.596 129.531 128.334  1.00  0.00    -0.000 C 
BRANCH  25  26
ATOM     26  C   UNL     1      97.317 130.272 128.768  1.00  0.00    -0.000 C 
BRANCH  26  27
ATOM     27  C   UNL     1      97.007 130.101 130.264  1.00  0.00    -0.000 C 
BRANCH  27  28
ATOM     28  C   UNL     1      97.604 128.796 130.804  1.00  0.00    -0.000 C 
BRANCH  28  29
ATOM     29  C   UNL     1      96.577 127.658 130.752  1.00  0.00    -0.000 C 
BRANCH  29  30
ATOM     30  C   UNL     1      96.911 126.666 129.626  1.00  0.00    -0.000 C 
BRANCH  30  31
ATOM     31  C   UNL     1      98.217 125.897 129.881  1.00  0.00    -0.003 C 
ATOM     32  C   UNL     1      97.992 124.568 130.601  1.00  0.00     0.004 C 
ENDBRANCH  30  31
ENDBRANCH  29  30
ENDBRANCH  28  29
ENDBRANCH  27  28
ENDBRANCH  26  27
ENDBRANCH  25  26
ENDBRANCH  24  25
ENDBRANCH  23  24
ENDBRANCH  22  23
ENDBRANCH  21  22
ENDBRANCH  20  21
ENDBRANCH  19  20
ENDBRANCH  18  19
ENDBRANCH   1  18
TORSDOF 28
ENDMDL
MODEL 2
REMARK VINA RESULT:    -4.811      3.668     10.731
REMARK INTER + INTRA:         -16.031
REMARK INTER:                 -12.637
REMARK INTRA:                  -3.394
REMARK UNBOUND:                -3.346
REMARK SMILES CCCCCCCCCCCCCCCCCCCCCCCCCCCCCC(=O)[O-]
REMARK SMILES IDX 16 1 17 2 18 3 19 4 20 5 21 6 22 7 23 8 24 9 25 10 26 11
REMARK SMILES IDX 27 12 28 13 29 14 30 15 31 16 32 17 15 18 14 19 13 20 12 21
REMARK SMILES IDX 11 22 10 23 9 24 8 25 7 26 6 27 5 28 4 29 3 30 2 31 1 32
REMARK H PARENT
REMARK Flexibility Score: inf
ROOT
ATOM      1  C   UNL     1      99.862 124.001 127.092  1.00  0.00     0.000 C 
ENDROOT
BRANCH   1   2
ATOM      2  C   UNL     1     100.940 123.002 127.547  1.00  0.00     0.000 C 
BRANCH   2   3
ATOM      3  C   UNL     1     100.350 121.829 128.348  1.00  0.00     0.000 C 
BRANCH   3   4
ATOM      4  C   UNL     1     100.969 121.710 129.753  1.00  0.00     0.000 C 
BRANCH   4   5
ATOM      5  C   UNL     1     100.099 122.382 130.835  1.00  0.00     0.000 C 
BRANCH   5   6
ATOM      6  C   UNL     1      98.588 122.296 130.562  1.00  0.00     0.000 C 
BRANCH   6   7
ATOM      7  C   UNL     1      97.967 123.653 130.198  1.00  0.00     0.000 C 
BRANCH   7   8
ATOM      8  C   UNL     1      98.796 124.809 130.773  1.00  0.00     0.000 C 
BRANCH   8   9
ATOM      9  C   UNL     1      98.094 126.156 130.543  1.00  0.00     0.000 C 
BRANCH   9  10
ATOM     10  C   UNL     1      98.618 126.894 129.301  1.00  0.00     0.000 C 
BRANCH  10  11
ATOM     11  C   UNL     1      97.494 127.299 128.335  1.00  0.00     0.000 C 
BRANCH  11  12
ATOM     12  C   UNL     1      98.032 128.211 127.222  1.00  0.00     0.000 C 
BRANCH  12  13
ATOM     13  C   UNL     1      99.544 128.472 127.343  1.00  0.00     0.006 C 
BRANCH  13  14
ATOM     14  C   UNL     1     100.397 127.773 126.271  1.00  0.00     0.053 C 
BRANCH  14  15
ATOM     15  C   UNL     1     100.835 128.719 125.197  1.00  0.00     0.041 C 
ATOM     16  O   UNL     1     100.966 128.318 124.010  1.00  0.00    -0.550 OA
ATOM     17  O   UNL     1     101.116 130.043 125.509  1.00  0.00    -0.550 OA
ENDBRANCH  14  15
ENDBRANCH  13  14
ENDBRANCH  12  13
ENDBRANCH  11  12
ENDBRANCH  10  11
ENDBRANCH   9  10
ENDBRANCH   8   9
ENDBRANCH   7   8
ENDBRANCH   6   7
ENDBRANCH   5   6
ENDBRANCH   4   5
ENDBRANCH   3   4
ENDBRANCH   2   3
ENDBRANCH   1   2
BRANCH   1  18
ATOM     18  C   UNL     1      98.568 123.307 126.628  1.00  0.00     0.000 C 
BRANCH  18  19
ATOM     19  C   UNL     1      97.344 124.237 126.505  1.00  0.00     0.000 C 
BRANCH  19  20
ATOM     20  C   UNL     1      97.320 125.139 125.253  1.00  0.00     0.000 C 
BRANCH  20  21
ATOM     21  C   UNL     1      96.152 124.884 124.281  1.00  0.00     0.000 C 
BRANCH  21  22
ATOM     22  C   UNL     1      96.232 123.511 123.592  1.00  0.00     0.000 C 
BRANCH  22  23
ATOM     23  C   UNL     1      94.848 122.872 123.378  1.00  0.00     0.000 C 
BRANCH  23  24
ATOM     24  C   UNL     1      94.869 121.443 122.801  1.00  0.00    -0.000 C 
BRANCH  24  25
ATOM     25  C   UNL     1      94.044 121.246 121.514  1.00  0.00    -0.000 C 
BRANCH  25  26
ATOM     26  C   UNL     1      94.861 121.268 120.208  1.00  0.00    -0.000 C 
BRANCH  26  27
ATOM     27  C   UNL     1      93.985 121.126 118.954  1.00  0.00    -0.000 C 
BRANCH  27  28
ATOM     28  C   UNL     1      92.565 121.641 119.212  1.00  0.00    -0.000 C 
BRANCH  28  29
ATOM     29  C   UNL     1      91.703 121.539 117.947  1.00  0.00    -0.000 C 
BRANCH  29  30
ATOM     30  C   UNL     1      92.540 121.808 116.687  1.00  0.00    -0.000 C 
BRANCH  30  31
ATOM     31  C   UNL     1      92.297 123.209 116.103  1.00  0.00    -0.003 C 
ATOM     32  C   UNL     1      92.816 124.326 117.006  1.00  0.00     0.004 C 
ENDBRANCH  30  31
ENDBRANCH  29  30
ENDBRANCH  28  29
ENDBRANCH  27  28
ENDBRANCH  26  27
ENDBRANCH  25  26
ENDBRANCH  24  25
ENDBRANCH  23  24
ENDBRANCH  22  23
ENDBRANCH  21  22
ENDBRANCH  20  21
ENDBRANCH  19  20
ENDBRANCH  18  19
ENDBRANCH   1  18
TORSDOF 28
ENDMDL
MODEL 3
REMARK VINA RESULT:    -4.774      3.437     10.531
REMARK INTER + INTRA:         -15.935
REMARK INTER:                 -13.630
REMARK INTRA:                  -2.305
REMARK UNBOUND:                -3.346
REMARK SMILES CCCCCCCCCCCCCCCCCCCCCCCCCCCCCC(=O)[O-]
REMARK SMILES IDX 16 1 17 2 18 3 19 4 20 5 21 6 22 7 23 8 24 9 25 10 26 11
REMARK SMILES IDX 27 12 28 13 29 14 30 15 31 16 32 17 15 18 14 19 13 20 12 21
REMARK SMILES IDX 11 22 10 23 9 24 8 25 7 26 6 27 5 28 4 29 3 30 2 31 1 32
REMARK H PARENT
REMARK Flexibility Score: inf
ROOT
ATOM      1  C   UNL     1      98.805 125.329 130.057  1.00  0.00     0.000 C 
ENDROOT
BRANCH   1   2
ATOM      2  C   UNL     1      97.536 126.106 130.446  1.00  0.00     0.000 C 
BRANCH   2   3
ATOM      3  C   UNL     1      96.947 126.894 129.264  1.00  0.00     0.000 C 
BRANCH   3   4
ATOM      4  C   UNL     1      95.826 127.855 129.701  1.00  0.00     0.000 C 
BRANCH   4   5
ATOM      5  C   UNL     1      96.334 128.946 130.667  1.00  0.00     0.000 C 
BRANCH   5   6
ATOM      6  C   UNL     1      97.371 129.895 130.044  1.00  0.00     0.000 C 
BRANCH   6   7
ATOM      7  C   UNL     1      98.773 129.730 130.648  1.00  0.00     0.000 C 
BRANCH   7   8
ATOM      8  C   UNL     1      99.729 129.071 129.645  1.00  0.00     0.000 C 
BRANCH   8   9
ATOM      9  C   UNL     1     101.107 129.749 129.670  1.00  0.00     0.000 C 
BRANCH   9  10
ATOM     10  C   UNL     1     101.444 130.458 128.349  1.00  0.00     0.000 C 
BRANCH  10  11
ATOM     11  C   UNL     1     100.523 130.030 127.196  1.00  0.00     0.000 C 
BRANCH  11  12
ATOM     12  C   UNL     1     101.256 130.119 125.849  1.00  0.00     0.000 C 
BRANCH  12  13
ATOM     13  C   UNL     1     101.520 128.738 125.221  1.00  0.00     0.006 C 
BRANCH  13  14
ATOM     14  C   UNL     1     101.883 127.639 126.234  1.00  0.00     0.053 C 
BRANCH  14  15
ATOM     15  C   UNL     1     101.108 126.380 125.997  1.00  0.00     0.041 C 
ATOM     16  O   UNL     1     101.708 125.301 125.747  1.00  0.00    -0.550 OA
ATOM     17  O   UNL     1      99.720 126.400 126.037  1.00  0.00    -0.550 OA
ENDBRANCH  14  15
ENDBRANCH  13  14
ENDBRANCH  12  13
ENDBRANCH  11  12
ENDBRANCH  10  11
ENDBRANCH   9  10
ENDBRANCH   8   9
ENDBRANCH   7   8
ENDBRANCH   6   7
ENDBRANCH   5   6
ENDBRANCH   4   5
ENDBRANCH   3   4
ENDBRANCH   2   3
ENDBRANCH   1   2
BRANCH   1  18
ATOM     18  C   UNL     1      98.500 124.080 129.209  1.00  0.00     0.000 C 
BRANCH  18  19
ATOM     19  C   UNL     1      99.636 123.650 128.260  1.00  0.00     0.000 C 
BRANCH  19  20
ATOM     20  C   UNL     1      99.387 122.343 127.478  1.00  0.00     0.000 C 
BRANCH  20  21
ATOM     21  C   UNL     1      98.645 122.509 126.138  1.00  0.00     0.000 C 
BRANCH  21  22
ATOM     22  C   UNL     1      97.585 123.623 126.172  1.00  0.00     0.000 C 
BRANCH  22  23
ATOM     23  C   UNL     1      96.651 123.591 124.949  1.00  0.00     0.000 C 
BRANCH  23  24
ATOM     24  C   UNL     1      96.857 122.396 123.997  1.00  0.00    -0.000 C 
BRANCH  24  25
ATOM     25  C   UNL     1      95.998 122.424 122.718  1.00  0.00    -0.000 C 
BRANCH  25  26
ATOM     26  C   UNL     1      94.627 121.732 122.841  1.00  0.00    -0.000 C 
BRANCH  26  27
ATOM     27  C   UNL     1      93.549 122.382 121.959  1.00  0.00    -0.000 C 
BRANCH  27  28
ATOM     28  C   UNL     1      93.117 121.436 120.832  1.00  0.00    -0.000 C 
BRANCH  28  29
ATOM     29  C   UNL     1      94.328 120.949 120.026  1.00  0.00    -0.000 C 
BRANCH  29  30
ATOM     30  C   UNL     1      94.093 121.123 118.517  1.00  0.00    -0.000 C 
BRANCH  30  31
ATOM     31  C   UNL     1      92.782 121.861 118.204  1.00  0.00    -0.003 C 
ATOM     32  C   UNL     1      92.266 121.581 116.793  1.00  0.00     0.004 C 
ENDBRANCH  30  31
ENDBRANCH  29  30
ENDBRANCH  28  29
ENDBRANCH  27  28
ENDBRANCH  26  27
ENDBRANCH  25  26
ENDBRANCH  24  25
ENDBRANCH  23  24
ENDBRANCH  22  23
ENDBRANCH  21  22
ENDBRANCH  20  21
ENDBRANCH  19  20
ENDBRANCH  18  19
ENDBRANCH   1  18
TORSDOF 28
ENDMDL
MODEL 4
REMARK VINA RESULT:    -4.612      3.810     11.225
REMARK INTER + INTRA:         -15.507
REMARK INTER:                 -12.816
REMARK INTRA:                  -2.691
REMARK UNBOUND:                -3.346
REMARK SMILES CCCCCCCCCCCCCCCCCCCCCCCCCCCCCC(=O)[O-]
REMARK SMILES IDX 16 1 17 2 18 3 19 4 20 5 21 6 22 7 23 8 24 9 25 10 26 11
REMARK SMILES IDX 27 12 28 13 29 14 30 15 31 16 32 17 15 18 14 19 13 20 12 21
REMARK SMILES IDX 11 22 10 23 9 24 8 25 7 26 6 27 5 28 4 29 3 30 2 31 1 32
REMARK H PARENT
REMARK Flexibility Score: inf
ROOT
ATOM      1  C   UNL     1      98.398 126.968 125.421  1.00  0.00     0.000 C 
ENDROOT
BRANCH   1   2
ATOM      2  C   UNL     1      99.706 127.289 126.165  1.00  0.00     0.000 C 
BRANCH   2   3
ATOM      3  C   UNL     1     100.092 128.774 126.058  1.00  0.00     0.000 C 
BRANCH   3   4
ATOM      4  C   UNL     1     100.781 129.293 127.332  1.00  0.00     0.000 C 
BRANCH   4   5
ATOM      5  C   UNL     1     100.334 128.524 128.594  1.00  0.00     0.000 C 
BRANCH   5   6
ATOM      6  C   UNL     1      99.792 129.427 129.715  1.00  0.00     0.000 C 
BRANCH   6   7
ATOM      7  C   UNL     1      98.262 129.555 129.693  1.00  0.00     0.000 C 
BRANCH   7   8
ATOM      8  C   UNL     1      97.651 128.668 128.601  1.00  0.00     0.000 C 
BRANCH   8   9
ATOM      9  C   UNL     1      96.533 127.782 129.173  1.00  0.00     0.000 C 
BRANCH   9  10
ATOM     10  C   UNL     1      96.960 127.037 130.447  1.00  0.00     0.000 C 
BRANCH  10  11
ATOM     11  C   UNL     1      97.341 125.573 130.177  1.00  0.00     0.000 C 
BRANCH  11  12
ATOM     12  C   UNL     1      98.464 125.117 131.120  1.00  0.00     0.000 C 
BRANCH  12  13
ATOM     13  C   UNL     1      99.838 125.696 130.735  1.00  0.00     0.006 C 
BRANCH  13  14
ATOM     14  C   UNL     1     100.866 124.645 130.285  1.00  0.00     0.053 C 
BRANCH  14  15
ATOM     15  C   UNL     1     100.446 123.951 129.026  1.00  0.00     0.041 C 
ATOM     16  O   UNL     1     100.562 124.529 127.913  1.00  0.00    -0.550 OA
ATOM     17  O   UNL     1      99.911 122.671 129.084  1.00  0.00    -0.550 OA
ENDBRANCH  14  15
ENDBRANCH  13  14
ENDBRANCH  12  13
ENDBRANCH  11  12
ENDBRANCH  10  11
ENDBRANCH   9  10
ENDBRANCH   8   9
ENDBRANCH   7   8
ENDBRANCH   6   7
ENDBRANCH   5   6
ENDBRANCH   4   5
ENDBRANCH   3   4
ENDBRANCH   2   3
ENDBRANCH   1   2
BRANCH   1  18
ATOM     18  C   UNL     1      97.737 125.669 125.917  1.00  0.00     0.000 C 
BRANCH  18  19
ATOM     19  C   UNL     1      96.850 124.957 124.876  1.00  0.00     0.000 C 
BRANCH  19  20
ATOM     20  C   UNL     1      96.781 123.420 125.004  1.00  0.00     0.000 C 
BRANCH  20  21
ATOM     21  C   UNL     1      96.828 122.647 123.673  1.00  0.00     0.000 C 
BRANCH  21  22
ATOM     22  C   UNL     1      95.465 122.060 123.271  1.00  0.00     0.000 C 
BRANCH  22  23
ATOM     23  C   UNL     1      94.292 123.004 123.593  1.00  0.00     0.000 C 
BRANCH  23  24
ATOM     24  C   UNL     1      93.044 122.825 122.707  1.00  0.00    -0.000 C 
BRANCH  24  25
ATOM     25  C   UNL     1      93.053 121.572 121.810  1.00  0.00    -0.000 C 
BRANCH  25  26
ATOM     26  C   UNL     1      93.031 121.857 120.296  1.00  0.00    -0.000 C 
BRANCH  26  27
ATOM     27  C   UNL     1      94.273 121.317 119.570  1.00  0.00    -0.000 C 
BRANCH  27  28
ATOM     28  C   UNL     1      93.928 120.876 118.142  1.00  0.00    -0.000 C 
BRANCH  28  29
ATOM     29  C   UNL     1      92.421 120.992 117.879  1.00  0.00    -0.000 C 
BRANCH  29  30
ATOM     30  C   UNL     1      92.125 122.092 116.847  1.00  0.00    -0.000 C 
BRANCH  30  31
ATOM     31  C   UNL     1      93.068 123.298 116.980  1.00  0.00    -0.003 C 
ATOM     32  C   UNL     1      92.427 124.606 116.519  1.00  0.00     0.004 C 
ENDBRANCH  30  31
ENDBRANCH  29  30
ENDBRANCH  28  29
ENDBRANCH  27  28
ENDBRANCH  26  27
ENDBRANCH  25  26
ENDBRANCH  24  25
ENDBRANCH  23  24
ENDBRANCH  22  23
ENDBRANCH  21  22
ENDBRANCH  20  21
ENDBRANCH  19  20
ENDBRANCH  18  19
ENDBRANCH   1  18
TORSDOF 28
ENDMDL
MODEL 5
REMARK VINA RESULT:    -4.469      2.641      6.602
REMARK INTER + INTRA:         -15.129
REMARK INTER:                 -10.751
REMARK INTRA:                  -4.378
REMARK UNBOUND:                -3.346
REMARK SMILES CCCCCCCCCCCCCCCCCCCCCCCCCCCCCC(=O)[O-]
REMARK SMILES IDX 16 1 17 2 18 3 19 4 20 5 21 6 22 7 23 8 24 9 25 10 26 11
REMARK SMILES IDX 27 12 28 13 29 14 30 15 31 16 32 17 15 18 14 19 13 20 12 21
REMARK SMILES IDX 11 22 10 23 9 24 8 25 7 26 6 27 5 28 4 29 3 30 2 31 1 32
REMARK H PARENT
REMARK Flexibility Score: inf
ROOT
ATOM      1  C   UNL     1     100.186 129.182 131.125  1.00  0.00     0.000 C 
ENDROOT
BRANCH   1   2
ATOM      2  C   UNL     1     100.976 130.279 130.391  1.00  0.00     0.000 C 
BRANCH   2   3
ATOM      3  C   UNL     1     101.833 129.717 129.245  1.00  0.00     0.000 C 
BRANCH   3   4
ATOM      4  C   UNL     1     101.461 130.328 127.882  1.00  0.00     0.000 C 
BRANCH   4   5
ATOM      5  C   UNL     1     100.931 129.270 126.890  1.00  0.00     0.000 C 
BRANCH   5   6
ATOM      6  C   UNL     1     101.454 127.849 127.157  1.00  0.00     0.000 C 
BRANCH   6   7
ATOM      7  C   UNL     1     100.368 126.900 127.683  1.00  0.00     0.000 C 
BRANCH   7   8
ATOM      8  C   UNL     1      99.944 125.897 126.603  1.00  0.00     0.000 C 
BRANCH   8   9
ATOM      9  C   UNL     1      99.269 126.613 125.422  1.00  0.00     0.000 C 
BRANCH   9  10
ATOM     10  C   UNL     1      97.747 126.400 125.391  1.00  0.00     0.000 C 
BRANCH  10  11
ATOM     11  C   UNL     1      97.353 124.922 125.527  1.00  0.00     0.000 C 
BRANCH  11  12
ATOM     12  C   UNL     1      96.415 124.498 124.387  1.00  0.00     0.000 C 
BRANCH  12  13
ATOM     13  C   UNL     1      96.466 122.986 124.103  1.00  0.00     0.006 C 
BRANCH  13  14
ATOM     14  C   UNL     1      95.961 122.585 122.707  1.00  0.00     0.053 C 
BRANCH  14  15
ATOM     15  C   UNL     1      94.515 122.198 122.722  1.00  0.00     0.041 C 
ATOM     16  O   UNL     1      94.127 121.163 122.118  1.00  0.00    -0.550 OA
ATOM     17  O   UNL     1      93.591 122.990 123.390  1.00  0.00    -0.550 OA
ENDBRANCH  14  15
ENDBRANCH  13  14
ENDBRANCH  12  13
ENDBRANCH  11  12
ENDBRANCH  10  11
ENDBRANCH   9  10
ENDBRANCH   8   9
ENDBRANCH   7   8
ENDBRANCH   6   7
ENDBRANCH   5   6
ENDBRANCH   4   5
ENDBRANCH   3   4
ENDBRANCH   2   3
ENDBRANCH   1   2
BRANCH   1  18
ATOM     18  C   UNL     1      98.665 129.311 130.925  1.00  0.00     0.000 C 
BRANCH  18  19
ATOM     19  C   UNL     1      98.240 129.954 129.590  1.00  0.00     0.000 C 
BRANCH  19  20
ATOM     20  C   UNL     1      96.994 129.335 128.922  1.00  0.00     0.000 C 
BRANCH  20  21
ATOM     21  C   UNL     1      97.129 127.854 128.523  1.00  0.00     0.000 C 
BRANCH  21  22
ATOM     22  C   UNL     1      96.549 126.892 129.574  1.00  0.00     0.000 C 
BRANCH  22  23
ATOM     23  C   UNL     1      97.586 125.880 130.091  1.00  0.00     0.000 C 
BRANCH  23  24
ATOM     24  C   UNL     1      97.718 124.591 129.257  1.00  0.00    -0.000 C 
BRANCH  24  25
ATOM     25  C   UNL     1      97.978 123.308 130.071  1.00  0.00    -0.000 C 
BRANCH  25  26
ATOM     26  C   UNL     1      99.465 122.977 130.302  1.00  0.00    -0.000 C 
BRANCH  26  27
ATOM     27  C   UNL     1     100.395 123.681 129.302  1.00  0.00    -0.000 C 
BRANCH  27  28
ATOM     28  C   UNL     1     101.803 123.073 129.337  1.00  0.00    -0.000 C 
BRANCH  28  29
ATOM     29  C   UNL     1     101.874 121.801 128.483  1.00  0.00    -0.000 C 
BRANCH  29  30
ATOM     30  C   UNL     1     101.645 122.121 126.997  1.00  0.00    -0.000 C 
BRANCH  30  31
ATOM     31  C   UNL     1     100.568 121.231 126.358  1.00  0.00    -0.003 C 
ATOM     32  C   UNL     1      99.177 121.863 126.396  1.00  0.00     0.004 C 
ENDBRANCH  30  31
ENDBRANCH  29  30
ENDBRANCH  28  29
ENDBRANCH  27  28
ENDBRANCH  26  27
ENDBRANCH  25  26
ENDBRANCH  24  25
ENDBRANCH  23  24
ENDBRANCH  22  23
ENDBRANCH  21  22
ENDBRANCH  20  21
ENDBRANCH  19  20
ENDBRANCH  18  19
ENDBRANCH   1  18
TORSDOF 28
ENDMDL
MODEL 6
REMARK VINA RESULT:    -4.345      3.772     10.959
REMARK INTER + INTRA:         -14.803
REMARK INTER:                 -12.116
REMARK INTRA:                  -2.687
REMARK UNBOUND:                -3.346
REMARK SMILES CCCCCCCCCCCCCCCCCCCCCCCCCCCCCC(=O)[O-]
REMARK SMILES IDX 16 1 17 2 18 3 19 4 20 5 21 6 22 7 23 8 24 9 25 10 26 11
REMARK SMILES IDX 27 12 28 13 29 14 30 15 31 16 32 17 15 18 14 19 13 20 12 21
REMARK SMILES IDX 11 22 10 23 9 24 8 25 7 26 6 27 5 28 4 29 3 30 2 31 1 32
REMARK H PARENT
REMARK Flexibility Score: inf
ROOT
ATOM      1  C   UNL     1      98.764 127.938 125.821  1.00  0.00     0.000 C 
ENDROOT
BRANCH   1   2
ATOM      2  C   UNL     1     100.263 128.089 125.506  1.00  0.00     0.000 C 
BRANCH   2   3
ATOM      3  C   UNL     1     101.100 128.371 126.765  1.00  0.00     0.000 C 
BRANCH   3   4
ATOM      4  C   UNL     1     101.583 129.831 126.831  1.00  0.00     0.000 C 
BRANCH   4   5
ATOM      5  C   UNL     1     101.052 130.567 128.080  1.00  0.00     0.000 C 
BRANCH   5   6
ATOM      6  C   UNL     1     101.788 130.199 129.379  1.00  0.00     0.000 C 
BRANCH   6   7
ATOM      7  C   UNL     1     101.226 128.938 130.050  1.00  0.00     0.000 C 
BRANCH   7   8
ATOM      8  C   UNL     1      99.945 129.256 130.832  1.00  0.00     0.000 C 
BRANCH   8   9
ATOM      9  C   UNL     1      98.863 128.196 130.570  1.00  0.00     0.000 C 
BRANCH   9  10
ATOM     10  C   UNL     1      99.358 127.053 129.670  1.00  0.00     0.000 C 
BRANCH  10  11
ATOM     11  C   UNL     1      99.484 125.720 130.422  1.00  0.00     0.000 C 
BRANCH  11  12
ATOM     12  C   UNL     1     100.944 125.242 130.447  1.00  0.00     0.000 C 
BRANCH  12  13
ATOM     13  C   UNL     1     101.546 125.092 129.038  1.00  0.00     0.006 C 
BRANCH  13  14
ATOM     14  C   UNL     1     101.072 123.845 128.274  1.00  0.00     0.053 C 
BRANCH  14  15
ATOM     15  C   UNL     1     101.630 123.790 126.885  1.00  0.00     0.041 C 
ATOM     16  O   UNL     1     101.948 122.686 126.371  1.00  0.00    -0.550 OA
ATOM     17  O   UNL     1     101.815 124.963 126.165  1.00  0.00    -0.550 OA
ENDBRANCH  14  15
ENDBRANCH  13  14
ENDBRANCH  12  13
ENDBRANCH  11  12
ENDBRANCH  10  11
ENDBRANCH   9  10
ENDBRANCH   8   9
ENDBRANCH   7   8
ENDBRANCH   6   7
ENDBRANCH   5   6
ENDBRANCH   4   5
ENDBRANCH   3   4
ENDBRANCH   2   3
ENDBRANCH   1   2
BRANCH   1  18
ATOM     18  C   UNL     1      98.253 126.502 125.599  1.00  0.00     0.000 C 
BRANCH  18  19
ATOM     19  C   UNL     1      98.275 125.607 126.854  1.00  0.00     0.000 C 
BRANCH  19  20
ATOM     20  C   UNL     1      97.819 124.149 126.636  1.00  0.00     0.000 C 
BRANCH  20  21
ATOM     21  C   UNL     1      96.453 123.984 125.945  1.00  0.00     0.000 C 
BRANCH  21  22
ATOM     22  C   UNL     1      96.564 123.847 124.417  1.00  0.00     0.000 C 
BRANCH  22  23
ATOM     23  C   UNL     1      96.816 122.396 123.967  1.00  0.00     0.000 C 
BRANCH  23  24
ATOM     24  C   UNL     1      96.356 122.065 122.534  1.00  0.00    -0.000 C 
BRANCH  24  25
ATOM     25  C   UNL     1      94.893 122.430 122.216  1.00  0.00    -0.000 C 
BRANCH  25  26
ATOM     26  C   UNL     1      94.091 121.328 121.497  1.00  0.00    -0.000 C 
BRANCH  26  27
ATOM     27  C   UNL     1      92.858 121.873 120.759  1.00  0.00    -0.000 C 
BRANCH  27  28
ATOM     28  C   UNL     1      92.570 121.059 119.492  1.00  0.00    -0.000 C 
BRANCH  28  29
ATOM     29  C   UNL     1      93.607 121.353 118.401  1.00  0.00    -0.000 C 
BRANCH  29  30
ATOM     30  C   UNL     1      93.043 121.040 117.005  1.00  0.00    -0.000 C 
BRANCH  30  31
ATOM     31  C   UNL     1      92.231 122.207 116.420  1.00  0.00    -0.003 C 
ATOM     32  C   UNL     1      92.603 123.555 117.035  1.00  0.00     0.004 C 
ENDBRANCH  30  31
ENDBRANCH  29  30
ENDBRANCH  28  29
ENDBRANCH  27  28
ENDBRANCH  26  27
ENDBRANCH  25  26
ENDBRANCH  24  25
ENDBRANCH  23  24
ENDBRANCH  22  23
ENDBRANCH  21  22
ENDBRANCH  20  21
ENDBRANCH  19  20
ENDBRANCH  18  19
ENDBRANCH   1  18
TORSDOF 28
ENDMDL
MODEL 7
REMARK VINA RESULT:    -4.209      1.386      2.361
REMARK INTER + INTRA:         -14.445
REMARK INTER:                 -11.136
REMARK INTRA:                  -3.309
REMARK UNBOUND:                -3.346
REMARK SMILES CCCCCCCCCCCCCCCCCCCCCCCCCCCCCC(=O)[O-]
REMARK SMILES IDX 16 1 17 2 18 3 19 4 20 5 21 6 22 7 23 8 24 9 25 10 26 11
REMARK SMILES IDX 27 12 28 13 29 14 30 15 31 16 32 17 15 18 14 19 13 20 12 21
REMARK SMILES IDX 11 22 10 23 9 24 8 25 7 26 6 27 5 28 4 29 3 30 2 31 1 32
REMARK H PARENT
REMARK Flexibility Score: inf
ROOT
ATOM      1  C   UNL     1      99.077 126.742 125.185  1.00  0.00     0.000 C 
ENDROOT
BRANCH   1   2
ATOM      2  C   UNL     1      97.802 125.939 125.497  1.00  0.00     0.000 C 
BRANCH   2   3
ATOM      3  C   UNL     1      98.113 124.523 126.010  1.00  0.00     0.000 C 
BRANCH   3   4
ATOM      4  C   UNL     1      97.355 123.437 125.227  1.00  0.00     0.000 C 
BRANCH   4   5
ATOM      5  C   UNL     1      95.849 123.751 125.100  1.00  0.00     0.000 C 
BRANCH   5   6
ATOM      6  C   UNL     1      95.195 123.164 123.838  1.00  0.00     0.000 C 
BRANCH   6   7
ATOM      7  C   UNL     1      96.205 122.878 122.717  1.00  0.00     0.000 C 
BRANCH   7   8
ATOM      8  C   UNL     1      95.673 121.806 121.758  1.00  0.00     0.000 C 
BRANCH   8   9
ATOM      9  C   UNL     1      94.161 121.965 121.538  1.00  0.00     0.000 C 
BRANCH   9  10
ATOM     10  C   UNL     1      93.654 121.186 120.314  1.00  0.00     0.000 C 
BRANCH  10  11
ATOM     11  C   UNL     1      94.594 121.308 119.104  1.00  0.00     0.000 C 
BRANCH  11  12
ATOM     12  C   UNL     1      93.883 120.875 117.813  1.00  0.00     0.000 C 
BRANCH  12  13
ATOM     13  C   UNL     1      92.470 121.472 117.682  1.00  0.00     0.006 C 
BRANCH  13  14
ATOM     14  C   UNL     1      92.296 122.437 116.496  1.00  0.00     0.053 C 
BRANCH  14  15
ATOM     15  C   UNL     1      92.566 123.858 116.884  1.00  0.00     0.041 C 
ATOM     16  O   UNL     1      92.147 124.803 116.165  1.00  0.00    -0.550 OA
ATOM     17  O   UNL     1      93.295 124.138 118.032  1.00  0.00    -0.550 OA
ENDBRANCH  14  15
ENDBRANCH  13  14
ENDBRANCH  12  13
ENDBRANCH  11  12
ENDBRANCH  10  11
ENDBRANCH   9  10
ENDBRANCH   8   9
ENDBRANCH   7   8
ENDBRANCH   6   7
ENDBRANCH   5   6
ENDBRANCH   4   5
ENDBRANCH   3   4
ENDBRANCH   2   3
ENDBRANCH   1   2
BRANCH   1  18
ATOM     18  C   UNL     1     100.152 126.597 126.278  1.00  0.00     0.000 C 
BRANCH  18  19
ATOM     19  C   UNL     1     100.415 127.875 127.100  1.00  0.00     0.000 C 
BRANCH  19  20
ATOM     20  C   UNL     1      99.897 127.847 128.553  1.00  0.00     0.000 C 
BRANCH  20  21
ATOM     21  C   UNL     1     100.334 129.034 129.431  1.00  0.00     0.000 C 
BRANCH  21  22
ATOM     22  C   UNL     1      99.152 129.756 130.099  1.00  0.00     0.000 C 
BRANCH  22  23
ATOM     23  C   UNL     1      98.162 130.346 129.078  1.00  0.00     0.000 C 
BRANCH  23  24
ATOM     24  C   UNL     1      96.710 129.847 129.209  1.00  0.00    -0.000 C 
BRANCH  24  25
ATOM     25  C   UNL     1      96.505 128.347 128.918  1.00  0.00    -0.000 C 
BRANCH  25  26
ATOM     26  C   UNL     1      96.123 127.494 130.142  1.00  0.00    -0.000 C 
BRANCH  26  27
ATOM     27  C   UNL     1      97.253 126.555 130.590  1.00  0.00    -0.000 C 
BRANCH  27  28
ATOM     28  C   UNL     1      97.616 125.561 129.480  1.00  0.00    -0.000 C 
BRANCH  28  29
ATOM     29  C   UNL     1      97.606 124.120 130.006  1.00  0.00    -0.000 C 
BRANCH  29  30
ATOM     30  C   UNL     1      98.696 123.277 129.325  1.00  0.00    -0.000 C 
BRANCH  30  31
ATOM     31  C   UNL     1      99.970 124.085 129.028  1.00  0.00    -0.003 C 
ATOM     32  C   UNL     1     100.906 123.378 128.050  1.00  0.00     0.004 C 
ENDBRANCH  30  31
ENDBRANCH  29  30
ENDBRANCH  28  29
ENDBRANCH  27  28
ENDBRANCH  26  27
ENDBRANCH  25  26
ENDBRANCH  24  25
ENDBRANCH  23  24
ENDBRANCH  22  23
ENDBRANCH  21  22
ENDBRANCH  20  21
ENDBRANCH  19  20
ENDBRANCH  18  19
ENDBRANCH   1  18
TORSDOF 28
ENDMDL
MODEL 8
REMARK VINA RESULT:    -4.200      4.241     11.456
REMARK INTER + INTRA:         -14.422
REMARK INTER:                 -11.592
REMARK INTRA:                  -2.830
REMARK UNBOUND:                -3.346
REMARK SMILES CCCCCCCCCCCCCCCCCCCCCCCCCCCCCC(=O)[O-]
REMARK SMILES IDX 16 1 17 2 18 3 19 4 20 5 21 6 22 7 23 8 24 9 25 10 26 11
REMARK SMILES IDX 27 12 28 13 29 14 30 15 31 16 32 17 15 18 14 19 13 20 12 21
REMARK SMILES IDX 11 22 10 23 9 24 8 25 7 26 6 27 5 28 4 29 3 30 2 31 1 32
REMARK H PARENT
REMARK Flexibility Score: inf
ROOT
ATOM      1  C   UNL     1      99.914 123.867 127.088  1.00  0.00     0.000 C 
ENDROOT
BRANCH   1   2
ATOM      2  C   UNL     1     101.051 122.879 127.400  1.00  0.00     0.000 C 
BRANCH   2   3
ATOM      3  C   UNL     1     100.558 121.644 128.172  1.00  0.00     0.000 C 
BRANCH   3   4
ATOM      4  C   UNL     1     101.665 121.015 129.038  1.00  0.00     0.000 C 
BRANCH   4   5
ATOM      5  C   UNL     1     101.894 121.793 130.351  1.00  0.00     0.000 C 
BRANCH   5   6
ATOM      6  C   UNL     1     100.598 122.273 131.025  1.00  0.00     0.000 C 
BRANCH   6   7
ATOM      7  C   UNL     1     100.467 123.803 131.050  1.00  0.00     0.000 C 
BRANCH   7   8
ATOM      8  C   UNL     1     101.827 124.475 130.821  1.00  0.00     0.000 C 
BRANCH   8   9
ATOM      9  C   UNL     1     101.662 125.985 130.586  1.00  0.00     0.000 C 
BRANCH   9  10
ATOM     10  C   UNL     1     101.393 126.330 129.113  1.00  0.00     0.000 C 
BRANCH  10  11
ATOM     11  C   UNL     1     100.196 127.276 128.937  1.00  0.00     0.000 C 
BRANCH  11  12
ATOM     12  C   UNL     1      98.935 126.690 129.589  1.00  0.00     0.000 C 
BRANCH  12  13
ATOM     13  C   UNL     1      98.351 127.602 130.684  1.00  0.00     0.006 C 
BRANCH  13  14
ATOM     14  C   UNL     1      98.434 129.105 130.368  1.00  0.00     0.053 C 
BRANCH  14  15
ATOM     15  C   UNL     1      97.306 129.558 129.493  1.00  0.00     0.041 C 
ATOM     16  O   UNL     1      97.524 130.338 128.528  1.00  0.00    -0.550 OA
ATOM     17  O   UNL     1      96.010 129.133 129.753  1.00  0.00    -0.550 OA
ENDBRANCH  14  15
ENDBRANCH  13  14
ENDBRANCH  12  13
ENDBRANCH  11  12
ENDBRANCH  10  11
ENDBRANCH   9  10
ENDBRANCH   8   9
ENDBRANCH   7   8
ENDBRANCH   6   7
ENDBRANCH   5   6
ENDBRANCH   4   5
ENDBRANCH   3   4
ENDBRANCH   2   3
ENDBRANCH   1   2
BRANCH   1  18
ATOM     18  C   UNL     1      98.625 123.162 126.628  1.00  0.00     0.000 C 
BRANCH  18  19
ATOM     19  C   UNL     1      97.394 124.082 126.500  1.00  0.00     0.000 C 
BRANCH  19  20
ATOM     20  C   UNL     1      97.330 124.927 125.211  1.00  0.00     0.000 C 
BRANCH  20  21
ATOM     21  C   UNL     1      96.096 124.679 124.323  1.00  0.00     0.000 C 
BRANCH  21  22
ATOM     22  C   UNL     1      96.126 123.311 123.621  1.00  0.00     0.000 C 
BRANCH  22  23
ATOM     23  C   UNL     1      94.722 122.710 123.429  1.00  0.00     0.000 C 
BRANCH  23  24
ATOM     24  C   UNL     1      94.689 121.316 122.771  1.00  0.00    -0.000 C 
BRANCH  24  25
ATOM     25  C   UNL     1      93.948 121.248 121.421  1.00  0.00    -0.000 C 
BRANCH  25  26
ATOM     26  C   UNL     1      94.855 121.327 120.178  1.00  0.00    -0.000 C 
BRANCH  26  27
ATOM     27  C   UNL     1      94.142 120.884 118.891  1.00  0.00    -0.000 C 
BRANCH  27  28
ATOM     28  C   UNL     1      92.678 121.341 118.887  1.00  0.00    -0.000 C 
BRANCH  28  29
ATOM     29  C   UNL     1      92.078 121.255 117.478  1.00  0.00    -0.000 C 
BRANCH  29  30
ATOM     30  C   UNL     1      92.706 122.305 116.546  1.00  0.00    -0.000 C 
BRANCH  30  31
ATOM     31  C   UNL     1      92.860 123.677 117.220  1.00  0.00    -0.003 C 
ATOM     32  C   UNL     1      92.366 124.827 116.344  1.00  0.00     0.004 C 
ENDBRANCH  30  31
ENDBRANCH  29  30
ENDBRANCH  28  29
ENDBRANCH  27  28
ENDBRANCH  26  27
ENDBRANCH  25  26
ENDBRANCH  24  25
ENDBRANCH  23  24
ENDBRANCH  22  23
ENDBRANCH  21  22
ENDBRANCH  20  21
ENDBRANCH  19  20
ENDBRANCH  18  19
ENDBRANCH   1  18
TORSDOF 28
ENDMDL
MODEL 9
REMARK VINA RESULT:    -4.106      3.335      9.227
REMARK INTER + INTRA:         -14.173
REMARK INTER:                 -10.664
REMARK INTRA:                  -3.509
REMARK UNBOUND:                -3.346
REMARK SMILES CCCCCCCCCCCCCCCCCCCCCCCCCCCCCC(=O)[O-]
REMARK SMILES IDX 16 1 17 2 18 3 19 4 20 5 21 6 22 7 23 8 24 9 25 10 26 11
REMARK SMILES IDX 27 12 28 13 29 14 30 15 31 16 32 17 15 18 14 19 13 20 12 21
REMARK SMILES IDX 11 22 10 23 9 24 8 25 7 26 6 27 5 28 4 29 3 30 2 31 1 32
REMARK H PARENT
REMARK Flexibility Score: inf
ROOT
ATOM      1  C   UNL     1      97.521 124.428 130.139  1.00  0.00     0.000 C 
ENDROOT
BRANCH   1   2
ATOM      2  C   UNL     1      98.151 125.577 129.333  1.00  0.00     0.000 C 
BRANCH   2   3
ATOM      3  C   UNL     1      99.276 126.286 130.105  1.00  0.00     0.000 C 
BRANCH   3   4
ATOM      4  C   UNL     1      98.744 127.402 131.022  1.00  0.00     0.000 C 
BRANCH   4   5
ATOM      5  C   UNL     1      98.286 128.644 130.228  1.00  0.00     0.000 C 
BRANCH   5   6
ATOM      6  C   UNL     1      99.360 129.738 130.109  1.00  0.00     0.000 C 
BRANCH   6   7
ATOM      7  C   UNL     1     100.711 129.319 130.707  1.00  0.00     0.000 C 
BRANCH   7   8
ATOM      8  C   UNL     1     101.839 129.471 129.678  1.00  0.00     0.000 C 
BRANCH   8   9
ATOM      9  C   UNL     1     101.354 130.241 128.440  1.00  0.00     0.000 C 
BRANCH   9  10
ATOM     10  C   UNL     1     101.933 129.683 127.131  1.00  0.00     0.000 C 
BRANCH  10  11
ATOM     11  C   UNL     1     101.040 129.978 125.916  1.00  0.00     0.000 C 
BRANCH  11  12
ATOM     12  C   UNL     1     101.002 128.775 124.960  1.00  0.00     0.000 C 
BRANCH  12  13
ATOM     13  C   UNL     1     100.982 127.426 125.701  1.00  0.00     0.006 C 
BRANCH  13  14
ATOM     14  C   UNL     1      99.849 127.283 126.731  1.00  0.00     0.053 C 
BRANCH  14  15
ATOM     15  C   UNL     1      98.500 127.480 126.112  1.00  0.00     0.041 C 
ATOM     16  O   UNL     1      98.197 126.884 125.044  1.00  0.00    -0.550 OA
ATOM     17  O   UNL     1      97.582 128.337 126.705  1.00  0.00    -0.550 OA
ENDBRANCH  14  15
ENDBRANCH  13  14
ENDBRANCH  12  13
ENDBRANCH  11  12
ENDBRANCH  10  11
ENDBRANCH   9  10
ENDBRANCH   8   9
ENDBRANCH   7   8
ENDBRANCH   6   7
ENDBRANCH   5   6
ENDBRANCH   4   5
ENDBRANCH   3   4
ENDBRANCH   2   3
ENDBRANCH   1   2
BRANCH   1  18
ATOM     18  C   UNL     1      98.555 123.655 130.979  1.00  0.00     0.000 C 
BRANCH  18  19
ATOM     19  C   UNL     1      99.189 122.443 130.268  1.00  0.00     0.000 C 
BRANCH  19  20
ATOM     20  C   UNL     1     100.723 122.494 130.112  1.00  0.00     0.000 C 
BRANCH  20  21
ATOM     21  C   UNL     1     101.263 123.692 129.309  1.00  0.00     0.000 C 
BRANCH  21  22
ATOM     22  C   UNL     1     102.030 123.272 128.044  1.00  0.00     0.000 C 
BRANCH  22  23
ATOM     23  C   UNL     1     101.099 122.981 126.853  1.00  0.00     0.000 C 
BRANCH  23  24
ATOM     24  C   UNL     1      99.757 123.738 126.870  1.00  0.00    -0.000 C 
BRANCH  24  25
ATOM     25  C   UNL     1      98.529 122.901 126.461  1.00  0.00    -0.000 C 
BRANCH  25  26
ATOM     26  C   UNL     1      97.401 123.696 125.776  1.00  0.00    -0.000 C 
BRANCH  26  27
ATOM     27  C   UNL     1      96.784 122.948 124.583  1.00  0.00    -0.000 C 
BRANCH  27  28
ATOM     28  C   UNL     1      95.723 123.806 123.884  1.00  0.00    -0.000 C 
BRANCH  28  29
ATOM     29  C   UNL     1      94.680 122.927 123.182  1.00  0.00    -0.000 C 
BRANCH  29  30
ATOM     30  C   UNL     1      95.353 121.924 122.231  1.00  0.00    -0.000 C 
BRANCH  30  31
ATOM     31  C   UNL     1      94.484 121.592 121.008  1.00  0.00    -0.003 C 
ATOM     32  C   UNL     1      92.989 121.750 121.283  1.00  0.00     0.004 C 
ENDBRANCH  30  31
ENDBRANCH  29  30
ENDBRANCH  28  29
ENDBRANCH  27  28
ENDBRANCH  26  27
ENDBRANCH  25  26
ENDBRANCH  24  25
ENDBRANCH  23  24
ENDBRANCH  22  23
ENDBRANCH  21  22
ENDBRANCH  20  21
ENDBRANCH  19  20
ENDBRANCH  18  19
ENDBRANCH   1  18
TORSDOF 28
ENDMDL
