MODEL 1
REMARK VINA RESULT:    -2.907      0.000      0.000
REMARK INTER + INTRA:          -7.080
REMARK INTER:                  -5.457
REMARK INTRA:                  -1.623
REMARK UNBOUND:                -1.623
REMARK SMILES O=C([O-])CCCCCCCCCCCCCCC(=O)[O-]
REMARK SMILES IDX 10 1 9 2 8 3 7 4 6 5 5 6 4 7 2 8 1 9 3 10 11 11 12 12 13 13
REMARK SMILES IDX 14 14 15 15 16 16 17 17 18 18 19 19 20 20
REMARK H PARENT
REMARK Flexibility Score: inf
ROOT
ATOM      1  C   UNL     1      -8.130  -5.377   6.776  1.00  0.00     0.000 C 
ENDROOT
BRANCH   1   2
ATOM      2  C   UNL     1      -8.563  -6.672   6.070  1.00  0.00     0.000 C 
BRANCH   2   3
ATOM      3  C   UNL     1      -8.486  -7.901   6.994  1.00  0.00     0.000 C 
BRANCH   3   4
ATOM      4  C   UNL     1      -8.654  -7.536   8.478  1.00  0.00     0.000 C 
BRANCH   4   5
ATOM      5  C   UNL     1      -7.654  -8.268   9.386  1.00  0.00     0.000 C 
BRANCH   5   6
ATOM      6  C   UNL     1      -6.751  -7.269  10.124  1.00  0.00     0.006 C 
BRANCH   6   7
ATOM      7  C   UNL     1      -7.045  -5.816   9.725  1.00  0.00     0.053 C 
BRANCH   7   8
ATOM      8  C   UNL     1      -5.797  -4.987   9.688  1.00  0.00     0.041 C 
ATOM      9  O   UNL     1      -5.871  -3.730   9.709  1.00  0.00    -0.550 OA
ATOM     10  O   UNL     1      -4.551  -5.603   9.663  1.00  0.00    -0.550 OA
ENDBRANCH   7   8
ENDBRANCH   6   7
ENDBRANCH   5   6
ENDBRANCH   4   5
ENDBRANCH   3   4
ENDBRANCH   2   3
ENDBRANCH   1   2
BRANCH   1  11
ATOM     11  C   UNL     1      -9.105  -4.213   6.529  1.00  0.00     0.000 C 
BRANCH  11  12
ATOM     12  C   UNL     1     -10.576  -4.661   6.538  1.00  0.00     0.000 C 
BRANCH  12  13
ATOM     13  C   UNL     1     -11.098  -4.933   7.959  1.00  0.00     0.000 C 
BRANCH  13  14
ATOM     14  C   UNL     1     -10.627  -3.877   8.972  1.00  0.00     0.000 C 
BRANCH  14  15
ATOM     15  C   UNL     1     -11.104  -2.457   8.618  1.00  0.00     0.000 C 
BRANCH  15  16
ATOM     16  C   UNL     1     -10.302  -1.366   9.345  1.00  0.00     0.006 C 
BRANCH  16  17
ATOM     17  C   UNL     1      -8.866  -1.804   9.660  1.00  0.00     0.053 C 
BRANCH  17  18
ATOM     18  C   UNL     1      -7.887  -0.959   8.908  1.00  0.00     0.041 C 
ATOM     19  O   UNL     1      -7.579  -1.251   7.722  1.00  0.00    -0.550 OA
ATOM     20  O   UNL     1      -7.352   0.179   9.498  1.00  0.00    -0.550 OA
ENDBRANCH  17  18
ENDBRANCH  16  17
ENDBRANCH  15  16
ENDBRANCH  14  15
ENDBRANCH  13  14
ENDBRANCH  12  13
ENDBRANCH  11  12
ENDBRANCH   1  11
TORSDOF 15
ENDMDL
MODEL 2
REMARK VINA RESULT:    -2.703     20.905     22.496
REMARK INTER + INTRA:          -6.695
REMARK INTER:                  -4.556
REMARK INTRA:                  -2.140
REMARK UNBOUND:                -1.623
REMARK SMILES O=C([O-])CCCCCCCCCCCCCCC(=O)[O-]
REMARK SMILES IDX 10 1 9 2 8 3 7 4 6 5 5 6 4 7 2 8 1 9 3 10 11 11 12 12 13 13
REMARK SMILES IDX 14 14 15 15 16 16 17 17 18 18 19 19 20 20
REMARK H PARENT
REMARK Flexibility Score: inf
ROOT
ATOM      1  C   UNL     1       5.358  -6.108  -6.844  1.00  0.00     0.000 C 
ENDROOT
BRANCH   1   2
ATOM      2  C   UNL     1       4.967  -6.864  -5.563  1.00  0.00     0.000 C 
BRANCH   2   3
ATOM      3  C   UNL     1       5.731  -8.191  -5.407  1.00  0.00     0.000 C 
BRANCH   3   4
ATOM      4  C   UNL     1       7.242  -7.986  -5.209  1.00  0.00     0.000 C 
BRANCH   4   5
ATOM      5  C   UNL     1       8.088  -8.954  -6.050  1.00  0.00     0.000 C 
BRANCH   5   6
ATOM      6  C   UNL     1       8.477  -8.316  -7.392  1.00  0.00     0.006 C 
BRANCH   6   7
ATOM      7  C   UNL     1       7.962  -9.125  -8.591  1.00  0.00     0.053 C 
BRANCH   7   8
ATOM      8  C   UNL     1       6.664  -8.584  -9.111  1.00  0.00     0.041 C 
ATOM      9  O   UNL     1       5.573  -9.095  -8.744  1.00  0.00    -0.550 OA
ATOM     10  O   UNL     1       6.659  -7.495  -9.974  1.00  0.00    -0.550 OA
ENDBRANCH   7   8
ENDBRANCH   6   7
ENDBRANCH   5   6
ENDBRANCH   4   5
ENDBRANCH   3   4
ENDBRANCH   2   3
ENDBRANCH   1   2
BRANCH   1  11
ATOM     11  C   UNL     1       5.868  -4.685  -6.559  1.00  0.00     0.000 C 
BRANCH  11  12
ATOM     12  C   UNL     1       7.350  -4.657  -6.152  1.00  0.00     0.000 C 
BRANCH  12  13
ATOM     13  C   UNL     1       8.293  -4.650  -7.367  1.00  0.00     0.000 C 
BRANCH  13  14
ATOM     14  C   UNL     1       8.203  -3.347  -8.176  1.00  0.00     0.000 C 
BRANCH  14  15
ATOM     15  C   UNL     1       8.078  -3.594  -9.690  1.00  0.00     0.000 C 
BRANCH  15  16
ATOM     16  C   UNL     1       6.631  -3.876 -10.124  1.00  0.00     0.006 C 
BRANCH  16  17
ATOM     17  C   UNL     1       5.694  -2.692  -9.855  1.00  0.00     0.053 C 
BRANCH  17  18
ATOM     18  C   UNL     1       4.337  -3.180  -9.457  1.00  0.00     0.041 C 
ATOM     19  O   UNL     1       4.000  -4.371  -9.687  1.00  0.00    -0.550 OA
ATOM     20  O   UNL     1       3.463  -2.335  -8.786  1.00  0.00    -0.550 OA
ENDBRANCH  17  18
ENDBRANCH  16  17
ENDBRANCH  15  16
ENDBRANCH  14  15
ENDBRANCH  13  14
ENDBRANCH  12  13
ENDBRANCH  11  12
ENDBRANCH   1  11
TORSDOF 15
ENDMDL
MODEL 3
REMARK VINA RESULT:    -2.690      1.525      2.264
REMARK INTER + INTRA:          -6.671
REMARK INTER:                  -5.249
REMARK INTRA:                  -1.423
REMARK UNBOUND:                -1.623
REMARK SMILES O=C([O-])CCCCCCCCCCCCCCC(=O)[O-]
REMARK SMILES IDX 10 1 9 2 8 3 7 4 6 5 5 6 4 7 2 8 1 9 3 10 11 11 12 12 13 13
REMARK SMILES IDX 14 14 15 15 16 16 17 17 18 18 19 19 20 20
REMARK H PARENT
REMARK Flexibility Score: inf
ROOT
ATOM      1  C   UNL     1      -9.946  -4.271   5.705  1.00  0.00     0.000 C 
ENDROOT
BRANCH   1   2
ATOM      2  C   UNL     1     -10.999  -5.291   5.241  1.00  0.00     0.000 C 
BRANCH   2   3
ATOM      3  C   UNL     1     -10.425  -6.714   5.119  1.00  0.00     0.000 C 
BRANCH   3   4
ATOM      4  C   UNL     1     -11.051  -7.693   6.127  1.00  0.00     0.000 C 
BRANCH   4   5
ATOM      5  C   UNL     1     -10.010  -8.331   7.059  1.00  0.00     0.000 C 
BRANCH   5   6
ATOM      6  C   UNL     1      -8.648  -7.638   6.914  1.00  0.00     0.006 C 
BRANCH   6   7
ATOM      7  C   UNL     1      -8.264  -6.842   8.169  1.00  0.00     0.053 C 
BRANCH   7   8
ATOM      8  C   UNL     1      -7.223  -5.805   7.873  1.00  0.00     0.041 C 
ATOM      9  O   UNL     1      -7.019  -5.433   6.686  1.00  0.00    -0.550 OA
ATOM     10  O   UNL     1      -6.501  -5.226   8.910  1.00  0.00    -0.550 OA
ENDBRANCH   7   8
ENDBRANCH   6   7
ENDBRANCH   5   6
ENDBRANCH   4   5
ENDBRANCH   3   4
ENDBRANCH   2   3
ENDBRANCH   1   2
BRANCH   1  11
ATOM     11  C   UNL     1     -10.176  -3.799   7.151  1.00  0.00     0.000 C 
BRANCH  11  12
ATOM     12  C   UNL     1     -11.125  -4.724   7.932  1.00  0.00     0.000 C 
BRANCH  12  13
ATOM     13  C   UNL     1     -10.951  -4.593   9.454  1.00  0.00     0.000 C 
BRANCH  13  14
ATOM     14  C   UNL     1     -10.115  -3.365   9.849  1.00  0.00     0.000 C 
BRANCH  14  15
ATOM     15  C   UNL     1     -10.980  -2.121  10.124  1.00  0.00     0.000 C 
BRANCH  15  16
ATOM     16  C   UNL     1     -10.363  -0.835   9.550  1.00  0.00     0.006 C 
BRANCH  16  17
ATOM     17  C   UNL     1      -9.328  -1.118   8.453  1.00  0.00     0.053 C 
BRANCH  17  18
ATOM     18  C   UNL     1      -7.942  -1.041   9.012  1.00  0.00     0.041 C 
ATOM     19  O   UNL     1      -7.117  -1.964   8.787  1.00  0.00    -0.550 OA
ATOM     20  O   UNL     1      -7.546   0.075   9.738  1.00  0.00    -0.550 OA
ENDBRANCH  17  18
ENDBRANCH  16  17
ENDBRANCH  15  16
ENDBRANCH  14  15
ENDBRANCH  13  14
ENDBRANCH  12  13
ENDBRANCH  11  12
ENDBRANCH   1  11
TORSDOF 15
ENDMDL
MODEL 4
REMARK VINA RESULT:    -2.325     17.062     18.888
REMARK INTER + INTRA:          -5.987
REMARK INTER:                  -5.235
REMARK INTRA:                  -0.752
REMARK UNBOUND:                -1.623
REMARK SMILES O=C([O-])CCCCCCCCCCCCCCC(=O)[O-]
REMARK SMILES IDX 10 1 9 2 8 3 7 4 6 5 5 6 4 7 2 8 1 9 3 10 11 11 12 12 13 13
REMARK SMILES IDX 14 14 15 15 16 16 17 17 18 18 19 19 20 20
REMARK H PARENT
REMARK Flexibility Score: inf
ROOT
ATOM      1  C   UNL     1       7.417  -9.046  -0.353  1.00  0.00     0.000 C 
ENDROOT
BRANCH   1   2
ATOM      2  C   UNL     1       5.915  -8.785  -0.159  1.00  0.00     0.000 C 
BRANCH   2   3
ATOM      3  C   UNL     1       5.474  -8.947   1.307  1.00  0.00     0.000 C 
BRANCH   3   4
ATOM      4  C   UNL     1       4.845  -7.666   1.881  1.00  0.00     0.000 C 
BRANCH   4   5
ATOM      5  C   UNL     1       4.282  -7.865   3.296  1.00  0.00     0.000 C 
BRANCH   5   6
ATOM      6  C   UNL     1       5.416  -7.999   4.322  1.00  0.00     0.006 C 
BRANCH   6   7
ATOM      7  C   UNL     1       6.416  -6.838   4.238  1.00  0.00     0.053 C 
BRANCH   7   8
ATOM      8  C   UNL     1       7.834  -7.317   4.321  1.00  0.00     0.041 C 
ATOM      9  O   UNL     1       8.352  -7.569   5.442  1.00  0.00    -0.550 OA
ATOM     10  O   UNL     1       8.572  -7.518   3.161  1.00  0.00    -0.550 OA
ENDBRANCH   7   8
ENDBRANCH   6   7
ENDBRANCH   5   6
ENDBRANCH   4   5
ENDBRANCH   3   4
ENDBRANCH   2   3
ENDBRANCH   1   2
BRANCH   1  11
ATOM     11  C   UNL     1       7.818  -9.123  -1.837  1.00  0.00     0.000 C 
BRANCH  11  12
ATOM     12  C   UNL     1       8.914  -8.111  -2.208  1.00  0.00     0.000 C 
BRANCH  12  13
ATOM     13  C   UNL     1       9.087  -7.965  -3.729  1.00  0.00     0.000 C 
BRANCH  13  14
ATOM     14  C   UNL     1       7.779  -8.210  -4.498  1.00  0.00     0.000 C 
BRANCH  14  15
ATOM     15  C   UNL     1       7.465  -7.091  -5.508  1.00  0.00     0.000 C 
BRANCH  15  16
ATOM     16  C   UNL     1       5.969  -7.011  -5.853  1.00  0.00     0.006 C 
BRANCH  16  17
ATOM     17  C   UNL     1       5.720  -6.483  -7.271  1.00  0.00     0.053 C 
BRANCH  17  18
ATOM     18  C   UNL     1       5.371  -5.029  -7.232  1.00  0.00     0.041 C 
ATOM     19  O   UNL     1       4.997  -4.495  -6.155  1.00  0.00    -0.550 OA
ATOM     20  O   UNL     1       5.506  -4.250  -8.375  1.00  0.00    -0.550 OA
ENDBRANCH  17  18
ENDBRANCH  16  17
ENDBRANCH  15  16
ENDBRANCH  14  15
ENDBRANCH  13  14
ENDBRANCH  12  13
ENDBRANCH  11  12
ENDBRANCH   1  11
TORSDOF 15
ENDMDL
MODEL 5
REMARK VINA RESULT:    -2.324     17.704     19.347
REMARK INTER + INTRA:          -5.985
REMARK INTER:                  -5.135
REMARK INTRA:                  -0.849
REMARK UNBOUND:                -1.623
REMARK SMILES O=C([O-])CCCCCCCCCCCCCCC(=O)[O-]
REMARK SMILES IDX 10 1 9 2 8 3 7 4 6 5 5 6 4 7 2 8 1 9 3 10 11 11 12 12 13 13
REMARK SMILES IDX 14 14 15 15 16 16 17 17 18 18 19 19 20 20
REMARK H PARENT
REMARK Flexibility Score: inf
ROOT
ATOM      1  C   UNL     1       7.567  -8.484  -2.583  1.00  0.00     0.000 C 
ENDROOT
BRANCH   1   2
ATOM      2  C   UNL     1       8.224  -9.125  -1.349  1.00  0.00     0.000 C 
BRANCH   2   3
ATOM      3  C   UNL     1       7.297  -9.122  -0.121  1.00  0.00     0.000 C 
BRANCH   3   4
ATOM      4  C   UNL     1       5.859  -8.698  -0.465  1.00  0.00     0.000 C 
BRANCH   4   5
ATOM      5  C   UNL     1       4.931  -8.700   0.759  1.00  0.00     0.000 C 
BRANCH   5   6
ATOM      6  C   UNL     1       5.742  -8.788   2.060  1.00  0.00     0.006 C 
BRANCH   6   7
ATOM      7  C   UNL     1       4.927  -8.345   3.283  1.00  0.00     0.053 C 
BRANCH   7   8
ATOM      8  C   UNL     1       4.998  -6.862   3.492  1.00  0.00     0.041 C 
ATOM      9  O   UNL     1       5.777  -6.381   4.358  1.00  0.00    -0.550 OA
ATOM     10  O   UNL     1       4.230  -6.010   2.708  1.00  0.00    -0.550 OA
ENDBRANCH   7   8
ENDBRANCH   6   7
ENDBRANCH   5   6
ENDBRANCH   4   5
ENDBRANCH   3   4
ENDBRANCH   2   3
ENDBRANCH   1   2
BRANCH   1  11
ATOM     11  C   UNL     1       8.594  -7.855  -3.541  1.00  0.00     0.000 C 
BRANCH  11  12
ATOM     12  C   UNL     1       8.712  -8.621  -4.869  1.00  0.00     0.000 C 
BRANCH  12  13
ATOM     13  C   UNL     1       7.451  -8.485  -5.739  1.00  0.00     0.000 C 
BRANCH  13  14
ATOM     14  C   UNL     1       7.119  -7.022  -6.072  1.00  0.00     0.000 C 
BRANCH  14  15
ATOM     15  C   UNL     1       5.615  -6.713  -5.960  1.00  0.00     0.000 C 
BRANCH  15  16
ATOM     16  C   UNL     1       5.282  -5.260  -6.335  1.00  0.00     0.006 C 
BRANCH  16  17
ATOM     17  C   UNL     1       6.369  -4.612  -7.202  1.00  0.00     0.053 C 
BRANCH  17  18
ATOM     18  C   UNL     1       5.905  -4.495  -8.619  1.00  0.00     0.041 C 
ATOM     19  O   UNL     1       6.656  -4.855  -9.563  1.00  0.00    -0.550 OA
ATOM     20  O   UNL     1       4.623  -4.036  -8.896  1.00  0.00    -0.550 OA
ENDBRANCH  17  18
ENDBRANCH  16  17
ENDBRANCH  15  16
ENDBRANCH  14  15
ENDBRANCH  13  14
ENDBRANCH  12  13
ENDBRANCH  11  12
ENDBRANCH   1  11
TORSDOF 15
ENDMDL
MODEL 6
REMARK VINA RESULT:    -2.237     17.763     19.519
REMARK INTER + INTRA:          -5.822
REMARK INTER:                  -5.468
REMARK INTRA:                  -0.354
REMARK UNBOUND:                -1.623
REMARK SMILES O=C([O-])CCCCCCCCCCCCCCC(=O)[O-]
REMARK SMILES IDX 10 1 9 2 8 3 7 4 6 5 5 6 4 7 2 8 1 9 3 10 11 11 12 12 13 13
REMARK SMILES IDX 14 14 15 15 16 16 17 17 18 18 19 19 20 20
REMARK H PARENT
REMARK Flexibility Score: inf
ROOT
ATOM      1  C   UNL     1       7.537  -8.067  -3.695  1.00  0.00     0.000 C 
ENDROOT
BRANCH   1   2
ATOM      2  C   UNL     1       8.134  -8.658  -2.407  1.00  0.00     0.000 C 
BRANCH   2   3
ATOM      3  C   UNL     1       7.087  -8.809  -1.288  1.00  0.00     0.000 C 
BRANCH   3   4
ATOM      4  C   UNL     1       7.721  -9.125   0.077  1.00  0.00     0.000 C 
BRANCH   4   5
ATOM      5  C   UNL     1       6.695  -9.125   1.221  1.00  0.00     0.000 C 
BRANCH   5   6
ATOM      6  C   UNL     1       5.419  -8.376   0.812  1.00  0.00     0.006 C 
BRANCH   6   7
ATOM      7  C   UNL     1       4.148  -9.078   1.309  1.00  0.00     0.053 C 
BRANCH   7   8
ATOM      8  C   UNL     1       3.491  -8.317   2.422  1.00  0.00     0.041 C 
ATOM      9  O   UNL     1       2.648  -8.885   3.165  1.00  0.00    -0.550 OA
ATOM     10  O   UNL     1       3.835  -6.992   2.658  1.00  0.00    -0.550 OA
ENDBRANCH   7   8
ENDBRANCH   6   7
ENDBRANCH   5   6
ENDBRANCH   4   5
ENDBRANCH   3   4
ENDBRANCH   2   3
ENDBRANCH   1   2
BRANCH   1  11
ATOM     11  C   UNL     1       8.614  -7.553  -4.665  1.00  0.00     0.000 C 
BRANCH  11  12
ATOM     12  C   UNL     1       8.503  -8.183  -6.063  1.00  0.00     0.000 C 
BRANCH  12  13
ATOM     13  C   UNL     1       7.077  -8.666  -6.377  1.00  0.00     0.000 C 
BRANCH  13  14
ATOM     14  C   UNL     1       6.877  -8.985  -7.867  1.00  0.00     0.000 C 
BRANCH  14  15
ATOM     15  C   UNL     1       5.506  -8.527  -8.395  1.00  0.00     0.000 C 
BRANCH  15  16
ATOM     16  C   UNL     1       4.967  -7.297  -7.647  1.00  0.00     0.006 C 
BRANCH  16  17
ATOM     17  C   UNL     1       5.967  -6.135  -7.628  1.00  0.00     0.053 C 
BRANCH  17  18
ATOM     18  C   UNL     1       5.295  -4.875  -7.183  1.00  0.00     0.041 C 
ATOM     19  O   UNL     1       4.703  -4.143  -8.020  1.00  0.00    -0.550 OA
ATOM     20  O   UNL     1       5.277  -4.533  -5.837  1.00  0.00    -0.550 OA
ENDBRANCH  17  18
ENDBRANCH  16  17
ENDBRANCH  15  16
ENDBRANCH  14  15
ENDBRANCH  13  14
ENDBRANCH  12  13
ENDBRANCH  11  12
ENDBRANCH   1  11
TORSDOF 15
ENDMDL
MODEL 7
REMARK VINA RESULT:    -2.221      2.627      5.942
REMARK INTER + INTRA:          -5.791
REMARK INTER:                  -4.453
REMARK INTRA:                  -1.338
REMARK UNBOUND:                -1.623
REMARK SMILES O=C([O-])CCCCCCCCCCCCCCC(=O)[O-]
REMARK SMILES IDX 10 1 9 2 8 3 7 4 6 5 5 6 4 7 2 8 1 9 3 10 11 11 12 12 13 13
REMARK SMILES IDX 14 14 15 15 16 16 17 17 18 18 19 19 20 20
REMARK H PARENT
REMARK Flexibility Score: inf
ROOT
ATOM      1  C   UNL     1      -7.157  -5.733   9.062  1.00  0.00     0.000 C 
ENDROOT
BRANCH   1   2
ATOM      2  C   UNL     1      -5.889  -4.978   9.493  1.00  0.00     0.000 C 
BRANCH   2   3
ATOM      3  C   UNL     1      -6.166  -3.499   9.816  1.00  0.00     0.000 C 
BRANCH   3   4
ATOM      4  C   UNL     1      -7.653  -3.221  10.089  1.00  0.00     0.000 C 
BRANCH   4   5
ATOM      5  C   UNL     1      -8.015  -1.735   9.945  1.00  0.00     0.000 C 
BRANCH   5   6
ATOM      6  C   UNL     1      -8.252  -1.369   8.472  1.00  0.00     0.006 C 
BRANCH   6   7
ATOM      7  C   UNL     1      -9.415  -2.159   7.857  1.00  0.00     0.053 C 
BRANCH   7   8
ATOM      8  C   UNL     1      -8.973  -2.976   6.681  1.00  0.00     0.041 C 
ATOM      9  O   UNL     1      -8.924  -4.232   6.764  1.00  0.00    -0.550 OA
ATOM     10  O   UNL     1      -8.645  -2.353   5.483  1.00  0.00    -0.550 OA
ENDBRANCH   7   8
ENDBRANCH   6   7
ENDBRANCH   5   6
ENDBRANCH   4   5
ENDBRANCH   3   4
ENDBRANCH   2   3
ENDBRANCH   1   2
BRANCH   1  11
ATOM     11  C   UNL     1      -7.637  -6.738  10.124  1.00  0.00     0.000 C 
BRANCH  11  12
ATOM     12  C   UNL     1      -7.336  -8.195   9.739  1.00  0.00     0.000 C 
BRANCH  12  13
ATOM     13  C   UNL     1      -8.577  -9.098   9.842  1.00  0.00     0.000 C 
BRANCH  13  14
ATOM     14  C   UNL     1      -9.862  -8.304  10.123  1.00  0.00     0.000 C 
BRANCH  14  15
ATOM     15  C   UNL     1     -10.935  -8.506   9.037  1.00  0.00     0.000 C 
BRANCH  15  16
ATOM     16  C   UNL     1     -10.349  -9.044   7.722  1.00  0.00     0.006 C 
BRANCH  16  17
ATOM     17  C   UNL     1     -10.982  -8.392   6.486  1.00  0.00     0.053 C 
BRANCH  17  18
ATOM     18  C   UNL     1     -10.047  -7.387   5.892  1.00  0.00     0.041 C 
ATOM     19  O   UNL     1      -8.831  -7.384   6.215  1.00  0.00    -0.550 OA
ATOM     20  O   UNL     1     -10.509  -6.484   4.942  1.00  0.00    -0.550 OA
ENDBRANCH  17  18
ENDBRANCH  16  17
ENDBRANCH  15  16
ENDBRANCH  14  15
ENDBRANCH  13  14
ENDBRANCH  12  13
ENDBRANCH  11  12
ENDBRANCH   1  11
TORSDOF 15
ENDMDL
MODEL 8
REMARK VINA RESULT:    -2.080     17.472     19.295
REMARK INTER + INTRA:          -5.527
REMARK INTER:                  -4.789
REMARK INTRA:                  -0.737
REMARK UNBOUND:                -1.623
REMARK SMILES O=C([O-])CCCCCCCCCCCCCCC(=O)[O-]
REMARK SMILES IDX 10 1 9 2 8 3 7 4 6 5 5 6 4 7 2 8 1 9 3 10 11 11 12 12 13 13
REMARK SMILES IDX 14 14 15 15 16 16 17 17 18 18 19 19 20 20
REMARK H PARENT
REMARK Flexibility Score: inf
ROOT
ATOM      1  C   UNL     1       7.110  -8.617  -1.608  1.00  0.00     0.000 C 
ENDROOT
BRANCH   1   2
ATOM      2  C   UNL     1       7.381  -9.125  -0.182  1.00  0.00     0.000 C 
BRANCH   2   3
ATOM      3  C   UNL     1       6.125  -9.081   0.707  1.00  0.00     0.000 C 
BRANCH   3   4
ATOM      4  C   UNL     1       6.457  -8.831   2.188  1.00  0.00     0.000 C 
BRANCH   4   5
ATOM      5  C   UNL     1       7.966  -8.697   2.443  1.00  0.00     0.000 C 
BRANCH   5   6
ATOM      6  C   UNL     1       8.252  -7.587   3.464  1.00  0.00     0.006 C 
BRANCH   6   7
ATOM      7  C   UNL     1       7.848  -7.989   4.890  1.00  0.00     0.053 C 
BRANCH   7   8
ATOM      8  C   UNL     1       6.756  -7.115   5.426  1.00  0.00     0.041 C 
ATOM      9  O   UNL     1       6.088  -6.384   4.647  1.00  0.00    -0.550 OA
ATOM     10  O   UNL     1       6.454  -7.130   6.783  1.00  0.00    -0.550 OA
ENDBRANCH   7   8
ENDBRANCH   6   7
ENDBRANCH   5   6
ENDBRANCH   4   5
ENDBRANCH   3   4
ENDBRANCH   2   3
ENDBRANCH   1   2
BRANCH   1  11
ATOM     11  C   UNL     1       8.272  -8.913  -2.572  1.00  0.00     0.000 C 
BRANCH  11  12
ATOM     12  C   UNL     1       9.026  -7.643  -2.999  1.00  0.00     0.000 C 
BRANCH  12  13
ATOM     13  C   UNL     1       8.734  -7.248  -4.456  1.00  0.00     0.000 C 
BRANCH  13  14
ATOM     14  C   UNL     1       8.389  -8.460  -5.337  1.00  0.00     0.000 C 
BRANCH  14  15
ATOM     15  C   UNL     1       6.954  -8.401  -5.893  1.00  0.00     0.000 C 
BRANCH  15  16
ATOM     16  C   UNL     1       6.259  -7.063  -5.594  1.00  0.00     0.006 C 
BRANCH  16  17
ATOM     17  C   UNL     1       6.591  -5.984  -6.632  1.00  0.00     0.053 C 
BRANCH  17  18
ATOM     18  C   UNL     1       5.381  -5.660  -7.451  1.00  0.00     0.041 C 
ATOM     19  O   UNL     1       4.765  -6.574  -8.060  1.00  0.00    -0.550 OA
ATOM     20  O   UNL     1       4.904  -4.356  -7.503  1.00  0.00    -0.550 OA
ENDBRANCH  17  18
ENDBRANCH  16  17
ENDBRANCH  15  16
ENDBRANCH  14  15
ENDBRANCH  13  14
ENDBRANCH  12  13
ENDBRANCH  11  12
ENDBRANCH   1  11
TORSDOF 15
ENDMDL
MODEL 9
REMARK VINA RESULT:    -1.882     20.152     22.238
REMARK INTER + INTRA:          -5.155
REMARK INTER:                  -4.723
REMARK INTRA:                  -0.431
REMARK UNBOUND:                -1.623
REMARK SMILES O=C([O-])CCCCCCCCCCCCCCC(=O)[O-]
REMARK SMILES IDX 10 1 9 2 8 3 7 4 6 5 5 6 4 7 2 8 1 9 3 10 11 11 12 12 13 13
REMARK SMILES IDX 14 14 15 15 16 16 17 17 18 18 19 19 20 20
REMARK H PARENT
REMARK Flexibility Score: inf
ROOT
ATOM      1  C   UNL     1       5.034  -5.496  -6.001  1.00  0.00     0.000 C 
ENDROOT
BRANCH   1   2
ATOM      2  C   UNL     1       5.094  -6.908  -6.605  1.00  0.00     0.000 C 
BRANCH   2   3
ATOM      3  C   UNL     1       4.329  -7.012  -7.937  1.00  0.00     0.000 C 
BRANCH   3   4
ATOM      4  C   UNL     1       5.210  -7.527  -9.087  1.00  0.00     0.000 C 
BRANCH   4   5
ATOM      5  C   UNL     1       5.701  -6.401 -10.009  1.00  0.00     0.000 C 
BRANCH   5   6
ATOM      6  C   UNL     1       4.706  -5.231 -10.022  1.00  0.00     0.006 C 
BRANCH   6   7
ATOM      7  C   UNL     1       5.410  -3.871 -10.125  1.00  0.00     0.053 C 
BRANCH   7   8
ATOM      8  C   UNL     1       4.556  -2.761  -9.590  1.00  0.00     0.041 C 
ATOM      9  O   UNL     1       3.560  -3.022  -8.864  1.00  0.00    -0.550 OA
ATOM     10  O   UNL     1       4.878  -1.438  -9.867  1.00  0.00    -0.550 OA
ENDBRANCH   7   8
ENDBRANCH   6   7
ENDBRANCH   5   6
ENDBRANCH   4   5
ENDBRANCH   3   4
ENDBRANCH   2   3
ENDBRANCH   1   2
BRANCH   1  11
ATOM     11  C   UNL     1       5.970  -4.506  -6.715  1.00  0.00     0.000 C 
BRANCH  11  12
ATOM     12  C   UNL     1       7.453  -4.886  -6.571  1.00  0.00     0.000 C 
BRANCH  12  13
ATOM     13  C   UNL     1       7.645  -6.345  -6.123  1.00  0.00     0.000 C 
BRANCH  13  14
ATOM     14  C   UNL     1       8.958  -6.953  -6.642  1.00  0.00     0.000 C 
BRANCH  14  15
ATOM     15  C   UNL     1       8.944  -8.492  -6.634  1.00  0.00     0.000 C 
BRANCH  15  16
ATOM     16  C   UNL     1       9.125  -9.077  -5.224  1.00  0.00     0.006 C 
BRANCH  16  17
ATOM     17  C   UNL     1       7.904  -8.837  -4.327  1.00  0.00     0.053 C 
BRANCH  17  18
ATOM     18  C   UNL     1       8.320  -8.196  -3.041  1.00  0.00     0.041 C 
ATOM     19  O   UNL     1       8.838  -7.049  -3.044  1.00  0.00    -0.550 OA
ATOM     20  O   UNL     1       8.089  -8.844  -1.834  1.00  0.00    -0.550 OA
ENDBRANCH  17  18
ENDBRANCH  16  17
ENDBRANCH  15  16
ENDBRANCH  14  15
ENDBRANCH  13  14
ENDBRANCH  12  13
ENDBRANCH  11  12
ENDBRANCH   1  11
TORSDOF 15
ENDMDL
