MODEL 1
REMARK VINA RESULT:    -3.721      0.000      0.000
REMARK INTER + INTRA:          -6.580
REMARK INTER:                  -5.679
REMARK INTRA:                  -0.901
REMARK UNBOUND:                -0.901
REMARK SMILES CCCCCCCCCC=CC(=O)[O-]
REMARK SMILES IDX 7 1 8 2 9 3 10 4 11 5 12 6 13 7 14 8 6 9 5 10 4 11 3 12 2 13
REMARK SMILES IDX 1 14
REMARK H PARENT
REMARK Flexibility Score: inf
ROOT
ATOM      1  C   UNL     1      61.068  31.378  59.481  1.00  0.00     0.000 C 
ENDROOT
BRANCH   1   2
ATOM      2  C   UNL     1      60.886  31.209  60.997  1.00  0.00     0.004 C 
BRANCH   2   3
ATOM      3  C   UNL     1      61.687  30.024  61.559  1.00  0.00     0.027 C 
BRANCH   3   4
ATOM      4  C   UNL     1      62.882  29.721  60.701  1.00  0.00    -0.025 C 
ATOM      5  C   UNL     1      64.100  30.173  61.015  1.00  0.00     0.020 C 
BRANCH   5   6
ATOM      6  C   UNL     1      65.281  29.872  60.192  1.00  0.00     0.064 C 
ATOM      7  O   UNL     1      66.095  28.990  60.572  1.00  0.00    -0.545 OA
ATOM      8  O   UNL     1      65.515  30.548  58.999  1.00  0.00    -0.545 OA
ENDBRANCH   5   6
ENDBRANCH   3   4
ENDBRANCH   2   3
ENDBRANCH   1   2
BRANCH   1   9
ATOM      9  C   UNL     1      61.502  32.800  59.090  1.00  0.00     0.000 C 
BRANCH   9  10
ATOM     10  C   UNL     1      61.571  33.711  60.321  1.00  0.00     0.000 C 
BRANCH  10  11
ATOM     11  C   UNL     1      62.765  34.673  60.227  1.00  0.00    -0.000 C 
BRANCH  11  12
ATOM     12  C   UNL     1      64.031  34.113  60.895  1.00  0.00    -0.000 C 
BRANCH  12  13
ATOM     13  C   UNL     1      64.959  35.217  61.423  1.00  0.00    -0.003 C 
ATOM     14  C   UNL     1      64.242  36.564  61.465  1.00  0.00     0.004 C 
ENDBRANCH  12  13
ENDBRANCH  11  12
ENDBRANCH  10  11
ENDBRANCH   9  10
ENDBRANCH   1   9
TORSDOF 9
ENDMDL
MODEL 2
REMARK VINA RESULT:    -3.593     11.867     13.511
REMARK INTER + INTRA:          -6.385
REMARK INTER:                  -5.356
REMARK INTRA:                  -1.029
REMARK UNBOUND:                -0.901
REMARK SMILES CCCCCCCCCC=CC(=O)[O-]
REMARK SMILES IDX 7 1 8 2 9 3 10 4 11 5 12 6 13 7 14 8 6 9 5 10 4 11 3 12 2 13
REMARK SMILES IDX 1 14
REMARK H PARENT
REMARK Flexibility Score: inf
ROOT
ATOM      1  C   UNL     1      58.534  29.343  50.304  1.00  0.00     0.000 C 
ENDROOT
BRANCH   1   2
ATOM      2  C   UNL     1      59.299  29.113  48.992  1.00  0.00     0.004 C 
BRANCH   2   3
ATOM      3  C   UNL     1      60.599  28.318  49.197  1.00  0.00     0.027 C 
BRANCH   3   4
ATOM      4  C   UNL     1      60.318  26.850  49.343  1.00  0.00    -0.025 C 
ATOM      5  C   UNL     1      60.334  26.251  50.539  1.00  0.00     0.020 C 
BRANCH   5   6
ATOM      6  C   UNL     1      60.047  24.818  50.698  1.00  0.00     0.064 C 
ATOM      7  O   UNL     1      59.253  24.439  51.598  1.00  0.00    -0.545 OA
ATOM      8  O   UNL     1      60.640  23.871  49.869  1.00  0.00    -0.545 OA
ENDBRANCH   5   6
ENDBRANCH   3   4
ENDBRANCH   2   3
ENDBRANCH   1   2
BRANCH   1   9
ATOM      9  C   UNL     1      57.079  28.853  50.236  1.00  0.00     0.000 C 
BRANCH   9  10
ATOM     10  C   UNL     1      56.931  27.478  50.900  1.00  0.00     0.000 C 
BRANCH  10  11
ATOM     11  C   UNL     1      56.501  26.417  49.876  1.00  0.00    -0.000 C 
BRANCH  11  12
ATOM     12  C   UNL     1      55.088  25.873  50.145  1.00  0.00    -0.000 C 
BRANCH  12  13
ATOM     13  C   UNL     1      54.062  26.352  49.109  1.00  0.00    -0.003 C 
ATOM     14  C   UNL     1      53.498  27.719  49.485  1.00  0.00     0.004 C 
ENDBRANCH  12  13
ENDBRANCH  11  12
ENDBRANCH  10  11
ENDBRANCH   9  10
ENDBRANCH   1   9
TORSDOF 9
ENDMDL
MODEL 3
REMARK VINA RESULT:    -3.579     11.136     13.231
REMARK INTER + INTRA:          -6.363
REMARK INTER:                  -5.596
REMARK INTRA:                  -0.768
REMARK UNBOUND:                -0.901
REMARK SMILES CCCCCCCCCC=CC(=O)[O-]
REMARK SMILES IDX 7 1 8 2 9 3 10 4 11 5 12 6 13 7 14 8 6 9 5 10 4 11 3 12 2 13
REMARK SMILES IDX 1 14
REMARK H PARENT
REMARK Flexibility Score: inf
ROOT
ATOM      1  C   UNL     1      58.946  29.545  50.888  1.00  0.00     0.000 C 
ENDROOT
BRANCH   1   2
ATOM      2  C   UNL     1      58.972  29.390  49.360  1.00  0.00     0.004 C 
BRANCH   2   3
ATOM      3  C   UNL     1      60.198  28.606  48.867  1.00  0.00     0.027 C 
BRANCH   3   4
ATOM      4  C   UNL     1      60.538  27.484  49.806  1.00  0.00    -0.025 C 
ATOM      5  C   UNL     1      60.408  26.204  49.442  1.00  0.00     0.020 C 
BRANCH   5   6
ATOM      6  C   UNL     1      60.751  25.096  50.345  1.00  0.00     0.064 C 
ATOM      7  O   UNL     1      61.115  25.345  51.524  1.00  0.00    -0.545 OA
ATOM      8  O   UNL     1      60.681  23.774  49.917  1.00  0.00    -0.545 OA
ENDBRANCH   5   6
ENDBRANCH   3   4
ENDBRANCH   2   3
ENDBRANCH   1   2
BRANCH   1   9
ATOM      9  C   UNL     1      57.599  29.134  51.504  1.00  0.00     0.000 C 
BRANCH   9  10
ATOM     10  C   UNL     1      56.748  28.355  50.493  1.00  0.00     0.000 C 
BRANCH  10  11
ATOM     11  C   UNL     1      55.373  29.015  50.308  1.00  0.00    -0.000 C 
BRANCH  11  12
ATOM     12  C   UNL     1      54.318  28.041  49.757  1.00  0.00    -0.000 C 
BRANCH  12  13
ATOM     13  C   UNL     1      54.617  26.579  50.117  1.00  0.00    -0.003 C 
ATOM     14  C   UNL     1      54.437  25.667  48.907  1.00  0.00     0.004 C 
ENDBRANCH  12  13
ENDBRANCH  11  12
ENDBRANCH  10  11
ENDBRANCH   9  10
ENDBRANCH   1   9
TORSDOF 9
ENDMDL
MODEL 4
REMARK VINA RESULT:    -3.550      3.159      5.602
REMARK INTER + INTRA:          -6.320
REMARK INTER:                  -4.895
REMARK INTRA:                  -1.425
REMARK UNBOUND:                -0.901
REMARK SMILES CCCCCCCCCC=CC(=O)[O-]
REMARK SMILES IDX 7 1 8 2 9 3 10 4 11 5 12 6 13 7 14 8 6 9 5 10 4 11 3 12 2 13
REMARK SMILES IDX 1 14
REMARK H PARENT
REMARK Flexibility Score: inf
ROOT
ATOM      1  C   UNL     1      64.092  30.247  58.923  1.00  0.00     0.000 C 
ENDROOT
BRANCH   1   2
ATOM      2  C   UNL     1      64.233  31.775  58.988  1.00  0.00     0.004 C 
BRANCH   2   3
ATOM      3  C   UNL     1      64.113  32.319  60.420  1.00  0.00     0.027 C 
BRANCH   3   4
ATOM      4  C   UNL     1      63.591  33.728  60.423  1.00  0.00    -0.025 C 
ATOM      5  C   UNL     1      62.280  33.987  60.469  1.00  0.00     0.020 C 
BRANCH   5   6
ATOM      6  C   UNL     1      61.757  35.361  60.488  1.00  0.00     0.064 C 
ATOM      7  O   UNL     1      60.629  35.604  59.984  1.00  0.00    -0.545 OA
ATOM      8  O   UNL     1      62.488  36.400  61.055  1.00  0.00    -0.545 OA
ENDBRANCH   5   6
ENDBRANCH   3   4
ENDBRANCH   2   3
ENDBRANCH   1   2
BRANCH   1   9
ATOM      9  C   UNL     1      64.645  29.546  60.174  1.00  0.00     0.000 C 
BRANCH   9  10
ATOM     10  C   UNL     1      63.731  28.393  60.607  1.00  0.00     0.000 C 
BRANCH  10  11
ATOM     11  C   UNL     1      62.254  28.807  60.540  1.00  0.00    -0.000 C 
BRANCH  11  12
ATOM     12  C   UNL     1      61.833  29.694  61.723  1.00  0.00    -0.000 C 
BRANCH  12  13
ATOM     13  C   UNL     1      60.788  30.748  61.331  1.00  0.00    -0.003 C 
ATOM     14  C   UNL     1      60.570  30.769  59.821  1.00  0.00     0.004 C 
ENDBRANCH  12  13
ENDBRANCH  11  12
ENDBRANCH  10  11
ENDBRANCH   9  10
ENDBRANCH   1   9
TORSDOF 9
ENDMDL
MODEL 5
REMARK VINA RESULT:    -3.516      2.292      3.011
REMARK INTER + INTRA:          -6.268
REMARK INTER:                  -4.819
REMARK INTRA:                  -1.448
REMARK UNBOUND:                -0.901
REMARK SMILES CCCCCCCCCC=CC(=O)[O-]
REMARK SMILES IDX 7 1 8 2 9 3 10 4 11 5 12 6 13 7 14 8 6 9 5 10 4 11 3 12 2 13
REMARK SMILES IDX 1 14
REMARK H PARENT
REMARK Flexibility Score: inf
ROOT
ATOM      1  C   UNL     1      63.032  32.408  57.685  1.00  0.00     0.000 C 
ENDROOT
BRANCH   1   2
ATOM      2  C   UNL     1      64.487  32.491  58.168  1.00  0.00     0.004 C 
BRANCH   2   3
ATOM      3  C   UNL     1      64.816  31.439  59.239  1.00  0.00     0.027 C 
BRANCH   3   4
ATOM      4  C   UNL     1      63.575  30.727  59.698  1.00  0.00    -0.025 C 
ATOM      5  C   UNL     1      63.299  30.572  60.997  1.00  0.00     0.020 C 
BRANCH   5   6
ATOM      6  C   UNL     1      62.081  29.891  61.460  1.00  0.00     0.064 C 
ATOM      7  O   UNL     1      62.073  28.638  61.571  1.00  0.00    -0.545 OA
ATOM      8  O   UNL     1      60.934  30.611  61.779  1.00  0.00    -0.545 OA
ENDBRANCH   5   6
ENDBRANCH   3   4
ENDBRANCH   2   3
ENDBRANCH   1   2
BRANCH   1   9
ATOM      9  C   UNL     1      62.252  33.711  57.921  1.00  0.00     0.000 C 
BRANCH   9  10
ATOM     10  C   UNL     1      61.259  33.555  59.078  1.00  0.00     0.000 C 
BRANCH  10  11
ATOM     11  C   UNL     1      61.889  33.999  60.407  1.00  0.00    -0.000 C 
BRANCH  11  12
ATOM     12  C   UNL     1      62.163  35.511  60.457  1.00  0.00    -0.000 C 
BRANCH  12  13
ATOM     13  C   UNL     1      63.537  35.844  61.054  1.00  0.00    -0.003 C 
ATOM     14  C   UNL     1      64.406  34.595  61.163  1.00  0.00     0.004 C 
ENDBRANCH  12  13
ENDBRANCH  11  12
ENDBRANCH  10  11
ENDBRANCH   9  10
ENDBRANCH   1   9
TORSDOF 9
ENDMDL
MODEL 6
REMARK VINA RESULT:    -3.511      2.759      5.810
REMARK INTER + INTRA:          -6.260
REMARK INTER:                  -5.817
REMARK INTRA:                  -0.443
REMARK UNBOUND:                -0.901
REMARK SMILES CCCCCCCCCC=CC(=O)[O-]
REMARK SMILES IDX 7 1 8 2 9 3 10 4 11 5 12 6 13 7 14 8 6 9 5 10 4 11 3 12 2 13
REMARK SMILES IDX 1 14
REMARK H PARENT
REMARK Flexibility Score: inf
ROOT
ATOM      1  C   UNL     1      61.020  31.686  60.016  1.00  0.00     0.000 C 
ENDROOT
BRANCH   1   2
ATOM      2  C   UNL     1      62.093  32.747  60.303  1.00  0.00     0.004 C 
BRANCH   2   3
ATOM      3  C   UNL     1      61.548  34.180  60.199  1.00  0.00     0.027 C 
BRANCH   3   4
ATOM      4  C   UNL     1      62.573  35.184  60.644  1.00  0.00    -0.025 C 
ATOM      5  C   UNL     1      63.842  34.832  60.872  1.00  0.00     0.020 C 
BRANCH   5   6
ATOM      6  C   UNL     1      64.860  35.807  61.293  1.00  0.00     0.064 C 
ATOM      7  O   UNL     1      66.054  35.658  60.924  1.00  0.00    -0.545 OA
ATOM      8  O   UNL     1      64.523  36.893  62.094  1.00  0.00    -0.545 OA
ENDBRANCH   5   6
ENDBRANCH   3   4
ENDBRANCH   2   3
ENDBRANCH   1   2
BRANCH   1   9
ATOM      9  C   UNL     1      60.763  30.762  61.218  1.00  0.00     0.000 C 
BRANCH   9  10
ATOM     10  C   UNL     1      62.010  29.932  61.549  1.00  0.00     0.000 C 
BRANCH  10  11
ATOM     11  C   UNL     1      62.266  28.871  60.469  1.00  0.00    -0.000 C 
BRANCH  11  12
ATOM     12  C   UNL     1      62.475  27.466  61.057  1.00  0.00    -0.000 C 
BRANCH  12  13
ATOM     13  C   UNL     1      63.597  26.690  60.352  1.00  0.00    -0.003 C 
ATOM     14  C   UNL     1      64.865  27.532  60.247  1.00  0.00     0.004 C 
ENDBRANCH  12  13
ENDBRANCH  11  12
ENDBRANCH  10  11
ENDBRANCH   9  10
ENDBRANCH   1   9
TORSDOF 9
ENDMDL
MODEL 7
REMARK VINA RESULT:    -3.486     11.196     13.092
REMARK INTER + INTRA:          -6.221
REMARK INTER:                  -4.694
REMARK INTRA:                  -1.528
REMARK UNBOUND:                -0.901
REMARK SMILES CCCCCCCCCC=CC(=O)[O-]
REMARK SMILES IDX 7 1 8 2 9 3 10 4 11 5 12 6 13 7 14 8 6 9 5 10 4 11 3 12 2 13
REMARK SMILES IDX 1 14
REMARK H PARENT
REMARK Flexibility Score: inf
ROOT
ATOM      1  C   UNL     1      59.659  26.053  51.200  1.00  0.00     0.000 C 
ENDROOT
BRANCH   1   2
ATOM      2  C   UNL     1      58.134  26.155  51.351  1.00  0.00     0.004 C 
BRANCH   2   3
ATOM      3  C   UNL     1      57.409  26.206  49.997  1.00  0.00     0.027 C 
BRANCH   3   4
ATOM      4  C   UNL     1      56.055  26.843  50.130  1.00  0.00    -0.025 C 
ATOM      5  C   UNL     1      55.904  28.171  50.115  1.00  0.00     0.020 C 
BRANCH   5   6
ATOM      6  C   UNL     1      54.583  28.808  50.228  1.00  0.00     0.064 C 
ATOM      7  O   UNL     1      53.637  28.412  49.500  1.00  0.00    -0.545 OA
ATOM      8  O   UNL     1      54.362  29.844  51.130  1.00  0.00    -0.545 OA
ENDBRANCH   5   6
ENDBRANCH   3   4
ENDBRANCH   2   3
ENDBRANCH   1   2
BRANCH   1   9
ATOM      9  C   UNL     1      60.125  26.238  49.748  1.00  0.00     0.000 C 
BRANCH   9  10
ATOM     10  C   UNL     1      60.922  27.539  49.589  1.00  0.00     0.000 C 
BRANCH  10  11
ATOM     11  C   UNL     1      60.165  28.542  48.706  1.00  0.00    -0.000 C 
BRANCH  11  12
ATOM     12  C   UNL     1      59.213  29.441  49.512  1.00  0.00    -0.000 C 
BRANCH  12  13
ATOM     13  C   UNL     1      59.774  29.808  50.893  1.00  0.00    -0.003 C 
ATOM     14  C   UNL     1      58.667  29.852  51.942  1.00  0.00     0.004 C 
ENDBRANCH  12  13
ENDBRANCH  11  12
ENDBRANCH  10  11
ENDBRANCH   9  10
ENDBRANCH   1   9
TORSDOF 9
ENDMDL
MODEL 8
REMARK VINA RESULT:    -3.409     12.305     13.429
REMARK INTER + INTRA:          -6.105
REMARK INTER:                  -5.283
REMARK INTRA:                  -0.821
REMARK UNBOUND:                -0.901
REMARK SMILES CCCCCCCCCC=CC(=O)[O-]
REMARK SMILES IDX 7 1 8 2 9 3 10 4 11 5 12 6 13 7 14 8 6 9 5 10 4 11 3 12 2 13
REMARK SMILES IDX 1 14
REMARK H PARENT
REMARK Flexibility Score: inf
ROOT
ATOM      1  C   UNL     1      60.291  28.184  48.955  1.00  0.00     0.000 C 
ENDROOT
BRANCH   1   2
ATOM      2  C   UNL     1      59.196  29.220  49.247  1.00  0.00     0.004 C 
BRANCH   2   3
ATOM      3  C   UNL     1      58.505  28.983  50.599  1.00  0.00     0.027 C 
BRANCH   3   4
ATOM      4  C   UNL     1      57.011  28.941  50.444  1.00  0.00    -0.025 C 
ATOM      5  C   UNL     1      56.377  27.817  50.093  1.00  0.00     0.020 C 
BRANCH   5   6
ATOM      6  C   UNL     1      54.914  27.758  49.953  1.00  0.00     0.064 C 
ATOM      7  O   UNL     1      54.334  26.641  49.961  1.00  0.00    -0.545 OA
ATOM      8  O   UNL     1      54.160  28.918  49.811  1.00  0.00    -0.545 OA
ENDBRANCH   5   6
ENDBRANCH   3   4
ENDBRANCH   2   3
ENDBRANCH   1   2
BRANCH   1   9
ATOM      9  C   UNL     1      59.863  26.751  49.312  1.00  0.00     0.000 C 
BRANCH   9  10
ATOM     10  C   UNL     1      61.019  25.978  49.959  1.00  0.00     0.000 C 
BRANCH  10  11
ATOM     11  C   UNL     1      62.250  26.878  50.137  1.00  0.00    -0.000 C 
BRANCH  11  12
ATOM     12  C   UNL     1      63.573  26.120  49.939  1.00  0.00    -0.000 C 
BRANCH  12  13
ATOM     13  C   UNL     1      64.660  26.985  49.287  1.00  0.00    -0.003 C 
ATOM     14  C   UNL     1      64.058  27.945  48.264  1.00  0.00     0.004 C 
ENDBRANCH  12  13
ENDBRANCH  11  12
ENDBRANCH  10  11
ENDBRANCH   9  10
ENDBRANCH   1   9
TORSDOF 9
ENDMDL
MODEL 9
REMARK VINA RESULT:    -3.377      2.116      3.497
REMARK INTER + INTRA:          -6.056
REMARK INTER:                  -4.620
REMARK INTRA:                  -1.435
REMARK UNBOUND:                -0.901
REMARK SMILES CCCCCCCCCC=CC(=O)[O-]
REMARK SMILES IDX 7 1 8 2 9 3 10 4 11 5 12 6 13 7 14 8 6 9 5 10 4 11 3 12 2 13
REMARK SMILES IDX 1 14
REMARK H PARENT
REMARK Flexibility Score: inf
ROOT
ATOM      1  C   UNL     1      61.532  35.236  60.632  1.00  0.00     0.000 C 
ENDROOT
BRANCH   1   2
ATOM      2  C   UNL     1      60.917  34.902  59.264  1.00  0.00     0.004 C 
BRANCH   2   3
ATOM      3  C   UNL     1      61.124  33.432  58.867  1.00  0.00     0.027 C 
BRANCH   3   4
ATOM      4  C   UNL     1      61.544  32.605  60.049  1.00  0.00    -0.025 C 
ATOM      5  C   UNL     1      61.947  31.338  59.907  1.00  0.00     0.020 C 
BRANCH   5   6
ATOM      6  C   UNL     1      62.375  30.522  61.053  1.00  0.00     0.064 C 
ATOM      7  O   UNL     1      61.509  30.001  61.803  1.00  0.00    -0.545 OA
ATOM      8  O   UNL     1      63.724  30.316  61.322  1.00  0.00    -0.545 OA
ENDBRANCH   5   6
ENDBRANCH   3   4
ENDBRANCH   2   3
ENDBRANCH   1   2
BRANCH   1   9
ATOM      9  C   UNL     1      62.283  36.577  60.633  1.00  0.00     0.000 C 
BRANCH   9  10
ATOM     10  C   UNL     1      63.784  36.366  60.867  1.00  0.00     0.000 C 
BRANCH  10  11
ATOM     11  C   UNL     1      64.090  34.892  61.170  1.00  0.00    -0.000 C 
BRANCH  11  12
ATOM     12  C   UNL     1      64.895  34.211  60.050  1.00  0.00    -0.000 C 
BRANCH  12  13
ATOM     13  C   UNL     1      65.098  35.121  58.831  1.00  0.00    -0.003 C 
ATOM     14  C   UNL     1      64.389  34.560  57.602  1.00  0.00     0.004 C 
ENDBRANCH  12  13
ENDBRANCH  11  12
ENDBRANCH  10  11
ENDBRANCH   9  10
ENDBRANCH   1   9
TORSDOF 9
ENDMDL
