MODEL 1
REMARK VINA RESULT:    -5.101      0.000      0.000
REMARK INTER + INTRA:          -9.701
REMARK INTER:                  -8.978
REMARK INTRA:                  -0.723
REMARK UNBOUND:                -0.723
REMARK SMILES CCCCCCC=CCCCCCCCC(=O)[O-]
REMARK SMILES IDX 10 1 11 2 12 3 13 4 14 5 15 6 16 7 17 8 18 9 9 10 8 11 7 12
REMARK SMILES IDX 6 13 5 14 4 15 3 16 2 17 1 18
REMARK H PARENT
REMARK Flexibility Score: inf
ROOT
ATOM      1  C   UNL     1       6.095  -8.509  16.841  1.00  0.00     0.004 C 
ENDROOT
BRANCH   1   2
ATOM      2  C   UNL     1       6.241  -8.848  15.349  1.00  0.00     0.000 C 
BRANCH   2   3
ATOM      3  C   UNL     1       6.667  -7.633  14.507  1.00  0.00     0.000 C 
BRANCH   3   4
ATOM      4  C   UNL     1       5.473  -6.782  14.036  1.00  0.00     0.000 C 
BRANCH   4   5
ATOM      5  C   UNL     1       5.845  -5.423  13.413  1.00  0.00     0.006 C 
BRANCH   5   6
ATOM      6  C   UNL     1       6.734  -5.558  12.171  1.00  0.00     0.053 C 
BRANCH   6   7
ATOM      7  C   UNL     1       5.989  -5.127  10.946  1.00  0.00     0.041 C 
ATOM      8  O   UNL     1       5.673  -5.970  10.067  1.00  0.00    -0.550 OA
ATOM      9  O   UNL     1       5.603  -3.801  10.799  1.00  0.00    -0.550 OA
ENDBRANCH   6   7
ENDBRANCH   5   6
ENDBRANCH   4   5
ENDBRANCH   3   4
ENDBRANCH   2   3
ENDBRANCH   1   2
BRANCH   1  10
ATOM     10  C   UNL     1       7.000  -7.348  17.276  1.00  0.00     0.027 C 
BRANCH  10  11
ATOM     11  C   UNL     1       7.019  -7.207  18.774  1.00  0.00    -0.031 C 
ATOM     12  C   UNL     1       5.958  -7.570  19.509  1.00  0.00    -0.031 C 
BRANCH  12  13
ATOM     13  C   UNL     1       5.955  -7.442  21.009  1.00  0.00     0.027 C 
BRANCH  13  14
ATOM     14  C   UNL     1       7.051  -6.493  21.518  1.00  0.00     0.004 C 
BRANCH  14  15
ATOM     15  C   UNL     1       6.469  -5.304  22.301  1.00  0.00     0.000 C 
BRANCH  15  16
ATOM     16  C   UNL     1       7.552  -4.337  22.814  1.00  0.00    -0.000 C 
BRANCH  16  17
ATOM     17  C   UNL     1       7.318  -3.797  24.236  1.00  0.00    -0.003 C 
ATOM     18  C   UNL     1       6.398  -4.686  25.070  1.00  0.00     0.004 C 
ENDBRANCH  16  17
ENDBRANCH  15  16
ENDBRANCH  14  15
ENDBRANCH  13  14
ENDBRANCH  12  13
ENDBRANCH  10  11
ENDBRANCH   1  10
TORSDOF 13
ENDMDL
MODEL 2
REMARK VINA RESULT:    -5.075      2.101      4.118
REMARK INTER + INTRA:          -9.655
REMARK INTER:                  -8.376
REMARK INTRA:                  -1.280
REMARK UNBOUND:                -0.723
REMARK SMILES CCCCCCC=CCCCCCCCC(=O)[O-]
REMARK SMILES IDX 10 1 11 2 12 3 13 4 14 5 15 6 16 7 17 8 18 9 9 10 8 11 7 12
REMARK SMILES IDX 6 13 5 14 4 15 3 16 2 17 1 18
REMARK H PARENT
REMARK Flexibility Score: inf
ROOT
ATOM      1  C   UNL     1       4.538  -5.790  19.569  1.00  0.00     0.004 C 
ENDROOT
BRANCH   1   2
ATOM      2  C   UNL     1       5.565  -6.730  20.218  1.00  0.00     0.000 C 
BRANCH   2   3
ATOM      3  C   UNL     1       6.181  -7.716  19.210  1.00  0.00     0.000 C 
BRANCH   3   4
ATOM      4  C   UNL     1       6.969  -7.014  18.089  1.00  0.00     0.000 C 
BRANCH   4   5
ATOM      5  C   UNL     1       6.795  -7.624  16.686  1.00  0.00     0.006 C 
BRANCH   5   6
ATOM      6  C   UNL     1       5.906  -6.775  15.770  1.00  0.00     0.053 C 
BRANCH   6   7
ATOM      7  C   UNL     1       5.882  -7.348  14.387  1.00  0.00     0.041 C 
ATOM      8  O   UNL     1       6.696  -6.939  13.518  1.00  0.00    -0.550 OA
ATOM      9  O   UNL     1       4.994  -8.369  14.073  1.00  0.00    -0.550 OA
ENDBRANCH   6   7
ENDBRANCH   5   6
ENDBRANCH   4   5
ENDBRANCH   3   4
ENDBRANCH   2   3
ENDBRANCH   1   2
BRANCH   1  10
ATOM     10  C   UNL     1       4.916  -4.309  19.712  1.00  0.00     0.027 C 
BRANCH  10  11
ATOM     11  C   UNL     1       5.878  -4.102  20.851  1.00  0.00    -0.031 C 
ATOM     12  C   UNL     1       6.308  -2.873  21.168  1.00  0.00    -0.031 C 
BRANCH  12  13
ATOM     13  C   UNL     1       7.267  -2.641  22.306  1.00  0.00     0.027 C 
BRANCH  13  14
ATOM     14  C   UNL     1       7.554  -3.923  23.101  1.00  0.00     0.004 C 
BRANCH  14  15
ATOM     15  C   UNL     1       7.446  -3.698  24.619  1.00  0.00     0.000 C 
BRANCH  15  16
ATOM     16  C   UNL     1       6.337  -4.545  25.272  1.00  0.00    -0.000 C 
BRANCH  16  17
ATOM     17  C   UNL     1       5.566  -5.459  24.304  1.00  0.00    -0.003 C 
ATOM     18  C   UNL     1       4.548  -6.354  25.009  1.00  0.00     0.004 C 
ENDBRANCH  16  17
ENDBRANCH  15  16
ENDBRANCH  14  15
ENDBRANCH  13  14
ENDBRANCH  12  13
ENDBRANCH  10  11
ENDBRANCH   1  10
TORSDOF 13
ENDMDL
MODEL 3
REMARK VINA RESULT:    -5.038      1.241      1.420
REMARK INTER + INTRA:          -9.590
REMARK INTER:                  -8.885
REMARK INTRA:                  -0.705
REMARK UNBOUND:                -0.723
REMARK SMILES CCCCCCC=CCCCCCCCC(=O)[O-]
REMARK SMILES IDX 10 1 11 2 12 3 13 4 14 5 15 6 16 7 17 8 18 9 9 10 8 11 7 12
REMARK SMILES IDX 6 13 5 14 4 15 3 16 2 17 1 18
REMARK H PARENT
REMARK Flexibility Score: inf
ROOT
ATOM      1  C   UNL     1       5.885  -8.439  16.974  1.00  0.00     0.004 C 
ENDROOT
BRANCH   1   2
ATOM      2  C   UNL     1       5.557  -8.482  15.473  1.00  0.00     0.000 C 
BRANCH   2   3
ATOM      3  C   UNL     1       6.485  -7.581  14.640  1.00  0.00     0.000 C 
BRANCH   3   4
ATOM      4  C   UNL     1       5.747  -6.846  13.506  1.00  0.00     0.000 C 
BRANCH   4   5
ATOM      5  C   UNL     1       6.631  -5.939  12.630  1.00  0.00     0.006 C 
BRANCH   5   6
ATOM      6  C   UNL     1       5.836  -4.845  11.908  1.00  0.00     0.053 C 
BRANCH   6   7
ATOM      7  C   UNL     1       5.629  -3.669  12.810  1.00  0.00     0.041 C 
ATOM      8  O   UNL     1       6.461  -3.415  13.720  1.00  0.00    -0.550 OA
ATOM      9  O   UNL     1       4.543  -2.825  12.614  1.00  0.00    -0.550 OA
ENDBRANCH   6   7
ENDBRANCH   5   6
ENDBRANCH   4   5
ENDBRANCH   3   4
ENDBRANCH   2   3
ENDBRANCH   1   2
BRANCH   1  10
ATOM     10  C   UNL     1       6.848  -7.301  17.338  1.00  0.00     0.027 C 
BRANCH  10  11
ATOM     11  C   UNL     1       6.973  -7.151  18.830  1.00  0.00    -0.031 C 
ATOM     12  C   UNL     1       6.021  -7.625  19.646  1.00  0.00    -0.031 C 
BRANCH  12  13
ATOM     13  C   UNL     1       6.125  -7.491  21.142  1.00  0.00     0.027 C 
BRANCH  13  14
ATOM     14  C   UNL     1       6.983  -6.289  21.564  1.00  0.00     0.004 C 
BRANCH  14  15
ATOM     15  C   UNL     1       6.232  -5.351  22.525  1.00  0.00     0.000 C 
BRANCH  15  16
ATOM     16  C   UNL     1       7.003  -4.049  22.815  1.00  0.00    -0.000 C 
BRANCH  16  17
ATOM     17  C   UNL     1       7.394  -3.843  24.289  1.00  0.00    -0.003 C 
ATOM     18  C   UNL     1       6.460  -4.559  25.262  1.00  0.00     0.004 C 
ENDBRANCH  16  17
ENDBRANCH  15  16
ENDBRANCH  14  15
ENDBRANCH  13  14
ENDBRANCH  12  13
ENDBRANCH  10  11
ENDBRANCH   1  10
TORSDOF 13
ENDMDL
MODEL 4
REMARK VINA RESULT:    -4.937      3.524      5.352
REMARK INTER + INTRA:          -9.411
REMARK INTER:                  -7.436
REMARK INTRA:                  -1.976
REMARK UNBOUND:                -0.723
REMARK SMILES CCCCCCC=CCCCCCCCC(=O)[O-]
REMARK SMILES IDX 10 1 11 2 12 3 13 4 14 5 15 6 16 7 17 8 18 9 9 10 8 11 7 12
REMARK SMILES IDX 6 13 5 14 4 15 3 16 2 17 1 18
REMARK H PARENT
REMARK Flexibility Score: inf
ROOT
ATOM      1  C   UNL     1       3.472  -6.654  21.718  1.00  0.00     0.004 C 
ENDROOT
BRANCH   1   2
ATOM      2  C   UNL     1       4.707  -7.332  22.331  1.00  0.00     0.000 C 
BRANCH   2   3
ATOM      3  C   UNL     1       5.569  -8.050  21.279  1.00  0.00     0.000 C 
BRANCH   3   4
ATOM      4  C   UNL     1       6.985  -7.457  21.159  1.00  0.00     0.000 C 
BRANCH   4   5
ATOM      5  C   UNL     1       7.494  -7.264  19.718  1.00  0.00     0.006 C 
BRANCH   5   6
ATOM      6  C   UNL     1       6.543  -7.845  18.665  1.00  0.00     0.053 C 
BRANCH   6   7
ATOM      7  C   UNL     1       6.827  -7.251  17.321  1.00  0.00     0.041 C 
ATOM      8  O   UNL     1       6.835  -7.980  16.295  1.00  0.00    -0.550 OA
ATOM      9  O   UNL     1       7.035  -5.883  17.196  1.00  0.00    -0.550 OA
ENDBRANCH   6   7
ENDBRANCH   5   6
ENDBRANCH   4   5
ENDBRANCH   3   4
ENDBRANCH   2   3
ENDBRANCH   1   2
BRANCH   1  10
ATOM     10  C   UNL     1       3.799  -5.877  20.434  1.00  0.00     0.027 C 
BRANCH  10  11
ATOM     11  C   UNL     1       4.257  -4.479  20.748  1.00  0.00    -0.031 C 
ATOM     12  C   UNL     1       5.533  -4.117  20.553  1.00  0.00    -0.031 C 
BRANCH  12  13
ATOM     13  C   UNL     1       6.014  -2.723  20.856  1.00  0.00     0.027 C 
BRANCH  13  14
ATOM     14  C   UNL     1       7.001  -2.687  22.032  1.00  0.00     0.004 C 
BRANCH  14  15
ATOM     15  C   UNL     1       7.440  -4.097  22.463  1.00  0.00     0.000 C 
BRANCH  15  16
ATOM     16  C   UNL     1       7.920  -4.154  23.925  1.00  0.00    -0.000 C 
BRANCH  16  17
ATOM     17  C   UNL     1       6.818  -3.936  24.977  1.00  0.00    -0.003 C 
ATOM     18  C   UNL     1       5.913  -5.153  25.156  1.00  0.00     0.004 C 
ENDBRANCH  16  17
ENDBRANCH  15  16
ENDBRANCH  14  15
ENDBRANCH  13  14
ENDBRANCH  12  13
ENDBRANCH  10  11
ENDBRANCH   1  10
TORSDOF 13
ENDMDL
MODEL 5
REMARK VINA RESULT:    -4.880      4.261      7.924
REMARK INTER + INTRA:          -9.311
REMARK INTER:                  -7.680
REMARK INTRA:                  -1.632
REMARK UNBOUND:                -0.723
REMARK SMILES CCCCCCC=CCCCCCCCC(=O)[O-]
REMARK SMILES IDX 10 1 11 2 12 3 13 4 14 5 15 6 16 7 17 8 18 9 9 10 8 11 7 12
REMARK SMILES IDX 6 13 5 14 4 15 3 16 2 17 1 18
REMARK H PARENT
REMARK Flexibility Score: inf
ROOT
ATOM      1  C   UNL     1       6.263  -8.512  16.275  1.00  0.00     0.004 C 
ENDROOT
BRANCH   1   2
ATOM      2  C   UNL     1       7.017  -7.252  16.729  1.00  0.00     0.000 C 
BRANCH   2   3
ATOM      3  C   UNL     1       7.306  -7.251  18.240  1.00  0.00     0.000 C 
BRANCH   3   4
ATOM      4  C   UNL     1       6.032  -7.113  19.094  1.00  0.00     0.000 C 
BRANCH   4   5
ATOM      5  C   UNL     1       6.155  -7.625  20.541  1.00  0.00     0.006 C 
BRANCH   5   6
ATOM      6  C   UNL     1       7.238  -6.894  21.344  1.00  0.00     0.053 C 
BRANCH   6   7
ATOM      7  C   UNL     1       6.635  -5.779  22.139  1.00  0.00     0.041 C 
ATOM      8  O   UNL     1       7.076  -4.606  22.022  1.00  0.00    -0.550 OA
ATOM      9  O   UNL     1       5.553  -6.027  22.974  1.00  0.00    -0.550 OA
ENDBRANCH   6   7
ENDBRANCH   5   6
ENDBRANCH   4   5
ENDBRANCH   3   4
ENDBRANCH   2   3
ENDBRANCH   1   2
BRANCH   1  10
ATOM     10  C   UNL     1       5.695  -8.382  14.855  1.00  0.00     0.027 C 
BRANCH  10  11
ATOM     11  C   UNL     1       6.337  -7.240  14.115  1.00  0.00    -0.031 C 
ATOM     12  C   UNL     1       5.610  -6.453  13.309  1.00  0.00    -0.031 C 
BRANCH  12  13
ATOM     13  C   UNL     1       6.229  -5.302  12.561  1.00  0.00     0.027 C 
BRANCH  13  14
ATOM     14  C   UNL     1       5.559  -3.960  12.892  1.00  0.00     0.004 C 
BRANCH  14  15
ATOM     15  C   UNL     1       6.453  -3.067  13.769  1.00  0.00     0.000 C 
BRANCH  15  16
ATOM     16  C   UNL     1       5.824  -2.749  15.138  1.00  0.00    -0.000 C 
BRANCH  16  17
ATOM     17  C   UNL     1       5.926  -3.881  16.176  1.00  0.00    -0.003 C 
ATOM     18  C   UNL     1       4.586  -4.559  16.455  1.00  0.00     0.004 C 
ENDBRANCH  16  17
ENDBRANCH  15  16
ENDBRANCH  14  15
ENDBRANCH  13  14
ENDBRANCH  12  13
ENDBRANCH  10  11
ENDBRANCH   1  10
TORSDOF 13
ENDMDL
MODEL 6
REMARK VINA RESULT:    -4.866      1.771      2.345
REMARK INTER + INTRA:          -9.287
REMARK INTER:                  -8.260
REMARK INTRA:                  -1.027
REMARK UNBOUND:                -0.723
REMARK SMILES CCCCCCC=CCCCCCCCC(=O)[O-]
REMARK SMILES IDX 10 1 11 2 12 3 13 4 14 5 15 6 16 7 17 8 18 9 9 10 8 11 7 12
REMARK SMILES IDX 6 13 5 14 4 15 3 16 2 17 1 18
REMARK H PARENT
REMARK Flexibility Score: inf
ROOT
ATOM      1  C   UNL     1       6.167  -6.348  16.525  1.00  0.00     0.004 C 
ENDROOT
BRANCH   1   2
ATOM      2  C   UNL     1       6.210  -4.874  16.958  1.00  0.00     0.000 C 
BRANCH   2   3
ATOM      3  C   UNL     1       5.359  -3.968  16.052  1.00  0.00     0.000 C 
BRANCH   3   4
ATOM      4  C   UNL     1       6.183  -2.868  15.359  1.00  0.00     0.000 C 
BRANCH   4   5
ATOM      5  C   UNL     1       6.268  -2.981  13.825  1.00  0.00     0.006 C 
BRANCH   5   6
ATOM      6  C   UNL     1       5.408  -4.119  13.261  1.00  0.00     0.053 C 
BRANCH   6   7
ATOM      7  C   UNL     1       6.276  -5.189  12.676  1.00  0.00     0.041 C 
ATOM      8  O   UNL     1       7.327  -4.882  12.056  1.00  0.00    -0.550 OA
ATOM      9  O   UNL     1       5.949  -6.526  12.858  1.00  0.00    -0.550 OA
ENDBRANCH   6   7
ENDBRANCH   5   6
ENDBRANCH   4   5
ENDBRANCH   3   4
ENDBRANCH   2   3
ENDBRANCH   1   2
BRANCH   1  10
ATOM     10  C   UNL     1       7.030  -7.253  17.415  1.00  0.00     0.027 C 
BRANCH  10  11
ATOM     11  C   UNL     1       6.548  -7.229  18.841  1.00  0.00    -0.031 C 
ATOM     12  C   UNL     1       7.421  -7.165  19.856  1.00  0.00    -0.031 C 
BRANCH  12  13
ATOM     13  C   UNL     1       6.964  -7.137  21.290  1.00  0.00     0.027 C 
BRANCH  13  14
ATOM     14  C   UNL     1       5.820  -6.138  21.521  1.00  0.00     0.004 C 
BRANCH  14  15
ATOM     15  C   UNL     1       6.338  -4.713  21.777  1.00  0.00     0.000 C 
BRANCH  15  16
ATOM     16  C   UNL     1       7.492  -4.670  22.796  1.00  0.00    -0.000 C 
BRANCH  16  17
ATOM     17  C   UNL     1       7.301  -3.669  23.949  1.00  0.00    -0.003 C 
ATOM     18  C   UNL     1       6.755  -4.317  25.220  1.00  0.00     0.004 C 
ENDBRANCH  16  17
ENDBRANCH  15  16
ENDBRANCH  14  15
ENDBRANCH  13  14
ENDBRANCH  12  13
ENDBRANCH  10  11
ENDBRANCH   1  10
TORSDOF 13
ENDMDL
MODEL 7
REMARK VINA RESULT:    -4.850      4.724      8.906
REMARK INTER + INTRA:          -9.259
REMARK INTER:                  -8.209
REMARK INTRA:                  -1.049
REMARK UNBOUND:                -0.723
REMARK SMILES CCCCCCC=CCCCCCCCC(=O)[O-]
REMARK SMILES IDX 10 1 11 2 12 3 13 4 14 5 15 6 16 7 17 8 18 9 9 10 8 11 7 12
REMARK SMILES IDX 6 13 5 14 4 15 3 16 2 17 1 18
REMARK H PARENT
REMARK Flexibility Score: inf
ROOT
ATOM      1  C   UNL     1       7.062  -6.924  17.372  1.00  0.00     0.004 C 
ENDROOT
BRANCH   1   2
ATOM      2  C   UNL     1       6.539  -7.115  18.804  1.00  0.00     0.000 C 
BRANCH   2   3
ATOM      3  C   UNL     1       7.669  -7.377  19.815  1.00  0.00     0.000 C 
BRANCH   3   4
ATOM      4  C   UNL     1       7.281  -7.006  21.258  1.00  0.00     0.000 C 
BRANCH   4   5
ATOM      5  C   UNL     1       6.410  -5.744  21.397  1.00  0.00     0.006 C 
BRANCH   5   6
ATOM      6  C   UNL     1       6.987  -4.724  22.387  1.00  0.00     0.053 C 
BRANCH   6   7
ATOM      7  C   UNL     1       6.398  -4.928  23.748  1.00  0.00     0.041 C 
ATOM      8  O   UNL     1       5.438  -5.726  23.910  1.00  0.00    -0.550 OA
ATOM      9  O   UNL     1       6.941  -4.272  24.846  1.00  0.00    -0.550 OA
ENDBRANCH   6   7
ENDBRANCH   5   6
ENDBRANCH   4   5
ENDBRANCH   3   4
ENDBRANCH   2   3
ENDBRANCH   1   2
BRANCH   1  10
ATOM     10  C   UNL     1       6.751  -8.121  16.463  1.00  0.00     0.027 C 
BRANCH  10  11
ATOM     11  C   UNL     1       6.592  -7.687  15.031  1.00  0.00    -0.031 C 
ATOM     12  C   UNL     1       5.519  -6.982  14.645  1.00  0.00    -0.031 C 
BRANCH  12  13
ATOM     13  C   UNL     1       5.339  -6.534  13.218  1.00  0.00     0.027 C 
BRANCH  13  14
ATOM     14  C   UNL     1       6.674  -6.191  12.540  1.00  0.00     0.004 C 
BRANCH  14  15
ATOM     15  C   UNL     1       6.802  -4.687  12.244  1.00  0.00     0.000 C 
BRANCH  15  16
ATOM     16  C   UNL     1       5.604  -3.870  12.762  1.00  0.00    -0.000 C 
BRANCH  16  17
ATOM     17  C   UNL     1       5.954  -2.804  13.815  1.00  0.00    -0.003 C 
ATOM     18  C   UNL     1       6.145  -3.386  15.215  1.00  0.00     0.004 C 
ENDBRANCH  16  17
ENDBRANCH  15  16
ENDBRANCH  14  15
ENDBRANCH  13  14
ENDBRANCH  12  13
ENDBRANCH  10  11
ENDBRANCH   1  10
TORSDOF 13
ENDMDL
MODEL 8
REMARK VINA RESULT:    -4.760      4.210      7.888
REMARK INTER + INTRA:          -9.100
REMARK INTER:                  -7.709
REMARK INTRA:                  -1.391
REMARK UNBOUND:                -0.723
REMARK SMILES CCCCCCC=CCCCCCCCC(=O)[O-]
REMARK SMILES IDX 10 1 11 2 12 3 13 4 14 5 15 6 16 7 17 8 18 9 9 10 8 11 7 12
REMARK SMILES IDX 6 13 5 14 4 15 3 16 2 17 1 18
REMARK H PARENT
REMARK Flexibility Score: inf
ROOT
ATOM      1  C   UNL     1       6.398  -8.158  16.882  1.00  0.00     0.004 C 
ENDROOT
BRANCH   1   2
ATOM      2  C   UNL     1       7.084  -7.268  17.930  1.00  0.00     0.000 C 
BRANCH   2   3
ATOM      3  C   UNL     1       6.344  -7.266  19.279  1.00  0.00     0.000 C 
BRANCH   3   4
ATOM      4  C   UNL     1       7.298  -7.273  20.487  1.00  0.00     0.000 C 
BRANCH   4   5
ATOM      5  C   UNL     1       6.820  -6.460  21.704  1.00  0.00     0.006 C 
BRANCH   5   6
ATOM      6  C   UNL     1       6.222  -5.101  21.318  1.00  0.00     0.053 C 
BRANCH   6   7
ATOM      7  C   UNL     1       6.926  -3.997  22.043  1.00  0.00     0.041 C 
ATOM      8  O   UNL     1       7.738  -4.263  22.967  1.00  0.00    -0.550 OA
ATOM      9  O   UNL     1       6.720  -2.676  21.665  1.00  0.00    -0.550 OA
ENDBRANCH   6   7
ENDBRANCH   5   6
ENDBRANCH   4   5
ENDBRANCH   3   4
ENDBRANCH   2   3
ENDBRANCH   1   2
BRANCH   1  10
ATOM     10  C   UNL     1       6.988  -7.982  15.476  1.00  0.00     0.027 C 
BRANCH  10  11
ATOM     11  C   UNL     1       5.986  -7.363  14.541  1.00  0.00    -0.031 C 
ATOM     12  C   UNL     1       6.390  -6.654  13.477  1.00  0.00    -0.031 C 
BRANCH  12  13
ATOM     13  C   UNL     1       5.406  -6.028  12.525  1.00  0.00     0.027 C 
BRANCH  13  14
ATOM     14  C   UNL     1       4.813  -4.721  13.071  1.00  0.00     0.004 C 
BRANCH  14  15
ATOM     15  C   UNL     1       5.852  -3.894  13.848  1.00  0.00     0.000 C 
BRANCH  15  16
ATOM     16  C   UNL     1       5.371  -3.501  15.258  1.00  0.00    -0.000 C 
BRANCH  16  17
ATOM     17  C   UNL     1       6.198  -4.094  16.413  1.00  0.00    -0.003 C 
ATOM     18  C   UNL     1       5.526  -3.929  17.775  1.00  0.00     0.004 C 
ENDBRANCH  16  17
ENDBRANCH  15  16
ENDBRANCH  14  15
ENDBRANCH  13  14
ENDBRANCH  12  13
ENDBRANCH  10  11
ENDBRANCH   1  10
TORSDOF 13
ENDMDL
MODEL 9
REMARK VINA RESULT:    -4.655      3.704      8.607
REMARK INTER + INTRA:          -8.916
REMARK INTER:                  -8.187
REMARK INTRA:                  -0.729
REMARK UNBOUND:                -0.723
REMARK SMILES CCCCCCC=CCCCCCCCC(=O)[O-]
REMARK SMILES IDX 10 1 11 2 12 3 13 4 14 5 15 6 16 7 17 8 18 9 9 10 8 11 7 12
REMARK SMILES IDX 6 13 5 14 4 15 3 16 2 17 1 18
REMARK H PARENT
REMARK Flexibility Score: inf
ROOT
ATOM      1  C   UNL     1       6.632  -7.229  19.241  1.00  0.00     0.004 C 
ENDROOT
BRANCH   1   2
ATOM      2  C   UNL     1       7.080  -7.269  20.710  1.00  0.00     0.000 C 
BRANCH   2   3
ATOM      3  C   UNL     1       5.908  -7.092  21.690  1.00  0.00     0.000 C 
BRANCH   3   4
ATOM      4  C   UNL     1       6.022  -5.812  22.537  1.00  0.00     0.000 C 
BRANCH   4   5
ATOM      5  C   UNL     1       7.282  -4.965  22.277  1.00  0.00     0.006 C 
BRANCH   5   6
ATOM      6  C   UNL     1       7.179  -3.547  22.851  1.00  0.00     0.053 C 
BRANCH   6   7
ATOM      7  C   UNL     1       6.961  -2.554  21.752  1.00  0.00     0.041 C 
ATOM      8  O   UNL     1       7.692  -1.532  21.668  1.00  0.00    -0.550 OA
ATOM      9  O   UNL     1       5.982  -2.781  20.794  1.00  0.00    -0.550 OA
ENDBRANCH   6   7
ENDBRANCH   5   6
ENDBRANCH   4   5
ENDBRANCH   3   4
ENDBRANCH   2   3
ENDBRANCH   1   2
BRANCH   1  10
ATOM     10  C   UNL     1       5.495  -8.216  18.940  1.00  0.00     0.027 C 
BRANCH  10  11
ATOM     11  C   UNL     1       5.556  -8.695  17.515  1.00  0.00    -0.031 C 
ATOM     12  C   UNL     1       6.159  -7.959  16.571  1.00  0.00    -0.031 C 
BRANCH  12  13
ATOM     13  C   UNL     1       6.235  -8.419  15.139  1.00  0.00     0.027 C 
BRANCH  13  14
ATOM     14  C   UNL     1       6.599  -7.279  14.176  1.00  0.00     0.004 C 
BRANCH  14  15
ATOM     15  C   UNL     1       5.381  -6.784  13.378  1.00  0.00     0.000 C 
BRANCH  15  16
ATOM     16  C   UNL     1       5.762  -5.815  12.244  1.00  0.00    -0.000 C 
BRANCH  16  17
ATOM     17  C   UNL     1       6.559  -4.576  12.691  1.00  0.00    -0.003 C 
ATOM     18  C   UNL     1       5.685  -3.505  13.341  1.00  0.00     0.004 C 
ENDBRANCH  16  17
ENDBRANCH  15  16
ENDBRANCH  14  15
ENDBRANCH  13  14
ENDBRANCH  12  13
ENDBRANCH  10  11
ENDBRANCH   1  10
TORSDOF 13
ENDMDL
