MODEL 1
REMARK VINA RESULT:    -5.088      0.000      0.000
REMARK INTER + INTRA:          -6.513
REMARK INTER:                  -6.278
REMARK INTRA:                  -0.236
REMARK UNBOUND:                -0.236
REMARK SMILES CCCCC=CC(C)=O
REMARK SMILES IDX 4 1 3 2 2 3 1 4 5 5 6 6 7 7 9 8 8 9
REMARK H PARENT
REMARK Flexibility Score: inf
ROOT
ATOM      1  C   UNL     1     -10.932   3.661 -17.353  1.00  0.00     0.027 C 
ENDROOT
BRANCH   1   2
ATOM      2  C   UNL     1      -9.468   3.749 -16.908  1.00  0.00     0.004 C 
BRANCH   2   3
ATOM      3  C   UNL     1      -8.528   3.815 -18.117  1.00  0.00    -0.003 C 
ATOM      4  C   UNL     1      -7.854   2.469 -18.366  1.00  0.00     0.004 C 
ENDBRANCH   2   3
ENDBRANCH   1   2
BRANCH   1   5
ATOM      5  C   UNL     1     -11.413   2.239 -17.364  1.00  0.00    -0.023 C 
ATOM      6  C   UNL     1     -11.412   1.509 -18.485  1.00  0.00     0.042 C 
BRANCH   6   7
ATOM      7  C   UNL     1     -11.868   0.107 -18.515  1.00  0.00     0.152 C 
ATOM      8  O   UNL     1     -11.330  -0.762 -17.776  1.00  0.00    -0.295 OA
ATOM      9  C   UNL     1     -12.981  -0.290 -19.428  1.00  0.00     0.093 C 
ENDBRANCH   6   7
ENDBRANCH   1   5
TORSDOF 4
ENDMDL
MODEL 2
REMARK VINA RESULT:    -4.828      1.550      2.380
REMARK INTER + INTRA:          -6.193
REMARK INTER:                  -5.923
REMARK INTRA:                  -0.270
REMARK UNBOUND:                -0.236
REMARK SMILES CCCCC=CC(C)=O
REMARK SMILES IDX 4 1 3 2 2 3 1 4 5 5 6 6 7 7 9 8 8 9
REMARK H PARENT
REMARK Flexibility Score: inf
ROOT
ATOM      1  C   UNL     1      -8.370   2.659 -19.203  1.00  0.00     0.027 C 
ENDROOT
BRANCH   1   2
ATOM      2  C   UNL     1      -8.300   3.023 -17.716  1.00  0.00     0.004 C 
BRANCH   2   3
ATOM      3  C   UNL     1      -9.212   4.214 -17.397  1.00  0.00    -0.003 C 
ATOM      4  C   UNL     1     -10.559   3.747 -16.853  1.00  0.00     0.004 C 
ENDBRANCH   2   3
ENDBRANCH   1   2
BRANCH   1   5
ATOM      5  C   UNL     1      -9.133   1.385 -19.417  1.00  0.00    -0.023 C 
ATOM      6  C   UNL     1     -10.437   1.392 -19.714  1.00  0.00     0.042 C 
BRANCH   6   7
ATOM      7  C   UNL     1     -11.204   0.152 -19.940  1.00  0.00     0.152 C 
ATOM      8  O   UNL     1     -10.848  -0.673 -20.825  1.00  0.00    -0.295 OA
ATOM      9  C   UNL     1     -12.412  -0.132 -19.110  1.00  0.00     0.093 C 
ENDBRANCH   6   7
ENDBRANCH   1   5
TORSDOF 4
ENDMDL
MODEL 3
REMARK VINA RESULT:    -4.597      4.818      5.235
REMARK INTER + INTRA:          -5.908
REMARK INTER:                  -5.806
REMARK INTRA:                  -0.102
REMARK UNBOUND:                -0.236
REMARK SMILES CCCCC=CC(C)=O
REMARK SMILES IDX 4 1 3 2 2 3 1 4 5 5 6 6 7 7 9 8 8 9
REMARK H PARENT
REMARK Flexibility Score: inf
ROOT
ATOM      1  C   UNL     1     -11.112   4.139 -19.591  1.00  0.00     0.027 C 
ENDROOT
BRANCH   1   2
ATOM      2  C   UNL     1      -9.738   4.632 -19.123  1.00  0.00     0.004 C 
BRANCH   2   3
ATOM      3  C   UNL     1      -9.288   3.887 -17.860  1.00  0.00    -0.003 C 
ATOM      4  C   UNL     1      -8.179   2.887 -18.176  1.00  0.00     0.004 C 
ENDBRANCH   2   3
ENDBRANCH   1   2
BRANCH   1   5
ATOM      5  C   UNL     1     -11.840   5.204 -20.359  1.00  0.00    -0.023 C 
ATOM      6  C   UNL     1     -12.108   5.068 -21.662  1.00  0.00     0.042 C 
BRANCH   6   7
ATOM      7  C   UNL     1     -12.833   6.096 -22.432  1.00  0.00     0.152 C 
ATOM      8  O   UNL     1     -12.235   6.796 -23.294  1.00  0.00    -0.295 OA
ATOM      9  C   UNL     1     -14.291   6.311 -22.190  1.00  0.00     0.093 C 
ENDBRANCH   6   7
ENDBRANCH   1   5
TORSDOF 4
ENDMDL
MODEL 4
REMARK VINA RESULT:    -4.475      3.483      3.947
REMARK INTER + INTRA:          -5.757
REMARK INTER:                  -5.488
REMARK INTRA:                  -0.269
REMARK UNBOUND:                -0.236
REMARK SMILES CCCCC=CC(C)=O
REMARK SMILES IDX 4 1 3 2 2 3 1 4 5 5 6 6 7 7 9 8 8 9
REMARK H PARENT
REMARK Flexibility Score: inf
ROOT
ATOM      1  C   UNL     1     -10.607   3.511 -16.917  1.00  0.00     0.027 C 
ENDROOT
BRANCH   1   2
ATOM      2  C   UNL     1      -9.183   4.014 -17.184  1.00  0.00     0.004 C 
BRANCH   2   3
ATOM      3  C   UNL     1      -8.272   2.867 -17.637  1.00  0.00    -0.003 C 
ATOM      4  C   UNL     1      -8.305   2.703 -19.154  1.00  0.00     0.004 C 
ENDBRANCH   2   3
ENDBRANCH   1   2
BRANCH   1   5
ATOM      5  C   UNL     1     -11.596   4.165 -17.837  1.00  0.00    -0.023 C 
ATOM      6  C   UNL     1     -11.200   4.908 -18.876  1.00  0.00     0.042 C 
BRANCH   6   7
ATOM      7  C   UNL     1     -12.155   5.549 -19.800  1.00  0.00     0.152 C 
ATOM      8  O   UNL     1     -12.960   6.427 -19.387  1.00  0.00    -0.295 OA
ATOM      9  C   UNL     1     -12.167   5.156 -21.241  1.00  0.00     0.093 C 
ENDBRANCH   6   7
ENDBRANCH   1   5
TORSDOF 4
ENDMDL
MODEL 5
REMARK VINA RESULT:    -4.293      2.571      5.070
REMARK INTER + INTRA:          -5.533
REMARK INTER:                  -5.348
REMARK INTRA:                  -0.185
REMARK UNBOUND:                -0.236
REMARK SMILES CCCCC=CC(C)=O
REMARK SMILES IDX 4 1 3 2 2 3 1 4 5 5 6 6 7 7 9 8 8 9
REMARK H PARENT
REMARK Flexibility Score: inf
ROOT
ATOM      1  C   UNL     1      -9.908   0.676 -19.893  1.00  0.00     0.027 C 
ENDROOT
BRANCH   1   2
ATOM      2  C   UNL     1     -11.222   0.151 -19.303  1.00  0.00     0.004 C 
BRANCH   2   3
ATOM      3  C   UNL     1     -12.110  -0.460 -20.394  1.00  0.00    -0.003 C 
ATOM      4  C   UNL     1     -13.537  -0.664 -19.894  1.00  0.00     0.004 C 
ENDBRANCH   2   3
ENDBRANCH   1   2
BRANCH   1   5
ATOM      5  C   UNL     1      -9.501   1.970 -19.250  1.00  0.00    -0.023 C 
ATOM      6  C   UNL     1     -10.342   3.007 -19.171  1.00  0.00     0.042 C 
BRANCH   6   7
ATOM      7  C   UNL     1      -9.967   4.282 -18.532  1.00  0.00     0.152 C 
ATOM      8  O   UNL     1     -10.244   5.384 -19.081  1.00  0.00    -0.295 OA
ATOM      9  C   UNL     1      -9.253   4.270 -17.221  1.00  0.00     0.093 C 
ENDBRANCH   6   7
ENDBRANCH   1   5
TORSDOF 4
ENDMDL
MODEL 6
REMARK VINA RESULT:    -4.206      3.702      4.933
REMARK INTER + INTRA:          -5.425
REMARK INTER:                  -5.231
REMARK INTRA:                  -0.195
REMARK UNBOUND:                -0.236
REMARK SMILES CCCCC=CC(C)=O
REMARK SMILES IDX 4 1 3 2 2 3 1 4 5 5 6 6 7 7 9 8 8 9
REMARK H PARENT
REMARK Flexibility Score: inf
ROOT
ATOM      1  C   UNL     1     -12.194   5.433 -19.999  1.00  0.00     0.027 C 
ENDROOT
BRANCH   1   2
ATOM      2  C   UNL     1     -11.795   4.937 -21.393  1.00  0.00     0.004 C 
BRANCH   2   3
ATOM      3  C   UNL     1     -12.500   5.746 -22.488  1.00  0.00    -0.003 C 
ATOM      4  C   UNL     1     -14.011   5.766 -22.273  1.00  0.00     0.004 C 
ENDBRANCH   2   3
ENDBRANCH   1   2
BRANCH   1   5
ATOM      5  C   UNL     1     -11.315   4.838 -18.938  1.00  0.00    -0.023 C 
ATOM      6  C   UNL     1     -10.613   3.720 -19.156  1.00  0.00     0.042 C 
BRANCH   6   7
ATOM      7  C   UNL     1      -9.735   3.126 -18.132  1.00  0.00     0.152 C 
ATOM      8  O   UNL     1      -9.216   1.989 -18.308  1.00  0.00    -0.295 OA
ATOM      9  C   UNL     1      -9.453   3.877 -16.872  1.00  0.00     0.093 C 
ENDBRANCH   6   7
ENDBRANCH   1   5
TORSDOF 4
ENDMDL
MODEL 7
REMARK VINA RESULT:    -4.194      1.442      2.063
REMARK INTER + INTRA:          -5.411
REMARK INTER:                  -5.166
REMARK INTRA:                  -0.244
REMARK UNBOUND:                -0.236
REMARK SMILES CCCCC=CC(C)=O
REMARK SMILES IDX 4 1 3 2 2 3 1 4 5 5 6 6 7 7 9 8 8 9
REMARK H PARENT
REMARK Flexibility Score: inf
ROOT
ATOM      1  C   UNL     1     -11.319   3.576 -17.038  1.00  0.00     0.027 C 
ENDROOT
BRANCH   1   2
ATOM      2  C   UNL     1     -10.543   4.292 -18.150  1.00  0.00     0.004 C 
BRANCH   2   3
ATOM      3  C   UNL     1     -11.462   5.226 -18.947  1.00  0.00    -0.003 C 
ATOM      4  C   UNL     1     -11.533   4.810 -20.414  1.00  0.00     0.004 C 
ENDBRANCH   2   3
ENDBRANCH   1   2
BRANCH   1   5
ATOM      5  C   UNL     1     -11.376   2.096 -17.281  1.00  0.00    -0.023 C 
ATOM      6  C   UNL     1     -11.885   1.590 -18.410  1.00  0.00     0.042 C 
BRANCH   6   7
ATOM      7  C   UNL     1     -11.938   0.140 -18.674  1.00  0.00     0.152 C 
ATOM      8  O   UNL     1     -11.078  -0.637 -18.178  1.00  0.00    -0.295 OA
ATOM      9  C   UNL     1     -13.024  -0.415 -19.536  1.00  0.00     0.093 C 
ENDBRANCH   6   7
ENDBRANCH   1   5
TORSDOF 4
ENDMDL
MODEL 8
REMARK VINA RESULT:    -4.132      2.084      5.206
REMARK INTER + INTRA:          -5.334
REMARK INTER:                  -5.219
REMARK INTRA:                  -0.115
REMARK UNBOUND:                -0.236
REMARK SMILES CCCCC=CC(C)=O
REMARK SMILES IDX 4 1 3 2 2 3 1 4 5 5 6 6 7 7 9 8 8 9
REMARK H PARENT
REMARK Flexibility Score: inf
ROOT
ATOM      1  C   UNL     1     -11.760  -0.085 -18.749  1.00  0.00     0.027 C 
ENDROOT
BRANCH   1   2
ATOM      2  C   UNL     1     -12.184  -0.396 -20.189  1.00  0.00     0.004 C 
BRANCH   2   3
ATOM      3  C   UNL     1     -13.658  -0.814 -20.250  1.00  0.00    -0.003 C 
ATOM      4  C   UNL     1     -13.841  -2.068 -21.100  1.00  0.00     0.004 C 
ENDBRANCH   2   3
ENDBRANCH   1   2
BRANCH   1   5
ATOM      5  C   UNL     1     -11.469   1.377 -18.572  1.00  0.00    -0.023 C 
ATOM      6  C   UNL     1     -11.577   1.973 -17.379  1.00  0.00     0.042 C 
BRANCH   6   7
ATOM      7  C   UNL     1     -11.284   3.405 -17.181  1.00  0.00     0.152 C 
ATOM      8  O   UNL     1     -12.213   4.256 -17.160  1.00  0.00    -0.295 OA
ATOM      9  C   UNL     1      -9.870   3.851 -17.000  1.00  0.00     0.093 C 
ENDBRANCH   6   7
ENDBRANCH   1   5
TORSDOF 4
ENDMDL
MODEL 9
REMARK VINA RESULT:    -3.904      2.061      5.136
REMARK INTER + INTRA:          -5.052
REMARK INTER:                  -4.926
REMARK INTRA:                  -0.126
REMARK UNBOUND:                -0.236
REMARK SMILES CCCCC=CC(C)=O
REMARK SMILES IDX 4 1 3 2 2 3 1 4 5 5 6 6 7 7 9 8 8 9
REMARK H PARENT
REMARK Flexibility Score: inf
ROOT
ATOM      1  C   UNL     1     -11.583   0.897 -20.059  1.00  0.00     0.027 C 
ENDROOT
BRANCH   1   2
ATOM      2  C   UNL     1     -11.785  -0.620 -20.142  1.00  0.00     0.004 C 
BRANCH   2   3
ATOM      3  C   UNL     1     -13.191  -0.961 -20.650  1.00  0.00    -0.003 C 
ATOM      4  C   UNL     1     -14.225  -0.840 -19.534  1.00  0.00     0.004 C 
ENDBRANCH   2   3
ENDBRANCH   1   2
BRANCH   1   5
ATOM      5  C   UNL     1     -10.505   1.249 -19.076  1.00  0.00    -0.023 C 
ATOM      6  C   UNL     1     -10.027   2.495 -18.978  1.00  0.00     0.042 C 
BRANCH   6   7
ATOM      7  C   UNL     1      -8.977   2.865 -18.010  1.00  0.00     0.152 C 
ATOM      8  O   UNL     1      -7.842   2.318 -18.050  1.00  0.00    -0.295 OA
ATOM      9  C   UNL     1      -9.261   3.901 -16.972  1.00  0.00     0.093 C 
ENDBRANCH   6   7
ENDBRANCH   1   5
TORSDOF 4
ENDMDL
