MODEL 1
REMARK VINA RESULT:     1.236      0.000      0.000
REMARK INTER + INTRA:           1.417
REMARK INTER:                   1.453
REMARK INTRA:                  -0.036
REMARK UNBOUND:                -0.036
REMARK SMILES O=C([O-])CCC(=O)[O-]
REMARK SMILES IDX 4 1 2 2 1 3 3 4 5 5 6 6 7 7 8 8
REMARK H PARENT
REMARK Flexibility Score: inf
ROOT
ATOM      1  C   UNL     1       5.399  -8.167  29.738  1.00  0.00     0.059 C 
ENDROOT
BRANCH   1   2
ATOM      2  C   UNL     1       5.277  -7.560  31.102  1.00  0.00     0.042 C 
ATOM      3  O   UNL     1       5.947  -6.537  31.403  1.00  0.00    -0.550 OA
ATOM      4  O   UNL     1       4.455  -8.148  32.055  1.00  0.00    -0.550 OA
ENDBRANCH   1   2
BRANCH   1   5
ATOM      5  C   UNL     1       6.118  -7.229  28.764  1.00  0.00     0.059 C 
BRANCH   5   6
ATOM      6  C   UNL     1       6.082  -7.756  27.361  1.00  0.00     0.042 C 
ATOM      7  O   UNL     1       6.107  -8.997  27.150  1.00  0.00    -0.550 OA
ATOM      8  O   UNL     1       6.061  -6.875  26.287  1.00  0.00    -0.550 OA
ENDBRANCH   5   6
ENDBRANCH   1   5
TORSDOF 3
ENDMDL
MODEL 2
REMARK VINA RESULT:     2.524      2.631      3.972
REMARK INTER + INTRA:           2.931
REMARK INTER:                   1.779
REMARK INTRA:                   1.152
REMARK UNBOUND:                -0.036
REMARK SMILES O=C([O-])CCC(=O)[O-]
REMARK SMILES IDX 4 1 2 2 1 3 3 4 5 5 6 6 7 7 8 8
REMARK H PARENT
REMARK Flexibility Score: inf
ROOT
ATOM      1  C   UNL     1       5.096  -5.971  31.849  1.00  0.00     0.059 C 
ENDROOT
BRANCH   1   2
ATOM      2  C   UNL     1       5.733  -7.224  31.331  1.00  0.00     0.042 C 
ATOM      3  O   UNL     1       6.036  -8.155  32.122  1.00  0.00    -0.550 OA
ATOM      4  O   UNL     1       6.029  -7.347  29.979  1.00  0.00    -0.550 OA
ENDBRANCH   1   2
BRANCH   1   5
ATOM      5  C   UNL     1       3.600  -6.166  32.116  1.00  0.00     0.059 C 
BRANCH   5   6
ATOM      6  C   UNL     1       3.082  -7.415  31.470  1.00  0.00     0.042 C 
ATOM      7  O   UNL     1       3.387  -8.544  31.937  1.00  0.00    -0.550 OA
ATOM      8  O   UNL     1       2.296  -7.332  30.327  1.00  0.00    -0.550 OA
ENDBRANCH   5   6
ENDBRANCH   1   5
TORSDOF 3
ENDMDL
MODEL 3
REMARK VINA RESULT:     3.045     16.244     16.889
REMARK INTER + INTRA:           3.543
REMARK INTER:                   3.577
REMARK INTRA:                  -0.033
REMARK UNBOUND:                -0.036
REMARK SMILES O=C([O-])CCC(=O)[O-]
REMARK SMILES IDX 4 1 2 2 1 3 3 4 5 5 6 6 7 7 8 8
REMARK H PARENT
REMARK Flexibility Score: inf
ROOT
ATOM      1  C   UNL     1      -7.703 -17.097  27.605  1.00  0.00     0.059 C 
ENDROOT
BRANCH   1   2
ATOM      2  C   UNL     1      -9.155 -17.257  27.935  1.00  0.00     0.042 C 
ATOM      3  O   UNL     1      -9.982 -16.366  27.608  1.00  0.00    -0.550 OA
ATOM      4  O   UNL     1      -9.590 -18.373  28.641  1.00  0.00    -0.550 OA
ENDBRANCH   1   2
BRANCH   1   5
ATOM      5  C   UNL     1      -7.351 -17.758  26.268  1.00  0.00     0.059 C 
BRANCH   5   6
ATOM      6  C   UNL     1      -5.922 -18.208  26.235  1.00  0.00     0.042 C 
ATOM      7  O   UNL     1      -5.512 -18.949  25.302  1.00  0.00    -0.550 OA
ATOM      8  O   UNL     1      -5.053 -17.843  27.255  1.00  0.00    -0.550 OA
ENDBRANCH   5   6
ENDBRANCH   1   5
TORSDOF 3
ENDMDL
MODEL 4
REMARK VINA RESULT:     3.057     16.226     17.183
REMARK INTER + INTRA:           3.557
REMARK INTER:                   3.591
REMARK INTRA:                  -0.033
REMARK UNBOUND:                -0.036
REMARK SMILES O=C([O-])CCC(=O)[O-]
REMARK SMILES IDX 4 1 2 2 1 3 3 4 5 5 6 6 7 7 8 8
REMARK H PARENT
REMARK Flexibility Score: inf
ROOT
ATOM      1  C   UNL     1      -7.333 -17.764  26.249  1.00  0.00     0.059 C 
ENDROOT
BRANCH   1   2
ATOM      2  C   UNL     1      -5.905 -18.215  26.220  1.00  0.00     0.042 C 
ATOM      3  O   UNL     1      -5.491 -18.952  25.286  1.00  0.00    -0.550 OA
ATOM      4  O   UNL     1      -5.040 -17.855  27.247  1.00  0.00    -0.550 OA
ENDBRANCH   1   2
BRANCH   1   5
ATOM      5  C   UNL     1      -7.682 -17.079  27.575  1.00  0.00     0.059 C 
BRANCH   5   6
ATOM      6  C   UNL     1      -9.137 -17.221  27.903  1.00  0.00     0.042 C 
ATOM      7  O   UNL     1      -9.957 -16.333  27.550  1.00  0.00    -0.550 OA
ATOM      8  O   UNL     1      -9.581 -18.316  28.634  1.00  0.00    -0.550 OA
ENDBRANCH   5   6
ENDBRANCH   1   5
TORSDOF 3
ENDMDL
MODEL 5
REMARK VINA RESULT:     4.190     16.692     17.197
REMARK INTER + INTRA:           4.889
REMARK INTER:                   4.916
REMARK INTRA:                  -0.027
REMARK UNBOUND:                -0.036
REMARK SMILES O=C([O-])CCC(=O)[O-]
REMARK SMILES IDX 4 1 2 2 1 3 3 4 5 5 6 6 7 7 8 8
REMARK H PARENT
REMARK Flexibility Score: inf
ROOT
ATOM      1  C   UNL     1      -7.830 -17.399  30.086  1.00  0.00     0.059 C 
ENDROOT
BRANCH   1   2
ATOM      2  C   UNL     1      -8.327 -17.658  31.475  1.00  0.00     0.042 C 
ATOM      3  O   UNL     1      -8.899 -16.743  32.125  1.00  0.00    -0.550 OA
ATOM      4  O   UNL     1      -8.122 -18.897  32.069  1.00  0.00    -0.550 OA
ENDBRANCH   1   2
BRANCH   1   5
ATOM      5  C   UNL     1      -8.925 -17.634  29.041  1.00  0.00     0.059 C 
BRANCH   5   6
ATOM      6  C   UNL     1      -8.518 -17.126  27.691  1.00  0.00     0.042 C 
ATOM      7  O   UNL     1      -9.303 -16.402  27.023  1.00  0.00    -0.550 OA
ATOM      8  O   UNL     1      -7.288 -17.485  27.155  1.00  0.00    -0.550 OA
ENDBRANCH   5   6
ENDBRANCH   1   5
TORSDOF 3
ENDMDL
