MODEL 1
REMARK VINA RESULT:    -3.845      0.000      0.000
REMARK INTER + INTRA:          -5.704
REMARK INTER:                  -5.419
REMARK INTRA:                  -0.285
REMARK UNBOUND:                -0.285
REMARK SMILES C=CCCCCCCC(=O)[O-]
REMARK SMILES IDX 6 1 7 2 8 3 9 4 10 5 11 6 5 7 4 8 3 9 2 10 1 11
REMARK H PARENT
REMARK Flexibility Score: inf
ROOT
ATOM      1  C   UNL     1     147.684  -0.409   7.412  1.00  0.00     0.000 C 
ENDROOT
BRANCH   1   2
ATOM      2  C   UNL     1     146.580  -1.408   7.037  1.00  0.00     0.006 C 
BRANCH   2   3
ATOM      3  C   UNL     1     145.769  -1.864   8.258  1.00  0.00     0.053 C 
BRANCH   3   4
ATOM      4  C   UNL     1     144.297  -1.689   8.044  1.00  0.00     0.041 C 
ATOM      5  O   UNL     1     143.777  -0.545   8.118  1.00  0.00    -0.550 OA
ATOM      6  O   UNL     1     143.504  -2.786   7.731  1.00  0.00    -0.550 OA
ENDBRANCH   3   4
ENDBRANCH   2   3
ENDBRANCH   1   2
BRANCH   1   7
ATOM      7  C   UNL     1     148.690  -0.246   6.263  1.00  0.00     0.000 C 
BRANCH   7   8
ATOM      8  C   UNL     1     149.058  -1.585   5.603  1.00  0.00     0.004 C 
BRANCH   8   9
ATOM      9  C   UNL     1     150.146  -1.435   4.528  1.00  0.00     0.027 C 
BRANCH   9  10
ATOM     10  C   UNL     1     149.558  -0.981   3.220  1.00  0.00    -0.035 C 
ATOM     11  C   UNL     1     150.308  -0.404   2.275  1.00  0.00     0.004 C 
ENDBRANCH   9  10
ENDBRANCH   8   9
ENDBRANCH   7   8
ENDBRANCH   1   7
TORSDOF 7
ENDMDL
MODEL 2
REMARK VINA RESULT:    -3.804      1.284      1.841
REMARK INTER + INTRA:          -5.646
REMARK INTER:                  -5.248
REMARK INTRA:                  -0.397
REMARK UNBOUND:                -0.285
REMARK SMILES C=CCCCCCCC(=O)[O-]
REMARK SMILES IDX 6 1 7 2 8 3 9 4 10 5 11 6 5 7 4 8 3 9 2 10 1 11
REMARK H PARENT
REMARK Flexibility Score: inf
ROOT
ATOM      1  C   UNL     1     148.614  -2.021   7.603  1.00  0.00     0.000 C 
ENDROOT
BRANCH   1   2
ATOM      2  C   UNL     1     147.154  -2.165   8.056  1.00  0.00     0.006 C 
BRANCH   2   3
ATOM      3  C   UNL     1     146.180  -1.429   7.126  1.00  0.00     0.053 C 
BRANCH   3   4
ATOM      4  C   UNL     1     144.763  -1.547   7.599  1.00  0.00     0.041 C 
ATOM      5  O   UNL     1     144.030  -2.478   7.176  1.00  0.00    -0.550 OA
ATOM      6  O   UNL     1     144.264  -0.647   8.531  1.00  0.00    -0.550 OA
ENDBRANCH   3   4
ENDBRANCH   2   3
ENDBRANCH   1   2
BRANCH   1   7
ATOM      7  C   UNL     1     149.193  -3.379   7.178  1.00  0.00     0.000 C 
BRANCH   7   8
ATOM      8  C   UNL     1     149.826  -3.342   5.777  1.00  0.00     0.004 C 
BRANCH   8   9
ATOM      9  C   UNL     1     149.064  -2.426   4.808  1.00  0.00     0.027 C 
BRANCH   9  10
ATOM     10  C   UNL     1     149.964  -1.364   4.241  1.00  0.00    -0.035 C 
ATOM     11  C   UNL     1     149.747  -0.825   3.037  1.00  0.00     0.004 C 
ENDBRANCH   9  10
ENDBRANCH   8   9
ENDBRANCH   7   8
ENDBRANCH   1   7
TORSDOF 7
ENDMDL
MODEL 3
REMARK VINA RESULT:    -3.791     12.124     14.114
REMARK INTER + INTRA:          -5.627
REMARK INTER:                  -5.241
REMARK INTRA:                  -0.386
REMARK UNBOUND:                -0.285
REMARK SMILES C=CCCCCCCC(=O)[O-]
REMARK SMILES IDX 6 1 7 2 8 3 9 4 10 5 11 6 5 7 4 8 3 9 2 10 1 11
REMARK H PARENT
REMARK Flexibility Score: inf
ROOT
ATOM      1  C   UNL     1     144.691  -2.314  -7.989  1.00  0.00     0.000 C 
ENDROOT
BRANCH   1   2
ATOM      2  C   UNL     1     143.515  -1.336  -8.131  1.00  0.00     0.006 C 
BRANCH   2   3
ATOM      3  C   UNL     1     143.680  -0.095  -7.243  1.00  0.00     0.053 C 
BRANCH   3   4
ATOM      4  C   UNL     1     143.169   1.142  -7.915  1.00  0.00     0.041 C 
ATOM      5  O   UNL     1     143.912   1.791  -8.696  1.00  0.00    -0.550 OA
ATOM      6  O   UNL     1     141.861   1.559  -7.704  1.00  0.00    -0.550 OA
ENDBRANCH   3   4
ENDBRANCH   2   3
ENDBRANCH   1   2
BRANCH   1   7
ATOM      7  C   UNL     1     146.007  -1.561  -7.749  1.00  0.00     0.000 C 
BRANCH   7   8
ATOM      8  C   UNL     1     146.756  -2.056  -6.502  1.00  0.00     0.004 C 
BRANCH   8   9
ATOM      9  C   UNL     1     146.398  -3.504  -6.133  1.00  0.00     0.027 C 
BRANCH   9  10
ATOM     10  C   UNL     1     146.322  -3.683  -4.642  1.00  0.00    -0.035 C 
ATOM     11  C   UNL     1     146.643  -4.841  -4.055  1.00  0.00     0.004 C 
ENDBRANCH   9  10
ENDBRANCH   8   9
ENDBRANCH   7   8
ENDBRANCH   1   7
TORSDOF 7
ENDMDL
MODEL 4
REMARK VINA RESULT:    -3.773      1.477      2.279
REMARK INTER + INTRA:          -5.602
REMARK INTER:                  -5.050
REMARK INTRA:                  -0.552
REMARK UNBOUND:                -0.285
REMARK SMILES C=CCCCCCCC(=O)[O-]
REMARK SMILES IDX 6 1 7 2 8 3 9 4 10 5 11 6 5 7 4 8 3 9 2 10 1 11
REMARK H PARENT
REMARK Flexibility Score: inf
ROOT
ATOM      1  C   UNL     1     148.283  -0.039   6.805  1.00  0.00     0.000 C 
ENDROOT
BRANCH   1   2
ATOM      2  C   UNL     1     147.481  -0.875   7.813  1.00  0.00     0.006 C 
BRANCH   2   3
ATOM      3  C   UNL     1     146.254  -1.539   7.174  1.00  0.00     0.053 C 
BRANCH   3   4
ATOM      4  C   UNL     1     145.078  -1.544   8.102  1.00  0.00     0.041 C 
ATOM      5  O   UNL     1     144.953  -0.641   8.970  1.00  0.00    -0.550 OA
ATOM      6  O   UNL     1     144.103  -2.526   7.985  1.00  0.00    -0.550 OA
ENDBRANCH   3   4
ENDBRANCH   2   3
ENDBRANCH   1   2
BRANCH   1   7
ATOM      7  C   UNL     1     149.549  -0.784   6.357  1.00  0.00     0.000 C 
BRANCH   7   8
ATOM      8  C   UNL     1     149.478  -1.248   4.893  1.00  0.00     0.004 C 
BRANCH   8   9
ATOM      9  C   UNL     1     149.061  -2.720   4.758  1.00  0.00     0.027 C 
BRANCH   9  10
ATOM     10  C   UNL     1     149.738  -3.574   5.794  1.00  0.00    -0.035 C 
ATOM     11  C   UNL     1     149.865  -4.896   5.642  1.00  0.00     0.004 C 
ENDBRANCH   9  10
ENDBRANCH   8   9
ENDBRANCH   7   8
ENDBRANCH   1   7
TORSDOF 7
ENDMDL
MODEL 5
REMARK VINA RESULT:    -3.708      1.240      1.759
REMARK INTER + INTRA:          -5.511
REMARK INTER:                  -5.208
REMARK INTRA:                  -0.303
REMARK UNBOUND:                -0.285
REMARK SMILES C=CCCCCCCC(=O)[O-]
REMARK SMILES IDX 6 1 7 2 8 3 9 4 10 5 11 6 5 7 4 8 3 9 2 10 1 11
REMARK H PARENT
REMARK Flexibility Score: inf
ROOT
ATOM      1  C   UNL     1     148.707  -2.411   6.743  1.00  0.00     0.000 C 
ENDROOT
BRANCH   1   2
ATOM      2  C   UNL     1     147.817  -1.161   6.801  1.00  0.00     0.006 C 
BRANCH   2   3
ATOM      3  C   UNL     1     146.971  -1.108   8.081  1.00  0.00     0.053 C 
BRANCH   3   4
ATOM      4  C   UNL     1     145.648  -1.788   7.902  1.00  0.00     0.041 C 
ATOM      5  O   UNL     1     144.868  -1.423   6.984  1.00  0.00    -0.550 OA
ATOM      6  O   UNL     1     145.292  -2.846   8.728  1.00  0.00    -0.550 OA
ENDBRANCH   3   4
ENDBRANCH   2   3
ENDBRANCH   1   2
BRANCH   1   7
ATOM      7  C   UNL     1     149.327  -2.579   5.348  1.00  0.00     0.000 C 
BRANCH   7   8
ATOM      8  C   UNL     1     149.858  -1.257   4.771  1.00  0.00     0.004 C 
BRANCH   8   9
ATOM      9  C   UNL     1     149.538  -1.092   3.278  1.00  0.00     0.027 C 
BRANCH   9  10
ATOM     10  C   UNL     1     150.726  -0.565   2.522  1.00  0.00    -0.035 C 
ATOM     11  C   UNL     1     151.954  -0.565   3.051  1.00  0.00     0.004 C 
ENDBRANCH   9  10
ENDBRANCH   8   9
ENDBRANCH   7   8
ENDBRANCH   1   7
TORSDOF 7
ENDMDL
MODEL 6
REMARK VINA RESULT:    -3.620     12.329     14.165
REMARK INTER + INTRA:          -5.386
REMARK INTER:                  -4.999
REMARK INTRA:                  -0.387
REMARK UNBOUND:                -0.285
REMARK SMILES C=CCCCCCCC(=O)[O-]
REMARK SMILES IDX 6 1 7 2 8 3 9 4 10 5 11 6 5 7 4 8 3 9 2 10 1 11
REMARK H PARENT
REMARK Flexibility Score: inf
ROOT
ATOM      1  C   UNL     1     146.066  -1.232  -8.278  1.00  0.00     0.000 C 
ENDROOT
BRANCH   1   2
ATOM      2  C   UNL     1     147.021  -2.184  -7.542  1.00  0.00     0.006 C 
BRANCH   2   3
ATOM      3  C   UNL     1     146.695  -2.295  -6.047  1.00  0.00     0.053 C 
BRANCH   3   4
ATOM      4  C   UNL     1     146.339  -3.698  -5.658  1.00  0.00     0.041 C 
ATOM      5  O   UNL     1     146.360  -4.618  -6.516  1.00  0.00    -0.550 OA
ATOM      6  O   UNL     1     146.017  -3.994  -4.340  1.00  0.00    -0.550 OA
ENDBRANCH   3   4
ENDBRANCH   2   3
ENDBRANCH   1   2
BRANCH   1   7
ATOM      7  C   UNL     1     144.620  -1.745  -8.210  1.00  0.00     0.000 C 
BRANCH   7   8
ATOM      8  C   UNL     1     143.662  -0.734  -7.560  1.00  0.00     0.004 C 
BRANCH   8   9
ATOM      9  C   UNL     1     143.372   0.473  -8.464  1.00  0.00     0.027 C 
BRANCH   9  10
ATOM     10  C   UNL     1     142.943   1.668  -7.657  1.00  0.00    -0.035 C 
ATOM     11  C   UNL     1     142.886   1.631  -6.322  1.00  0.00     0.004 C 
ENDBRANCH   9  10
ENDBRANCH   8   9
ENDBRANCH   7   8
ENDBRANCH   1   7
TORSDOF 7
ENDMDL
MODEL 7
REMARK VINA RESULT:    -3.595     13.170     14.343
REMARK INTER + INTRA:          -5.351
REMARK INTER:                  -4.857
REMARK INTRA:                  -0.494
REMARK UNBOUND:                -0.285
REMARK SMILES C=CCCCCCCC(=O)[O-]
REMARK SMILES IDX 6 1 7 2 8 3 9 4 10 5 11 6 5 7 4 8 3 9 2 10 1 11
REMARK H PARENT
REMARK Flexibility Score: inf
ROOT
ATOM      1  C   UNL     1     144.053  -1.897  -8.662  1.00  0.00     0.000 C 
ENDROOT
BRANCH   1   2
ATOM      2  C   UNL     1     143.653  -0.854  -7.608  1.00  0.00     0.006 C 
BRANCH   2   3
ATOM      3  C   UNL     1     143.867   0.583  -8.101  1.00  0.00     0.053 C 
BRANCH   3   4
ATOM      4  C   UNL     1     142.942   1.548  -7.423  1.00  0.00     0.041 C 
ATOM      5  O   UNL     1     141.697   1.440  -7.570  1.00  0.00    -0.550 OA
ATOM      6  O   UNL     1     143.455   2.544  -6.603  1.00  0.00    -0.550 OA
ENDBRANCH   3   4
ENDBRANCH   2   3
ENDBRANCH   1   2
BRANCH   1   7
ATOM      7  C   UNL     1     145.229  -2.753  -8.168  1.00  0.00     0.000 C 
BRANCH   7   8
ATOM      8  C   UNL     1     145.529  -2.545  -6.675  1.00  0.00     0.004 C 
BRANCH   8   9
ATOM      9  C   UNL     1     146.928  -1.961  -6.428  1.00  0.00     0.027 C 
BRANCH   9  10
ATOM     10  C   UNL     1     147.684  -1.797  -7.718  1.00  0.00    -0.035 C 
ATOM     11  C   UNL     1     148.841  -1.129  -7.775  1.00  0.00     0.004 C 
ENDBRANCH   9  10
ENDBRANCH   8   9
ENDBRANCH   7   8
ENDBRANCH   1   7
TORSDOF 7
ENDMDL
MODEL 8
REMARK VINA RESULT:    -3.570      2.466      3.170
REMARK INTER + INTRA:          -5.317
REMARK INTER:                  -5.019
REMARK INTRA:                  -0.298
REMARK UNBOUND:                -0.285
REMARK SMILES C=CCCCCCCC(=O)[O-]
REMARK SMILES IDX 6 1 7 2 8 3 9 4 10 5 11 6 5 7 4 8 3 9 2 10 1 11
REMARK H PARENT
REMARK Flexibility Score: inf
ROOT
ATOM      1  C   UNL     1     150.065  -3.436   5.900  1.00  0.00     0.000 C 
ENDROOT
BRANCH   1   2
ATOM      2  C   UNL     1     149.269  -4.094   7.037  1.00  0.00     0.006 C 
BRANCH   2   3
ATOM      3  C   UNL     1     148.707  -3.063   8.026  1.00  0.00     0.053 C 
BRANCH   3   4
ATOM      4  C   UNL     1     147.503  -3.585   8.748  1.00  0.00     0.041 C 
ATOM      5  O   UNL     1     146.426  -2.934   8.735  1.00  0.00    -0.550 OA
ATOM      6  O   UNL     1     147.562  -4.806   9.408  1.00  0.00    -0.550 OA
ENDBRANCH   3   4
ENDBRANCH   2   3
ENDBRANCH   1   2
BRANCH   1   7
ATOM      7  C   UNL     1     149.148  -2.588   5.007  1.00  0.00     0.000 C 
BRANCH   7   8
ATOM      8  C   UNL     1     149.779  -1.242   4.617  1.00  0.00     0.004 C 
BRANCH   8   9
ATOM      9  C   UNL     1     149.624  -0.927   3.121  1.00  0.00     0.027 C 
BRANCH   9  10
ATOM     10  C   UNL     1     150.935  -0.505   2.516  1.00  0.00    -0.035 C 
ATOM     11  C   UNL     1     152.071  -0.518   3.219  1.00  0.00     0.004 C 
ENDBRANCH   9  10
ENDBRANCH   8   9
ENDBRANCH   7   8
ENDBRANCH   1   7
TORSDOF 7
ENDMDL
MODEL 9
REMARK VINA RESULT:    -3.549      3.636      5.816
REMARK INTER + INTRA:          -5.287
REMARK INTER:                  -4.852
REMARK INTRA:                  -0.435
REMARK UNBOUND:                -0.285
REMARK SMILES C=CCCCCCCC(=O)[O-]
REMARK SMILES IDX 6 1 7 2 8 3 9 4 10 5 11 6 5 7 4 8 3 9 2 10 1 11
REMARK H PARENT
REMARK Flexibility Score: inf
ROOT
ATOM      1  C   UNL     1     149.253  -2.295   7.180  1.00  0.00     0.000 C 
ENDROOT
BRANCH   1   2
ATOM      2  C   UNL     1     149.665  -3.030   5.896  1.00  0.00     0.006 C 
BRANCH   2   3
ATOM      3  C   UNL     1     149.084  -2.374   4.637  1.00  0.00     0.053 C 
BRANCH   3   4
ATOM      4  C   UNL     1     149.981  -1.299   4.105  1.00  0.00     0.041 C 
ATOM      5  O   UNL     1     149.537  -0.448   3.291  1.00  0.00    -0.550 OA
ATOM      6  O   UNL     1     151.300  -1.218   4.534  1.00  0.00    -0.550 OA
ENDBRANCH   3   4
ENDBRANCH   2   3
ENDBRANCH   1   2
BRANCH   1   7
ATOM      7  C   UNL     1     148.348  -3.177   8.052  1.00  0.00     0.000 C 
BRANCH   7   8
ATOM      8  C   UNL     1     147.109  -2.429   8.569  1.00  0.00     0.004 C 
BRANCH   8   9
ATOM      9  C   UNL     1     146.693  -1.269   7.652  1.00  0.00     0.027 C 
BRANCH   9  10
ATOM     10  C   UNL     1     145.300  -1.467   7.122  1.00  0.00    -0.035 C 
ATOM     11  C   UNL     1     144.227  -1.381   7.915  1.00  0.00     0.004 C 
ENDBRANCH   9  10
ENDBRANCH   8   9
ENDBRANCH   7   8
ENDBRANCH   1   7
TORSDOF 7
ENDMDL
