MODEL 1
REMARK VINA RESULT:     0.914      0.000      0.000
REMARK INTER + INTRA:           1.048
REMARK INTER:                   2.411
REMARK INTRA:                  -1.363
REMARK UNBOUND:                -1.363
REMARK SMILES CCCCCCCCCCCCCCCCCCCCCCCCCCCCCC(=O)[O-]
REMARK SMILES IDX 16 1 17 2 18 3 19 4 20 5 21 6 22 7 23 8 24 9 25 10 26 11
REMARK SMILES IDX 27 12 28 13 29 14 30 15 31 16 32 17 15 18 14 19 13 20 12 21
REMARK SMILES IDX 11 22 10 23 9 24 8 25 7 26 6 27 5 28 4 29 3 30 2 31 1 32
REMARK H PARENT
REMARK Flexibility Score: inf
ROOT
ATOM      1  C   UNL     1      11.300 -31.237  13.691  1.00  0.00     0.000 C 
ENDROOT
BRANCH   1   2
ATOM      2  C   UNL     1      12.611 -31.362  14.488  1.00  0.00     0.000 C 
BRANCH   2   3
ATOM      3  C   UNL     1      13.835 -30.868  13.701  1.00  0.00     0.000 C 
BRANCH   3   4
ATOM      4  C   UNL     1      14.135 -29.381  13.940  1.00  0.00     0.000 C 
BRANCH   4   5
ATOM      5  C   UNL     1      15.079 -29.196  15.136  1.00  0.00     0.000 C 
BRANCH   5   6
ATOM      6  C   UNL     1      15.856 -27.876  15.028  1.00  0.00     0.000 C 
BRANCH   6   7
ATOM      7  C   UNL     1      15.806 -27.049  16.323  1.00  0.00     0.000 C 
BRANCH   7   8
ATOM      8  C   UNL     1      17.168 -26.445  16.698  1.00  0.00     0.000 C 
BRANCH   8   9
ATOM      9  C   UNL     1      17.529 -25.269  15.777  1.00  0.00     0.000 C 
BRANCH   9  10
ATOM     10  C   UNL     1      18.642 -24.376  16.357  1.00  0.00     0.000 C 
BRANCH  10  11
ATOM     11  C   UNL     1      18.812 -23.015  15.657  1.00  0.00     0.000 C 
BRANCH  11  12
ATOM     12  C   UNL     1      20.274 -22.585  15.436  1.00  0.00     0.000 C 
BRANCH  12  13
ATOM     13  C   UNL     1      20.457 -21.053  15.367  1.00  0.00     0.006 C 
BRANCH  13  14
ATOM     14  C   UNL     1      19.125 -20.302  15.475  1.00  0.00     0.053 C 
BRANCH  14  15
ATOM     15  C   UNL     1      19.341 -18.824  15.367  1.00  0.00     0.041 C 
ATOM     16  O   UNL     1      19.337 -18.105  16.403  1.00  0.00    -0.550 OA
ATOM     17  O   UNL     1      19.505 -18.235  14.120  1.00  0.00    -0.550 OA
ENDBRANCH  14  15
ENDBRANCH  13  14
ENDBRANCH  12  13
ENDBRANCH  11  12
ENDBRANCH  10  11
ENDBRANCH   9  10
ENDBRANCH   8   9
ENDBRANCH   7   8
ENDBRANCH   6   7
ENDBRANCH   5   6
ENDBRANCH   4   5
ENDBRANCH   3   4
ENDBRANCH   2   3
ENDBRANCH   1   2
BRANCH   1  18
ATOM     18  C   UNL     1      10.970 -32.522  12.903  1.00  0.00     0.000 C 
BRANCH  18  19
ATOM     19  C   UNL     1      11.927 -33.696  13.200  1.00  0.00     0.000 C 
BRANCH  19  20
ATOM     20  C   UNL     1      11.307 -35.094  13.041  1.00  0.00     0.000 C 
BRANCH  20  21
ATOM     21  C   UNL     1       9.772 -35.051  12.941  1.00  0.00     0.000 C 
BRANCH  21  22
ATOM     22  C   UNL     1       9.124 -36.437  13.099  1.00  0.00     0.000 C 
BRANCH  22  23
ATOM     23  C   UNL     1       7.660 -36.424  13.581  1.00  0.00     0.000 C 
BRANCH  23  24
ATOM     24  C   UNL     1       6.802 -35.310  12.943  1.00  0.00    -0.000 C 
BRANCH  24  25
ATOM     25  C   UNL     1       6.074 -34.462  14.000  1.00  0.00    -0.000 C 
BRANCH  25  26
ATOM     26  C   UNL     1       7.020 -33.933  15.089  1.00  0.00    -0.000 C 
BRANCH  26  27
ATOM     27  C   UNL     1       7.529 -32.512  14.786  1.00  0.00    -0.000 C 
BRANCH  27  28
ATOM     28  C   UNL     1       8.619 -32.052  15.766  1.00  0.00    -0.000 C 
BRANCH  28  29
ATOM     29  C   UNL     1       8.718 -32.953  17.008  1.00  0.00    -0.000 C 
BRANCH  29  30
ATOM     30  C   UNL     1       8.467 -32.182  18.315  1.00  0.00    -0.000 C 
BRANCH  30  31
ATOM     31  C   UNL     1       9.318 -30.908  18.425  1.00  0.00    -0.003 C 
ATOM     32  C   UNL     1      10.477 -30.935  17.432  1.00  0.00     0.004 C 
ENDBRANCH  30  31
ENDBRANCH  29  30
ENDBRANCH  28  29
ENDBRANCH  27  28
ENDBRANCH  26  27
ENDBRANCH  25  26
ENDBRANCH  24  25
ENDBRANCH  23  24
ENDBRANCH  22  23
ENDBRANCH  21  22
ENDBRANCH  20  21
ENDBRANCH  19  20
ENDBRANCH  18  19
ENDBRANCH   1  18
TORSDOF 28
ENDMDL
MODEL 2
REMARK VINA RESULT:     1.375      4.374     14.015
REMARK INTER + INTRA:           2.264
REMARK INTER:                   3.245
REMARK INTRA:                  -0.981
REMARK UNBOUND:                -1.363
REMARK SMILES CCCCCCCCCCCCCCCCCCCCCCCCCCCCCC(=O)[O-]
REMARK SMILES IDX 16 1 17 2 18 3 19 4 20 5 21 6 22 7 23 8 24 9 25 10 26 11
REMARK SMILES IDX 27 12 28 13 29 14 30 15 31 16 32 17 15 18 14 19 13 20 12 21
REMARK SMILES IDX 11 22 10 23 9 24 8 25 7 26 6 27 5 28 4 29 3 30 2 31 1 32
REMARK H PARENT
REMARK Flexibility Score: inf
ROOT
ATOM      1  C   UNL     1      14.416 -30.120  13.859  1.00  0.00     0.000 C 
ENDROOT
BRANCH   1   2
ATOM      2  C   UNL     1      13.459 -31.246  14.293  1.00  0.00     0.000 C 
BRANCH   2   3
ATOM      3  C   UNL     1      11.981 -30.885  14.079  1.00  0.00     0.000 C 
BRANCH   3   4
ATOM      4  C   UNL     1      11.127 -32.095  13.673  1.00  0.00     0.000 C 
BRANCH   4   5
ATOM      5  C   UNL     1      12.004 -33.226  13.119  1.00  0.00     0.000 C 
BRANCH   5   6
ATOM      6  C   UNL     1      11.184 -34.506  12.902  1.00  0.00     0.000 C 
BRANCH   6   7
ATOM      7  C   UNL     1       9.965 -34.597  13.834  1.00  0.00     0.000 C 
BRANCH   7   8
ATOM      8  C   UNL     1       8.634 -34.676  13.069  1.00  0.00     0.000 C 
BRANCH   8   9
ATOM      9  C   UNL     1       7.835 -35.926  13.468  1.00  0.00     0.000 C 
BRANCH   9  10
ATOM     10  C   UNL     1       7.037 -35.733  14.771  1.00  0.00     0.000 C 
BRANCH  10  11
ATOM     11  C   UNL     1       6.136 -34.485  14.802  1.00  0.00     0.000 C 
BRANCH  11  12
ATOM     12  C   UNL     1       6.876 -33.153  14.581  1.00  0.00     0.000 C 
BRANCH  12  13
ATOM     13  C   UNL     1       7.211 -32.414  15.894  1.00  0.00     0.006 C 
BRANCH  13  14
ATOM     14  C   UNL     1       8.703 -32.077  16.008  1.00  0.00     0.053 C 
BRANCH  14  15
ATOM     15  C   UNL     1       9.047 -31.664  17.406  1.00  0.00     0.041 C 
ATOM     16  O   UNL     1       9.977 -30.839  17.613  1.00  0.00    -0.550 OA
ATOM     17  O   UNL     1       8.369 -32.223  18.481  1.00  0.00    -0.550 OA
ENDBRANCH  14  15
ENDBRANCH  13  14
ENDBRANCH  12  13
ENDBRANCH  11  12
ENDBRANCH  10  11
ENDBRANCH   9  10
ENDBRANCH   8   9
ENDBRANCH   7   8
ENDBRANCH   6   7
ENDBRANCH   5   6
ENDBRANCH   4   5
ENDBRANCH   3   4
ENDBRANCH   2   3
ENDBRANCH   1   2
BRANCH   1  18
ATOM     18  C   UNL     1      14.927 -29.293  15.058  1.00  0.00     0.000 C 
BRANCH  18  19
ATOM     19  C   UNL     1      15.444 -27.892  14.671  1.00  0.00     0.000 C 
BRANCH  19  20
ATOM     20  C   UNL     1      15.618 -26.917  15.847  1.00  0.00     0.000 C 
BRANCH  20  21
ATOM     21  C   UNL     1      16.947 -27.128  16.595  1.00  0.00     0.000 C 
BRANCH  21  22
ATOM     22  C   UNL     1      17.482 -25.837  17.238  1.00  0.00     0.000 C 
BRANCH  22  23
ATOM     23  C   UNL     1      18.743 -25.249  16.574  1.00  0.00     0.000 C 
BRANCH  23  24
ATOM     24  C   UNL     1      18.521 -23.863  15.933  1.00  0.00    -0.000 C 
BRANCH  24  25
ATOM     25  C   UNL     1      19.849 -23.172  15.577  1.00  0.00    -0.000 C 
BRANCH  25  26
ATOM     26  C   UNL     1      20.052 -21.851  16.335  1.00  0.00    -0.000 C 
BRANCH  26  27
ATOM     27  C   UNL     1      20.180 -20.643  15.389  1.00  0.00    -0.000 C 
BRANCH  27  28
ATOM     28  C   UNL     1      18.819 -20.024  15.033  1.00  0.00    -0.000 C 
BRANCH  28  29
ATOM     29  C   UNL     1      18.761 -18.515  15.319  1.00  0.00    -0.000 C 
BRANCH  29  30
ATOM     30  C   UNL     1      19.933 -18.038  16.194  1.00  0.00    -0.000 C 
BRANCH  30  31
ATOM     31  C   UNL     1      19.529 -16.926  17.172  1.00  0.00    -0.003 C 
ATOM     32  C   UNL     1      18.048 -17.018  17.528  1.00  0.00     0.004 C 
ENDBRANCH  30  31
ENDBRANCH  29  30
ENDBRANCH  28  29
ENDBRANCH  27  28
ENDBRANCH  26  27
ENDBRANCH  25  26
ENDBRANCH  24  25
ENDBRANCH  23  24
ENDBRANCH  22  23
ENDBRANCH  21  22
ENDBRANCH  20  21
ENDBRANCH  19  20
ENDBRANCH  18  19
ENDBRANCH   1  18
TORSDOF 28
ENDMDL
MODEL 3
REMARK VINA RESULT:     1.393      4.631     14.182
REMARK INTER + INTRA:           2.311
REMARK INTER:                   4.281
REMARK INTRA:                  -1.970
REMARK UNBOUND:                -1.363
REMARK SMILES CCCCCCCCCCCCCCCCCCCCCCCCCCCCCC(=O)[O-]
REMARK SMILES IDX 16 1 17 2 18 3 19 4 20 5 21 6 22 7 23 8 24 9 25 10 26 11
REMARK SMILES IDX 27 12 28 13 29 14 30 15 31 16 32 17 15 18 14 19 13 20 12 21
REMARK SMILES IDX 11 22 10 23 9 24 8 25 7 26 6 27 5 28 4 29 3 30 2 31 1 32
REMARK H PARENT
REMARK Flexibility Score: inf
ROOT
ATOM      1  C   UNL     1      14.529 -28.970  14.214  1.00  0.00     0.000 C 
ENDROOT
BRANCH   1   2
ATOM      2  C   UNL     1      13.957 -30.392  14.359  1.00  0.00     0.000 C 
BRANCH   2   3
ATOM      3  C   UNL     1      14.785 -31.446  13.607  1.00  0.00     0.000 C 
BRANCH   3   4
ATOM      4  C   UNL     1      13.912 -32.502  12.912  1.00  0.00     0.000 C 
BRANCH   4   5
ATOM      5  C   UNL     1      12.530 -32.593  13.572  1.00  0.00     0.000 C 
BRANCH   5   6
ATOM      6  C   UNL     1      11.719 -33.765  12.999  1.00  0.00     0.000 C 
BRANCH   6   7
ATOM      7  C   UNL     1      10.203 -33.516  13.041  1.00  0.00     0.000 C 
BRANCH   7   8
ATOM      8  C   UNL     1       9.845 -32.092  13.494  1.00  0.00     0.000 C 
BRANCH   8   9
ATOM      9  C   UNL     1       8.367 -31.774  13.218  1.00  0.00     0.000 C 
BRANCH   9  10
ATOM     10  C   UNL     1       7.466 -33.021  13.283  1.00  0.00     0.000 C 
BRANCH  10  11
ATOM     11  C   UNL     1       6.798 -33.270  14.648  1.00  0.00     0.000 C 
BRANCH  11  12
ATOM     12  C   UNL     1       7.501 -34.321  15.525  1.00  0.00     0.000 C 
BRANCH  12  13
ATOM     13  C   UNL     1       8.536 -33.714  16.497  1.00  0.00     0.006 C 
BRANCH  13  14
ATOM     14  C   UNL     1       8.237 -32.245  16.821  1.00  0.00     0.053 C 
BRANCH  14  15
ATOM     15  C   UNL     1       8.482 -31.964  18.272  1.00  0.00     0.041 C 
ATOM     16  O   UNL     1       8.442 -32.900  19.115  1.00  0.00    -0.550 OA
ATOM     17  O   UNL     1       8.714 -30.661  18.697  1.00  0.00    -0.550 OA
ENDBRANCH  14  15
ENDBRANCH  13  14
ENDBRANCH  12  13
ENDBRANCH  11  12
ENDBRANCH  10  11
ENDBRANCH   9  10
ENDBRANCH   8   9
ENDBRANCH   7   8
ENDBRANCH   6   7
ENDBRANCH   5   6
ENDBRANCH   4   5
ENDBRANCH   3   4
ENDBRANCH   2   3
ENDBRANCH   1   2
BRANCH   1  18
ATOM     18  C   UNL     1      15.242 -28.493  15.498  1.00  0.00     0.000 C 
BRANCH  18  19
ATOM     19  C   UNL     1      16.027 -27.178  15.320  1.00  0.00     0.000 C 
BRANCH  19  20
ATOM     20  C   UNL     1      16.354 -26.436  16.627  1.00  0.00     0.000 C 
BRANCH  20  21
ATOM     21  C   UNL     1      17.853 -26.114  16.763  1.00  0.00     0.000 C 
BRANCH  21  22
ATOM     22  C   UNL     1      18.208 -24.702  16.265  1.00  0.00     0.000 C 
BRANCH  22  23
ATOM     23  C   UNL     1      19.685 -24.498  15.875  1.00  0.00     0.000 C 
BRANCH  23  24
ATOM     24  C   UNL     1      20.179 -23.045  16.041  1.00  0.00    -0.000 C 
BRANCH  24  25
ATOM     25  C   UNL     1      19.265 -22.038  15.322  1.00  0.00    -0.000 C 
BRANCH  25  26
ATOM     26  C   UNL     1      19.892 -20.640  15.213  1.00  0.00    -0.000 C 
BRANCH  26  27
ATOM     27  C   UNL     1      18.857 -19.515  15.401  1.00  0.00    -0.000 C 
BRANCH  27  28
ATOM     28  C   UNL     1      19.367 -18.153  14.904  1.00  0.00    -0.000 C 
BRANCH  28  29
ATOM     29  C   UNL     1      19.129 -17.025  15.921  1.00  0.00    -0.000 C 
BRANCH  29  30
ATOM     30  C   UNL     1      19.657 -17.377  17.322  1.00  0.00    -0.000 C 
BRANCH  30  31
ATOM     31  C   UNL     1      18.702 -16.941  18.443  1.00  0.00    -0.003 C 
ATOM     32  C   UNL     1      17.257 -16.916  17.954  1.00  0.00     0.004 C 
ENDBRANCH  30  31
ENDBRANCH  29  30
ENDBRANCH  28  29
ENDBRANCH  27  28
ENDBRANCH  26  27
ENDBRANCH  25  26
ENDBRANCH  24  25
ENDBRANCH  23  24
ENDBRANCH  22  23
ENDBRANCH  21  22
ENDBRANCH  20  21
ENDBRANCH  19  20
ENDBRANCH  18  19
ENDBRANCH   1  18
TORSDOF 28
ENDMDL
MODEL 4
REMARK VINA RESULT:     1.883      4.461     12.842
REMARK INTER + INTRA:           3.602
REMARK INTER:                   4.829
REMARK INTRA:                  -1.227
REMARK UNBOUND:                -1.363
REMARK SMILES CCCCCCCCCCCCCCCCCCCCCCCCCCCCCC(=O)[O-]
REMARK SMILES IDX 16 1 17 2 18 3 19 4 20 5 21 6 22 7 23 8 24 9 25 10 26 11
REMARK SMILES IDX 27 12 28 13 29 14 30 15 31 16 32 17 15 18 14 19 13 20 12 21
REMARK SMILES IDX 11 22 10 23 9 24 8 25 7 26 6 27 5 28 4 29 3 30 2 31 1 32
REMARK H PARENT
REMARK Flexibility Score: inf
ROOT
ATOM      1  C   UNL     1      11.447 -31.571  14.054  1.00  0.00     0.000 C 
ENDROOT
BRANCH   1   2
ATOM      2  C   UNL     1      11.790 -32.577  12.940  1.00  0.00     0.000 C 
BRANCH   2   3
ATOM      3  C   UNL     1      11.619 -34.039  13.385  1.00  0.00     0.000 C 
BRANCH   3   4
ATOM      4  C   UNL     1      10.185 -34.361  13.828  1.00  0.00     0.000 C 
BRANCH   4   5
ATOM      5  C   UNL     1       9.165 -33.534  13.034  1.00  0.00     0.000 C 
BRANCH   5   6
ATOM      6  C   UNL     1       7.840 -34.294  12.875  1.00  0.00     0.000 C 
BRANCH   6   7
ATOM      7  C   UNL     1       6.619 -33.452  13.282  1.00  0.00     0.000 C 
BRANCH   7   8
ATOM      8  C   UNL     1       6.163 -33.724  14.724  1.00  0.00     0.000 C 
BRANCH   8   9
ATOM      9  C   UNL     1       6.536 -35.147  15.169  1.00  0.00     0.000 C 
BRANCH   9  10
ATOM     10  C   UNL     1       7.329 -35.172  16.489  1.00  0.00     0.000 C 
BRANCH  10  11
ATOM     11  C   UNL     1       8.437 -34.108  16.600  1.00  0.00     0.000 C 
BRANCH  11  12
ATOM     12  C   UNL     1       7.933 -32.654  16.618  1.00  0.00     0.000 C 
BRANCH  12  13
ATOM     13  C   UNL     1       9.046 -31.617  16.356  1.00  0.00     0.006 C 
BRANCH  13  14
ATOM     14  C   UNL     1       9.804 -31.241  17.635  1.00  0.00     0.053 C 
BRANCH  14  15
ATOM     15  C   UNL     1       8.897 -31.310  18.826  1.00  0.00     0.041 C 
ATOM     16  O   UNL     1       8.221 -30.303  19.167  1.00  0.00    -0.550 OA
ATOM     17  O   UNL     1       8.832 -32.474  19.582  1.00  0.00    -0.550 OA
ENDBRANCH  14  15
ENDBRANCH  13  14
ENDBRANCH  12  13
ENDBRANCH  11  12
ENDBRANCH  10  11
ENDBRANCH   9  10
ENDBRANCH   8   9
ENDBRANCH   7   8
ENDBRANCH   6   7
ENDBRANCH   5   6
ENDBRANCH   4   5
ENDBRANCH   3   4
ENDBRANCH   2   3
ENDBRANCH   1   2
BRANCH   1  18
ATOM     18  C   UNL     1      12.702 -31.078  14.803  1.00  0.00     0.000 C 
BRANCH  18  19
ATOM     19  C   UNL     1      14.024 -31.389  14.072  1.00  0.00     0.000 C 
BRANCH  19  20
ATOM     20  C   UNL     1      14.903 -30.163  13.769  1.00  0.00     0.000 C 
BRANCH  20  21
ATOM     21  C   UNL     1      14.347 -28.871  14.394  1.00  0.00     0.000 C 
BRANCH  21  22
ATOM     22  C   UNL     1      15.409 -27.766  14.525  1.00  0.00     0.000 C 
BRANCH  22  23
ATOM     23  C   UNL     1      16.077 -27.660  15.910  1.00  0.00     0.000 C 
BRANCH  23  24
ATOM     24  C   UNL     1      16.319 -26.209  16.377  1.00  0.00    -0.000 C 
BRANCH  24  25
ATOM     25  C   UNL     1      17.817 -25.888  16.512  1.00  0.00    -0.000 C 
BRANCH  25  26
ATOM     26  C   UNL     1      18.172 -24.485  15.994  1.00  0.00    -0.000 C 
BRANCH  26  27
ATOM     27  C   UNL     1      19.691 -24.232  15.977  1.00  0.00    -0.000 C 
BRANCH  27  28
ATOM     28  C   UNL     1      20.047 -22.753  16.197  1.00  0.00    -0.000 C 
BRANCH  28  29
ATOM     29  C   UNL     1      19.554 -21.849  15.056  1.00  0.00    -0.000 C 
BRANCH  29  30
ATOM     30  C   UNL     1      18.855 -20.580  15.572  1.00  0.00    -0.000 C 
BRANCH  30  31
ATOM     31  C   UNL     1      19.638 -19.299  15.249  1.00  0.00    -0.003 C 
ATOM     32  C   UNL     1      19.409 -18.232  16.315  1.00  0.00     0.004 C 
ENDBRANCH  30  31
ENDBRANCH  29  30
ENDBRANCH  28  29
ENDBRANCH  27  28
ENDBRANCH  26  27
ENDBRANCH  25  26
ENDBRANCH  24  25
ENDBRANCH  23  24
ENDBRANCH  22  23
ENDBRANCH  21  22
ENDBRANCH  20  21
ENDBRANCH  19  20
ENDBRANCH  18  19
ENDBRANCH   1  18
TORSDOF 28
ENDMDL
MODEL 5
REMARK VINA RESULT:     2.319      1.117      2.171
REMARK INTER + INTRA:           4.752
REMARK INTER:                   5.910
REMARK INTRA:                  -1.158
REMARK UNBOUND:                -1.363
REMARK SMILES CCCCCCCCCCCCCCCCCCCCCCCCCCCCCC(=O)[O-]
REMARK SMILES IDX 16 1 17 2 18 3 19 4 20 5 21 6 22 7 23 8 24 9 25 10 26 11
REMARK SMILES IDX 27 12 28 13 29 14 30 15 31 16 32 17 15 18 14 19 13 20 12 21
REMARK SMILES IDX 11 22 10 23 9 24 8 25 7 26 6 27 5 28 4 29 3 30 2 31 1 32
REMARK H PARENT
REMARK Flexibility Score: inf
ROOT
ATOM      1  C   UNL     1      13.709 -30.875  14.710  1.00  0.00     0.000 C 
ENDROOT
BRANCH   1   2
ATOM      2  C   UNL     1      14.733 -29.828  14.236  1.00  0.00     0.000 C 
BRANCH   2   3
ATOM      3  C   UNL     1      15.122 -28.833  15.341  1.00  0.00     0.000 C 
BRANCH   3   4
ATOM      4  C   UNL     1      15.592 -27.481  14.784  1.00  0.00     0.000 C 
BRANCH   4   5
ATOM      5  C   UNL     1      16.010 -26.535  15.917  1.00  0.00     0.000 C 
BRANCH   5   6
ATOM      6  C   UNL     1      17.477 -26.759  16.313  1.00  0.00     0.000 C 
BRANCH   6   7
ATOM      7  C   UNL     1      18.125 -25.508  16.926  1.00  0.00     0.000 C 
BRANCH   7   8
ATOM      8  C   UNL     1      18.436 -24.425  15.881  1.00  0.00     0.000 C 
BRANCH   8   9
ATOM      9  C   UNL     1      19.607 -23.536  16.331  1.00  0.00     0.000 C 
BRANCH   9  10
ATOM     10  C   UNL     1      19.745 -22.257  15.485  1.00  0.00     0.000 C 
BRANCH  10  11
ATOM     11  C   UNL     1      18.422 -21.703  14.925  1.00  0.00     0.000 C 
BRANCH  11  12
ATOM     12  C   UNL     1      18.258 -20.178  15.053  1.00  0.00     0.000 C 
BRANCH  12  13
ATOM     13  C   UNL     1      19.579 -19.446  15.374  1.00  0.00     0.006 C 
BRANCH  13  14
ATOM     14  C   UNL     1      19.428 -17.921  15.316  1.00  0.00     0.053 C 
BRANCH  14  15
ATOM     15  C   UNL     1      19.228 -17.357  16.689  1.00  0.00     0.041 C 
ATOM     16  O   UNL     1      20.221 -17.020  17.387  1.00  0.00    -0.550 OA
ATOM     17  O   UNL     1      17.946 -17.243  17.212  1.00  0.00    -0.550 OA
ENDBRANCH  14  15
ENDBRANCH  13  14
ENDBRANCH  12  13
ENDBRANCH  11  12
ENDBRANCH  10  11
ENDBRANCH   9  10
ENDBRANCH   8   9
ENDBRANCH   7   8
ENDBRANCH   6   7
ENDBRANCH   5   6
ENDBRANCH   4   5
ENDBRANCH   3   4
ENDBRANCH   2   3
ENDBRANCH   1   2
BRANCH   1  18
ATOM     18  C   UNL     1      12.553 -31.059  13.705  1.00  0.00     0.000 C 
BRANCH  18  19
ATOM     19  C   UNL     1      12.509 -32.458  13.057  1.00  0.00     0.000 C 
BRANCH  19  20
ATOM     20  C   UNL     1      11.272 -33.300  13.414  1.00  0.00     0.000 C 
BRANCH  20  21
ATOM     21  C   UNL     1      11.644 -34.670  14.010  1.00  0.00     0.000 C 
BRANCH  21  22
ATOM     22  C   UNL     1      11.315 -35.840  13.067  1.00  0.00     0.000 C 
BRANCH  22  23
ATOM     23  C   UNL     1       9.812 -36.122  12.875  1.00  0.00     0.000 C 
BRANCH  23  24
ATOM     24  C   UNL     1       8.899 -34.948  13.289  1.00  0.00    -0.000 C 
BRANCH  24  25
ATOM     25  C   UNL     1       7.851 -35.371  14.333  1.00  0.00    -0.000 C 
BRANCH  25  26
ATOM     26  C   UNL     1       6.759 -34.311  14.541  1.00  0.00    -0.000 C 
BRANCH  26  27
ATOM     27  C   UNL     1       7.309 -32.875  14.457  1.00  0.00    -0.000 C 
BRANCH  27  28
ATOM     28  C   UNL     1       7.413 -32.200  15.834  1.00  0.00    -0.000 C 
BRANCH  28  29
ATOM     29  C   UNL     1       8.700 -32.580  16.584  1.00  0.00    -0.000 C 
BRANCH  29  30
ATOM     30  C   UNL     1       8.588 -32.342  18.099  1.00  0.00    -0.000 C 
BRANCH  30  31
ATOM     31  C   UNL     1       9.537 -31.242  18.599  1.00  0.00    -0.003 C 
ATOM     32  C   UNL     1       9.971 -30.330  17.455  1.00  0.00     0.004 C 
ENDBRANCH  30  31
ENDBRANCH  29  30
ENDBRANCH  28  29
ENDBRANCH  27  28
ENDBRANCH  26  27
ENDBRANCH  25  26
ENDBRANCH  24  25
ENDBRANCH  23  24
ENDBRANCH  22  23
ENDBRANCH  21  22
ENDBRANCH  20  21
ENDBRANCH  19  20
ENDBRANCH  18  19
ENDBRANCH   1  18
TORSDOF 28
ENDMDL
MODEL 6
REMARK VINA RESULT:     2.506      1.555      2.433
REMARK INTER + INTRA:           5.246
REMARK INTER:                   6.597
REMARK INTRA:                  -1.351
REMARK UNBOUND:                -1.363
REMARK SMILES CCCCCCCCCCCCCCCCCCCCCCCCCCCCCC(=O)[O-]
REMARK SMILES IDX 16 1 17 2 18 3 19 4 20 5 21 6 22 7 23 8 24 9 25 10 26 11
REMARK SMILES IDX 27 12 28 13 29 14 30 15 31 16 32 17 15 18 14 19 13 20 12 21
REMARK SMILES IDX 11 22 10 23 9 24 8 25 7 26 6 27 5 28 4 29 3 30 2 31 1 32
REMARK H PARENT
REMARK Flexibility Score: inf
ROOT
ATOM      1  C   UNL     1      13.794 -31.289  14.378  1.00  0.00     0.000 C 
ENDROOT
BRANCH   1   2
ATOM      2  C   UNL     1      13.864 -29.924  13.669  1.00  0.00     0.000 C 
BRANCH   2   3
ATOM      3  C   UNL     1      15.131 -29.132  14.027  1.00  0.00     0.000 C 
BRANCH   3   4
ATOM      4  C   UNL     1      15.085 -28.547  15.447  1.00  0.00     0.000 C 
BRANCH   4   5
ATOM      5  C   UNL     1      15.761 -27.171  15.497  1.00  0.00     0.000 C 
BRANCH   5   6
ATOM      6  C   UNL     1      16.498 -26.966  16.829  1.00  0.00     0.000 C 
BRANCH   6   7
ATOM      7  C   UNL     1      17.778 -26.128  16.678  1.00  0.00     0.000 C 
BRANCH   7   8
ATOM      8  C   UNL     1      17.540 -24.805  15.932  1.00  0.00     0.000 C 
BRANCH   8   9
ATOM      9  C   UNL     1      18.697 -23.820  16.161  1.00  0.00     0.000 C 
BRANCH   9  10
ATOM     10  C   UNL     1      18.799 -22.751  15.057  1.00  0.00     0.000 C 
BRANCH  10  11
ATOM     11  C   UNL     1      19.628 -21.508  15.431  1.00  0.00     0.000 C 
BRANCH  11  12
ATOM     12  C   UNL     1      18.996 -20.167  15.020  1.00  0.00     0.000 C 
BRANCH  12  13
ATOM     13  C   UNL     1      19.877 -18.945  15.359  1.00  0.00     0.006 C 
BRANCH  13  14
ATOM     14  C   UNL     1      19.051 -17.669  15.562  1.00  0.00     0.053 C 
BRANCH  14  15
ATOM     15  C   UNL     1      19.197 -17.163  16.965  1.00  0.00     0.041 C 
ATOM     16  O   UNL     1      20.341 -17.032  17.476  1.00  0.00    -0.550 OA
ATOM     17  O   UNL     1      18.067 -16.877  17.721  1.00  0.00    -0.550 OA
ENDBRANCH  14  15
ENDBRANCH  13  14
ENDBRANCH  12  13
ENDBRANCH  11  12
ENDBRANCH  10  11
ENDBRANCH   9  10
ENDBRANCH   8   9
ENDBRANCH   7   8
ENDBRANCH   6   7
ENDBRANCH   5   6
ENDBRANCH   4   5
ENDBRANCH   3   4
ENDBRANCH   2   3
ENDBRANCH   1   2
BRANCH   1  18
ATOM     18  C   UNL     1      12.859 -32.278  13.650  1.00  0.00     0.000 C 
BRANCH  18  19
ATOM     19  C   UNL     1      11.376 -32.139  14.049  1.00  0.00     0.000 C 
BRANCH  19  20
ATOM     20  C   UNL     1      10.372 -32.670  13.011  1.00  0.00     0.000 C 
BRANCH  20  21
ATOM     21  C   UNL     1       9.133 -31.767  12.875  1.00  0.00     0.000 C 
BRANCH  21  22
ATOM     22  C   UNL     1       8.007 -32.147  13.852  1.00  0.00     0.000 C 
BRANCH  22  23
ATOM     23  C   UNL     1       6.784 -32.830  13.208  1.00  0.00     0.000 C 
BRANCH  23  24
ATOM     24  C   UNL     1       6.190 -33.975  14.057  1.00  0.00    -0.000 C 
BRANCH  24  25
ATOM     25  C   UNL     1       6.474 -33.789  15.557  1.00  0.00    -0.000 C 
BRANCH  25  26
ATOM     26  C   UNL     1       7.870 -34.286  15.962  1.00  0.00    -0.000 C 
BRANCH  26  27
ATOM     27  C   UNL     1       7.942 -34.696  17.445  1.00  0.00    -0.000 C 
BRANCH  27  28
ATOM     28  C   UNL     1       8.750 -33.704  18.295  1.00  0.00    -0.000 C 
BRANCH  28  29
ATOM     29  C   UNL     1       8.252 -32.256  18.149  1.00  0.00    -0.000 C 
BRANCH  29  30
ATOM     30  C   UNL     1       9.328 -31.224  18.526  1.00  0.00    -0.000 C 
BRANCH  30  31
ATOM     31  C   UNL     1      10.482 -31.175  17.514  1.00  0.00    -0.003 C 
ATOM     32  C   UNL     1      10.377 -29.943  16.620  1.00  0.00     0.004 C 
ENDBRANCH  30  31
ENDBRANCH  29  30
ENDBRANCH  28  29
ENDBRANCH  27  28
ENDBRANCH  26  27
ENDBRANCH  25  26
ENDBRANCH  24  25
ENDBRANCH  23  24
ENDBRANCH  22  23
ENDBRANCH  21  22
ENDBRANCH  20  21
ENDBRANCH  19  20
ENDBRANCH  18  19
ENDBRANCH   1  18
TORSDOF 28
ENDMDL
MODEL 7
REMARK VINA RESULT:     2.623      4.877     14.611
REMARK INTER + INTRA:           5.555
REMARK INTER:                   6.511
REMARK INTRA:                  -0.956
REMARK UNBOUND:                -1.363
REMARK SMILES CCCCCCCCCCCCCCCCCCCCCCCCCCCCCC(=O)[O-]
REMARK SMILES IDX 16 1 17 2 18 3 19 4 20 5 21 6 22 7 23 8 24 9 25 10 26 11
REMARK SMILES IDX 27 12 28 13 29 14 30 15 31 16 32 17 15 18 14 19 13 20 12 21
REMARK SMILES IDX 11 22 10 23 9 24 8 25 7 26 6 27 5 28 4 29 3 30 2 31 1 32
REMARK H PARENT
REMARK Flexibility Score: inf
ROOT
ATOM      1  C   UNL     1      14.984 -29.041  14.873  1.00  0.00     0.000 C 
ENDROOT
BRANCH   1   2
ATOM      2  C   UNL     1      14.632 -29.981  13.705  1.00  0.00     0.000 C 
BRANCH   2   3
ATOM      3  C   UNL     1      13.682 -31.116  14.120  1.00  0.00     0.000 C 
BRANCH   3   4
ATOM      4  C   UNL     1      12.423 -30.605  14.835  1.00  0.00     0.000 C 
BRANCH   4   5
ATOM      5  C   UNL     1      11.160 -31.263  14.264  1.00  0.00     0.000 C 
BRANCH   5   6
ATOM      6  C   UNL     1      10.401 -32.040  15.349  1.00  0.00     0.000 C 
BRANCH   6   7
ATOM      7  C   UNL     1       8.880 -31.834  15.275  1.00  0.00     0.000 C 
BRANCH   7   8
ATOM      8  C   UNL     1       8.158 -32.976  14.543  1.00  0.00     0.000 C 
BRANCH   8   9
ATOM      9  C   UNL     1       6.931 -33.458  15.334  1.00  0.00     0.000 C 
BRANCH   9  10
ATOM     10  C   UNL     1       6.825 -34.993  15.396  1.00  0.00     0.000 C 
BRANCH  10  11
ATOM     11  C   UNL     1       6.480 -35.674  14.059  1.00  0.00     0.000 C 
BRANCH  11  12
ATOM     12  C   UNL     1       7.659 -36.401  13.385  1.00  0.00     0.000 C 
BRANCH  12  13
ATOM     13  C   UNL     1       8.955 -35.563  13.351  1.00  0.00     0.006 C 
BRANCH  13  14
ATOM     14  C   UNL     1      10.164 -36.381  12.879  1.00  0.00     0.053 C 
BRANCH  14  15
ATOM     15  C   UNL     1      11.441 -35.657  13.178  1.00  0.00     0.041 C 
ATOM     16  O   UNL     1      12.395 -36.261  13.737  1.00  0.00    -0.550 OA
ATOM     17  O   UNL     1      11.561 -34.307  12.876  1.00  0.00    -0.550 OA
ENDBRANCH  14  15
ENDBRANCH  13  14
ENDBRANCH  12  13
ENDBRANCH  11  12
ENDBRANCH  10  11
ENDBRANCH   9  10
ENDBRANCH   8   9
ENDBRANCH   7   8
ENDBRANCH   6   7
ENDBRANCH   5   6
ENDBRANCH   4   5
ENDBRANCH   3   4
ENDBRANCH   2   3
ENDBRANCH   1   2
BRANCH   1  18
ATOM     18  C   UNL     1      15.237 -27.594  14.402  1.00  0.00     0.000 C 
BRANCH  18  19
ATOM     19  C   UNL     1      15.693 -26.644  15.528  1.00  0.00     0.000 C 
BRANCH  19  20
ATOM     20  C   UNL     1      16.491 -27.316  16.659  1.00  0.00     0.000 C 
BRANCH  20  21
ATOM     21  C   UNL     1      17.717 -26.489  17.087  1.00  0.00     0.000 C 
BRANCH  21  22
ATOM     22  C   UNL     1      18.187 -25.510  15.998  1.00  0.00     0.000 C 
BRANCH  22  23
ATOM     23  C   UNL     1      18.475 -24.076  16.487  1.00  0.00     0.000 C 
BRANCH  23  24
ATOM     24  C   UNL     1      18.801 -23.083  15.350  1.00  0.00    -0.000 C 
BRANCH  24  25
ATOM     25  C   UNL     1      19.931 -22.114  15.736  1.00  0.00    -0.000 C 
BRANCH  25  26
ATOM     26  C   UNL     1      19.931 -20.834  14.886  1.00  0.00    -0.000 C 
BRANCH  26  27
ATOM     27  C   UNL     1      19.217 -19.663  15.585  1.00  0.00    -0.000 C 
BRANCH  27  28
ATOM     28  C   UNL     1      19.755 -18.293  15.144  1.00  0.00    -0.000 C 
BRANCH  28  29
ATOM     29  C   UNL     1      19.913 -17.312  16.318  1.00  0.00    -0.000 C 
BRANCH  29  30
ATOM     30  C   UNL     1      18.583 -17.041  17.040  1.00  0.00    -0.000 C 
BRANCH  30  31
ATOM     31  C   UNL     1      18.716 -17.093  18.569  1.00  0.00    -0.003 C 
ATOM     32  C   UNL     1      17.348 -17.209  19.236  1.00  0.00     0.004 C 
ENDBRANCH  30  31
ENDBRANCH  29  30
ENDBRANCH  28  29
ENDBRANCH  27  28
ENDBRANCH  26  27
ENDBRANCH  25  26
ENDBRANCH  24  25
ENDBRANCH  23  24
ENDBRANCH  22  23
ENDBRANCH  21  22
ENDBRANCH  20  21
ENDBRANCH  19  20
ENDBRANCH  18  19
ENDBRANCH   1  18
TORSDOF 28
ENDMDL
MODEL 8
REMARK VINA RESULT:     2.687      5.831     15.192
REMARK INTER + INTRA:           5.722
REMARK INTER:                   7.141
REMARK INTRA:                  -1.419
REMARK UNBOUND:                -1.363
REMARK SMILES CCCCCCCCCCCCCCCCCCCCCCCCCCCCCC(=O)[O-]
REMARK SMILES IDX 16 1 17 2 18 3 19 4 20 5 21 6 22 7 23 8 24 9 25 10 26 11
REMARK SMILES IDX 27 12 28 13 29 14 30 15 31 16 32 17 15 18 14 19 13 20 12 21
REMARK SMILES IDX 11 22 10 23 9 24 8 25 7 26 6 27 5 28 4 29 3 30 2 31 1 32
REMARK H PARENT
REMARK Flexibility Score: inf
ROOT
ATOM      1  C   UNL     1      15.156 -28.513  15.418  1.00  0.00     0.000 C 
ENDROOT
BRANCH   1   2
ATOM      2  C   UNL     1      15.214 -29.457  14.203  1.00  0.00     0.000 C 
BRANCH   2   3
ATOM      3  C   UNL     1      13.958 -30.332  14.068  1.00  0.00     0.000 C 
BRANCH   3   4
ATOM      4  C   UNL     1      14.281 -31.777  13.661  1.00  0.00     0.000 C 
BRANCH   4   5
ATOM      5  C   UNL     1      12.999 -32.605  13.508  1.00  0.00     0.000 C 
BRANCH   5   6
ATOM      6  C   UNL     1      11.754 -31.760  13.816  1.00  0.00     0.000 C 
BRANCH   6   7
ATOM      7  C   UNL     1      10.490 -32.612  14.011  1.00  0.00     0.000 C 
BRANCH   7   8
ATOM      8  C   UNL     1       9.470 -32.434  12.875  1.00  0.00     0.000 C 
BRANCH   8   9
ATOM      9  C   UNL     1       8.222 -31.679  13.360  1.00  0.00     0.000 C 
BRANCH   9  10
ATOM     10  C   UNL     1       7.115 -32.620  13.870  1.00  0.00     0.000 C 
BRANCH  10  11
ATOM     11  C   UNL     1       7.067 -32.796  15.400  1.00  0.00     0.000 C 
BRANCH  11  12
ATOM     12  C   UNL     1       6.495 -34.145  15.873  1.00  0.00     0.000 C 
BRANCH  12  13
ATOM     13  C   UNL     1       7.517 -35.300  15.805  1.00  0.00     0.006 C 
BRANCH  13  14
ATOM     14  C   UNL     1       6.899 -36.592  15.257  1.00  0.00     0.053 C 
BRANCH  14  15
ATOM     15  C   UNL     1       7.158 -36.720  13.787  1.00  0.00     0.041 C 
ATOM     16  O   UNL     1       6.247 -37.124  13.016  1.00  0.00    -0.550 OA
ATOM     17  O   UNL     1       8.418 -36.433  13.277  1.00  0.00    -0.550 OA
ENDBRANCH  14  15
ENDBRANCH  13  14
ENDBRANCH  12  13
ENDBRANCH  11  12
ENDBRANCH  10  11
ENDBRANCH   9  10
ENDBRANCH   8   9
ENDBRANCH   7   8
ENDBRANCH   6   7
ENDBRANCH   5   6
ENDBRANCH   4   5
ENDBRANCH   3   4
ENDBRANCH   2   3
ENDBRANCH   1   2
BRANCH   1  18
ATOM     18  C   UNL     1      16.082 -27.290  15.253  1.00  0.00     0.000 C 
BRANCH  18  19
ATOM     19  C   UNL     1      16.393 -26.563  16.577  1.00  0.00     0.000 C 
BRANCH  19  20
ATOM     20  C   UNL     1      17.852 -26.106  16.740  1.00  0.00     0.000 C 
BRANCH  20  21
ATOM     21  C   UNL     1      18.166 -24.835  15.930  1.00  0.00     0.000 C 
BRANCH  21  22
ATOM     22  C   UNL     1      19.669 -24.508  15.889  1.00  0.00     0.000 C 
BRANCH  22  23
ATOM     23  C   UNL     1      20.047 -23.104  16.401  1.00  0.00     0.000 C 
BRANCH  23  24
ATOM     24  C   UNL     1      19.924 -21.997  15.332  1.00  0.00    -0.000 C 
BRANCH  24  25
ATOM     25  C   UNL     1      19.391 -20.681  15.923  1.00  0.00    -0.000 C 
BRANCH  25  26
ATOM     26  C   UNL     1      19.111 -19.618  14.849  1.00  0.00    -0.000 C 
BRANCH  26  27
ATOM     27  C   UNL     1      19.367 -18.187  15.357  1.00  0.00    -0.000 C 
BRANCH  27  28
ATOM     28  C   UNL     1      19.560 -18.125  16.880  1.00  0.00    -0.000 C 
BRANCH  28  29
ATOM     29  C   UNL     1      18.919 -16.876  17.508  1.00  0.00    -0.000 C 
BRANCH  29  30
ATOM     30  C   UNL     1      17.422 -17.069  17.801  1.00  0.00    -0.000 C 
BRANCH  30  31
ATOM     31  C   UNL     1      17.160 -17.625  19.209  1.00  0.00    -0.003 C 
ATOM     32  C   UNL     1      18.361 -17.397  20.122  1.00  0.00     0.004 C 
ENDBRANCH  30  31
ENDBRANCH  29  30
ENDBRANCH  28  29
ENDBRANCH  27  28
ENDBRANCH  26  27
ENDBRANCH  25  26
ENDBRANCH  24  25
ENDBRANCH  23  24
ENDBRANCH  22  23
ENDBRANCH  21  22
ENDBRANCH  20  21
ENDBRANCH  19  20
ENDBRANCH  18  19
ENDBRANCH   1  18
TORSDOF 28
ENDMDL
MODEL 9
REMARK VINA RESULT:     3.018      5.128     14.480
REMARK INTER + INTRA:           6.595
REMARK INTER:                   8.348
REMARK INTRA:                  -1.753
REMARK UNBOUND:                -1.363
REMARK SMILES CCCCCCCCCCCCCCCCCCCCCCCCCCCCCC(=O)[O-]
REMARK SMILES IDX 16 1 17 2 18 3 19 4 20 5 21 6 22 7 23 8 24 9 25 10 26 11
REMARK SMILES IDX 27 12 28 13 29 14 30 15 31 16 32 17 15 18 14 19 13 20 12 21
REMARK SMILES IDX 11 22 10 23 9 24 8 25 7 26 6 27 5 28 4 29 3 30 2 31 1 32
REMARK H PARENT
REMARK Flexibility Score: inf
ROOT
ATOM      1  C   UNL     1      16.188 -27.345  15.571  1.00  0.00     0.000 C 
ENDROOT
BRANCH   1   2
ATOM      2  C   UNL     1      14.857 -28.033  15.219  1.00  0.00     0.000 C 
BRANCH   2   3
ATOM      3  C   UNL     1      14.950 -29.567  15.259  1.00  0.00     0.000 C 
BRANCH   3   4
ATOM      4  C   UNL     1      14.382 -30.230  13.995  1.00  0.00     0.000 C 
BRANCH   4   5
ATOM      5  C   UNL     1      13.682 -31.552  14.335  1.00  0.00     0.000 C 
BRANCH   5   6
ATOM      6  C   UNL     1      12.450 -31.770  13.445  1.00  0.00     0.000 C 
BRANCH   6   7
ATOM      7  C   UNL     1      11.168 -32.025  14.254  1.00  0.00     0.000 C 
BRANCH   7   8
ATOM      8  C   UNL     1      10.737 -30.806  15.086  1.00  0.00     0.000 C 
BRANCH   8   9
ATOM      9  C   UNL     1      11.267 -30.898  16.525  1.00  0.00     0.000 C 
BRANCH   9  10
ATOM     10  C   UNL     1      10.243 -30.417  17.570  1.00  0.00     0.000 C 
BRANCH  10  11
ATOM     11  C   UNL     1       9.628 -31.531  18.438  1.00  0.00     0.000 C 
BRANCH  11  12
ATOM     12  C   UNL     1       8.225 -31.986  17.999  1.00  0.00     0.000 C 
BRANCH  12  13
ATOM     13  C   UNL     1       8.230 -32.821  16.701  1.00  0.00     0.006 C 
BRANCH  13  14
ATOM     14  C   UNL     1       7.192 -32.325  15.686  1.00  0.00     0.053 C 
BRANCH  14  15
ATOM     15  C   UNL     1       7.368 -33.017  14.369  1.00  0.00     0.041 C 
ATOM     16  O   UNL     1       7.716 -34.227  14.331  1.00  0.00    -0.550 OA
ATOM     17  O   UNL     1       7.187 -32.313  13.185  1.00  0.00    -0.550 OA
ENDBRANCH  14  15
ENDBRANCH  13  14
ENDBRANCH  12  13
ENDBRANCH  11  12
ENDBRANCH  10  11
ENDBRANCH   9  10
ENDBRANCH   8   9
ENDBRANCH   7   8
ENDBRANCH   6   7
ENDBRANCH   5   6
ENDBRANCH   4   5
ENDBRANCH   3   4
ENDBRANCH   2   3
ENDBRANCH   1   2
BRANCH   1  18
ATOM     18  C   UNL     1      16.206 -26.812  17.019  1.00  0.00     0.000 C 
BRANCH  18  19
ATOM     19  C   UNL     1      17.445 -25.955  17.350  1.00  0.00     0.000 C 
BRANCH  19  20
ATOM     20  C   UNL     1      18.206 -25.413  16.128  1.00  0.00     0.000 C 
BRANCH  20  21
ATOM     21  C   UNL     1      19.292 -24.394  16.515  1.00  0.00     0.000 C 
BRANCH  21  22
ATOM     22  C   UNL     1      19.161 -23.063  15.755  1.00  0.00     0.000 C 
BRANCH  22  23
ATOM     23  C   UNL     1      20.486 -22.475  15.231  1.00  0.00     0.000 C 
BRANCH  23  24
ATOM     24  C   UNL     1      20.457 -20.943  15.044  1.00  0.00    -0.000 C 
BRANCH  24  25
ATOM     25  C   UNL     1      19.156 -20.320  15.577  1.00  0.00    -0.000 C 
BRANCH  25  26
ATOM     26  C   UNL     1      18.847 -18.956  14.940  1.00  0.00    -0.000 C 
BRANCH  26  27
ATOM     27  C   UNL     1      20.027 -17.973  15.052  1.00  0.00    -0.000 C 
BRANCH  27  28
ATOM     28  C   UNL     1      19.867 -16.988  16.221  1.00  0.00    -0.000 C 
BRANCH  28  29
ATOM     29  C   UNL     1      18.505 -17.116  16.921  1.00  0.00    -0.000 C 
BRANCH  29  30
ATOM     30  C   UNL     1      18.600 -16.878  18.438  1.00  0.00    -0.000 C 
BRANCH  30  31
ATOM     31  C   UNL     1      17.253 -17.061  19.153  1.00  0.00    -0.003 C 
ATOM     32  C   UNL     1      17.455 -17.479  20.606  1.00  0.00     0.004 C 
ENDBRANCH  30  31
ENDBRANCH  29  30
ENDBRANCH  28  29
ENDBRANCH  27  28
ENDBRANCH  26  27
ENDBRANCH  25  26
ENDBRANCH  24  25
ENDBRANCH  23  24
ENDBRANCH  22  23
ENDBRANCH  21  22
ENDBRANCH  20  21
ENDBRANCH  19  20
ENDBRANCH  18  19
ENDBRANCH   1  18
TORSDOF 28
ENDMDL
