MODEL 1
REMARK VINA RESULT:    -7.955      0.000      0.000
REMARK INTER + INTRA:         -17.198
REMARK INTER:                 -15.164
REMARK INTRA:                  -2.035
REMARK UNBOUND:                -2.035
REMARK SMILES C[C@@H]1O[C@@H](O[C@H]2[C@@H](O)[C@@H](OCCc3ccc(O)c(O)c3)O[C@H](CO)[C@@H]2OC(=O)C=Cc2ccc(O)c(O)c2)[C@H](O)[C@@H](O)[C@H]1O
REMARK SMILES IDX 6 1 7 2 9 3 21 4 22 5 25 6 5 7 4 8 1 9 2 10 43 11 3 12 41 13
REMARK SMILES IDX 39 14 44 15 42 17 40 19 8 21 26 23 27 24 28 25 29 26 30 27
REMARK SMILES IDX 31 28 38 29 32 30 36 31 33 32 34 33 37 34 35 36 10 38 11 39
REMARK SMILES IDX 12 40 13 41 20 42 14 43 18 44 15 45 16 46 19 47 17 49 23 51
REMARK SMILES IDX 24 52
REMARK H PARENT 44 16 42 18 40 20 8 22 37 35 35 37 19 48 17 50 24 53
REMARK Flexibility Score: inf
ROOT
ATOM      1  C   UNL     1      15.310  23.320  45.414  1.00  0.00     0.199 C 
ATOM      2  C   UNL     1      14.300  24.535  45.724  1.00  0.00     0.203 C 
ATOM      3  C   UNL     1      15.029  25.751  46.498  1.00  0.00     0.282 C 
ATOM      4  O   UNL     1      16.281  25.386  47.021  1.00  0.00    -0.340 OA
ATOM      5  C   UNL     1      17.165  24.984  45.964  1.00  0.00     0.190 C 
ATOM      6  C   UNL     1      16.498  24.280  44.728  1.00  0.00     0.240 C 
ENDROOT
BRANCH   1   7
ATOM      7  O   UNL     1      15.875  22.481  46.519  1.00  0.00    -0.340 OA
BRANCH   7   8
ATOM      8  C   UNL     1      15.844  21.046  46.394  1.00  0.00     0.282 C 
ATOM      9  C   UNL     1      16.367  18.253  47.800  1.00  0.00     0.041 C 
ATOM     10  C   UNL     1      17.170  19.078  46.707  1.00  0.00     0.150 C 
ATOM     11  C   UNL     1      16.922  18.575  45.233  1.00  0.00     0.174 C 
ATOM     12  O   UNL     1      17.070  20.539  46.818  1.00  0.00    -0.344 OA
ATOM     13  C   UNL     1      16.355  19.755  44.255  1.00  0.00     0.179 C 
ATOM     14  C   UNL     1      15.320  20.700  45.022  1.00  0.00     0.202 C 
BRANCH  11  15
ATOM     15  O   UNL     1      17.496  17.354  44.729  1.00  0.00    -0.388 OA
ATOM     16  H   UNL     1      16.806  16.721  44.335  1.00  0.00     0.211 HD
ENDBRANCH  11  15
BRANCH  13  17
ATOM     17  O   UNL     1      17.524  20.506  43.813  1.00  0.00    -0.387 OA
ATOM     18  H   UNL     1      17.347  21.507  43.757  1.00  0.00     0.211 HD
ENDBRANCH  13  17
BRANCH  14  19
ATOM     19  O   UNL     1      13.921  20.441  45.091  1.00  0.00    -0.385 OA
ATOM     20  H   UNL     1      13.773  19.765  45.825  1.00  0.00     0.211 HD
ENDBRANCH  14  19
ENDBRANCH   7   8
ENDBRANCH   1   7
BRANCH   2  21
ATOM     21  O   UNL     1      13.045  24.346  46.282  1.00  0.00    -0.385 OA
ATOM     22  H   UNL     1      12.445  23.708  45.757  1.00  0.00     0.211 HD
ENDBRANCH   2  21
BRANCH   6  23
ATOM     23  O   UNL     1      16.027  25.362  43.863  1.00  0.00    -0.453 OA
BRANCH  23  24
ATOM     24  C   UNL     1      16.584  25.740  42.590  1.00  0.00     0.331 C 
ATOM     25  O   UNL     1      16.880  26.938  42.378  1.00  0.00    -0.247 OA
BRANCH  24  26
ATOM     26  C   UNL     1      17.205  24.740  41.678  1.00  0.00     0.094 C 
ATOM     27  C   UNL     1      18.426  24.858  41.113  1.00  0.00     0.016 C 
BRANCH  27  28
ATOM     28  C   UNL     1      18.997  23.817  40.175  1.00  0.00    -0.021 A 
ATOM     29  C   UNL     1      20.128  23.017  40.529  1.00  0.00     0.058 A 
ATOM     30  C   UNL     1      18.602  23.751  38.834  1.00  0.00     0.012 A 
ATOM     31  C   UNL     1      20.671  22.078  39.645  1.00  0.00     0.157 A 
ATOM     32  C   UNL     1      19.182  22.813  37.910  1.00  0.00     0.051 A 
ATOM     33  C   UNL     1      20.214  21.971  38.347  1.00  0.00     0.157 A 
BRANCH  31  34
ATOM     34  O   UNL     1      21.604  21.171  40.133  1.00  0.00    -0.504 OA
ATOM     35  H   UNL     1      22.588  21.387  40.158  1.00  0.00     0.293 HD
ENDBRANCH  31  34
BRANCH  33  36
ATOM     36  O   UNL     1      20.897  21.142  37.450  1.00  0.00    -0.504 OA
ATOM     37  H   UNL     1      20.703  20.149  37.468  1.00  0.00     0.293 HD
ENDBRANCH  33  36
ENDBRANCH  27  28
ENDBRANCH  24  26
ENDBRANCH  23  24
ENDBRANCH   6  23
BRANCH   3  38
ATOM     38  O   UNL     1      14.276  26.313  47.581  1.00  0.00    -0.350 OA
BRANCH  38  39
ATOM     39  C   UNL     1      14.726  25.937  48.882  1.00  0.00     0.168 C 
BRANCH  39  40
ATOM     40  C   UNL     1      14.996  27.129  49.769  1.00  0.00     0.064 C 
BRANCH  40  41
ATOM     41  C   UNL     1      15.445  26.783  51.171  1.00  0.00    -0.042 A 
ATOM     42  C   UNL     1      16.436  27.593  51.744  1.00  0.00     0.054 A 
ATOM     43  C   UNL     1      15.171  25.510  51.737  1.00  0.00     0.008 A 
ATOM     44  C   UNL     1      17.234  27.131  52.750  1.00  0.00     0.157 A 
ATOM     45  C   UNL     1      15.970  25.038  52.765  1.00  0.00     0.050 A 
ATOM     46  C   UNL     1      17.029  25.845  53.257  1.00  0.00     0.157 A 
BRANCH  44  47
ATOM     47  O   UNL     1      18.255  27.939  53.246  1.00  0.00    -0.504 OA
ATOM     48  H   UNL     1      18.024  28.889  53.619  1.00  0.00     0.293 HD
ENDBRANCH  44  47
BRANCH  46  49
ATOM     49  O   UNL     1      17.905  25.305  54.218  1.00  0.00    -0.504 OA
ATOM     50  H   UNL     1      18.041  24.301  54.309  1.00  0.00     0.293 HD
ENDBRANCH  46  49
ENDBRANCH  40  41
ENDBRANCH  39  40
ENDBRANCH  38  39
ENDBRANCH   3  38
BRANCH   5  51
ATOM     51  C   UNL     1      18.085  26.171  45.756  1.00  0.00     0.192 C 
BRANCH  51  52
ATOM     52  O   UNL     1      18.964  26.022  44.638  1.00  0.00    -0.394 OA
ATOM     53  H   UNL     1      19.221  26.917  44.393  1.00  0.00     0.210 HD
ENDBRANCH  51  52
ENDBRANCH   5  51
TORSDOF 20
ENDMDL
MODEL 2
REMARK VINA RESULT:    -7.880      3.228      6.618
REMARK INTER + INTRA:         -17.055
REMARK INTER:                 -13.420
REMARK INTRA:                  -3.635
REMARK UNBOUND:                -2.035
REMARK SMILES C[C@@H]1O[C@@H](O[C@H]2[C@@H](O)[C@@H](OCCc3ccc(O)c(O)c3)O[C@H](CO)[C@@H]2OC(=O)C=Cc2ccc(O)c(O)c2)[C@H](O)[C@@H](O)[C@H]1O
REMARK SMILES IDX 6 1 7 2 9 3 21 4 22 5 25 6 5 7 4 8 1 9 2 10 43 11 3 12 41 13
REMARK SMILES IDX 39 14 44 15 42 17 40 19 8 21 26 23 27 24 28 25 29 26 30 27
REMARK SMILES IDX 31 28 38 29 32 30 36 31 33 32 34 33 37 34 35 36 10 38 11 39
REMARK SMILES IDX 12 40 13 41 20 42 14 43 18 44 15 45 16 46 19 47 17 49 23 51
REMARK SMILES IDX 24 52
REMARK H PARENT 44 16 42 18 40 20 8 22 37 35 35 37 19 48 17 50 24 53
REMARK Flexibility Score: inf
ROOT
ATOM      1  C   UNL     1      15.579  23.221  44.852  1.00  0.00     0.199 C 
ATOM      2  C   UNL     1      16.706  22.208  44.309  1.00  0.00     0.203 C 
ATOM      3  C   UNL     1      16.070  20.831  43.752  1.00  0.00     0.282 C 
ATOM      4  O   UNL     1      14.730  20.659  44.138  1.00  0.00    -0.340 OA
ATOM      5  C   UNL     1      13.921  21.724  43.619  1.00  0.00     0.190 C 
ATOM      6  C   UNL     1      14.617  23.127  43.485  1.00  0.00     0.240 C 
ENDROOT
BRANCH   1   7
ATOM      7  O   UNL     1      14.786  22.909  46.085  1.00  0.00    -0.340 OA
BRANCH   7   8
ATOM      8  C   UNL     1      14.439  23.980  46.983  1.00  0.00     0.282 C 
ATOM      9  C   UNL     1      12.182  25.964  47.995  1.00  0.00     0.041 C 
ATOM     10  C   UNL     1      13.449  26.158  47.059  1.00  0.00     0.150 C 
ATOM     11  C   UNL     1      14.688  26.788  47.803  1.00  0.00     0.174 C 
ATOM     12  O   UNL     1      13.823  24.991  46.250  1.00  0.00    -0.344 OA
ATOM     13  C   UNL     1      16.020  25.844  47.713  1.00  0.00     0.179 C 
ATOM     14  C   UNL     1      15.644  24.295  47.835  1.00  0.00     0.202 C 
BRANCH  11  15
ATOM     15  O   UNL     1      14.744  28.181  48.164  1.00  0.00    -0.388 OA
ATOM     16  H   UNL     1      13.881  28.522  48.578  1.00  0.00     0.211 HD
ENDBRANCH  11  15
BRANCH  13  17
ATOM     17  O   UNL     1      16.633  26.137  46.424  1.00  0.00    -0.387 OA
ATOM     18  H   UNL     1      16.680  27.135  46.230  1.00  0.00     0.211 HD
ENDBRANCH  13  17
BRANCH  14  19
ATOM     19  O   UNL     1      15.554  23.604  49.077  1.00  0.00    -0.385 OA
ATOM     20  H   UNL     1      16.495  23.426  49.394  1.00  0.00     0.211 HD
ENDBRANCH  14  19
ENDBRANCH   7   8
ENDBRANCH   1   7
BRANCH   2  21
ATOM     21  O   UNL     1      17.854  21.905  45.024  1.00  0.00    -0.385 OA
ATOM     22  H   UNL     1      18.689  21.793  44.446  1.00  0.00     0.211 HD
ENDBRANCH   2  21
BRANCH   6  23
ATOM     23  O   UNL     1      15.323  23.099  42.205  1.00  0.00    -0.453 OA
BRANCH  23  24
ATOM     24  C   UNL     1      15.531  24.216  41.321  1.00  0.00     0.331 C 
ATOM     25  O   UNL     1      14.557  24.702  40.703  1.00  0.00    -0.247 OA
BRANCH  24  26
ATOM     26  C   UNL     1      16.743  25.076  41.416  1.00  0.00     0.094 C 
ATOM     27  C   UNL     1      18.015  24.624  41.428  1.00  0.00     0.016 C 
BRANCH  27  28
ATOM     28  C   UNL     1      19.209  25.547  41.548  1.00  0.00    -0.021 A 
ATOM     29  C   UNL     1      19.296  26.543  42.570  1.00  0.00     0.058 A 
ATOM     30  C   UNL     1      20.168  25.634  40.533  1.00  0.00     0.012 A 
ATOM     31  C   UNL     1      20.388  27.415  42.658  1.00  0.00     0.157 A 
ATOM     32  C   UNL     1      21.272  26.553  40.598  1.00  0.00     0.051 A 
ATOM     33  C   UNL     1      21.369  27.431  41.687  1.00  0.00     0.157 A 
BRANCH  31  34
ATOM     34  O   UNL     1      20.529  28.187  43.804  1.00  0.00    -0.504 OA
ATOM     35  H   UNL     1      19.904  28.951  44.007  1.00  0.00     0.293 HD
ENDBRANCH  31  34
BRANCH  33  36
ATOM     36  O   UNL     1      22.347  28.431  41.723  1.00  0.00    -0.504 OA
ATOM     37  H   UNL     1      22.232  29.239  41.124  1.00  0.00     0.293 HD
ENDBRANCH  33  36
ENDBRANCH  27  28
ENDBRANCH  24  26
ENDBRANCH  23  24
ENDBRANCH   6  23
BRANCH   3  38
ATOM     38  O   UNL     1      16.770  19.643  44.144  1.00  0.00    -0.350 OA
BRANCH  38  39
ATOM     39  C   UNL     1      15.943  18.495  44.332  1.00  0.00     0.168 C 
BRANCH  39  40
ATOM     40  C   UNL     1      16.439  17.598  45.441  1.00  0.00     0.064 C 
BRANCH  40  41
ATOM     41  C   UNL     1      16.481  18.248  46.806  1.00  0.00    -0.042 A 
ATOM     42  C   UNL     1      15.396  19.062  47.161  1.00  0.00     0.054 A 
ATOM     43  C   UNL     1      17.694  18.346  47.536  1.00  0.00     0.008 A 
ATOM     44  C   UNL     1      15.523  20.040  48.105  1.00  0.00     0.157 A 
ATOM     45  C   UNL     1      17.828  19.329  48.502  1.00  0.00     0.050 A 
ATOM     46  C   UNL     1      16.741  20.202  48.770  1.00  0.00     0.157 A 
BRANCH  44  47
ATOM     47  O   UNL     1      14.443  20.876  48.381  1.00  0.00    -0.504 OA
ATOM     48  H   UNL     1      13.503  20.458  48.569  1.00  0.00     0.293 HD
ENDBRANCH  44  47
BRANCH  46  49
ATOM     49  O   UNL     1      16.932  21.270  49.668  1.00  0.00    -0.504 OA
ATOM     50  H   UNL     1      16.833  22.238  49.371  1.00  0.00     0.293 HD
ENDBRANCH  46  49
ENDBRANCH  40  41
ENDBRANCH  39  40
ENDBRANCH  38  39
ENDBRANCH   3  38
BRANCH   5  51
ATOM     51  C   UNL     1      13.200  21.119  42.429  1.00  0.00     0.192 C 
BRANCH  51  52
ATOM     52  O   UNL     1      12.969  22.050  41.370  1.00  0.00    -0.394 OA
ATOM     53  H   UNL     1      13.653  21.869  40.715  1.00  0.00     0.210 HD
ENDBRANCH  51  52
ENDBRANCH   5  51
TORSDOF 20
ENDMDL
MODEL 3
REMARK VINA RESULT:    -7.867      1.548      2.625
REMARK INTER + INTRA:         -17.030
REMARK INTER:                 -14.049
REMARK INTRA:                  -2.980
REMARK UNBOUND:                -2.035
REMARK SMILES C[C@@H]1O[C@@H](O[C@H]2[C@@H](O)[C@@H](OCCc3ccc(O)c(O)c3)O[C@H](CO)[C@@H]2OC(=O)C=Cc2ccc(O)c(O)c2)[C@H](O)[C@@H](O)[C@H]1O
REMARK SMILES IDX 6 1 7 2 9 3 21 4 22 5 25 6 5 7 4 8 1 9 2 10 43 11 3 12 41 13
REMARK SMILES IDX 39 14 44 15 42 17 40 19 8 21 26 23 27 24 28 25 29 26 30 27
REMARK SMILES IDX 31 28 38 29 32 30 36 31 33 32 34 33 37 34 35 36 10 38 11 39
REMARK SMILES IDX 12 40 13 41 20 42 14 43 18 44 15 45 16 46 19 47 17 49 23 51
REMARK SMILES IDX 24 52
REMARK H PARENT 44 16 42 18 40 20 8 22 37 35 35 37 19 48 17 50 24 53
REMARK Flexibility Score: inf
ROOT
ATOM      1  C   UNL     1      16.933  22.853  44.448  1.00  0.00     0.199 C 
ATOM      2  C   UNL     1      15.402  23.348  44.406  1.00  0.00     0.203 C 
ATOM      3  C   UNL     1      15.097  24.481  45.517  1.00  0.00     0.282 C 
ATOM      4  O   UNL     1      16.111  24.575  46.486  1.00  0.00    -0.340 OA
ATOM      5  C   UNL     1      17.357  24.929  45.870  1.00  0.00     0.190 C 
ATOM      6  C   UNL     1      17.592  24.393  44.412  1.00  0.00     0.240 C 
ENDROOT
BRANCH   1   7
ATOM      7  O   UNL     1      17.465  22.073  45.612  1.00  0.00    -0.340 OA
BRANCH   7   8
ATOM      8  C   UNL     1      17.002  20.726  45.820  1.00  0.00     0.282 C 
ATOM      9  C   UNL     1      16.658  17.822  44.593  1.00  0.00     0.041 C 
ATOM     10  C   UNL     1      15.638  19.010  44.860  1.00  0.00     0.150 C 
ATOM     11  C   UNL     1      14.793  18.826  46.178  1.00  0.00     0.174 C 
ATOM     12  O   UNL     1      16.197  20.362  44.744  1.00  0.00    -0.344 OA
ATOM     13  C   UNL     1      14.965  20.080  47.213  1.00  0.00     0.179 C 
ATOM     14  C   UNL     1      16.470  20.618  47.228  1.00  0.00     0.202 C 
BRANCH  11  15
ATOM     15  O   UNL     1      13.712  17.879  46.275  1.00  0.00    -0.388 OA
ATOM     16  H   UNL     1      13.965  17.034  46.779  1.00  0.00     0.211 HD
ENDBRANCH  11  15
BRANCH  13  17
ATOM     17  O   UNL     1      14.043  21.110  46.753  1.00  0.00    -0.387 OA
ATOM     18  H   UNL     1      13.662  21.663  47.518  1.00  0.00     0.211 HD
ENDBRANCH  13  17
BRANCH  14  19
ATOM     19  O   UNL     1      17.481  20.104  48.090  1.00  0.00    -0.385 OA
ATOM     20  H   UNL     1      18.369  20.248  47.635  1.00  0.00     0.211 HD
ENDBRANCH  14  19
ENDBRANCH   7   8
ENDBRANCH   1   7
BRANCH   2  21
ATOM     21  O   UNL     1      14.329  22.471  44.365  1.00  0.00    -0.385 OA
ATOM     22  H   UNL     1      13.575  22.703  45.014  1.00  0.00     0.211 HD
ENDBRANCH   2  21
BRANCH   6  23
ATOM     23  O   UNL     1      16.932  25.351  43.526  1.00  0.00    -0.453 OA
BRANCH  23  24
ATOM     24  C   UNL     1      17.372  25.740  42.211  1.00  0.00     0.331 C 
ATOM     25  O   UNL     1      17.643  26.940  41.982  1.00  0.00    -0.247 OA
BRANCH  24  26
ATOM     26  C   UNL     1      17.913  24.749  41.240  1.00  0.00     0.094 C 
ATOM     27  C   UNL     1      19.224  24.512  41.022  1.00  0.00     0.016 C 
BRANCH  27  28
ATOM     28  C   UNL     1      19.715  23.506  40.005  1.00  0.00    -0.021 A 
ATOM     29  C   UNL     1      19.225  23.485  38.662  1.00  0.00     0.058 A 
ATOM     30  C   UNL     1      20.487  22.402  40.386  1.00  0.00     0.012 A 
ATOM     31  C   UNL     1      19.660  22.531  37.734  1.00  0.00     0.157 A 
ATOM     32  C   UNL     1      20.906  21.398  39.445  1.00  0.00     0.051 A 
ATOM     33  C   UNL     1      20.488  21.494  38.110  1.00  0.00     0.157 A 
BRANCH  31  34
ATOM     34  O   UNL     1      19.335  22.713  36.395  1.00  0.00    -0.504 OA
ATOM     35  H   UNL     1      19.081  21.939  35.802  1.00  0.00     0.293 HD
ENDBRANCH  31  34
BRANCH  33  36
ATOM     36  O   UNL     1      20.758  20.470  37.195  1.00  0.00    -0.504 OA
ATOM     37  H   UNL     1      20.244  20.456  36.323  1.00  0.00     0.293 HD
ENDBRANCH  33  36
ENDBRANCH  27  28
ENDBRANCH  24  26
ENDBRANCH  23  24
ENDBRANCH   6  23
BRANCH   3  38
ATOM     38  O   UNL     1      13.862  24.312  46.225  1.00  0.00    -0.350 OA
BRANCH  38  39
ATOM     39  C   UNL     1      13.223  25.528  46.613  1.00  0.00     0.168 C 
BRANCH  39  40
ATOM     40  C   UNL     1      13.074  25.653  48.110  1.00  0.00     0.064 C 
BRANCH  40  41
ATOM     41  C   UNL     1      14.336  26.060  48.838  1.00  0.00    -0.042 A 
ATOM     42  C   UNL     1      14.620  25.404  50.044  1.00  0.00     0.054 A 
ATOM     43  C   UNL     1      14.998  27.278  48.535  1.00  0.00     0.008 A 
ATOM     44  C   UNL     1      15.416  25.977  50.993  1.00  0.00     0.157 A 
ATOM     45  C   UNL     1      15.816  27.862  49.488  1.00  0.00     0.050 A 
ATOM     46  C   UNL     1      16.005  27.219  50.739  1.00  0.00     0.157 A 
BRANCH  44  47
ATOM     47  O   UNL     1      15.618  25.327  52.209  1.00  0.00    -0.504 OA
ATOM     48  H   UNL     1      16.179  24.444  52.233  1.00  0.00     0.293 HD
ENDBRANCH  44  47
BRANCH  46  49
ATOM     49  O   UNL     1      16.742  27.881  51.740  1.00  0.00    -0.504 OA
ATOM     50  H   UNL     1      17.305  27.368  52.413  1.00  0.00     0.293 HD
ENDBRANCH  46  49
ENDBRANCH  40  41
ENDBRANCH  39  40
ENDBRANCH  38  39
ENDBRANCH   3  38
BRANCH   5  51
ATOM     51  C   UNL     1      17.534  26.405  46.172  1.00  0.00     0.192 C 
BRANCH  51  52
ATOM     52  O   UNL     1      18.602  27.013  45.442  1.00  0.00    -0.394 OA
ATOM     53  H   UNL     1      18.880  27.767  45.975  1.00  0.00     0.210 HD
ENDBRANCH  51  52
ENDBRANCH   5  51
TORSDOF 20
ENDMDL
MODEL 4
REMARK VINA RESULT:    -7.813      3.370      7.578
REMARK INTER + INTRA:         -16.927
REMARK INTER:                 -13.754
REMARK INTRA:                  -3.173
REMARK UNBOUND:                -2.035
REMARK SMILES C[C@@H]1O[C@@H](O[C@H]2[C@@H](O)[C@@H](OCCc3ccc(O)c(O)c3)O[C@H](CO)[C@@H]2OC(=O)C=Cc2ccc(O)c(O)c2)[C@H](O)[C@@H](O)[C@H]1O
REMARK SMILES IDX 6 1 7 2 9 3 21 4 22 5 25 6 5 7 4 8 1 9 2 10 43 11 3 12 41 13
REMARK SMILES IDX 39 14 44 15 42 17 40 19 8 21 26 23 27 24 28 25 29 26 30 27
REMARK SMILES IDX 31 28 38 29 32 30 36 31 33 32 34 33 37 34 35 36 10 38 11 39
REMARK SMILES IDX 12 40 13 41 20 42 14 43 18 44 15 45 16 46 19 47 17 49 23 51
REMARK SMILES IDX 24 52
REMARK H PARENT 44 16 42 18 40 20 8 22 37 35 35 37 19 48 17 50 24 53
REMARK Flexibility Score: inf
ROOT
ATOM      1  C   UNL     1      15.163  21.320  46.707  1.00  0.00     0.199 C 
ATOM      2  C   UNL     1      16.268  21.980  45.741  1.00  0.00     0.203 C 
ATOM      3  C   UNL     1      16.228  21.355  44.252  1.00  0.00     0.282 C 
ATOM      4  O   UNL     1      15.480  20.167  44.184  1.00  0.00    -0.340 OA
ATOM      5  C   UNL     1      14.118  20.413  44.563  1.00  0.00     0.190 C 
ATOM      6  C   UNL     1      13.886  21.529  45.644  1.00  0.00     0.240 C 
ENDROOT
BRANCH   1   7
ATOM      7  O   UNL     1      15.267  19.888  47.140  1.00  0.00    -0.340 OA
BRANCH   7   8
ATOM      8  C   UNL     1      15.749  19.591  48.463  1.00  0.00     0.282 C 
ATOM      9  C   UNL     1      15.059  19.392  51.552  1.00  0.00     0.041 C 
ATOM     10  C   UNL     1      15.858  20.460  50.691  1.00  0.00     0.150 C 
ATOM     11  C   UNL     1      17.423  20.288  50.773  1.00  0.00     0.174 C 
ATOM     12  O   UNL     1      15.391  20.637  49.310  1.00  0.00    -0.344 OA
ATOM     13  C   UNL     1      18.108  20.078  49.303  1.00  0.00     0.179 C 
ATOM     14  C   UNL     1      17.194  19.168  48.360  1.00  0.00     0.202 C 
BRANCH  11  15
ATOM     15  O   UNL     1      18.180  20.664  51.938  1.00  0.00    -0.388 OA
ATOM     16  H   UNL     1      19.130  20.304  51.932  1.00  0.00     0.211 HD
ENDBRANCH  11  15
BRANCH  13  17
ATOM     17  O   UNL     1      18.275  21.413  48.744  1.00  0.00    -0.387 OA
ATOM     18  H   UNL     1      18.541  22.101  49.445  1.00  0.00     0.211 HD
ENDBRANCH  13  17
BRANCH  14  19
ATOM     19  O   UNL     1      17.280  17.747  48.316  1.00  0.00    -0.385 OA
ATOM     20  H   UNL     1      18.177  17.509  47.920  1.00  0.00     0.211 HD
ENDBRANCH  14  19
ENDBRANCH   7   8
ENDBRANCH   1   7
BRANCH   2  21
ATOM     21  O   UNL     1      17.593  22.144  46.114  1.00  0.00    -0.385 OA
ATOM     22  H   UNL     1      17.781  21.928  47.095  1.00  0.00     0.211 HD
ENDBRANCH   2  21
BRANCH   6  23
ATOM     23  O   UNL     1      13.865  22.794  44.910  1.00  0.00    -0.453 OA
BRANCH  23  24
ATOM     24  C   UNL     1      14.042  24.109  45.470  1.00  0.00     0.331 C 
ATOM     25  O   UNL     1      13.386  24.441  46.483  1.00  0.00    -0.247 OA
BRANCH  24  26
ATOM     26  C   UNL     1      15.246  24.932  45.170  1.00  0.00     0.094 C 
ATOM     27  C   UNL     1      16.126  25.384  46.089  1.00  0.00     0.016 C 
BRANCH  27  28
ATOM     28  C   UNL     1      17.321  26.237  45.726  1.00  0.00    -0.021 A 
ATOM     29  C   UNL     1      17.294  27.663  45.830  1.00  0.00     0.058 A 
ATOM     30  C   UNL     1      18.421  25.699  45.048  1.00  0.00     0.012 A 
ATOM     31  C   UNL     1      18.393  28.449  45.463  1.00  0.00     0.157 A 
ATOM     32  C   UNL     1      19.537  26.507  44.635  1.00  0.00     0.051 A 
ATOM     33  C   UNL     1      19.505  27.889  44.868  1.00  0.00     0.157 A 
BRANCH  31  34
ATOM     34  O   UNL     1      18.393  29.793  45.815  1.00  0.00    -0.504 OA
ATOM     35  H   UNL     1      18.367  30.088  46.778  1.00  0.00     0.293 HD
ENDBRANCH  31  34
BRANCH  33  36
ATOM     36  O   UNL     1      20.503  28.729  44.362  1.00  0.00    -0.504 OA
ATOM     37  H   UNL     1      21.143  28.356  43.673  1.00  0.00     0.293 HD
ENDBRANCH  33  36
ENDBRANCH  27  28
ENDBRANCH  24  26
ENDBRANCH  23  24
ENDBRANCH   6  23
BRANCH   3  38
ATOM     38  O   UNL     1      17.513  21.068  43.685  1.00  0.00    -0.350 OA
BRANCH  38  39
ATOM     39  C   UNL     1      18.048  22.102  42.860  1.00  0.00     0.168 C 
BRANCH  39  40
ATOM     40  C   UNL     1      16.984  23.040  42.343  1.00  0.00     0.064 C 
BRANCH  40  41
ATOM     41  C   UNL     1      17.515  24.270  41.640  1.00  0.00    -0.042 A 
ATOM     42  C   UNL     1      18.815  24.199  41.120  1.00  0.00     0.054 A 
ATOM     43  C   UNL     1      16.903  25.538  41.816  1.00  0.00     0.008 A 
ATOM     44  C   UNL     1      19.555  25.326  40.906  1.00  0.00     0.157 A 
ATOM     45  C   UNL     1      17.643  26.687  41.591  1.00  0.00     0.050 A 
ATOM     46  C   UNL     1      18.990  26.579  41.158  1.00  0.00     0.157 A 
BRANCH  44  47
ATOM     47  O   UNL     1      20.869  25.213  40.456  1.00  0.00    -0.504 OA
ATOM     48  H   UNL     1      21.101  24.510  39.717  1.00  0.00     0.293 HD
ENDBRANCH  44  47
BRANCH  46  49
ATOM     49  O   UNL     1      19.765  27.750  41.049  1.00  0.00    -0.504 OA
ATOM     50  H   UNL     1      20.636  27.764  40.524  1.00  0.00     0.293 HD
ENDBRANCH  46  49
ENDBRANCH  40  41
ENDBRANCH  39  40
ENDBRANCH  38  39
ENDBRANCH   3  38
BRANCH   5  51
ATOM     51  C   UNL     1      13.353  20.456  43.253  1.00  0.00     0.192 C 
BRANCH  51  52
ATOM     52  O   UNL     1      13.741  21.536  42.402  1.00  0.00    -0.394 OA
ATOM     53  H   UNL     1      14.093  21.122  41.606  1.00  0.00     0.210 HD
ENDBRANCH  51  52
ENDBRANCH   5  51
TORSDOF 20
ENDMDL
MODEL 5
REMARK VINA RESULT:    -7.630      2.638      8.347
REMARK INTER + INTRA:         -16.578
REMARK INTER:                 -13.670
REMARK INTRA:                  -2.908
REMARK UNBOUND:                -2.035
REMARK SMILES C[C@@H]1O[C@@H](O[C@H]2[C@@H](O)[C@@H](OCCc3ccc(O)c(O)c3)O[C@H](CO)[C@@H]2OC(=O)C=Cc2ccc(O)c(O)c2)[C@H](O)[C@@H](O)[C@H]1O
REMARK SMILES IDX 6 1 7 2 9 3 21 4 22 5 25 6 5 7 4 8 1 9 2 10 43 11 3 12 41 13
REMARK SMILES IDX 39 14 44 15 42 17 40 19 8 21 26 23 27 24 28 25 29 26 30 27
REMARK SMILES IDX 31 28 38 29 32 30 36 31 33 32 34 33 37 34 35 36 10 38 11 39
REMARK SMILES IDX 12 40 13 41 20 42 14 43 18 44 15 45 16 46 19 47 17 49 23 51
REMARK SMILES IDX 24 52
REMARK H PARENT 44 16 42 18 40 20 8 22 37 35 35 37 19 48 17 50 24 53
REMARK Flexibility Score: inf
ROOT
ATOM      1  C   UNL     1      14.860  22.656  47.005  1.00  0.00     0.199 C 
ATOM      2  C   UNL     1      15.768  23.193  45.789  1.00  0.00     0.203 C 
ATOM      3  C   UNL     1      14.885  23.579  44.493  1.00  0.00     0.282 C 
ATOM      4  O   UNL     1      13.573  23.081  44.563  1.00  0.00    -0.340 OA
ATOM      5  C   UNL     1      12.893  23.629  45.702  1.00  0.00     0.190 C 
ATOM      6  C   UNL     1      13.778  23.935  46.964  1.00  0.00     0.240 C 
ENDROOT
BRANCH   1   7
ATOM      7  O   UNL     1      14.139  21.345  46.915  1.00  0.00    -0.340 OA
BRANCH   7   8
ATOM      8  C   UNL     1      14.906  20.132  46.801  1.00  0.00     0.282 C 
ATOM      9  C   UNL     1      17.153  18.290  48.070  1.00  0.00     0.041 C 
ATOM     10  C   UNL     1      17.143  19.283  46.831  1.00  0.00     0.150 C 
ATOM     11  C   UNL     1      16.975  18.553  45.443  1.00  0.00     0.174 C 
ATOM     12  O   UNL     1      16.254  20.444  46.958  1.00  0.00    -0.344 OA
ATOM     13  C   UNL     1      15.680  19.093  44.604  1.00  0.00     0.179 C 
ATOM     14  C   UNL     1      14.443  19.390  45.572  1.00  0.00     0.202 C 
BRANCH  11  15
ATOM     15  O   UNL     1      18.042  17.804  44.832  1.00  0.00    -0.388 OA
ATOM     16  H   UNL     1      18.493  18.301  44.069  1.00  0.00     0.211 HD
ENDBRANCH  11  15
BRANCH  13  17
ATOM     17  O   UNL     1      16.119  20.305  43.925  1.00  0.00    -0.387 OA
ATOM     18  H   UNL     1      16.734  20.111  43.137  1.00  0.00     0.211 HD
ENDBRANCH  13  17
BRANCH  14  19
ATOM     19  O   UNL     1      13.475  18.410  45.933  1.00  0.00    -0.385 OA
ATOM     20  H   UNL     1      13.008  18.117  45.088  1.00  0.00     0.211 HD
ENDBRANCH  14  19
ENDBRANCH   7   8
ENDBRANCH   1   7
BRANCH   2  21
ATOM     21  O   UNL     1      16.915  22.541  45.362  1.00  0.00    -0.385 OA
ATOM     22  H   UNL     1      16.806  22.037  44.481  1.00  0.00     0.211 HD
ENDBRANCH   2  21
BRANCH   6  23
ATOM     23  O   UNL     1      14.358  25.256  46.729  1.00  0.00    -0.453 OA
BRANCH  23  24
ATOM     24  C   UNL     1      14.475  26.320  47.693  1.00  0.00     0.331 C 
ATOM     25  O   UNL     1      13.662  27.271  47.663  1.00  0.00    -0.247 OA
BRANCH  24  26
ATOM     26  C   UNL     1      15.236  26.149  48.961  1.00  0.00     0.094 C 
ATOM     27  C   UNL     1      14.716  26.275  50.201  1.00  0.00     0.016 C 
BRANCH  27  28
ATOM     28  C   UNL     1      15.546  26.110  51.456  1.00  0.00    -0.021 A 
ATOM     29  C   UNL     1      16.599  27.017  51.793  1.00  0.00     0.058 A 
ATOM     30  C   UNL     1      15.487  24.938  52.218  1.00  0.00     0.012 A 
ATOM     31  C   UNL     1      17.383  26.842  52.939  1.00  0.00     0.157 A 
ATOM     32  C   UNL     1      16.317  24.735  53.376  1.00  0.00     0.051 A 
ATOM     33  C   UNL     1      17.255  25.716  53.727  1.00  0.00     0.157 A 
BRANCH  31  34
ATOM     34  O   UNL     1      18.216  27.880  53.336  1.00  0.00    -0.504 OA
ATOM     35  H   UNL     1      18.100  28.817  52.983  1.00  0.00     0.293 HD
ENDBRANCH  31  34
BRANCH  33  36
ATOM     36  O   UNL     1      18.173  25.499  54.760  1.00  0.00    -0.504 OA
ATOM     37  H   UNL     1      19.141  25.751  54.605  1.00  0.00     0.293 HD
ENDBRANCH  33  36
ENDBRANCH  27  28
ENDBRANCH  24  26
ENDBRANCH  23  24
ENDBRANCH   6  23
BRANCH   3  38
ATOM     38  O   UNL     1      15.428  23.139  43.241  1.00  0.00    -0.350 OA
BRANCH  38  39
ATOM     39  C   UNL     1      15.922  24.182  42.402  1.00  0.00     0.168 C 
BRANCH  39  40
ATOM     40  C   UNL     1      17.424  24.322  42.475  1.00  0.00     0.064 C 
BRANCH  40  41
ATOM     41  C   UNL     1      17.909  25.675  42.945  1.00  0.00    -0.042 A 
ATOM     42  C   UNL     1      19.121  26.140  42.416  1.00  0.00     0.054 A 
ATOM     43  C   UNL     1      17.386  26.276  44.120  1.00  0.00     0.008 A 
ATOM     44  C   UNL     1      19.876  27.065  43.079  1.00  0.00     0.157 A 
ATOM     45  C   UNL     1      18.139  27.223  44.793  1.00  0.00     0.050 A 
ATOM     46  C   UNL     1      19.409  27.600  44.282  1.00  0.00     0.157 A 
BRANCH  44  47
ATOM     47  O   UNL     1      21.109  27.450  42.557  1.00  0.00    -0.504 OA
ATOM     48  H   UNL     1      21.684  26.755  42.028  1.00  0.00     0.293 HD
ENDBRANCH  44  47
BRANCH  46  49
ATOM     49  O   UNL     1      20.214  28.473  45.039  1.00  0.00    -0.504 OA
ATOM     50  H   UNL     1      21.220  28.527  44.896  1.00  0.00     0.293 HD
ENDBRANCH  46  49
ENDBRANCH  40  41
ENDBRANCH  39  40
ENDBRANCH  38  39
ENDBRANCH   3  38
BRANCH   5  51
ATOM     51  C   UNL     1      11.988  24.705  45.133  1.00  0.00     0.192 C 
BRANCH  51  52
ATOM     52  O   UNL     1      11.875  25.857  45.971  1.00  0.00    -0.394 OA
ATOM     53  H   UNL     1      11.218  26.420  45.546  1.00  0.00     0.210 HD
ENDBRANCH  51  52
ENDBRANCH   5  51
TORSDOF 20
ENDMDL
MODEL 6
REMARK VINA RESULT:    -7.534      1.298      9.463
REMARK INTER + INTRA:         -16.396
REMARK INTER:                 -14.153
REMARK INTRA:                  -2.243
REMARK UNBOUND:                -2.035
REMARK SMILES C[C@@H]1O[C@@H](O[C@H]2[C@@H](O)[C@@H](OCCc3ccc(O)c(O)c3)O[C@H](CO)[C@@H]2OC(=O)C=Cc2ccc(O)c(O)c2)[C@H](O)[C@@H](O)[C@H]1O
REMARK SMILES IDX 6 1 7 2 9 3 21 4 22 5 25 6 5 7 4 8 1 9 2 10 43 11 3 12 41 13
REMARK SMILES IDX 39 14 44 15 42 17 40 19 8 21 26 23 27 24 28 25 29 26 30 27
REMARK SMILES IDX 31 28 38 29 32 30 36 31 33 32 34 33 37 34 35 36 10 38 11 39
REMARK SMILES IDX 12 40 13 41 20 42 14 43 18 44 15 45 16 46 19 47 17 49 23 51
REMARK SMILES IDX 24 52
REMARK H PARENT 44 16 42 18 40 20 8 22 37 35 35 37 19 48 17 50 24 53
REMARK Flexibility Score: inf
ROOT
ATOM      1  C   UNL     1      16.773  23.625  45.248  1.00  0.00     0.199 C 
ATOM      2  C   UNL     1      17.289  25.101  44.866  1.00  0.00     0.203 C 
ATOM      3  C   UNL     1      16.737  25.585  43.427  1.00  0.00     0.282 C 
ATOM      4  O   UNL     1      16.199  24.530  42.670  1.00  0.00    -0.340 OA
ATOM      5  C   UNL     1      15.088  23.940  43.359  1.00  0.00     0.190 C 
ATOM      6  C   UNL     1      15.160  23.939  44.928  1.00  0.00     0.240 C 
ENDROOT
BRANCH   1   7
ATOM      7  O   UNL     1      17.242  22.419  44.491  1.00  0.00    -0.340 OA
BRANCH   7   8
ATOM      8  C   UNL     1      17.059  21.114  45.071  1.00  0.00     0.282 C 
ATOM      9  C   UNL     1      17.407  17.983  44.714  1.00  0.00     0.041 C 
ATOM     10  C   UNL     1      16.147  18.946  44.633  1.00  0.00     0.150 C 
ATOM     11  C   UNL     1      15.277  18.952  45.948  1.00  0.00     0.174 C 
ATOM     12  O   UNL     1      16.417  20.302  44.140  1.00  0.00    -0.344 OA
ATOM     13  C   UNL     1      15.118  20.448  46.586  1.00  0.00     0.179 C 
ATOM     14  C   UNL     1      16.473  21.286  46.451  1.00  0.00     0.202 C 
BRANCH  11  15
ATOM     15  O   UNL     1      14.414  17.856  46.307  1.00  0.00    -0.388 OA
ATOM     16  H   UNL     1      14.333  17.156  45.576  1.00  0.00     0.211 HD
ENDBRANCH  11  15
BRANCH  13  17
ATOM     17  O   UNL     1      14.032  21.085  45.853  1.00  0.00    -0.387 OA
ATOM     18  H   UNL     1      14.262  21.245  44.874  1.00  0.00     0.211 HD
ENDBRANCH  13  17
BRANCH  14  19
ATOM     19  O   UNL     1      17.512  21.262  47.425  1.00  0.00    -0.385 OA
ATOM     20  H   UNL     1      18.149  22.013  47.208  1.00  0.00     0.211 HD
ENDBRANCH  14  19
ENDBRANCH   7   8
ENDBRANCH   1   7
BRANCH   2  21
ATOM     21  O   UNL     1      18.615  25.489  44.982  1.00  0.00    -0.385 OA
ATOM     22  H   UNL     1      18.970  26.011  44.179  1.00  0.00     0.211 HD
ENDBRANCH   2  21
BRANCH   6  23
ATOM     23  O   UNL     1      14.667  25.250  45.348  1.00  0.00    -0.453 OA
BRANCH  23  24
ATOM     24  C   UNL     1      13.780  25.515  46.451  1.00  0.00     0.331 C 
ATOM     25  O   UNL     1      12.544  25.416  46.285  1.00  0.00    -0.247 OA
BRANCH  24  26
ATOM     26  C   UNL     1      14.256  25.494  47.862  1.00  0.00     0.094 C 
ATOM     27  C   UNL     1      14.732  26.564  48.536  1.00  0.00     0.016 C 
BRANCH  27  28
ATOM     28  C   UNL     1      15.222  26.477  49.965  1.00  0.00    -0.021 A 
ATOM     29  C   UNL     1      16.012  27.511  50.559  1.00  0.00     0.058 A 
ATOM     30  C   UNL     1      15.134  25.286  50.694  1.00  0.00     0.012 A 
ATOM     31  C   UNL     1      16.489  27.411  51.871  1.00  0.00     0.157 A 
ATOM     32  C   UNL     1      15.656  25.165  52.029  1.00  0.00     0.051 A 
ATOM     33  C   UNL     1      16.322  26.255  52.606  1.00  0.00     0.157 A 
BRANCH  31  34
ATOM     34  O   UNL     1      17.035  28.542  52.465  1.00  0.00    -0.504 OA
ATOM     35  H   UNL     1      16.979  28.697  53.459  1.00  0.00     0.293 HD
ENDBRANCH  31  34
BRANCH  33  36
ATOM     36  O   UNL     1      16.962  26.136  53.844  1.00  0.00    -0.504 OA
ATOM     37  H   UNL     1      16.901  25.253  54.336  1.00  0.00     0.293 HD
ENDBRANCH  33  36
ENDBRANCH  27  28
ENDBRANCH  24  26
ENDBRANCH  23  24
ENDBRANCH   6  23
BRANCH   3  38
ATOM     38  O   UNL     1      17.709  26.236  42.597  1.00  0.00    -0.350 OA
BRANCH  38  39
ATOM     39  C   UNL     1      17.815  25.710  41.274  1.00  0.00     0.168 C 
BRANCH  39  40
ATOM     40  C   UNL     1      19.223  25.284  40.932  1.00  0.00     0.064 C 
BRANCH  40  41
ATOM     41  C   UNL     1      19.319  23.986  40.162  1.00  0.00    -0.042 A 
ATOM     42  C   UNL     1      20.218  23.022  40.641  1.00  0.00     0.054 A 
ATOM     43  C   UNL     1      18.826  23.880  38.835  1.00  0.00     0.008 A 
ATOM     44  C   UNL     1      20.733  22.062  39.818  1.00  0.00     0.157 A 
ATOM     45  C   UNL     1      19.336  22.903  37.997  1.00  0.00     0.050 A 
ATOM     46  C   UNL     1      20.319  22.003  38.486  1.00  0.00     0.157 A 
BRANCH  44  47
ATOM     47  O   UNL     1      21.678  21.166  40.313  1.00  0.00    -0.504 OA
ATOM     48  H   UNL     1      21.734  20.202  39.909  1.00  0.00     0.293 HD
ENDBRANCH  44  47
BRANCH  46  49
ATOM     49  O   UNL     1      20.913  21.093  37.590  1.00  0.00    -0.504 OA
ATOM     50  H   UNL     1      21.643  21.384  36.944  1.00  0.00     0.293 HD
ENDBRANCH  46  49
ENDBRANCH  40  41
ENDBRANCH  39  40
ENDBRANCH  38  39
ENDBRANCH   3  38
BRANCH   5  51
ATOM     51  C   UNL     1      13.860  24.489  42.656  1.00  0.00     0.192 C 
BRANCH  51  52
ATOM     52  O   UNL     1      12.661  24.364  43.424  1.00  0.00    -0.394 OA
ATOM     53  H   UNL     1      12.406  23.438  43.351  1.00  0.00     0.210 HD
ENDBRANCH  51  52
ENDBRANCH   5  51
TORSDOF 20
ENDMDL
MODEL 7
REMARK VINA RESULT:    -7.359      2.376      8.623
REMARK INTER + INTRA:         -16.062
REMARK INTER:                 -13.824
REMARK INTRA:                  -2.239
REMARK UNBOUND:                -2.035
REMARK SMILES C[C@@H]1O[C@@H](O[C@H]2[C@@H](O)[C@@H](OCCc3ccc(O)c(O)c3)O[C@H](CO)[C@@H]2OC(=O)C=Cc2ccc(O)c(O)c2)[C@H](O)[C@@H](O)[C@H]1O
REMARK SMILES IDX 6 1 7 2 9 3 21 4 22 5 25 6 5 7 4 8 1 9 2 10 43 11 3 12 41 13
REMARK SMILES IDX 39 14 44 15 42 17 40 19 8 21 26 23 27 24 28 25 29 26 30 27
REMARK SMILES IDX 31 28 38 29 32 30 36 31 33 32 34 33 37 34 35 36 10 38 11 39
REMARK SMILES IDX 12 40 13 41 20 42 14 43 18 44 15 45 16 46 19 47 17 49 23 51
REMARK SMILES IDX 24 52
REMARK H PARENT 44 16 42 18 40 20 8 22 37 35 35 37 19 48 17 50 24 53
REMARK Flexibility Score: inf
ROOT
ATOM      1  C   UNL     1      16.896  21.946  44.327  1.00  0.00     0.199 C 
ATOM      2  C   UNL     1      17.946  22.597  43.295  1.00  0.00     0.203 C 
ATOM      3  C   UNL     1      17.209  23.388  42.094  1.00  0.00     0.282 C 
ATOM      4  O   UNL     1      15.839  23.087  42.008  1.00  0.00    -0.340 OA
ATOM      5  C   UNL     1      15.170  23.464  43.220  1.00  0.00     0.190 C 
ATOM      6  C   UNL     1      16.006  23.348  44.545  1.00  0.00     0.240 C 
ENDROOT
BRANCH   1   7
ATOM      7  O   UNL     1      16.009  20.810  43.917  1.00  0.00    -0.340 OA
BRANCH   7   8
ATOM      8  C   UNL     1      15.828  19.703  44.820  1.00  0.00     0.282 C 
ATOM      9  C   UNL     1      13.781  17.694  46.172  1.00  0.00     0.041 C 
ATOM     10  C   UNL     1      14.551  18.975  46.709  1.00  0.00     0.150 C 
ATOM     11  C   UNL     1      15.837  18.626  47.552  1.00  0.00     0.174 C 
ATOM     12  O   UNL     1      14.808  20.022  45.713  1.00  0.00    -0.344 OA
ATOM     13  C   UNL     1      17.191  19.309  46.940  1.00  0.00     0.179 C 
ATOM     14  C   UNL     1      17.182  19.289  45.342  1.00  0.00     0.202 C 
BRANCH  11  15
ATOM     15  O   UNL     1      15.763  18.111  48.894  1.00  0.00    -0.388 OA
ATOM     16  H   UNL     1      16.361  18.609  49.547  1.00  0.00     0.211 HD
ENDBRANCH  11  15
BRANCH  13  17
ATOM     17  O   UNL     1      17.216  20.675  47.448  1.00  0.00    -0.387 OA
ATOM     18  H   UNL     1      16.286  21.082  47.522  1.00  0.00     0.211 HD
ENDBRANCH  13  17
BRANCH  14  19
ATOM     19  O   UNL     1      17.689  18.207  44.566  1.00  0.00    -0.385 OA
ATOM     20  H   UNL     1      16.917  17.821  44.044  1.00  0.00     0.211 HD
ENDBRANCH  14  19
ENDBRANCH   7   8
ENDBRANCH   1   7
BRANCH   2  21
ATOM     21  O   UNL     1      19.017  21.893  42.767  1.00  0.00    -0.385 OA
ATOM     22  H   UNL     1      19.773  21.721  43.432  1.00  0.00     0.211 HD
ENDBRANCH   2  21
BRANCH   6  23
ATOM     23  O   UNL     1      16.777  24.588  44.637  1.00  0.00    -0.453 OA
BRANCH  23  24
ATOM     24  C   UNL     1      17.286  25.189  45.842  1.00  0.00     0.331 C 
ATOM     25  O   UNL     1      18.405  25.750  45.826  1.00  0.00    -0.247 OA
BRANCH  24  26
ATOM     26  C   UNL     1      16.392  25.541  46.980  1.00  0.00     0.094 C 
ATOM     27  C   UNL     1      16.071  26.798  47.354  1.00  0.00     0.016 C 
BRANCH  27  28
ATOM     28  C   UNL     1      15.173  27.095  48.535  1.00  0.00    -0.021 A 
ATOM     29  C   UNL     1      15.520  26.709  49.867  1.00  0.00     0.058 A 
ATOM     30  C   UNL     1      13.859  27.544  48.356  1.00  0.00     0.012 A 
ATOM     31  C   UNL     1      14.670  26.959  50.951  1.00  0.00     0.157 A 
ATOM     32  C   UNL     1      12.969  27.768  49.463  1.00  0.00     0.051 A 
ATOM     33  C   UNL     1      13.406  27.478  50.763  1.00  0.00     0.157 A 
BRANCH  31  34
ATOM     34  O   UNL     1      15.167  26.781  52.237  1.00  0.00    -0.504 OA
ATOM     35  H   UNL     1      15.730  25.982  52.480  1.00  0.00     0.293 HD
ENDBRANCH  31  34
BRANCH  33  36
ATOM     36  O   UNL     1      12.530  27.551  51.852  1.00  0.00    -0.504 OA
ATOM     37  H   UNL     1      12.850  28.004  52.698  1.00  0.00     0.293 HD
ENDBRANCH  33  36
ENDBRANCH  27  28
ENDBRANCH  24  26
ENDBRANCH  23  24
ENDBRANCH   6  23
BRANCH   3  38
ATOM     38  O   UNL     1      17.766  23.160  40.792  1.00  0.00    -0.350 OA
BRANCH  38  39
ATOM     39  C   UNL     1      17.614  24.244  39.877  1.00  0.00     0.168 C 
BRANCH  39  40
ATOM     40  C   UNL     1      17.626  25.589  40.565  1.00  0.00     0.064 C 
BRANCH  40  41
ATOM     41  C   UNL     1      19.002  26.095  40.935  1.00  0.00    -0.042 A 
ATOM     42  C   UNL     1      19.273  26.274  42.299  1.00  0.00     0.054 A 
ATOM     43  C   UNL     1      19.843  26.711  39.971  1.00  0.00     0.008 A 
ATOM     44  C   UNL     1      20.245  27.135  42.722  1.00  0.00     0.157 A 
ATOM     45  C   UNL     1      20.837  27.578  40.392  1.00  0.00     0.050 A 
ATOM     46  C   UNL     1      21.021  27.813  41.780  1.00  0.00     0.157 A 
BRANCH  44  47
ATOM     47  O   UNL     1      20.437  27.341  44.086  1.00  0.00    -0.504 OA
ATOM     48  H   UNL     1      19.968  28.149  44.556  1.00  0.00     0.293 HD
ENDBRANCH  44  47
BRANCH  46  49
ATOM     49  O   UNL     1      21.955  28.786  42.186  1.00  0.00    -0.504 OA
ATOM     50  H   UNL     1      22.787  28.987  41.636  1.00  0.00     0.293 HD
ENDBRANCH  46  49
ENDBRANCH  40  41
ENDBRANCH  39  40
ENDBRANCH  38  39
ENDBRANCH   3  38
BRANCH   5  51
ATOM     51  C   UNL     1      14.460  24.762  42.883  1.00  0.00     0.192 C 
BRANCH  51  52
ATOM     52  O   UNL     1      14.077  24.862  41.510  1.00  0.00    -0.394 OA
ATOM     53  H   UNL     1      14.512  24.124  41.067  1.00  0.00     0.210 HD
ENDBRANCH  51  52
ENDBRANCH   5  51
TORSDOF 20
ENDMDL
MODEL 8
REMARK VINA RESULT:    -7.300      1.710      9.148
REMARK INTER + INTRA:         -15.950
REMARK INTER:                 -13.436
REMARK INTRA:                  -2.514
REMARK UNBOUND:                -2.035
REMARK SMILES C[C@@H]1O[C@@H](O[C@H]2[C@@H](O)[C@@H](OCCc3ccc(O)c(O)c3)O[C@H](CO)[C@@H]2OC(=O)C=Cc2ccc(O)c(O)c2)[C@H](O)[C@@H](O)[C@H]1O
REMARK SMILES IDX 6 1 7 2 9 3 21 4 22 5 25 6 5 7 4 8 1 9 2 10 43 11 3 12 41 13
REMARK SMILES IDX 39 14 44 15 42 17 40 19 8 21 26 23 27 24 28 25 29 26 30 27
REMARK SMILES IDX 31 28 38 29 32 30 36 31 33 32 34 33 37 34 35 36 10 38 11 39
REMARK SMILES IDX 12 40 13 41 20 42 14 43 18 44 15 45 16 46 19 47 17 49 23 51
REMARK SMILES IDX 24 52
REMARK H PARENT 44 16 42 18 40 20 8 22 37 35 35 37 19 48 17 50 24 53
REMARK Flexibility Score: inf
ROOT
ATOM      1  C   UNL     1      16.026  25.436  44.052  1.00  0.00     0.199 C 
ATOM      2  C   UNL     1      14.651  24.621  43.860  1.00  0.00     0.203 C 
ATOM      3  C   UNL     1      14.706  23.162  44.551  1.00  0.00     0.282 C 
ATOM      4  O   UNL     1      16.013  22.772  44.891  1.00  0.00    -0.340 OA
ATOM      5  C   UNL     1      16.578  23.695  45.834  1.00  0.00     0.190 C 
ATOM      6  C   UNL     1      16.119  25.192  45.706  1.00  0.00     0.240 C 
ENDROOT
BRANCH   1   7
ATOM      7  O   UNL     1      17.289  24.994  43.376  1.00  0.00    -0.340 OA
BRANCH   7   8
ATOM      8  C   UNL     1      17.436  25.205  41.959  1.00  0.00     0.282 C 
ATOM      9  C   UNL     1      16.002  25.296  39.132  1.00  0.00     0.041 C 
ATOM     10  C   UNL     1      16.951  24.230  39.828  1.00  0.00     0.150 C 
ATOM     11  C   UNL     1      18.452  24.320  39.351  1.00  0.00     0.174 C 
ATOM     12  O   UNL     1      16.839  24.141  41.289  1.00  0.00    -0.344 OA
ATOM     13  C   UNL     1      19.490  24.562  40.590  1.00  0.00     0.179 C 
ATOM     14  C   UNL     1      18.875  25.560  41.677  1.00  0.00     0.202 C 
BRANCH  11  15
ATOM     15  O   UNL     1      18.879  23.852  38.058  1.00  0.00    -0.388 OA
ATOM     16  H   UNL     1      18.134  23.410  37.527  1.00  0.00     0.211 HD
ENDBRANCH  11  15
BRANCH  13  17
ATOM     17  O   UNL     1      19.741  23.248  41.167  1.00  0.00    -0.387 OA
ATOM     18  H   UNL     1      20.154  22.601  40.499  1.00  0.00     0.211 HD
ENDBRANCH  13  17
BRANCH  14  19
ATOM     19  O   UNL     1      19.021  26.976  41.617  1.00  0.00    -0.385 OA
ATOM     20  H   UNL     1      18.481  27.369  42.373  1.00  0.00     0.211 HD
ENDBRANCH  14  19
ENDBRANCH   7   8
ENDBRANCH   1   7
BRANCH   2  21
ATOM     21  O   UNL     1      14.009  24.506  42.637  1.00  0.00    -0.385 OA
ATOM     22  H   UNL     1      13.279  23.791  42.614  1.00  0.00     0.211 HD
ENDBRANCH   2  21
BRANCH   6  23
ATOM     23  O   UNL     1      14.857  25.284  46.439  1.00  0.00    -0.453 OA
BRANCH  23  24
ATOM     24  C   UNL     1      14.581  26.146  47.559  1.00  0.00     0.331 C 
ATOM     25  O   UNL     1      13.519  26.808  47.580  1.00  0.00    -0.247 OA
BRANCH  24  26
ATOM     26  C   UNL     1      15.277  25.981  48.865  1.00  0.00     0.094 C 
ATOM     27  C   UNL     1      14.837  26.467  50.045  1.00  0.00     0.016 C 
BRANCH  27  28
ATOM     28  C   UNL     1      15.599  26.285  51.339  1.00  0.00    -0.021 A 
ATOM     29  C   UNL     1      16.655  27.169  51.728  1.00  0.00     0.058 A 
ATOM     30  C   UNL     1      15.476  25.117  52.099  1.00  0.00     0.012 A 
ATOM     31  C   UNL     1      17.377  26.978  52.911  1.00  0.00     0.157 A 
ATOM     32  C   UNL     1      16.243  24.897  53.296  1.00  0.00     0.051 A 
ATOM     33  C   UNL     1      17.185  25.857  53.692  1.00  0.00     0.157 A 
BRANCH  31  34
ATOM     34  O   UNL     1      18.214  27.997  53.348  1.00  0.00    -0.504 OA
ATOM     35  H   UNL     1      18.012  28.526  54.182  1.00  0.00     0.293 HD
ENDBRANCH  31  34
BRANCH  33  36
ATOM     36  O   UNL     1      18.046  25.621  54.770  1.00  0.00    -0.504 OA
ATOM     37  H   UNL     1      18.380  24.678  54.922  1.00  0.00     0.293 HD
ENDBRANCH  33  36
ENDBRANCH  27  28
ENDBRANCH  24  26
ENDBRANCH  23  24
ENDBRANCH   6  23
BRANCH   3  38
ATOM     38  O   UNL     1      14.150  22.101  43.762  1.00  0.00    -0.350 OA
BRANCH  38  39
ATOM     39  C   UNL     1      15.068  21.062  43.424  1.00  0.00     0.168 C 
BRANCH  39  40
ATOM     40  C   UNL     1      14.569  19.694  43.825  1.00  0.00     0.064 C 
BRANCH  40  41
ATOM     41  C   UNL     1      15.369  19.026  44.920  1.00  0.00    -0.042 A 
ATOM     42  C   UNL     1      15.136  19.453  46.235  1.00  0.00     0.054 A 
ATOM     43  C   UNL     1      16.546  18.290  44.625  1.00  0.00     0.008 A 
ATOM     44  C   UNL     1      16.078  19.293  47.210  1.00  0.00     0.157 A 
ATOM     45  C   UNL     1      17.503  18.114  45.611  1.00  0.00     0.050 A 
ATOM     46  C   UNL     1      17.278  18.645  46.908  1.00  0.00     0.157 A 
BRANCH  44  47
ATOM     47  O   UNL     1      15.839  19.794  48.488  1.00  0.00    -0.504 OA
ATOM     48  H   UNL     1      16.389  20.615  48.830  1.00  0.00     0.293 HD
ENDBRANCH  44  47
BRANCH  46  49
ATOM     49  O   UNL     1      18.308  18.562  47.864  1.00  0.00    -0.504 OA
ATOM     50  H   UNL     1      18.955  17.777  47.883  1.00  0.00     0.293 HD
ENDBRANCH  46  49
ENDBRANCH  40  41
ENDBRANCH  39  40
ENDBRANCH  38  39
ENDBRANCH   3  38
BRANCH   5  51
ATOM     51  C   UNL     1      16.486  22.986  47.172  1.00  0.00     0.192 C 
BRANCH  51  52
ATOM     52  O   UNL     1      17.658  22.238  47.502  1.00  0.00    -0.394 OA
ATOM     53  H   UNL     1      18.264  22.372  46.765  1.00  0.00     0.210 HD
ENDBRANCH  51  52
ENDBRANCH   5  51
TORSDOF 20
ENDMDL
MODEL 9
REMARK VINA RESULT:    -7.278      2.553      7.835
REMARK INTER + INTRA:         -15.907
REMARK INTER:                 -13.376
REMARK INTRA:                  -2.531
REMARK UNBOUND:                -2.035
REMARK SMILES C[C@@H]1O[C@@H](O[C@H]2[C@@H](O)[C@@H](OCCc3ccc(O)c(O)c3)O[C@H](CO)[C@@H]2OC(=O)C=Cc2ccc(O)c(O)c2)[C@H](O)[C@@H](O)[C@H]1O
REMARK SMILES IDX 6 1 7 2 9 3 21 4 22 5 25 6 5 7 4 8 1 9 2 10 43 11 3 12 41 13
REMARK SMILES IDX 39 14 44 15 42 17 40 19 8 21 26 23 27 24 28 25 29 26 30 27
REMARK SMILES IDX 31 28 38 29 32 30 36 31 33 32 34 33 37 34 35 36 10 38 11 39
REMARK SMILES IDX 12 40 13 41 20 42 14 43 18 44 15 45 16 46 19 47 17 49 23 51
REMARK SMILES IDX 24 52
REMARK H PARENT 44 16 42 18 40 20 8 22 37 35 35 37 19 48 17 50 24 53
REMARK Flexibility Score: inf
ROOT
ATOM      1  C   UNL     1      15.607  21.965  45.039  1.00  0.00     0.199 C 
ATOM      2  C   UNL     1      16.528  23.123  44.404  1.00  0.00     0.203 C 
ATOM      3  C   UNL     1      16.113  23.465  42.881  1.00  0.00     0.282 C 
ATOM      4  O   UNL     1      15.271  22.491  42.317  1.00  0.00    -0.340 OA
ATOM      5  C   UNL     1      14.050  22.397  43.064  1.00  0.00     0.190 C 
ATOM      6  C   UNL     1      14.152  22.674  44.607  1.00  0.00     0.240 C 
ENDROOT
BRANCH   1   7
ATOM      7  O   UNL     1      15.681  20.554  44.539  1.00  0.00    -0.340 OA
BRANCH   7   8
ATOM      8  C   UNL     1      15.560  19.471  45.481  1.00  0.00     0.282 C 
ATOM      9  C   UNL     1      13.617  17.744  47.296  1.00  0.00     0.041 C 
ATOM     10  C   UNL     1      14.654  18.901  47.622  1.00  0.00     0.150 C 
ATOM     11  C   UNL     1      16.037  18.371  48.161  1.00  0.00     0.174 C 
ATOM     12  O   UNL     1      14.819  19.916  46.573  1.00  0.00    -0.344 OA
ATOM     13  C   UNL     1      17.298  18.871  47.248  1.00  0.00     0.179 C 
ATOM     14  C   UNL     1      16.928  18.870  45.693  1.00  0.00     0.202 C 
BRANCH  11  15
ATOM     15  O   UNL     1      16.198  17.855  49.496  1.00  0.00    -0.388 OA
ATOM     16  H   UNL     1      16.061  18.558  50.215  1.00  0.00     0.211 HD
ENDBRANCH  11  15
BRANCH  13  17
ATOM     17  O   UNL     1      17.622  20.214  47.711  1.00  0.00    -0.387 OA
ATOM     18  H   UNL     1      16.838  20.667  48.177  1.00  0.00     0.211 HD
ENDBRANCH  13  17
BRANCH  14  19
ATOM     19  O   UNL     1      17.096  17.739  44.845  1.00  0.00    -0.385 OA
ATOM     20  H   UNL     1      17.388  16.966  45.425  1.00  0.00     0.211 HD
ENDBRANCH  14  19
ENDBRANCH   7   8
ENDBRANCH   1   7
BRANCH   2  21
ATOM     21  O   UNL     1      17.911  23.117  44.494  1.00  0.00    -0.385 OA
ATOM     22  H   UNL     1      18.337  22.202  44.334  1.00  0.00     0.211 HD
ENDBRANCH   2  21
BRANCH   6  23
ATOM     23  O   UNL     1      14.079  24.127  44.755  1.00  0.00    -0.453 OA
BRANCH  23  24
ATOM     24  C   UNL     1      13.200  24.852  45.636  1.00  0.00     0.331 C 
ATOM     25  O   UNL     1      11.963  24.684  45.548  1.00  0.00    -0.247 OA
BRANCH  24  26
ATOM     26  C   UNL     1      13.690  25.462  46.903  1.00  0.00     0.094 C 
ATOM     27  C   UNL     1      14.906  25.244  47.449  1.00  0.00     0.016 C 
BRANCH  27  28
ATOM     28  C   UNL     1      15.341  25.878  48.753  1.00  0.00    -0.021 A 
ATOM     29  C   UNL     1      15.219  25.196  50.004  1.00  0.00     0.058 A 
ATOM     30  C   UNL     1      15.657  27.239  48.831  1.00  0.00     0.012 A 
ATOM     31  C   UNL     1      15.595  25.799  51.211  1.00  0.00     0.157 A 
ATOM     32  C   UNL     1      16.008  27.873  50.074  1.00  0.00     0.051 A 
ATOM     33  C   UNL     1      15.983  27.123  51.257  1.00  0.00     0.157 A 
BRANCH  31  34
ATOM     34  O   UNL     1      15.681  25.007  52.348  1.00  0.00    -0.504 OA
ATOM     35  H   UNL     1      14.981  25.043  53.073  1.00  0.00     0.293 HD
ENDBRANCH  31  34
BRANCH  33  36
ATOM     36  O   UNL     1      16.183  27.731  52.502  1.00  0.00    -0.504 OA
ATOM     37  H   UNL     1      16.441  28.709  52.524  1.00  0.00     0.293 HD
ENDBRANCH  33  36
ENDBRANCH  27  28
ENDBRANCH  24  26
ENDBRANCH  23  24
ENDBRANCH   6  23
BRANCH   3  38
ATOM     38  O   UNL     1      17.216  23.630  41.979  1.00  0.00    -0.350 OA
BRANCH  38  39
ATOM     39  C   UNL     1      17.203  24.847  41.233  1.00  0.00     0.168 C 
BRANCH  39  40
ATOM     40  C   UNL     1      16.843  26.043  42.082  1.00  0.00     0.064 C 
BRANCH  40  41
ATOM     41  C   UNL     1      17.893  26.435  43.097  1.00  0.00    -0.042 A 
ATOM     42  C   UNL     1      17.449  27.071  44.265  1.00  0.00     0.054 A 
ATOM     43  C   UNL     1      19.266  26.507  42.744  1.00  0.00     0.008 A 
ATOM     44  C   UNL     1      18.279  27.869  44.998  1.00  0.00     0.157 A 
ATOM     45  C   UNL     1      20.118  27.306  43.488  1.00  0.00     0.050 A 
ATOM     46  C   UNL     1      19.613  28.015  44.609  1.00  0.00     0.157 A 
BRANCH  44  47
ATOM     47  O   UNL     1      17.783  28.541  46.113  1.00  0.00    -0.504 OA
ATOM     48  H   UNL     1      17.895  28.116  47.062  1.00  0.00     0.293 HD
ENDBRANCH  44  47
BRANCH  46  49
ATOM     49  O   UNL     1      20.461  28.915  45.282  1.00  0.00    -0.504 OA
ATOM     50  H   UNL     1      20.816  29.753  44.828  1.00  0.00     0.293 HD
ENDBRANCH  46  49
ENDBRANCH  40  41
ENDBRANCH  39  40
ENDBRANCH  38  39
ENDBRANCH   3  38
BRANCH   5  51
ATOM     51  C   UNL     1      13.025  23.140  42.227  1.00  0.00     0.192 C 
BRANCH  51  52
ATOM     52  O   UNL     1      13.336  23.161  40.832  1.00  0.00    -0.394 OA
ATOM     53  H   UNL     1      13.854  22.363  40.673  1.00  0.00     0.210 HD
ENDBRANCH  51  52
ENDBRANCH   5  51
TORSDOF 20
ENDMDL
