MODEL 1
REMARK VINA RESULT:    -4.925      0.000      0.000
REMARK INTER + INTRA:          -5.069
REMARK INTER:                  -5.069
REMARK INTRA:                   0.000
REMARK UNBOUND:                 0.000
REMARK SMILES Oc1ccc2[nH]ccc2c1
REMARK SMILES IDX 3 1 4 2 5 3 9 4 8 5 7 6 6 7 10 8 2 9 1 11
REMARK H PARENT 6 10 1 12
REMARK Flexibility Score: inf
ROOT
ATOM      1  C   UNL     1     -31.468  -6.501   8.662  1.00  0.00     0.048 A 
ATOM      2  C   UNL     1     -30.479  -7.368   8.160  1.00  0.00     0.030 A 
ATOM      3  C   UNL     1     -29.632  -7.988   9.076  1.00  0.00     0.046 A 
ATOM      4  C   UNL     1     -29.746  -7.772  10.423  1.00  0.00     0.003 A 
ATOM      5  C   UNL     1     -28.773  -8.523  11.046  1.00  0.00     0.028 A 
ATOM      6  C   UNL     1     -28.102  -9.174  10.014  1.00  0.00     0.083 A 
ATOM      7  N   UNL     1     -28.631  -8.844   8.813  1.00  0.00    -0.361 N 
ATOM      8  C   UNL     1     -30.713  -6.920  10.954  1.00  0.00     0.056 A 
ATOM      9  C   UNL     1     -31.587  -6.275  10.053  1.00  0.00     0.116 A 
ATOM     10  H   UNL     1     -28.320  -9.186   7.876  1.00  0.00     0.166 HD
ENDROOT
BRANCH   9  11
ATOM     11  O   UNL     1     -32.575  -5.413  10.524  1.00  0.00    -0.508 OA
ATOM     12  H   UNL     1     -32.898  -5.454  11.484  1.00  0.00     0.293 HD
ENDBRANCH   9  11
TORSDOF 1
ENDMDL
MODEL 2
REMARK VINA RESULT:    -4.900      0.986      2.043
REMARK INTER + INTRA:          -5.043
REMARK INTER:                  -5.043
REMARK INTRA:                   0.000
REMARK UNBOUND:                 0.000
REMARK SMILES Oc1ccc2[nH]ccc2c1
REMARK SMILES IDX 3 1 4 2 5 3 9 4 8 5 7 6 6 7 10 8 2 9 1 11
REMARK H PARENT 6 10 1 12
REMARK Flexibility Score: inf
ROOT
ATOM      1  C   UNL     1     -30.565  -6.901  11.218  1.00  0.00     0.048 A 
ATOM      2  C   UNL     1     -29.459  -7.770  11.188  1.00  0.00     0.030 A 
ATOM      3  C   UNL     1     -29.163  -8.405   9.983  1.00  0.00     0.046 A 
ATOM      4  C   UNL     1     -29.915  -8.200   8.858  1.00  0.00     0.003 A 
ATOM      5  C   UNL     1     -29.367  -8.965   7.851  1.00  0.00     0.028 A 
ATOM      6  C   UNL     1     -28.281  -9.611   8.436  1.00  0.00     0.083 A 
ATOM      7  N   UNL     1     -28.161  -9.265   9.738  1.00  0.00    -0.361 N 
ATOM      8  C   UNL     1     -31.017  -7.347   8.853  1.00  0.00     0.056 A 
ATOM      9  C   UNL     1     -31.344  -6.688  10.056  1.00  0.00     0.116 A 
ATOM     10  H   UNL     1     -27.437  -9.602  10.412  1.00  0.00     0.166 HD
ENDROOT
BRANCH   9  11
ATOM     11  O   UNL     1     -32.435  -5.822  10.113  1.00  0.00    -0.508 OA
ATOM     12  H   UNL     1     -33.028  -5.667   9.306  1.00  0.00     0.293 HD
ENDBRANCH   9  11
TORSDOF 1
ENDMDL
MODEL 3
REMARK VINA RESULT:    -4.870      9.716     11.265
REMARK INTER + INTRA:          -5.012
REMARK INTER:                  -5.012
REMARK INTRA:                   0.000
REMARK UNBOUND:                 0.000
REMARK SMILES Oc1ccc2[nH]ccc2c1
REMARK SMILES IDX 3 1 4 2 5 3 9 4 8 5 7 6 6 7 10 8 2 9 1 11
REMARK H PARENT 6 10 1 12
REMARK Flexibility Score: inf
ROOT
ATOM      1  C   UNL     1     -33.833  -1.499  15.205  1.00  0.00     0.048 A 
ATOM      2  C   UNL     1     -33.739  -0.585  16.271  1.00  0.00     0.030 A 
ATOM      3  C   UNL     1     -34.910   0.036  16.700  1.00  0.00     0.046 A 
ATOM      4  C   UNL     1     -36.119  -0.226  16.115  1.00  0.00     0.003 A 
ATOM      5  C   UNL     1     -37.065   0.539  16.763  1.00  0.00     0.028 A 
ATOM      6  C   UNL     1     -36.359   1.243  17.735  1.00  0.00     0.083 A 
ATOM      7  N   UNL     1     -35.043   0.932  17.692  1.00  0.00    -0.361 N 
ATOM      8  C   UNL     1     -36.248  -1.124  15.059  1.00  0.00     0.056 A 
ATOM      9  C   UNL     1     -35.081  -1.770  14.599  1.00  0.00     0.116 A 
ATOM     10  H   UNL     1     -34.289   1.314  18.305  1.00  0.00     0.166 HD
ENDROOT
BRANCH   9  11
ATOM     11  O   UNL     1     -35.147  -2.680  13.545  1.00  0.00    -0.508 OA
ATOM     12  H   UNL     1     -35.965  -2.741  12.950  1.00  0.00     0.293 HD
ENDBRANCH   9  11
TORSDOF 1
ENDMDL
MODEL 4
REMARK VINA RESULT:    -4.865      9.231     10.619
REMARK INTER + INTRA:          -5.008
REMARK INTER:                  -5.008
REMARK INTRA:                   0.000
REMARK UNBOUND:                 0.000
REMARK SMILES Oc1ccc2[nH]ccc2c1
REMARK SMILES IDX 3 1 4 2 5 3 9 4 8 5 7 6 6 7 10 8 2 9 1 11
REMARK H PARENT 6 10 1 12
REMARK Flexibility Score: inf
ROOT
ATOM      1  C   UNL     1     -34.377   0.474  17.278  1.00  0.00     0.048 A 
ATOM      2  C   UNL     1     -33.626  -0.430  16.505  1.00  0.00     0.030 A 
ATOM      3  C   UNL     1     -34.296  -1.162  15.526  1.00  0.00     0.046 A 
ATOM      4  C   UNL     1     -35.640  -1.016  15.313  1.00  0.00     0.003 A 
ATOM      5  C   UNL     1     -35.991  -1.870  14.290  1.00  0.00     0.028 A 
ATOM      6  C   UNL     1     -34.807  -2.507  13.927  1.00  0.00     0.083 A 
ATOM      7  N   UNL     1     -33.775  -2.070  14.685  1.00  0.00    -0.361 N 
ATOM      8  C   UNL     1     -36.413  -0.130  16.060  1.00  0.00     0.056 A 
ATOM      9  C   UNL     1     -35.766   0.627  17.059  1.00  0.00     0.116 A 
ATOM     10  H   UNL     1     -32.779  -2.380  14.626  1.00  0.00     0.166 HD
ENDROOT
BRANCH   9  11
ATOM     11  O   UNL     1     -36.486   1.530  17.839  1.00  0.00    -0.508 OA
ATOM     12  H   UNL     1     -36.765   1.304  18.787  1.00  0.00     0.293 HD
ENDBRANCH   9  11
TORSDOF 1
ENDMDL
MODEL 5
REMARK VINA RESULT:    -4.817      9.272     10.701
REMARK INTER + INTRA:          -4.958
REMARK INTER:                  -4.958
REMARK INTRA:                   0.000
REMARK UNBOUND:                 0.000
REMARK SMILES Oc1ccc2[nH]ccc2c1
REMARK SMILES IDX 3 1 4 2 5 3 9 4 8 5 7 6 6 7 10 8 2 9 1 11
REMARK H PARENT 6 10 1 12
REMARK Flexibility Score: inf
ROOT
ATOM      1  C   UNL     1     -35.503  -2.027  14.265  1.00  0.00     0.048 A 
ATOM      2  C   UNL     1     -36.366  -1.155  14.953  1.00  0.00     0.030 A 
ATOM      3  C   UNL     1     -35.831  -0.392  15.988  1.00  0.00     0.046 A 
ATOM      4  C   UNL     1     -34.510  -0.477  16.336  1.00  0.00     0.003 A 
ATOM      5  C   UNL     1     -34.301   0.395  17.383  1.00  0.00     0.028 A 
ATOM      6  C   UNL     1     -35.543   0.979  17.621  1.00  0.00     0.083 A 
ATOM      7  N   UNL     1     -36.473   0.495  16.766  1.00  0.00    -0.361 N 
ATOM      8  C   UNL     1     -33.627  -1.329  15.676  1.00  0.00     0.056 A 
ATOM      9  C   UNL     1     -34.137  -2.117  14.622  1.00  0.00     0.116 A 
ATOM     10  H   UNL     1     -37.483   0.758  16.725  1.00  0.00     0.166 HD
ENDROOT
BRANCH   9  11
ATOM     11  O   UNL     1     -33.303  -2.988  13.925  1.00  0.00    -0.508 OA
ATOM     12  H   UNL     1     -32.796  -2.687  13.100  1.00  0.00     0.293 HD
ENDBRANCH   9  11
TORSDOF 1
ENDMDL
MODEL 6
REMARK VINA RESULT:    -4.798     13.907     14.876
REMARK INTER + INTRA:          -4.938
REMARK INTER:                  -4.938
REMARK INTRA:                   0.000
REMARK UNBOUND:                 0.000
REMARK SMILES Oc1ccc2[nH]ccc2c1
REMARK SMILES IDX 3 1 4 2 5 3 9 4 8 5 7 6 6 7 10 8 2 9 1 11
REMARK H PARENT 6 10 1 12
REMARK Flexibility Score: inf
ROOT
ATOM      1  C   UNL     1     -26.751 -10.064  23.735  1.00  0.00     0.048 A 
ATOM      2  C   UNL     1     -26.120 -11.152  24.366  1.00  0.00     0.030 A 
ATOM      3  C   UNL     1     -24.889 -11.570  23.865  1.00  0.00     0.046 A 
ATOM      4  C   UNL     1     -24.300 -10.952  22.796  1.00  0.00     0.003 A 
ATOM      5  C   UNL     1     -23.106 -11.596  22.553  1.00  0.00     0.028 A 
ATOM      6  C   UNL     1     -23.032 -12.599  23.516  1.00  0.00     0.083 A 
ATOM      7  N   UNL     1     -24.124 -12.578  24.315  1.00  0.00    -0.361 N 
ATOM      8  C   UNL     1     -24.896  -9.872  22.147  1.00  0.00     0.056 A 
ATOM      9  C   UNL     1     -26.144  -9.424  22.629  1.00  0.00     0.116 A 
ATOM     10  H   UNL     1     -24.327 -13.218  25.116  1.00  0.00     0.166 HD
ENDROOT
BRANCH   9  11
ATOM     11  O   UNL     1     -26.789  -8.348  22.022  1.00  0.00    -0.508 OA
ATOM     12  H   UNL     1     -26.294  -7.714  21.407  1.00  0.00     0.293 HD
ENDBRANCH   9  11
TORSDOF 1
ENDMDL
MODEL 7
REMARK VINA RESULT:    -4.686     14.167     14.988
REMARK INTER + INTRA:          -4.823
REMARK INTER:                  -4.823
REMARK INTRA:                   0.000
REMARK UNBOUND:                 0.000
REMARK SMILES Oc1ccc2[nH]ccc2c1
REMARK SMILES IDX 3 1 4 2 5 3 9 4 8 5 7 6 6 7 10 8 2 9 1 11
REMARK H PARENT 6 10 1 12
REMARK Flexibility Score: inf
ROOT
ATOM      1  C   UNL     1     -23.840 -11.076  22.512  1.00  0.00     0.048 A 
ATOM      2  C   UNL     1     -24.517  -9.916  22.094  1.00  0.00     0.030 A 
ATOM      3  C   UNL     1     -25.737  -9.621  22.699  1.00  0.00     0.046 A 
ATOM      4  C   UNL     1     -26.272 -10.424  23.670  1.00  0.00     0.003 A 
ATOM      5  C   UNL     1     -27.469  -9.862  24.058  1.00  0.00     0.028 A 
ATOM      6  C   UNL     1     -27.600  -8.715  23.279  1.00  0.00     0.083 A 
ATOM      7  N   UNL     1     -26.539  -8.573  22.451  1.00  0.00    -0.361 N 
ATOM      8  C   UNL     1     -25.628 -11.580  24.107  1.00  0.00     0.056 A 
ATOM      9  C   UNL     1     -24.391 -11.908  23.515  1.00  0.00     0.116 A 
ATOM     10  H   UNL     1     -26.382  -7.804  21.761  1.00  0.00     0.166 HD
ENDROOT
BRANCH   9  11
ATOM     11  O   UNL     1     -23.700 -13.051  23.912  1.00  0.00    -0.508 OA
ATOM     12  H   UNL     1     -23.807 -13.437  24.843  1.00  0.00     0.293 HD
ENDBRANCH   9  11
TORSDOF 1
ENDMDL
MODEL 8
REMARK VINA RESULT:    -4.604     11.740     12.464
REMARK INTER + INTRA:          -4.738
REMARK INTER:                  -4.738
REMARK INTRA:                   0.000
REMARK UNBOUND:                 0.000
REMARK SMILES Oc1ccc2[nH]ccc2c1
REMARK SMILES IDX 3 1 4 2 5 3 9 4 8 5 7 6 6 7 10 8 2 9 1 11
REMARK H PARENT 6 10 1 12
REMARK Flexibility Score: inf
ROOT
ATOM      1  C   UNL     1     -37.376 -13.519  14.815  1.00  0.00     0.048 A 
ATOM      2  C   UNL     1     -37.763 -14.125  16.024  1.00  0.00     0.030 A 
ATOM      3  C   UNL     1     -38.905 -13.641  16.657  1.00  0.00     0.046 A 
ATOM      4  C   UNL     1     -39.638 -12.611  16.133  1.00  0.00     0.003 A 
ATOM      5  C   UNL     1     -40.692 -12.375  16.989  1.00  0.00     0.028 A 
ATOM      6  C   UNL     1     -40.538 -13.302  18.017  1.00  0.00     0.083 A 
ATOM      7  N   UNL     1     -39.446 -14.073  17.809  1.00  0.00    -0.361 N 
ATOM      8  C   UNL     1     -39.283 -11.988  14.938  1.00  0.00     0.056 A 
ATOM      9  C   UNL     1     -38.130 -12.453  14.271  1.00  0.00     0.116 A 
ATOM     10  H   UNL     1     -39.097 -14.843  18.422  1.00  0.00     0.166 HD
ENDROOT
BRANCH   9  11
ATOM     11  O   UNL     1     -37.725 -11.870  13.071  1.00  0.00    -0.508 OA
ATOM     12  H   UNL     1     -38.172 -12.105  12.193  1.00  0.00     0.293 HD
ENDBRANCH   9  11
TORSDOF 1
ENDMDL
MODEL 9
REMARK VINA RESULT:    -4.583     13.838     14.987
REMARK INTER + INTRA:          -4.717
REMARK INTER:                  -4.717
REMARK INTRA:                   0.000
REMARK UNBOUND:                 0.000
REMARK SMILES Oc1ccc2[nH]ccc2c1
REMARK SMILES IDX 3 1 4 2 5 3 9 4 8 5 7 6 6 7 10 8 2 9 1 11
REMARK H PARENT 6 10 1 12
REMARK Flexibility Score: inf
ROOT
ATOM      1  C   UNL     1     -24.733 -12.022  23.854  1.00  0.00     0.048 A 
ATOM      2  C   UNL     1     -25.761 -11.120  24.187  1.00  0.00     0.030 A 
ATOM      3  C   UNL     1     -25.834  -9.926  23.474  1.00  0.00     0.046 A 
ATOM      4  C   UNL     1     -24.943  -9.625  22.479  1.00  0.00     0.003 A 
ATOM      5  C   UNL     1     -25.285  -8.387  21.979  1.00  0.00     0.028 A 
ATOM      6  C   UNL     1     -26.397  -7.992  22.717  1.00  0.00     0.083 A 
ATOM      7  N   UNL     1     -26.728  -8.936  23.628  1.00  0.00    -0.361 N 
ATOM      8  C   UNL     1     -23.913 -10.494  22.125  1.00  0.00     0.056 A 
ATOM      9  C   UNL     1     -23.810 -11.713  22.827  1.00  0.00     0.116 A 
ATOM     10  H   UNL     1     -27.518  -8.897  24.311  1.00  0.00     0.166 HD
ENDROOT
BRANCH   9  11
ATOM     11  O   UNL     1     -22.801 -12.623  22.517  1.00  0.00    -0.508 OA
ATOM     12  H   UNL     1     -22.996 -13.471  21.997  1.00  0.00     0.293 HD
ENDBRANCH   9  11
TORSDOF 1
ENDMDL
