MODEL 1
REMARK VINA RESULT:    -4.412      0.000      0.000
REMARK INTER + INTRA:          -5.967
REMARK INTER:                  -5.702
REMARK INTRA:                  -0.265
REMARK UNBOUND:                -0.265
REMARK SMILES CCCCCCC(=O)[O-]
REMARK SMILES IDX 5 1 6 2 7 3 8 4 9 5 4 6 3 7 2 8 1 9
REMARK H PARENT
REMARK Flexibility Score: inf
ROOT
ATOM      1  C   UNL     1      48.279  -7.392  25.283  1.00  0.00     0.006 C 
ENDROOT
BRANCH   1   2
ATOM      2  C   UNL     1      46.915  -6.695  25.407  1.00  0.00     0.053 C 
BRANCH   2   3
ATOM      3  C   UNL     1      45.784  -7.674  25.441  1.00  0.00     0.041 C 
ATOM      4  O   UNL     1      45.123  -7.917  24.397  1.00  0.00    -0.550 OA
ATOM      5  O   UNL     1      45.480  -8.346  26.619  1.00  0.00    -0.550 OA
ENDBRANCH   2   3
ENDBRANCH   1   2
BRANCH   1   6
ATOM      6  C   UNL     1      49.052  -7.048  23.997  1.00  0.00     0.000 C 
BRANCH   6   7
ATOM      7  C   UNL     1      48.129  -6.661  22.833  1.00  0.00    -0.000 C 
BRANCH   7   8
ATOM      8  C   UNL     1      47.978  -7.823  21.843  1.00  0.00    -0.003 C 
ATOM      9  C   UNL     1      49.306  -8.145  21.164  1.00  0.00     0.004 C 
ENDBRANCH   7   8
ENDBRANCH   6   7
ENDBRANCH   1   6
TORSDOF 5
ENDMDL
MODEL 2
REMARK VINA RESULT:    -4.385      1.995      2.529
REMARK INTER + INTRA:          -5.932
REMARK INTER:                  -5.694
REMARK INTRA:                  -0.237
REMARK UNBOUND:                -0.265
REMARK SMILES CCCCCCC(=O)[O-]
REMARK SMILES IDX 5 1 6 2 7 3 8 4 9 5 4 6 3 7 2 8 1 9
REMARK H PARENT
REMARK Flexibility Score: inf
ROOT
ATOM      1  C   UNL     1      45.168  -7.755  24.544  1.00  0.00     0.006 C 
ENDROOT
BRANCH   1   2
ATOM      2  C   UNL     1      45.342  -7.269  25.992  1.00  0.00     0.053 C 
BRANCH   2   3
ATOM      3  C   UNL     1      44.868  -5.860  26.173  1.00  0.00     0.041 C 
ATOM      4  O   UNL     1      45.688  -4.905  26.131  1.00  0.00    -0.550 OA
ATOM      5  O   UNL     1      43.516  -5.598  26.353  1.00  0.00    -0.550 OA
ENDBRANCH   2   3
ENDBRANCH   1   2
BRANCH   1   6
ATOM      6  C   UNL     1      46.344  -7.406  23.614  1.00  0.00     0.000 C 
BRANCH   6   7
ATOM      7  C   UNL     1      47.695  -7.386  24.344  1.00  0.00    -0.000 C 
BRANCH   7   8
ATOM      8  C   UNL     1      48.856  -7.295  23.347  1.00  0.00    -0.003 C 
ATOM      9  C   UNL     1      48.419  -7.725  21.949  1.00  0.00     0.004 C 
ENDBRANCH   7   8
ENDBRANCH   6   7
ENDBRANCH   1   6
TORSDOF 5
ENDMDL
MODEL 3
REMARK VINA RESULT:    -4.366      2.488      2.883
REMARK INTER + INTRA:          -5.907
REMARK INTER:                  -5.654
REMARK INTRA:                  -0.253
REMARK UNBOUND:                -0.265
REMARK SMILES CCCCCCC(=O)[O-]
REMARK SMILES IDX 5 1 6 2 7 3 8 4 9 5 4 6 3 7 2 8 1 9
REMARK H PARENT
REMARK Flexibility Score: inf
ROOT
ATOM      1  C   UNL     1      46.788  -7.254  25.204  1.00  0.00     0.006 C 
ENDROOT
BRANCH   1   2
ATOM      2  C   UNL     1      46.411  -6.060  26.095  1.00  0.00     0.053 C 
BRANCH   2   3
ATOM      3  C   UNL     1      47.454  -4.986  26.067  1.00  0.00     0.041 C 
ATOM      4  O   UNL     1      48.617  -5.243  25.659  1.00  0.00    -0.550 OA
ATOM      5  O   UNL     1      47.132  -3.693  26.459  1.00  0.00    -0.550 OA
ENDBRANCH   2   3
ENDBRANCH   1   2
BRANCH   1   6
ATOM      6  C   UNL     1      45.837  -7.481  24.014  1.00  0.00     0.000 C 
BRANCH   6   7
ATOM      7  C   UNL     1      46.581  -7.655  22.682  1.00  0.00    -0.000 C 
BRANCH   7   8
ATOM      8  C   UNL     1      48.077  -7.362  22.847  1.00  0.00    -0.003 C 
ATOM      9  C   UNL     1      48.877  -7.894  21.660  1.00  0.00     0.004 C 
ENDBRANCH   7   8
ENDBRANCH   6   7
ENDBRANCH   1   6
TORSDOF 5
ENDMDL
MODEL 4
REMARK VINA RESULT:    -4.307      2.871      4.756
REMARK INTER + INTRA:          -5.831
REMARK INTER:                  -5.473
REMARK INTRA:                  -0.358
REMARK UNBOUND:                -0.265
REMARK SMILES CCCCCCC(=O)[O-]
REMARK SMILES IDX 5 1 6 2 7 3 8 4 9 5 4 6 3 7 2 8 1 9
REMARK H PARENT
REMARK Flexibility Score: inf
ROOT
ATOM      1  C   UNL     1      46.631  -7.366  24.100  1.00  0.00     0.006 C 
ENDROOT
BRANCH   1   2
ATOM      2  C   UNL     1      47.884  -7.206  24.975  1.00  0.00     0.053 C 
BRANCH   2   3
ATOM      3  C   UNL     1      48.485  -5.840  24.853  1.00  0.00     0.041 C 
ATOM      4  O   UNL     1      48.956  -5.261  25.867  1.00  0.00    -0.550 OA
ATOM      5  O   UNL     1      48.556  -5.220  23.611  1.00  0.00    -0.550 OA
ENDBRANCH   2   3
ENDBRANCH   1   2
BRANCH   1   6
ATOM      6  C   UNL     1      45.347  -7.690  24.885  1.00  0.00     0.000 C 
BRANCH   6   7
ATOM      7  C   UNL     1      45.560  -7.674  26.406  1.00  0.00    -0.000 C 
BRANCH   7   8
ATOM      8  C   UNL     1      44.790  -6.518  27.055  1.00  0.00    -0.003 C 
ATOM      9  C   UNL     1      45.737  -5.414  27.517  1.00  0.00     0.004 C 
ENDBRANCH   7   8
ENDBRANCH   6   7
ENDBRANCH   1   6
TORSDOF 5
ENDMDL
MODEL 5
REMARK VINA RESULT:    -4.299      2.255      2.912
REMARK INTER + INTRA:          -5.821
REMARK INTER:                  -5.657
REMARK INTRA:                  -0.164
REMARK UNBOUND:                -0.265
REMARK SMILES CCCCCCC(=O)[O-]
REMARK SMILES IDX 5 1 6 2 7 3 8 4 9 5 4 6 3 7 2 8 1 9
REMARK H PARENT
REMARK Flexibility Score: inf
ROOT
ATOM      1  C   UNL     1      45.434  -7.416  25.653  1.00  0.00     0.006 C 
ENDROOT
BRANCH   1   2
ATOM      2  C   UNL     1      44.672  -6.124  25.990  1.00  0.00     0.053 C 
BRANCH   2   3
ATOM      3  C   UNL     1      45.570  -5.077  26.572  1.00  0.00     0.041 C 
ATOM      4  O   UNL     1      45.380  -4.659  27.744  1.00  0.00    -0.550 OA
ATOM      5  O   UNL     1      46.639  -4.588  25.831  1.00  0.00    -0.550 OA
ENDBRANCH   2   3
ENDBRANCH   1   2
BRANCH   1   6
ATOM      6  C   UNL     1      45.599  -7.679  24.145  1.00  0.00     0.000 C 
BRANCH   6   7
ATOM      7  C   UNL     1      47.014  -7.367  23.638  1.00  0.00    -0.000 C 
BRANCH   7   8
ATOM      8  C   UNL     1      47.190  -7.828  22.186  1.00  0.00    -0.003 C 
ATOM      9  C   UNL     1      48.665  -7.879  21.797  1.00  0.00     0.004 C 
ENDBRANCH   7   8
ENDBRANCH   6   7
ENDBRANCH   1   6
TORSDOF 5
ENDMDL
MODEL 6
REMARK VINA RESULT:    -4.289      1.981      2.615
REMARK INTER + INTRA:          -5.808
REMARK INTER:                  -5.569
REMARK INTRA:                  -0.239
REMARK UNBOUND:                -0.265
REMARK SMILES CCCCCCC(=O)[O-]
REMARK SMILES IDX 5 1 6 2 7 3 8 4 9 5 4 6 3 7 2 8 1 9
REMARK H PARENT
REMARK Flexibility Score: inf
ROOT
ATOM      1  C   UNL     1      45.489  -7.961  25.470  1.00  0.00     0.006 C 
ENDROOT
BRANCH   1   2
ATOM      2  C   UNL     1      45.464  -7.140  26.769  1.00  0.00     0.053 C 
BRANCH   2   3
ATOM      3  C   UNL     1      44.940  -5.755  26.549  1.00  0.00     0.041 C 
ATOM      4  O   UNL     1      43.702  -5.556  26.434  1.00  0.00    -0.550 OA
ATOM      5  O   UNL     1      45.817  -4.678  26.505  1.00  0.00    -0.550 OA
ENDBRANCH   2   3
ENDBRANCH   1   2
BRANCH   1   6
ATOM      6  C   UNL     1      46.362  -7.355  24.355  1.00  0.00     0.000 C 
BRANCH   6   7
ATOM      7  C   UNL     1      47.855  -7.337  24.712  1.00  0.00    -0.000 C 
BRANCH   7   8
ATOM      8  C   UNL     1      48.722  -7.367  23.448  1.00  0.00    -0.003 C 
ATOM      9  C   UNL     1      47.874  -7.613  22.203  1.00  0.00     0.004 C 
ENDBRANCH   7   8
ENDBRANCH   6   7
ENDBRANCH   1   6
TORSDOF 5
ENDMDL
MODEL 7
REMARK VINA RESULT:    -4.287      2.377      3.235
REMARK INTER + INTRA:          -5.805
REMARK INTER:                  -5.456
REMARK INTRA:                  -0.349
REMARK UNBOUND:                -0.265
REMARK SMILES CCCCCCC(=O)[O-]
REMARK SMILES IDX 5 1 6 2 7 3 8 4 9 5 4 6 3 7 2 8 1 9
REMARK H PARENT
REMARK Flexibility Score: inf
ROOT
ATOM      1  C   UNL     1      46.569  -7.362  25.445  1.00  0.00     0.006 C 
ENDROOT
BRANCH   1   2
ATOM      2  C   UNL     1      45.556  -6.249  25.758  1.00  0.00     0.053 C 
BRANCH   2   3
ATOM      3  C   UNL     1      46.206  -5.060  26.394  1.00  0.00     0.041 C 
ATOM      4  O   UNL     1      45.776  -4.613  27.490  1.00  0.00    -0.550 OA
ATOM      5  O   UNL     1      47.309  -4.465  25.795  1.00  0.00    -0.550 OA
ENDBRANCH   2   3
ENDBRANCH   1   2
BRANCH   1   6
ATOM      6  C   UNL     1      47.054  -7.384  23.983  1.00  0.00     0.000 C 
BRANCH   6   7
ATOM      7  C   UNL     1      48.582  -7.296  23.861  1.00  0.00    -0.000 C 
BRANCH   7   8
ATOM      8  C   UNL     1      49.250  -7.412  25.236  1.00  0.00    -0.003 C 
ATOM      9  C   UNL     1      50.378  -6.395  25.390  1.00  0.00     0.004 C 
ENDBRANCH   7   8
ENDBRANCH   6   7
ENDBRANCH   1   6
TORSDOF 5
ENDMDL
MODEL 8
REMARK VINA RESULT:    -4.197      2.755      3.196
REMARK INTER + INTRA:          -5.689
REMARK INTER:                  -5.438
REMARK INTRA:                  -0.251
REMARK UNBOUND:                -0.265
REMARK SMILES CCCCCCC(=O)[O-]
REMARK SMILES IDX 5 1 6 2 7 3 8 4 9 5 4 6 3 7 2 8 1 9
REMARK H PARENT
REMARK Flexibility Score: inf
ROOT
ATOM      1  C   UNL     1      47.348  -7.086  25.258  1.00  0.00     0.006 C 
ENDROOT
BRANCH   1   2
ATOM      2  C   UNL     1      48.782  -7.638  25.235  1.00  0.00     0.053 C 
BRANCH   2   3
ATOM      3  C   UNL     1      49.805  -6.549  25.323  1.00  0.00     0.041 C 
ATOM      4  O   UNL     1      50.987  -6.757  24.940  1.00  0.00    -0.550 OA
ATOM      5  O   UNL     1      49.446  -5.293  25.794  1.00  0.00    -0.550 OA
ENDBRANCH   2   3
ENDBRANCH   1   2
BRANCH   1   6
ATOM      6  C   UNL     1      46.549  -7.346  23.967  1.00  0.00     0.000 C 
BRANCH   6   7
ATOM      7  C   UNL     1      47.289  -6.882  22.705  1.00  0.00    -0.000 C 
BRANCH   7   8
ATOM      8  C   UNL     1      47.707  -8.079  21.842  1.00  0.00    -0.003 C 
ATOM      9  C   UNL     1      49.168  -7.969  21.416  1.00  0.00     0.004 C 
ENDBRANCH   7   8
ENDBRANCH   6   7
ENDBRANCH   1   6
TORSDOF 5
ENDMDL
MODEL 9
REMARK VINA RESULT:    -4.162      2.514      4.566
REMARK INTER + INTRA:          -5.644
REMARK INTER:                  -5.257
REMARK INTRA:                  -0.387
REMARK UNBOUND:                -0.265
REMARK SMILES CCCCCCC(=O)[O-]
REMARK SMILES IDX 5 1 6 2 7 3 8 4 9 5 4 6 3 7 2 8 1 9
REMARK H PARENT
REMARK Flexibility Score: inf
ROOT
ATOM      1  C   UNL     1      45.851  -7.368  24.582  1.00  0.00     0.006 C 
ENDROOT
BRANCH   1   2
ATOM      2  C   UNL     1      47.219  -7.378  23.880  1.00  0.00     0.053 C 
BRANCH   2   3
ATOM      3  C   UNL     1      48.289  -6.760  24.725  1.00  0.00     0.041 C 
ATOM      4  O   UNL     1      48.314  -5.514  24.905  1.00  0.00    -0.550 OA
ATOM      5  O   UNL     1      49.240  -7.563  25.342  1.00  0.00    -0.550 OA
ENDBRANCH   2   3
ENDBRANCH   1   2
BRANCH   1   6
ATOM      6  C   UNL     1      45.896  -7.794  26.061  1.00  0.00     0.000 C 
BRANCH   6   7
ATOM      7  C   UNL     1      45.078  -6.868  26.973  1.00  0.00    -0.000 C 
BRANCH   7   8
ATOM      8  C   UNL     1      44.998  -5.453  26.388  1.00  0.00    -0.003 C 
ATOM      9  C   UNL     1      45.853  -4.475  27.189  1.00  0.00     0.004 C 
ENDBRANCH   7   8
ENDBRANCH   6   7
ENDBRANCH   1   6
TORSDOF 5
ENDMDL
