MODEL 1
REMARK VINA RESULT:    -3.875      0.000      0.000
REMARK INTER + INTRA:          -6.756
REMARK INTER:                  -5.573
REMARK INTRA:                  -1.182
REMARK UNBOUND:                -1.182
REMARK SMILES O=C(CO)[C@@H](O)[C@H](O)[C@@H](O)CO
REMARK SMILES IDX 7 1 9 2 11 3 12 4 10 6 5 8 2 9 1 10 3 11 4 12 6 14 8 16
REMARK H PARENT 12 5 10 7 4 13 6 15 8 17
REMARK Flexibility Score: inf
ROOT
ATOM      1  C   UNL     1       4.571  -8.011   6.685  1.00  0.00     0.181 C 
ENDROOT
BRANCH   1   2
ATOM      2  C   UNL     1       3.343  -7.119   7.027  1.00  0.00     0.171 C 
BRANCH   2   3
ATOM      3  C   UNL     1       2.263  -7.872   7.826  1.00  0.00     0.190 C 
BRANCH   3   4
ATOM      4  O   UNL     1       1.654  -8.868   7.049  1.00  0.00    -0.394 OA
ATOM      5  H   UNL     1       0.752  -8.531   6.807  1.00  0.00     0.210 HD
ENDBRANCH   3   4
ENDBRANCH   2   3
BRANCH   2   6
ATOM      6  O   UNL     1       2.759  -6.666   5.830  1.00  0.00    -0.388 OA
ATOM      7  H   UNL     1       2.391  -7.461   5.363  1.00  0.00     0.211 HD
ENDBRANCH   2   6
ENDBRANCH   1   2
BRANCH   1   8
ATOM      8  C   UNL     1       4.654  -8.432   5.190  1.00  0.00     0.214 C 
BRANCH   8   9
ATOM      9  C   UNL     1       5.870  -9.301   4.924  1.00  0.00     0.189 C 
ATOM     10  O   UNL     1       6.743  -9.371   5.777  1.00  0.00    -0.294 OA
BRANCH   9  11
ATOM     11  C   UNL     1       6.054 -10.053   3.634  1.00  0.00     0.234 C 
BRANCH  11  12
ATOM     12  O   UNL     1       5.562  -9.288   2.570  1.00  0.00    -0.388 OA
ATOM     13  H   UNL     1       4.646  -9.625   2.390  1.00  0.00     0.211 HD
ENDBRANCH  11  12
ENDBRANCH   9  11
ENDBRANCH   8   9
BRANCH   8  14
ATOM     14  O   UNL     1       3.465  -9.038   4.744  1.00  0.00    -0.382 OA
ATOM     15  H   UNL     1       3.481  -9.063   3.754  1.00  0.00     0.211 HD
ENDBRANCH   8  14
ENDBRANCH   1   8
BRANCH   1  16
ATOM     16  O   UNL     1       4.614  -9.142   7.524  1.00  0.00    -0.387 OA
ATOM     17  H   UNL     1       5.158  -9.839   7.074  1.00  0.00     0.211 HD
ENDBRANCH   1  16
TORSDOF 10
ENDMDL
MODEL 2
REMARK VINA RESULT:    -3.831     18.329     19.827
REMARK INTER + INTRA:          -6.694
REMARK INTER:                  -5.777
REMARK INTRA:                  -0.917
REMARK UNBOUND:                -1.182
REMARK SMILES O=C(CO)[C@@H](O)[C@H](O)[C@@H](O)CO
REMARK SMILES IDX 7 1 9 2 11 3 12 4 10 6 5 8 2 9 1 10 3 11 4 12 6 14 8 16
REMARK H PARENT 12 5 10 7 4 13 6 15 8 17
REMARK Flexibility Score: inf
ROOT
ATOM      1  C   UNL     1       7.827   3.881  -8.314  1.00  0.00     0.181 C 
ENDROOT
BRANCH   1   2
ATOM      2  C   UNL     1       9.248   3.255  -8.420  1.00  0.00     0.171 C 
BRANCH   2   3
ATOM      3  C   UNL     1       9.231   1.836  -9.018  1.00  0.00     0.190 C 
BRANCH   3   4
ATOM      4  O   UNL     1       8.306   1.014  -8.358  1.00  0.00    -0.394 OA
ATOM      5  H   UNL     1       7.991   0.346  -9.022  1.00  0.00     0.210 HD
ENDBRANCH   3   4
ENDBRANCH   2   3
BRANCH   2   6
ATOM      6  O   UNL     1       9.810   3.175  -7.134  1.00  0.00    -0.388 OA
ATOM      7  H   UNL     1       9.855   4.099  -6.774  1.00  0.00     0.211 HD
ENDBRANCH   2   6
ENDBRANCH   1   2
BRANCH   1   8
ATOM      8  C   UNL     1       7.822   5.434  -8.233  1.00  0.00     0.214 C 
BRANCH   8   9
ATOM      9  C   UNL     1       6.466   6.005  -8.609  1.00  0.00     0.189 C 
ATOM     10  O   UNL     1       5.610   5.252  -9.048  1.00  0.00    -0.294 OA
BRANCH   9  11
ATOM     11  C   UNL     1       6.151   7.472  -8.491  1.00  0.00     0.234 C 
BRANCH  11  12
ATOM     12  O   UNL     1       5.913   7.795  -7.150  1.00  0.00    -0.388 OA
ATOM     13  H   UNL     1       5.060   8.301  -7.137  1.00  0.00     0.211 HD
ENDBRANCH  11  12
ENDBRANCH   9  11
ENDBRANCH   8   9
BRANCH   8  14
ATOM     14  O   UNL     1       8.261   5.900  -6.979  1.00  0.00    -0.382 OA
ATOM     15  H   UNL     1       8.986   6.558  -7.129  1.00  0.00     0.211 HD
ENDBRANCH   8  14
ENDBRANCH   1   8
BRANCH   1  16
ATOM     16  O   UNL     1       7.117   3.323  -7.232  1.00  0.00    -0.387 OA
ATOM     17  H   UNL     1       7.530   2.448  -7.012  1.00  0.00     0.211 HD
ENDBRANCH   1  16
TORSDOF 10
ENDMDL
MODEL 3
REMARK VINA RESULT:    -3.759      1.751      4.498
REMARK INTER + INTRA:          -6.589
REMARK INTER:                  -5.247
REMARK INTRA:                  -1.342
REMARK UNBOUND:                -1.182
REMARK SMILES O=C(CO)[C@@H](O)[C@H](O)[C@@H](O)CO
REMARK SMILES IDX 7 1 9 2 11 3 12 4 10 6 5 8 2 9 1 10 3 11 4 12 6 14 8 16
REMARK H PARENT 12 5 10 7 4 13 6 15 8 17
REMARK Flexibility Score: inf
ROOT
ATOM      1  C   UNL     1       3.165  -8.902   6.543  1.00  0.00     0.181 C 
ENDROOT
BRANCH   1   2
ATOM      2  C   UNL     1       4.009  -8.410   5.331  1.00  0.00     0.171 C 
BRANCH   2   3
ATOM      3  C   UNL     1       5.226  -9.311   5.049  1.00  0.00     0.190 C 
BRANCH   3   4
ATOM      4  O   UNL     1       6.253  -9.090   5.977  1.00  0.00    -0.394 OA
ATOM      5  H   UNL     1       5.820  -8.769   6.812  1.00  0.00     0.210 HD
ENDBRANCH   3   4
ENDBRANCH   2   3
BRANCH   2   6
ATOM      6  O   UNL     1       4.483  -7.114   5.600  1.00  0.00    -0.388 OA
ATOM      7  H   UNL     1       5.469  -7.175   5.697  1.00  0.00     0.211 HD
ENDBRANCH   2   6
ENDBRANCH   1   2
BRANCH   1   8
ATOM      8  C   UNL     1       1.682  -8.434   6.515  1.00  0.00     0.214 C 
BRANCH   8   9
ATOM      9  C   UNL     1       1.343  -7.588   7.730  1.00  0.00     0.189 C 
ATOM     10  O   UNL     1       1.045  -8.149   8.774  1.00  0.00    -0.294 OA
BRANCH   9  11
ATOM     11  C   UNL     1       1.329  -6.084   7.684  1.00  0.00     0.234 C 
BRANCH  11  12
ATOM     12  O   UNL     1       2.562  -5.616   7.216  1.00  0.00    -0.388 OA
ATOM     13  H   UNL     1       2.418  -5.362   6.269  1.00  0.00     0.211 HD
ENDBRANCH  11  12
ENDBRANCH   9  11
ENDBRANCH   8   9
BRANCH   8  14
ATOM     14  O   UNL     1       1.355  -7.780   5.311  1.00  0.00    -0.382 OA
ATOM     15  H   UNL     1       0.442  -8.056   5.045  1.00  0.00     0.211 HD
ENDBRANCH   8  14
ENDBRANCH   1   8
BRANCH   1  16
ATOM     16  O   UNL     1       3.779  -8.540   7.758  1.00  0.00    -0.387 OA
ATOM     17  H   UNL     1       3.314  -7.737   8.110  1.00  0.00     0.211 HD
ENDBRANCH   1  16
TORSDOF 10
ENDMDL
MODEL 4
REMARK VINA RESULT:    -3.736      1.411      2.575
REMARK INTER + INTRA:          -6.556
REMARK INTER:                  -5.446
REMARK INTRA:                  -1.111
REMARK UNBOUND:                -1.182
REMARK SMILES O=C(CO)[C@@H](O)[C@H](O)[C@@H](O)CO
REMARK SMILES IDX 7 1 9 2 11 3 12 4 10 6 5 8 2 9 1 10 3 11 4 12 6 14 8 16
REMARK H PARENT 12 5 10 7 4 13 6 15 8 17
REMARK Flexibility Score: inf
ROOT
ATOM      1  C   UNL     1       2.700  -8.433   6.167  1.00  0.00     0.181 C 
ENDROOT
BRANCH   1   2
ATOM      2  C   UNL     1       2.069  -7.956   7.507  1.00  0.00     0.171 C 
BRANCH   2   3
ATOM      3  C   UNL     1       1.419  -6.564   7.397  1.00  0.00     0.190 C 
BRANCH   3   4
ATOM      4  O   UNL     1       2.377  -5.569   7.154  1.00  0.00    -0.394 OA
ATOM      5  H   UNL     1       1.891  -4.703   7.130  1.00  0.00     0.210 HD
ENDBRANCH   3   4
ENDBRANCH   2   3
BRANCH   2   6
ATOM      6  O   UNL     1       3.075  -7.887   8.488  1.00  0.00    -0.388 OA
ATOM      7  H   UNL     1       3.819  -7.352   8.108  1.00  0.00     0.211 HD
ENDBRANCH   2   6
ENDBRANCH   1   2
BRANCH   1   8
ATOM      8  C   UNL     1       4.248  -8.296   6.110  1.00  0.00     0.214 C 
BRANCH   8   9
ATOM      9  C   UNL     1       4.839  -9.138   4.993  1.00  0.00     0.189 C 
ATOM     10  O   UNL     1       4.254  -9.192   3.922  1.00  0.00    -0.294 OA
BRANCH   9  11
ATOM     11  C   UNL     1       6.102  -9.937   5.172  1.00  0.00     0.234 C 
BRANCH  11  12
ATOM     12  O   UNL     1       6.904  -9.336   6.149  1.00  0.00    -0.388 OA
ATOM     13  H   UNL     1       6.802  -9.887   6.967  1.00  0.00     0.211 HD
ENDBRANCH  11  12
ENDBRANCH   9  11
ENDBRANCH   8   9
BRANCH   8  14
ATOM     14  O   UNL     1       4.658  -6.951   6.029  1.00  0.00    -0.382 OA
ATOM     15  H   UNL     1       4.534  -6.643   5.095  1.00  0.00     0.211 HD
ENDBRANCH   8  14
ENDBRANCH   1   8
BRANCH   1  16
ATOM     16  O   UNL     1       2.101  -7.777   5.073  1.00  0.00    -0.387 OA
ATOM     17  H   UNL     1       1.686  -8.466   4.492  1.00  0.00     0.211 HD
ENDBRANCH   1  16
TORSDOF 10
ENDMDL
MODEL 5
REMARK VINA RESULT:    -3.730     18.526     19.687
REMARK INTER + INTRA:          -6.547
REMARK INTER:                  -5.605
REMARK INTRA:                  -0.942
REMARK UNBOUND:                -1.182
REMARK SMILES O=C(CO)[C@@H](O)[C@H](O)[C@@H](O)CO
REMARK SMILES IDX 7 1 9 2 11 3 12 4 10 6 5 8 2 9 1 10 3 11 4 12 6 14 8 16
REMARK H PARENT 12 5 10 7 4 13 6 15 8 17
REMARK Flexibility Score: inf
ROOT
ATOM      1  C   UNL     1       8.053   5.496  -8.387  1.00  0.00     0.181 C 
ENDROOT
BRANCH   1   2
ATOM      2  C   UNL     1       6.921   6.262  -9.131  1.00  0.00     0.171 C 
BRANCH   2   3
ATOM      3  C   UNL     1       6.604   7.627  -8.492  1.00  0.00     0.190 C 
BRANCH   3   4
ATOM      4  O   UNL     1       5.593   7.517  -7.527  1.00  0.00    -0.394 OA
ATOM      5  H   UNL     1       4.735   7.436  -8.019  1.00  0.00     0.210 HD
ENDBRANCH   3   4
ENDBRANCH   2   3
BRANCH   2   6
ATOM      6  O   UNL     1       5.748   5.487  -9.100  1.00  0.00    -0.388 OA
ATOM      7  H   UNL     1       4.981   6.109  -9.202  1.00  0.00     0.211 HD
ENDBRANCH   2   6
ENDBRANCH   1   2
BRANCH   1   8
ATOM      8  C   UNL     1       7.856   3.954  -8.346  1.00  0.00     0.214 C 
BRANCH   8   9
ATOM      9  C   UNL     1       9.186   3.226  -8.257  1.00  0.00     0.189 C 
ATOM     10  O   UNL     1      10.121   3.774  -7.691  1.00  0.00    -0.294 OA
BRANCH   9  11
ATOM     11  C   UNL     1       9.403   1.870  -8.872  1.00  0.00     0.234 C 
BRANCH  11  12
ATOM     12  O   UNL     1       8.321   1.037  -8.564  1.00  0.00    -0.388 OA
ATOM     13  H   UNL     1       8.452   0.752  -7.623  1.00  0.00     0.211 HD
ENDBRANCH  11  12
ENDBRANCH   9  11
ENDBRANCH   8   9
BRANCH   8  14
ATOM     14  O   UNL     1       6.970   3.559  -7.325  1.00  0.00    -0.382 OA
ATOM     15  H   UNL     1       7.458   3.585  -6.463  1.00  0.00     0.211 HD
ENDBRANCH   8  14
ENDBRANCH   1   8
BRANCH   1  16
ATOM     16  O   UNL     1       8.230   6.010  -7.087  1.00  0.00    -0.387 OA
ATOM     17  H   UNL     1       8.763   5.354  -6.567  1.00  0.00     0.211 HD
ENDBRANCH   1  16
TORSDOF 10
ENDMDL
MODEL 6
REMARK VINA RESULT:    -3.721      1.028      1.508
REMARK INTER + INTRA:          -6.534
REMARK INTER:                  -5.783
REMARK INTRA:                  -0.751
REMARK UNBOUND:                -1.182
REMARK SMILES O=C(CO)[C@@H](O)[C@H](O)[C@@H](O)CO
REMARK SMILES IDX 7 1 9 2 11 3 12 4 10 6 5 8 2 9 1 10 3 11 4 12 6 14 8 16
REMARK H PARENT 12 5 10 7 4 13 6 15 8 17
REMARK Flexibility Score: inf
ROOT
ATOM      1  C   UNL     1       3.985  -7.804   6.472  1.00  0.00     0.181 C 
ENDROOT
BRANCH   1   2
ATOM      2  C   UNL     1       2.614  -7.075   6.586  1.00  0.00     0.171 C 
BRANCH   2   3
ATOM      3  C   UNL     1       2.545  -6.122   7.794  1.00  0.00     0.190 C 
BRANCH   3   4
ATOM      4  O   UNL     1       3.709  -5.347   7.901  1.00  0.00    -0.394 OA
ATOM      5  H   UNL     1       3.479  -4.562   8.464  1.00  0.00     0.210 HD
ENDBRANCH   3   4
ENDBRANCH   2   3
BRANCH   2   6
ATOM      6  O   UNL     1       1.597  -8.035   6.734  1.00  0.00    -0.388 OA
ATOM      7  H   UNL     1       1.546  -8.264   7.698  1.00  0.00     0.211 HD
ENDBRANCH   2   6
ENDBRANCH   1   2
BRANCH   1   8
ATOM      8  C   UNL     1       4.390  -8.169   5.016  1.00  0.00     0.214 C 
BRANCH   8   9
ATOM      9  C   UNL     1       5.545  -9.154   4.991  1.00  0.00     0.189 C 
ATOM     10  O   UNL     1       6.344  -9.149   5.916  1.00  0.00    -0.294 OA
BRANCH   9  11
ATOM     11  C   UNL     1       5.760 -10.112   3.851  1.00  0.00     0.234 C 
BRANCH  11  12
ATOM     12  O   UNL     1       5.695  -9.419   2.636  1.00  0.00    -0.388 OA
ATOM     13  H   UNL     1       6.395  -9.815   2.056  1.00  0.00     0.211 HD
ENDBRANCH  11  12
ENDBRANCH   9  11
ENDBRANCH   8   9
BRANCH   8  14
ATOM     14  O   UNL     1       3.293  -8.625   4.259  1.00  0.00    -0.382 OA
ATOM     15  H   UNL     1       3.582  -9.416   3.737  1.00  0.00     0.211 HD
ENDBRANCH   8  14
ENDBRANCH   1   8
BRANCH   1  16
ATOM     16  O   UNL     1       4.013  -8.945   7.298  1.00  0.00    -0.387 OA
ATOM     17  H   UNL     1       3.076  -9.222   7.471  1.00  0.00     0.211 HD
ENDBRANCH   1  16
TORSDOF 10
ENDMDL
MODEL 7
REMARK VINA RESULT:    -3.694      1.149      4.474
REMARK INTER + INTRA:          -6.496
REMARK INTER:                  -5.702
REMARK INTRA:                  -0.794
REMARK UNBOUND:                -1.182
REMARK SMILES O=C(CO)[C@@H](O)[C@H](O)[C@@H](O)CO
REMARK SMILES IDX 7 1 9 2 11 3 12 4 10 6 5 8 2 9 1 10 3 11 4 12 6 14 8 16
REMARK H PARENT 12 5 10 7 4 13 6 15 8 17
REMARK Flexibility Score: inf
ROOT
ATOM      1  C   UNL     1       4.054  -8.886   6.188  1.00  0.00     0.181 C 
ENDROOT
BRANCH   1   2
ATOM      2  C   UNL     1       5.173  -8.745   5.116  1.00  0.00     0.171 C 
BRANCH   2   3
ATOM      3  C   UNL     1       5.037  -9.768   3.974  1.00  0.00     0.190 C 
BRANCH   3   4
ATOM      4  O   UNL     1       5.464  -9.231   2.752  1.00  0.00    -0.394 OA
ATOM      5  H   UNL     1       4.658  -9.152   2.176  1.00  0.00     0.210 HD
ENDBRANCH   3   4
ENDBRANCH   2   3
BRANCH   2   6
ATOM      6  O   UNL     1       6.422  -8.945   5.730  1.00  0.00    -0.388 OA
ATOM      7  H   UNL     1       6.278  -9.553   6.500  1.00  0.00     0.211 HD
ENDBRANCH   2   6
ENDBRANCH   1   2
BRANCH   1   8
ATOM      8  C   UNL     1       2.749  -8.110   5.850  1.00  0.00     0.214 C 
BRANCH   8   9
ATOM      9  C   UNL     1       2.076  -7.581   7.104  1.00  0.00     0.189 C 
ATOM     10  O   UNL     1       1.514  -8.370   7.848  1.00  0.00    -0.294 OA
BRANCH   9  11
ATOM     11  C   UNL     1       2.047  -6.115   7.443  1.00  0.00     0.234 C 
BRANCH  11  12
ATOM     12  O   UNL     1       3.349  -5.602   7.421  1.00  0.00    -0.388 OA
ATOM     13  H   UNL     1       3.345  -4.818   8.028  1.00  0.00     0.211 HD
ENDBRANCH  11  12
ENDBRANCH   9  11
ENDBRANCH   8   9
BRANCH   8  14
ATOM     14  O   UNL     1       2.969  -7.093   4.900  1.00  0.00    -0.382 OA
ATOM     15  H   UNL     1       3.937  -6.885   4.886  1.00  0.00     0.211 HD
ENDBRANCH   8  14
ENDBRANCH   1   8
BRANCH   1  16
ATOM     16  O   UNL     1       4.535  -8.521   7.461  1.00  0.00    -0.387 OA
ATOM     17  H   UNL     1       5.239  -7.832   7.338  1.00  0.00     0.211 HD
ENDBRANCH   1  16
TORSDOF 10
ENDMDL
MODEL 8
REMARK VINA RESULT:    -3.601     21.124     22.276
REMARK INTER + INTRA:          -6.363
REMARK INTER:                  -4.996
REMARK INTRA:                  -1.367
REMARK UNBOUND:                -1.182
REMARK SMILES O=C(CO)[C@@H](O)[C@H](O)[C@@H](O)CO
REMARK SMILES IDX 7 1 9 2 11 3 12 4 10 6 5 8 2 9 1 10 3 11 4 12 6 14 8 16
REMARK H PARENT 12 5 10 7 4 13 6 15 8 17
REMARK Flexibility Score: inf
ROOT
ATOM      1  C   UNL     1      -0.794   6.335  -8.507  1.00  0.00     0.181 C 
ENDROOT
BRANCH   1   2
ATOM      2  C   UNL     1      -2.120   5.653  -8.061  1.00  0.00     0.171 C 
BRANCH   2   3
ATOM      3  C   UNL     1      -2.176   4.159  -8.432  1.00  0.00     0.190 C 
BRANCH   3   4
ATOM      4  O   UNL     1      -1.857   3.956  -9.782  1.00  0.00    -0.394 OA
ATOM      5  H   UNL     1      -0.892   4.167  -9.884  1.00  0.00     0.210 HD
ENDBRANCH   3   4
ENDBRANCH   2   3
BRANCH   2   6
ATOM      6  O   UNL     1      -3.200   6.296  -8.690  1.00  0.00    -0.388 OA
ATOM      7  H   UNL     1      -3.329   5.860  -9.572  1.00  0.00     0.211 HD
ENDBRANCH   2   6
ENDBRANCH   1   2
BRANCH   1   8
ATOM      8  C   UNL     1      -0.444   7.624  -7.711  1.00  0.00     0.214 C 
BRANCH   8   9
ATOM      9  C   UNL     1      -0.346   8.832  -8.626  1.00  0.00     0.189 C 
ATOM     10  O   UNL     1       0.700   9.035  -9.224  1.00  0.00    -0.294 OA
BRANCH   9  11
ATOM     11  C   UNL     1      -1.479   9.808  -8.793  1.00  0.00     0.234 C 
BRANCH  11  12
ATOM     12  O   UNL     1      -2.673   9.109  -9.005  1.00  0.00    -0.388 OA
ATOM     13  H   UNL     1      -3.402   9.775  -8.912  1.00  0.00     0.211 HD
ENDBRANCH  11  12
ENDBRANCH   9  11
ENDBRANCH   8   9
BRANCH   8  14
ATOM     14  O   UNL     1      -1.333   7.844  -6.641  1.00  0.00    -0.382 OA
ATOM     15  H   UNL     1      -1.279   8.798  -6.383  1.00  0.00     0.211 HD
ENDBRANCH   8  14
ENDBRANCH   1   8
BRANCH   1  16
ATOM     16  O   UNL     1      -0.809   6.593  -9.893  1.00  0.00    -0.387 OA
ATOM     17  H   UNL     1      -1.159   7.511 -10.030  1.00  0.00     0.211 HD
ENDBRANCH   1  16
TORSDOF 10
ENDMDL
MODEL 9
REMARK VINA RESULT:    -3.534      1.658      4.781
REMARK INTER + INTRA:          -6.266
REMARK INTER:                  -5.053
REMARK INTRA:                  -1.213
REMARK UNBOUND:                -1.182
REMARK SMILES O=C(CO)[C@@H](O)[C@H](O)[C@@H](O)CO
REMARK SMILES IDX 7 1 9 2 11 3 12 4 10 6 5 8 2 9 1 10 3 11 4 12 6 14 8 16
REMARK H PARENT 12 5 10 7 4 13 6 15 8 17
REMARK Flexibility Score: inf
ROOT
ATOM      1  C   UNL     1       3.909  -7.992   6.685  1.00  0.00     0.181 C 
ENDROOT
BRANCH   1   2
ATOM      2  C   UNL     1       3.538  -8.855   5.445  1.00  0.00     0.171 C 
BRANCH   2   3
ATOM      3  C   UNL     1       4.703  -8.998   4.447  1.00  0.00     0.190 C 
BRANCH   3   4
ATOM      4  O   UNL     1       5.909  -8.548   5.003  1.00  0.00    -0.394 OA
ATOM      5  H   UNL     1       6.513  -8.335   4.243  1.00  0.00     0.210 HD
ENDBRANCH   3   4
ENDBRANCH   2   3
BRANCH   2   6
ATOM      6  O   UNL     1       2.463  -8.250   4.771  1.00  0.00    -0.388 OA
ATOM      7  H   UNL     1       1.901  -8.978   4.398  1.00  0.00     0.211 HD
ENDBRANCH   2   6
ENDBRANCH   1   2
BRANCH   1   8
ATOM      8  C   UNL     1       2.870  -8.059   7.840  1.00  0.00     0.214 C 
BRANCH   8   9
ATOM      9  C   UNL     1       2.061  -6.777   7.935  1.00  0.00     0.189 C 
ATOM     10  O   UNL     1       1.270  -6.512   7.042  1.00  0.00    -0.294 OA
BRANCH   9  11
ATOM     11  C   UNL     1       2.225  -5.806   9.072  1.00  0.00     0.234 C 
BRANCH  11  12
ATOM     12  O   UNL     1       3.436  -5.117   8.931  1.00  0.00    -0.388 OA
ATOM     13  H   UNL     1       4.147  -5.809   8.925  1.00  0.00     0.211 HD
ENDBRANCH  11  12
ENDBRANCH   9  11
ENDBRANCH   8   9
BRANCH   8  14
ATOM     14  O   UNL     1       2.045  -9.196   7.744  1.00  0.00    -0.382 OA
ATOM     15  H   UNL     1       1.139  -8.902   7.473  1.00  0.00     0.211 HD
ENDBRANCH   8  14
ENDBRANCH   1   8
BRANCH   1  16
ATOM     16  O   UNL     1       4.150  -6.656   6.308  1.00  0.00    -0.387 OA
ATOM     17  H   UNL     1       4.965  -6.345   6.782  1.00  0.00     0.211 HD
ENDBRANCH   1  16
TORSDOF 10
ENDMDL
