MODEL 1
REMARK VINA RESULT:    -5.143      0.000      0.000
REMARK INTER + INTRA:          -5.143
REMARK INTER:                  -5.143
REMARK INTRA:                   0.000
REMARK UNBOUND:                 0.000
REMARK SMILES CC1=CC[C@@]2(C)CCCC(C)(C)[C@@]23C[C@@H]13
REMARK SMILES IDX 1 1 2 2 3 3 4 4 5 5 7 6 8 7 9 8 10 9 13 10 15 11 14 12 11 13
REMARK SMILES IDX 12 14 6 15
REMARK H PARENT
REMARK Flexibility Score: inf
ROOT
ATOM      1  C   UNL     1     136.153 139.665 132.953  1.00  0.00     0.039 C 
ATOM      2  C   UNL     1     135.167 138.724 132.320  1.00  0.00    -0.074 C 
ATOM      3  C   UNL     1     133.970 138.526 132.914  1.00  0.00    -0.027 C 
ATOM      4  C   UNL     1     132.929 137.607 132.325  1.00  0.00     0.034 C 
ATOM      5  C   UNL     1     133.592 136.393 131.610  1.00  0.00    -0.022 C 
ATOM      6  C   UNL     1     132.496 135.586 130.873  1.00  0.00     0.008 C 
ATOM      7  C   UNL     1     133.059 134.445 130.008  1.00  0.00     0.001 C 
ATOM      8  C   UNL     1     134.087 134.940 128.979  1.00  0.00     0.007 C 
ATOM      9  C   UNL     1     135.269 135.757 129.576  1.00  0.00    -0.029 C 
ATOM     10  C   UNL     1     134.666 136.858 130.546  1.00  0.00    -0.012 C 
ATOM     11  C   UNL     1     135.546 138.024 131.024  1.00  0.00     0.022 C 
ATOM     12  C   UNL     1     134.524 138.272 129.917  1.00  0.00     0.017 C 
ATOM     13  C   UNL     1     136.069 136.323 128.366  1.00  0.00     0.012 C 
ATOM     14  C   UNL     1     136.249 134.827 130.337  1.00  0.00     0.012 C 
ATOM     15  C   UNL     1     134.238 135.524 132.734  1.00  0.00     0.012 C 
ENDROOT
TORSDOF 0
ENDMDL
MODEL 2
REMARK VINA RESULT:    -5.110      3.851      6.070
REMARK INTER + INTRA:          -5.110
REMARK INTER:                  -5.110
REMARK INTRA:                   0.000
REMARK UNBOUND:                 0.000
REMARK SMILES CC1=CC[C@@]2(C)CCCC(C)(C)[C@@]23C[C@@H]13
REMARK SMILES IDX 1 1 2 2 3 3 4 4 5 5 7 6 8 7 9 8 10 9 13 10 15 11 14 12 11 13
REMARK SMILES IDX 12 14 6 15
REMARK H PARENT
REMARK Flexibility Score: inf
ROOT
ATOM      1  C   UNL     1     137.479 134.001 132.819  1.00  0.00     0.039 C 
ATOM      2  C   UNL     1     138.488 134.951 132.238  1.00  0.00    -0.074 C 
ATOM      3  C   UNL     1     139.672 135.118 132.866  1.00  0.00    -0.027 C 
ATOM      4  C   UNL     1     140.735 136.046 132.330  1.00  0.00     0.034 C 
ATOM      5  C   UNL     1     140.100 137.288 131.639  1.00  0.00    -0.022 C 
ATOM      6  C   UNL     1     141.219 138.107 130.953  1.00  0.00     0.008 C 
ATOM      7  C   UNL     1     140.687 139.281 130.113  1.00  0.00     0.001 C 
ATOM      8  C   UNL     1     139.678 138.830 129.046  1.00  0.00     0.007 C 
ATOM      9  C   UNL     1     138.475 138.006 129.590  1.00  0.00    -0.029 C 
ATOM     10  C   UNL     1     139.047 136.868 130.538  1.00  0.00    -0.012 C 
ATOM     11  C   UNL     1     138.145 135.696 130.957  1.00  0.00     0.022 C 
ATOM     12  C   UNL     1     139.190 135.474 129.866  1.00  0.00     0.017 C 
ATOM     13  C   UNL     1     137.698 137.487 128.345  1.00  0.00     0.012 C 
ATOM     14  C   UNL     1     137.487 138.920 130.358  1.00  0.00     0.012 C 
ATOM     15  C   UNL     1     139.436 138.127 132.776  1.00  0.00     0.012 C 
ENDROOT
TORSDOF 0
ENDMDL
MODEL 3
REMARK VINA RESULT:    -5.102      2.312      4.341
REMARK INTER + INTRA:          -5.102
REMARK INTER:                  -5.102
REMARK INTRA:                   0.000
REMARK UNBOUND:                 0.000
REMARK SMILES CC1=CC[C@@]2(C)CCCC(C)(C)[C@@]23C[C@@H]13
REMARK SMILES IDX 1 1 2 2 3 3 4 4 5 5 7 6 8 7 9 8 10 9 13 10 15 11 14 12 11 13
REMARK SMILES IDX 12 14 6 15
REMARK H PARENT
REMARK Flexibility Score: inf
ROOT
ATOM      1  C   UNL     1     139.765 137.437 132.698  1.00  0.00     0.039 C 
ATOM      2  C   UNL     1     138.814 138.458 132.139  1.00  0.00    -0.074 C 
ATOM      3  C   UNL     1     138.654 139.632 132.787  1.00  0.00    -0.027 C 
ATOM      4  C   UNL     1     137.726 140.706 132.274  1.00  0.00     0.034 C 
ATOM      5  C   UNL     1     136.478 140.085 131.580  1.00  0.00    -0.022 C 
ATOM      6  C   UNL     1     135.658 141.217 130.916  1.00  0.00     0.008 C 
ATOM      7  C   UNL     1     134.478 140.702 130.074  1.00  0.00     0.001 C 
ATOM      8  C   UNL     1     134.921 139.709 128.988  1.00  0.00     0.007 C 
ATOM      9  C   UNL     1     135.745 138.496 129.508  1.00  0.00    -0.029 C 
ATOM     10  C   UNL     1     136.889 139.049 130.459  1.00  0.00    -0.012 C 
ATOM     11  C   UNL     1     138.061 138.137 130.857  1.00  0.00     0.022 C 
ATOM     12  C   UNL     1     138.281 139.199 129.782  1.00  0.00     0.017 C 
ATOM     13  C   UNL     1     136.255 137.738 128.247  1.00  0.00     0.012 C 
ATOM     14  C   UNL     1     134.833 137.497 130.265  1.00  0.00     0.012 C 
ATOM     15  C   UNL     1     135.643 139.405 132.710  1.00  0.00     0.012 C 
ENDROOT
TORSDOF 0
ENDMDL
MODEL 4
REMARK VINA RESULT:    -5.101      2.012      4.131
REMARK INTER + INTRA:          -5.101
REMARK INTER:                  -5.101
REMARK INTRA:                   0.000
REMARK UNBOUND:                 0.000
REMARK SMILES CC1=CC[C@@]2(C)CCCC(C)(C)[C@@]23C[C@@H]13
REMARK SMILES IDX 1 1 2 2 3 3 4 4 5 5 7 6 8 7 9 8 10 9 13 10 15 11 14 12 11 13
REMARK SMILES IDX 12 14 6 15
REMARK H PARENT
REMARK Flexibility Score: inf
ROOT
ATOM      1  C   UNL     1     138.384 134.717 134.396  1.00  0.00     0.039 C 
ATOM      2  C   UNL     1     137.109 134.553 133.616  1.00  0.00    -0.074 C 
ATOM      3  C   UNL     1     136.959 133.473 132.820  1.00  0.00    -0.027 C 
ATOM      4  C   UNL     1     135.700 133.239 132.022  1.00  0.00     0.034 C 
ATOM      5  C   UNL     1     135.082 134.585 131.541  1.00  0.00    -0.022 C 
ATOM      6  C   UNL     1     133.707 134.301 130.890  1.00  0.00     0.008 C 
ATOM      7  C   UNL     1     132.938 135.579 130.510  1.00  0.00     0.001 C 
ATOM      8  C   UNL     1     132.735 136.520 131.707  1.00  0.00     0.007 C 
ATOM      9  C   UNL     1     134.040 136.915 132.458  1.00  0.00    -0.029 C 
ATOM     10  C   UNL     1     134.864 135.589 132.743  1.00  0.00    -0.012 C 
ATOM     11  C   UNL     1     136.024 135.610 133.751  1.00  0.00     0.022 C 
ATOM     12  C   UNL     1     134.685 135.008 134.173  1.00  0.00     0.017 C 
ATOM     13  C   UNL     1     133.596 137.693 133.731  1.00  0.00     0.012 C 
ATOM     14  C   UNL     1     134.875 137.914 131.617  1.00  0.00     0.012 C 
ATOM     15  C   UNL     1     136.072 135.165 130.482  1.00  0.00     0.012 C 
ENDROOT
TORSDOF 0
ENDMDL
MODEL 5
REMARK VINA RESULT:    -5.094      2.046      4.464
REMARK INTER + INTRA:          -5.094
REMARK INTER:                  -5.094
REMARK INTRA:                   0.000
REMARK UNBOUND:                 0.000
REMARK SMILES CC1=CC[C@@]2(C)CCCC(C)(C)[C@@]23C[C@@H]13
REMARK SMILES IDX 1 1 2 2 3 3 4 4 5 5 7 6 8 7 9 8 10 9 13 10 15 11 14 12 11 13
REMARK SMILES IDX 12 14 6 15
REMARK H PARENT
REMARK Flexibility Score: inf
ROOT
ATOM      1  C   UNL     1     134.780 135.458 134.616  1.00  0.00     0.039 C 
ATOM      2  C   UNL     1     134.594 136.692 133.779  1.00  0.00    -0.074 C 
ATOM      3  C   UNL     1     133.511 136.787 132.978  1.00  0.00    -0.027 C 
ATOM      4  C   UNL     1     133.256 138.004 132.123  1.00  0.00     0.034 C 
ATOM      5  C   UNL     1     134.590 138.621 131.612  1.00  0.00    -0.022 C 
ATOM      6  C   UNL     1     134.283 139.960 130.899  1.00  0.00     0.008 C 
ATOM      7  C   UNL     1     135.547 140.732 130.482  1.00  0.00     0.001 C 
ATOM      8  C   UNL     1     136.486 141.006 131.667  1.00  0.00     0.007 C 
ATOM      9  C   UNL     1     136.903 139.744 132.476  1.00  0.00    -0.029 C 
ATOM     10  C   UNL     1     135.591 138.912 132.801  1.00  0.00    -0.012 C 
ATOM     11  C   UNL     1     135.633 137.800 133.862  1.00  0.00     0.022 C 
ATOM     12  C   UNL     1     135.008 139.146 134.223  1.00  0.00     0.017 C 
ATOM     13  C   UNL     1     137.675 140.259 133.726  1.00  0.00     0.012 C 
ATOM     14  C   UNL     1     137.916 138.888 131.673  1.00  0.00     0.012 C 
ATOM     15  C   UNL     1     135.187 137.594 130.599  1.00  0.00     0.012 C 
ENDROOT
TORSDOF 0
ENDMDL
MODEL 6
REMARK VINA RESULT:    -5.074      3.767      5.571
REMARK INTER + INTRA:          -5.074
REMARK INTER:                  -5.074
REMARK INTRA:                   0.000
REMARK UNBOUND:                 0.000
REMARK SMILES CC1=CC[C@@]2(C)CCCC(C)(C)[C@@]23C[C@@H]13
REMARK SMILES IDX 1 1 2 2 3 3 4 4 5 5 7 6 8 7 9 8 10 9 13 10 15 11 14 12 11 13
REMARK SMILES IDX 12 14 6 15
REMARK H PARENT
REMARK Flexibility Score: inf
ROOT
ATOM      1  C   UNL     1     135.267 139.063 134.494  1.00  0.00     0.039 C 
ATOM      2  C   UNL     1     136.516 139.241 133.677  1.00  0.00    -0.074 C 
ATOM      3  C   UNL     1     136.618 140.307 132.854  1.00  0.00    -0.027 C 
ATOM      4  C   UNL     1     137.850 140.553 132.018  1.00  0.00     0.034 C 
ATOM      5  C   UNL     1     138.488 139.213 131.550  1.00  0.00    -0.022 C 
ATOM      6  C   UNL     1     139.838 139.515 130.856  1.00  0.00     0.008 C 
ATOM      7  C   UNL     1     140.628 138.249 130.483  1.00  0.00     0.001 C 
ATOM      8  C   UNL     1     140.886 137.339 131.695  1.00  0.00     0.007 C 
ATOM      9  C   UNL     1     139.612 136.930 132.488  1.00  0.00    -0.029 C 
ATOM     10  C   UNL     1     138.763 138.241 132.767  1.00  0.00    -0.012 C 
ATOM     11  C   UNL     1     137.630 138.214 133.806  1.00  0.00     0.022 C 
ATOM     12  C   UNL     1     138.964 138.858 134.179  1.00  0.00     0.017 C 
ATOM     13  C   UNL     1     140.108 136.191 133.766  1.00  0.00     0.012 C 
ATOM     14  C   UNL     1     138.780 135.892 131.692  1.00  0.00     0.012 C 
ATOM     15  C   UNL     1     137.486 138.585 130.531  1.00  0.00     0.012 C 
ENDROOT
TORSDOF 0
ENDMDL
MODEL 7
REMARK VINA RESULT:    -5.073      3.520      5.426
REMARK INTER + INTRA:          -5.073
REMARK INTER:                  -5.073
REMARK INTRA:                   0.000
REMARK UNBOUND:                 0.000
REMARK SMILES CC1=CC[C@@]2(C)CCCC(C)(C)[C@@]23C[C@@H]13
REMARK SMILES IDX 1 1 2 2 3 3 4 4 5 5 7 6 8 7 9 8 10 9 13 10 15 11 14 12 11 13
REMARK SMILES IDX 12 14 6 15
REMARK H PARENT
REMARK Flexibility Score: inf
ROOT
ATOM      1  C   UNL     1     139.101 138.429 134.581  1.00  0.00     0.039 C 
ATOM      2  C   UNL     1     139.268 137.190 133.747  1.00  0.00    -0.074 C 
ATOM      3  C   UNL     1     140.333 137.092 132.922  1.00  0.00    -0.027 C 
ATOM      4  C   UNL     1     140.570 135.870 132.067  1.00  0.00     0.034 C 
ATOM      5  C   UNL     1     139.224 135.250 131.590  1.00  0.00    -0.022 C 
ATOM      6  C   UNL     1     139.515 133.908 130.877  1.00  0.00     0.008 C 
ATOM      7  C   UNL     1     138.243 133.133 130.493  1.00  0.00     0.001 C 
ATOM      8  C   UNL     1     137.332 132.864 131.701  1.00  0.00     0.007 C 
ATOM      9  C   UNL     1     136.932 134.130 132.513  1.00  0.00    -0.029 C 
ATOM     10  C   UNL     1     138.250 134.965 132.803  1.00  0.00    -0.012 C 
ATOM     11  C   UNL     1     138.233 136.082 133.859  1.00  0.00     0.022 C 
ATOM     12  C   UNL     1     138.866 134.738 134.213  1.00  0.00     0.017 C 
ATOM     13  C   UNL     1     136.190 133.621 133.783  1.00  0.00     0.012 C 
ATOM     14  C   UNL     1     135.901 134.982 131.729  1.00  0.00     0.012 C 
ATOM     15  C   UNL     1     138.604 136.272 130.586  1.00  0.00     0.012 C 
ENDROOT
TORSDOF 0
ENDMDL
MODEL 8
REMARK VINA RESULT:    -5.073      2.274      4.272
REMARK INTER + INTRA:          -5.073
REMARK INTER:                  -5.073
REMARK INTRA:                   0.000
REMARK UNBOUND:                 0.000
REMARK SMILES CC1=CC[C@@]2(C)CCCC(C)(C)[C@@]23C[C@@H]13
REMARK SMILES IDX 1 1 2 2 3 3 4 4 5 5 7 6 8 7 9 8 10 9 13 10 15 11 14 12 11 13
REMARK SMILES IDX 12 14 6 15
REMARK H PARENT
REMARK Flexibility Score: inf
ROOT
ATOM      1  C   UNL     1     133.959 136.109 133.068  1.00  0.00     0.039 C 
ATOM      2  C   UNL     1     134.923 135.152 132.426  1.00  0.00    -0.074 C 
ATOM      3  C   UNL     1     135.129 133.945 132.995  1.00  0.00    -0.027 C 
ATOM      4  C   UNL     1     136.073 132.931 132.395  1.00  0.00     0.034 C 
ATOM      5  C   UNL     1     137.287 133.627 131.714  1.00  0.00    -0.022 C 
ATOM      6  C   UNL     1     138.120 132.562 130.963  1.00  0.00     0.008 C 
ATOM      7  C   UNL     1     139.266 133.161 130.129  1.00  0.00     0.001 C 
ATOM      8  C   UNL     1     138.771 134.206 129.117  1.00  0.00     0.007 C 
ATOM      9  C   UNL     1     137.929 135.362 129.730  1.00  0.00    -0.029 C 
ATOM     10  C   UNL     1     136.822 134.720 130.669  1.00  0.00    -0.012 C 
ATOM     11  C   UNL     1     135.636 135.572 131.150  1.00  0.00     0.022 C 
ATOM     12  C   UNL     1     135.420 134.573 130.016  1.00  0.00     0.017 C 
ATOM     13  C   UNL     1     137.369 136.182 128.531  1.00  0.00     0.012 C 
ATOM     14  C   UNL     1     138.832 136.336 130.528  1.00  0.00     0.012 C 
ATOM     15  C   UNL     1     138.130 134.259 132.866  1.00  0.00     0.012 C 
ENDROOT
TORSDOF 0
ENDMDL
MODEL 9
REMARK VINA RESULT:    -4.898      3.344      5.739
REMARK INTER + INTRA:          -4.898
REMARK INTER:                  -4.898
REMARK INTRA:                   0.000
REMARK UNBOUND:                 0.000
REMARK SMILES CC1=CC[C@@]2(C)CCCC(C)(C)[C@@]23C[C@@H]13
REMARK SMILES IDX 1 1 2 2 3 3 4 4 5 5 7 6 8 7 9 8 10 9 13 10 15 11 14 12 11 13
REMARK SMILES IDX 12 14 6 15
REMARK H PARENT
REMARK Flexibility Score: inf
ROOT
ATOM      1  C   UNL     1     139.291 133.697 130.383  1.00  0.00     0.039 C 
ATOM      2  C   UNL     1     139.071 134.902 131.254  1.00  0.00    -0.074 C 
ATOM      3  C   UNL     1     138.460 134.748 132.448  1.00  0.00    -0.027 C 
ATOM      4  C   UNL     1     138.221 135.913 133.377  1.00  0.00     0.034 C 
ATOM      5  C   UNL     1     137.933 137.218 132.579  1.00  0.00    -0.022 C 
ATOM      6  C   UNL     1     137.877 138.408 133.567  1.00  0.00     0.008 C 
ATOM      7  C   UNL     1     137.745 139.773 132.869  1.00  0.00     0.001 C 
ATOM      8  C   UNL     1     138.870 140.025 131.853  1.00  0.00     0.007 C 
ATOM      9  C   UNL     1     139.038 138.916 130.775  1.00  0.00    -0.029 C 
ATOM     10  C   UNL     1     139.065 137.511 131.514  1.00  0.00    -0.012 C 
ATOM     11  C   UNL     1     139.548 136.260 130.763  1.00  0.00     0.022 C 
ATOM     12  C   UNL     1     140.486 136.934 131.762  1.00  0.00     0.017 C 
ATOM     13  C   UNL     1     140.335 139.262 129.987  1.00  0.00     0.012 C 
ATOM     14  C   UNL     1     137.883 138.975 129.743  1.00  0.00     0.012 C 
ATOM     15  C   UNL     1     136.544 137.016 131.898  1.00  0.00     0.012 C 
ENDROOT
TORSDOF 0
ENDMDL
