MODEL 1
REMARK VINA RESULT:    -4.599      0.000      0.000
REMARK INTER + INTRA:          -5.290
REMARK INTER:                  -5.272
REMARK INTRA:                  -0.018
REMARK UNBOUND:                -0.018
REMARK SMILES COc1cc(C(=O)[O-])ccc1O
REMARK SMILES IDX 5 1 9 2 4 3 10 4 3 5 11 6 6 7 7 8 8 9 2 10 1 11 12 12
REMARK H PARENT 12 13
REMARK Flexibility Score: inf
ROOT
ATOM      1  C   UNL     1       9.110   0.478   9.273  1.00  0.00     0.001 A 
ATOM      2  C   UNL     1       8.088   0.728   8.342  1.00  0.00     0.014 A 
ATOM      3  C   UNL     1       9.291  -0.831   9.755  1.00  0.00     0.060 A 
ATOM      4  C   UNL     1       7.264  -0.308   7.901  1.00  0.00     0.051 A 
ATOM      5  C   UNL     1       8.460  -1.881   9.312  1.00  0.00     0.161 A 
ATOM      6  C   UNL     1       7.447  -1.610   8.383  1.00  0.00     0.157 A 
ENDROOT
BRANCH   1   7
ATOM      7  C   UNL     1       9.986   1.575   9.743  1.00  0.00     0.072 C 
ATOM      8  O   UNL     1      10.964   1.334  10.501  1.00  0.00    -0.545 OA
ATOM      9  O   UNL     1       9.742   2.887   9.355  1.00  0.00    -0.545 OA
ENDBRANCH   1   7
BRANCH   5  10
ATOM     10  O   UNL     1       8.611  -3.199   9.771  1.00  0.00    -0.493 OA
ATOM     11  C   UNL     1       9.293  -4.228   9.062  1.00  0.00     0.278 C 
ENDBRANCH   5  10
BRANCH   6  12
ATOM     12  O   UNL     1       6.622  -2.644   7.942  1.00  0.00    -0.504 OA
ATOM     13  H   UNL     1       5.766  -2.460   7.432  1.00  0.00     0.293 HD
ENDBRANCH   6  12
TORSDOF 3
ENDMDL
MODEL 2
REMARK VINA RESULT:    -4.531      0.560      1.084
REMARK INTER + INTRA:          -5.212
REMARK INTER:                  -5.149
REMARK INTRA:                  -0.063
REMARK UNBOUND:                -0.018
REMARK SMILES COc1cc(C(=O)[O-])ccc1O
REMARK SMILES IDX 5 1 9 2 4 3 10 4 3 5 11 6 6 7 7 8 8 9 2 10 1 11 12 12
REMARK H PARENT 12 13
REMARK Flexibility Score: inf
ROOT
ATOM      1  C   UNL     1       9.225   0.982   9.314  1.00  0.00     0.001 A 
ATOM      2  C   UNL     1       8.220   1.322   8.392  1.00  0.00     0.014 A 
ATOM      3  C   UNL     1       9.331  -0.351   9.749  1.00  0.00     0.060 A 
ATOM      4  C   UNL     1       7.339   0.350   7.916  1.00  0.00     0.051 A 
ATOM      5  C   UNL     1       8.443  -1.336   9.270  1.00  0.00     0.161 A 
ATOM      6  C   UNL     1       7.447  -0.976   8.351  1.00  0.00     0.157 A 
ENDROOT
BRANCH   1   7
ATOM      7  C   UNL     1      10.160   2.011   9.821  1.00  0.00     0.072 C 
ATOM      8  O   UNL     1      10.097   3.197   9.400  1.00  0.00    -0.545 OA
ATOM      9  O   UNL     1      11.124   1.682  10.768  1.00  0.00    -0.545 OA
ENDBRANCH   1   7
BRANCH   5  10
ATOM     10  O   UNL     1       8.518  -2.676   9.683  1.00  0.00    -0.493 OA
ATOM     11  C   UNL     1       9.250  -3.690   9.002  1.00  0.00     0.278 C 
ENDBRANCH   5  10
BRANCH   6  12
ATOM     12  O   UNL     1       6.567  -1.946   7.875  1.00  0.00    -0.504 OA
ATOM     13  H   UNL     1       5.563  -1.804   7.887  1.00  0.00     0.293 HD
ENDBRANCH   6  12
TORSDOF 3
ENDMDL
MODEL 3
REMARK VINA RESULT:    -4.374      1.426      4.700
REMARK INTER + INTRA:          -5.031
REMARK INTER:                  -4.935
REMARK INTRA:                  -0.096
REMARK UNBOUND:                -0.018
REMARK SMILES COc1cc(C(=O)[O-])ccc1O
REMARK SMILES IDX 5 1 9 2 4 3 10 4 3 5 11 6 6 7 7 8 8 9 2 10 1 11 12 12
REMARK H PARENT 12 13
REMARK Flexibility Score: inf
ROOT
ATOM      1  C   UNL     1       8.933  -1.709   9.355  1.00  0.00     0.001 A 
ATOM      2  C   UNL     1       9.901  -1.147  10.205  1.00  0.00     0.014 A 
ATOM      3  C   UNL     1       8.132  -0.856   8.574  1.00  0.00     0.060 A 
ATOM      4  C   UNL     1      10.065   0.237  10.273  1.00  0.00     0.051 A 
ATOM      5  C   UNL     1       8.295   0.543   8.640  1.00  0.00     0.161 A 
ATOM      6  C   UNL     1       9.266   1.082   9.494  1.00  0.00     0.157 A 
ENDROOT
BRANCH   1   7
ATOM      7  C   UNL     1       8.756  -3.176   9.281  1.00  0.00     0.072 C 
ATOM      8  O   UNL     1       9.647  -3.904   8.767  1.00  0.00    -0.545 OA
ATOM      9  O   UNL     1       7.602  -3.773   9.777  1.00  0.00    -0.545 OA
ENDBRANCH   1   7
BRANCH   5  10
ATOM     10  O   UNL     1       7.514   1.424   7.875  1.00  0.00    -0.493 OA
ATOM     11  C   UNL     1       6.185   1.817   8.204  1.00  0.00     0.278 C 
ENDBRANCH   5  10
BRANCH   6  12
ATOM     12  O   UNL     1       9.431   2.465   9.562  1.00  0.00    -0.504 OA
ATOM     13  H   UNL     1      10.346   2.895   9.485  1.00  0.00     0.293 HD
ENDBRANCH   6  12
TORSDOF 3
ENDMDL
MODEL 4
REMARK VINA RESULT:    -4.257      1.366      4.228
REMARK INTER + INTRA:          -4.898
REMARK INTER:                  -4.820
REMARK INTRA:                  -0.078
REMARK UNBOUND:                -0.018
REMARK SMILES COc1cc(C(=O)[O-])ccc1O
REMARK SMILES IDX 5 1 9 2 4 3 10 4 3 5 11 6 6 7 7 8 8 9 2 10 1 11 12 12
REMARK H PARENT 12 13
REMARK Flexibility Score: inf
ROOT
ATOM      1  C   UNL     1       8.391  -2.013   9.008  1.00  0.00     0.001 A 
ATOM      2  C   UNL     1       7.122  -1.872   8.421  1.00  0.00     0.014 A 
ATOM      3  C   UNL     1       9.180  -0.867   9.213  1.00  0.00     0.060 A 
ATOM      4  C   UNL     1       6.652  -0.613   8.045  1.00  0.00     0.051 A 
ATOM      5  C   UNL     1       8.709   0.407   8.835  1.00  0.00     0.161 A 
ATOM      6  C   UNL     1       7.441   0.526   8.250  1.00  0.00     0.157 A 
ENDROOT
BRANCH   1   7
ATOM      7  C   UNL     1       8.891  -3.347   9.407  1.00  0.00     0.072 C 
ATOM      8  O   UNL     1       8.624  -3.818  10.545  1.00  0.00    -0.545 OA
ATOM      9  O   UNL     1       9.666  -4.101   8.532  1.00  0.00    -0.545 OA
ENDBRANCH   1   7
BRANCH   5  10
ATOM     10  O   UNL     1       9.470   1.572   9.023  1.00  0.00    -0.493 OA
ATOM     11  C   UNL     1      10.379   1.777  10.100  1.00  0.00     0.278 C 
ENDBRANCH   5  10
BRANCH   6  12
ATOM     12  O   UNL     1       6.971   1.783   7.875  1.00  0.00    -0.504 OA
ATOM     13  H   UNL     1       6.489   1.929   6.995  1.00  0.00     0.293 HD
ENDBRANCH   6  12
TORSDOF 3
ENDMDL
MODEL 5
REMARK VINA RESULT:    -4.208      1.949      4.609
REMARK INTER + INTRA:          -4.841
REMARK INTER:                  -4.740
REMARK INTRA:                  -0.101
REMARK UNBOUND:                -0.018
REMARK SMILES COc1cc(C(=O)[O-])ccc1O
REMARK SMILES IDX 5 1 9 2 4 3 10 4 3 5 11 6 6 7 7 8 8 9 2 10 1 11 12 12
REMARK H PARENT 12 13
REMARK Flexibility Score: inf
ROOT
ATOM      1  C   UNL     1       8.350  -3.299   9.158  1.00  0.00     0.001 A 
ATOM      2  C   UNL     1       7.018  -3.380   9.598  1.00  0.00     0.014 A 
ATOM      3  C   UNL     1       8.896  -2.038   8.861  1.00  0.00     0.060 A 
ATOM      4  C   UNL     1       6.248  -2.225   9.740  1.00  0.00     0.051 A 
ATOM      5  C   UNL     1       8.122  -0.868   9.003  1.00  0.00     0.161 A 
ATOM      6  C   UNL     1       6.796  -0.971   9.444  1.00  0.00     0.157 A 
ENDROOT
BRANCH   1   7
ATOM      7  C   UNL     1       9.169  -4.523   9.006  1.00  0.00     0.072 C 
ATOM      8  O   UNL     1      10.092  -4.574   8.150  1.00  0.00    -0.545 OA
ATOM      9  O   UNL     1       8.931  -5.634   9.807  1.00  0.00    -0.545 OA
ENDBRANCH   1   7
BRANCH   5  10
ATOM     10  O   UNL     1       8.633   0.408   8.715  1.00  0.00    -0.493 OA
ATOM     11  C   UNL     1       9.591   1.092   9.517  1.00  0.00     0.278 C 
ENDBRANCH   5  10
BRANCH   6  12
ATOM     12  O   UNL     1       6.026   0.183   9.585  1.00  0.00    -0.504 OA
ATOM     13  H   UNL     1       6.197   0.847  10.331  1.00  0.00     0.293 HD
ENDBRANCH   6  12
TORSDOF 3
ENDMDL
MODEL 6
REMARK VINA RESULT:    -4.183      1.711      2.260
REMARK INTER + INTRA:          -4.812
REMARK INTER:                  -4.713
REMARK INTRA:                  -0.099
REMARK UNBOUND:                -0.018
REMARK SMILES COc1cc(C(=O)[O-])ccc1O
REMARK SMILES IDX 5 1 9 2 4 3 10 4 3 5 11 6 6 7 7 8 8 9 2 10 1 11 12 12
REMARK H PARENT 12 13
REMARK Flexibility Score: inf
ROOT
ATOM      1  C   UNL     1       8.374  -1.401   9.418  1.00  0.00     0.001 A 
ATOM      2  C   UNL     1       6.975  -1.535   9.423  1.00  0.00     0.014 A 
ATOM      3  C   UNL     1       9.171  -2.557   9.357  1.00  0.00     0.060 A 
ATOM      4  C   UNL     1       6.386  -2.798   9.370  1.00  0.00     0.051 A 
ATOM      5  C   UNL     1       8.579  -3.836   9.303  1.00  0.00     0.161 A 
ATOM      6  C   UNL     1       7.182  -3.948   9.310  1.00  0.00     0.157 A 
ENDROOT
BRANCH   1   7
ATOM      7  C   UNL     1       9.002  -0.062   9.475  1.00  0.00     0.072 C 
ATOM      8  O   UNL     1       9.981   0.154  10.239  1.00  0.00    -0.545 OA
ATOM      9  O   UNL     1       8.520   0.978   8.688  1.00  0.00    -0.545 OA
ENDBRANCH   1   7
BRANCH   5  10
ATOM     10  O   UNL     1       9.343  -5.012   9.242  1.00  0.00    -0.493 OA
ATOM     11  C   UNL     1      10.074  -5.442   8.099  1.00  0.00     0.278 C 
ENDBRANCH   5  10
BRANCH   6  12
ATOM     12  O   UNL     1       6.592  -5.209   9.256  1.00  0.00    -0.504 OA
ATOM     13  H   UNL     1       5.620  -5.352   9.504  1.00  0.00     0.293 HD
ENDBRANCH   6  12
TORSDOF 3
ENDMDL
MODEL 7
REMARK VINA RESULT:    -4.174      2.493      3.857
REMARK INTER + INTRA:          -4.802
REMARK INTER:                  -4.721
REMARK INTRA:                  -0.081
REMARK UNBOUND:                -0.018
REMARK SMILES COc1cc(C(=O)[O-])ccc1O
REMARK SMILES IDX 5 1 9 2 4 3 10 4 3 5 11 6 6 7 7 8 8 9 2 10 1 11 12 12
REMARK H PARENT 12 13
REMARK Flexibility Score: inf
ROOT
ATOM      1  C   UNL     1       8.074  -2.441   8.900  1.00  0.00     0.001 A 
ATOM      2  C   UNL     1       8.859  -2.995   7.875  1.00  0.00     0.014 A 
ATOM      3  C   UNL     1       7.884  -3.172  10.087  1.00  0.00     0.060 A 
ATOM      4  C   UNL     1       9.442  -4.253   8.032  1.00  0.00     0.051 A 
ATOM      5  C   UNL     1       8.471  -4.443  10.249  1.00  0.00     0.161 A 
ATOM      6  C   UNL     1       9.251  -4.978   9.214  1.00  0.00     0.157 A 
ENDROOT
BRANCH   1   7
ATOM      7  C   UNL     1       7.454  -1.107   8.737  1.00  0.00     0.072 C 
ATOM      8  O   UNL     1       6.365  -0.832   9.308  1.00  0.00    -0.545 OA
ATOM      9  O   UNL     1       8.064  -0.137   7.949  1.00  0.00    -0.545 OA
ENDBRANCH   1   7
BRANCH   5  10
ATOM     10  O   UNL     1       8.303  -5.201  11.419  1.00  0.00    -0.493 OA
ATOM     11  C   UNL     1       7.269  -4.991  12.375  1.00  0.00     0.278 C 
ENDBRANCH   5  10
BRANCH   6  12
ATOM     12  O   UNL     1       9.834  -6.234   9.370  1.00  0.00    -0.504 OA
ATOM     13  H   UNL     1      10.155  -6.562  10.274  1.00  0.00     0.293 HD
ENDBRANCH   6  12
TORSDOF 3
ENDMDL
MODEL 8
REMARK VINA RESULT:    -3.636      4.242      6.373
REMARK INTER + INTRA:          -4.186
REMARK INTER:                  -4.105
REMARK INTRA:                  -0.081
REMARK UNBOUND:                -0.018
REMARK SMILES COc1cc(C(=O)[O-])ccc1O
REMARK SMILES IDX 5 1 9 2 4 3 10 4 3 5 11 6 6 7 7 8 8 9 2 10 1 11 12 12
REMARK H PARENT 12 13
REMARK Flexibility Score: inf
ROOT
ATOM      1  C   UNL     1       8.138  -6.065  11.734  1.00  0.00     0.001 A 
ATOM      2  C   UNL     1       7.026  -5.325  12.173  1.00  0.00     0.014 A 
ATOM      3  C   UNL     1       8.783  -5.687  10.543  1.00  0.00     0.060 A 
ATOM      4  C   UNL     1       6.569  -4.232  11.437  1.00  0.00     0.051 A 
ATOM      5  C   UNL     1       8.324  -4.583   9.797  1.00  0.00     0.161 A 
ATOM      6  C   UNL     1       7.214  -3.858  10.252  1.00  0.00     0.157 A 
ENDROOT
BRANCH   1   7
ATOM      7  C   UNL     1       8.625  -7.226  12.513  1.00  0.00     0.072 C 
ATOM      8  O   UNL     1       7.839  -7.876  13.253  1.00  0.00    -0.545 OA
ATOM      9  O   UNL     1       9.957  -7.616  12.439  1.00  0.00    -0.545 OA
ENDBRANCH   1   7
BRANCH   5  10
ATOM     10  O   UNL     1       8.942  -4.177   8.603  1.00  0.00    -0.493 OA
ATOM     11  C   UNL     1       9.940  -4.926   7.916  1.00  0.00     0.278 C 
ENDBRANCH   5  10
BRANCH   6  12
ATOM     12  O   UNL     1       6.756  -2.766   9.517  1.00  0.00    -0.504 OA
ATOM     13  H   UNL     1       6.865  -1.816   9.855  1.00  0.00     0.293 HD
ENDBRANCH   6  12
TORSDOF 3
ENDMDL
