MODEL 1
REMARK VINA RESULT:    43.238      0.000      0.000
REMARK INTER + INTRA:          45.765
REMARK INTER:                  45.765
REMARK INTRA:                   0.000
REMARK UNBOUND:                 0.000
REMARK SMILES C[C@H]1CC[C@H]2[N@H+](C1)C[C@H]1[C@H]3C[C@H]4[C@H](CC(=O)[C@@H]5C[C@H](O)CC[C@@]54C)[C@@H]3CC[C@H]1[C@]2(C)O
REMARK SMILES IDX 5 1 6 2 8 3 7 4 4 5 29 6 3 7 28 8 30 9 2 10 27 11 9 12 1 13
REMARK SMILES IDX 26 14 10 15 25 16 11 17 13 18 12 19 14 20 23 21 15 22 17 23
REMARK SMILES IDX 22 24 24 25 16 26 18 27 21 28 19 29 31 31 20 33
REMARK H PARENT 6 30 31 32 20 34
REMARK Flexibility Score: inf
ROOT
ATOM      1  C   UNL     1      13.240  20.711   6.050  1.00  0.00     0.216 C 
ATOM      2  N   UNL     1      14.160  21.665   5.361  1.00  0.00    -0.330 N 
ATOM      3  C   UNL     1      13.478  22.708   4.563  1.00  0.00     0.266 C 
ATOM      4  C   UNL     1      15.052  22.315   6.357  1.00  0.00     0.265 C 
ATOM      5  C   UNL     1      14.066  19.492   6.566  1.00  0.00     0.069 C 
ATOM      6  C   UNL     1      11.942  20.338   5.206  1.00  0.00     0.117 C 
ATOM      7  C   UNL     1      15.525  19.850   6.910  1.00  0.00     0.015 C 
ATOM      8  C   UNL     1      12.150  20.638   3.687  1.00  0.00     0.036 C 
ATOM      9  C   UNL     1      11.473  18.876   5.408  1.00  0.00     0.049 C 
ATOM     10  C   UNL     1      15.709  21.311   7.354  1.00  0.00     0.041 C 
ATOM     11  C   UNL     1      13.157  19.658   2.985  1.00  0.00     0.007 C 
ATOM     12  C   UNL     1      12.484  22.151   3.491  1.00  0.00     0.054 C 
ATOM     13  C   UNL     1      15.218  21.521   8.795  1.00  0.00     0.013 C 
ATOM     14  C   UNL     1      13.584  20.098   1.573  1.00  0.00     0.004 C 
ATOM     15  C   UNL     1      12.857  22.421   2.012  1.00  0.00     0.002 C 
ATOM     16  C   UNL     1      14.024  21.571   1.580  1.00  0.00    -0.004 C 
ATOM     17  C   UNL     1      13.187  23.852   1.590  1.00  0.00     0.009 C 
ATOM     18  C   UNL     1      14.526  22.211   0.270  1.00  0.00     0.003 C 
ATOM     19  C   UNL     1      14.240  23.737   0.451  1.00  0.00    -0.000 C 
ATOM     20  C   UNL     1      13.947  21.610  -1.040  1.00  0.00     0.080 C 
ATOM     21  C   UNL     1      13.857  24.497  -0.877  1.00  0.00    -0.020 C 
ATOM     22  C   UNL     1      12.696  22.305  -1.500  1.00  0.00     0.136 C 
ATOM     23  C   UNL     1      12.599  23.820  -1.522  1.00  0.00     0.065 C 
ATOM     24  C   UNL     1      15.093  24.498  -1.855  1.00  0.00     0.010 C 
ATOM     25  C   UNL     1      13.528  25.981  -0.533  1.00  0.00     0.012 C 
ATOM     26  O   UNL     1      11.733  21.633  -1.840  1.00  0.00    -0.299 OA
ATOM     27  C   UNL     1      12.255  24.359  -2.941  1.00  0.00     0.043 C 
ATOM     28  C   UNL     1      14.759  24.230  -3.334  1.00  0.00     0.032 C 
ATOM     29  C   UNL     1      13.454  24.894  -3.755  1.00  0.00     0.115 C 
ATOM     30  H   UNL     1      14.786  21.150   4.702  1.00  0.00     0.348 HD
ENDROOT
BRANCH   6  31
ATOM     31  O   UNL     1      10.844  21.110   5.658  1.00  0.00    -0.384 OA
ATOM     32  H   UNL     1      10.001  20.602   5.547  1.00  0.00     0.211 HD
ENDBRANCH   6  31
BRANCH  29  33
ATOM     33  O   UNL     1      13.245  24.662  -5.125  1.00  0.00    -0.393 OA
ATOM     34  H   UNL     1      12.945  23.720  -5.213  1.00  0.00     0.210 HD
ENDBRANCH  29  33
TORSDOF 2
ENDMDL
