MODEL 1
REMARK VINA RESULT:    -5.423      0.000      0.000
REMARK INTER + INTRA:          -6.652
REMARK INTER:                  -6.533
REMARK INTRA:                  -0.119
REMARK UNBOUND:                -0.119
REMARK SMILES C=CCc1ccc(O)c(OC)c1
REMARK SMILES IDX 9 1 7 2 6 3 5 4 4 5 12 6 10 7 11 8 8 9 3 11 2 12 1 13
REMARK H PARENT 8 10
REMARK Flexibility Score: inf
ROOT
ATOM      1  C   UNL     1     -40.155  38.314  47.893  1.00  0.00     0.160 A 
ATOM      2  C   UNL     1     -38.807  38.315  48.297  1.00  0.00     0.157 A 
ATOM      3  C   UNL     1     -37.808  38.718  47.406  1.00  0.00     0.050 A 
ATOM      4  C   UNL     1     -38.136  39.121  46.111  1.00  0.00     0.008 A 
ATOM      5  C   UNL     1     -39.473  39.115  45.687  1.00  0.00    -0.040 A 
ATOM      6  C   UNL     1     -40.479  38.720  46.583  1.00  0.00     0.054 A 
ENDROOT
BRANCH   1   7
ATOM      7  O   UNL     1     -41.137  37.910  48.811  1.00  0.00    -0.493 OA
ATOM      8  C   UNL     1     -41.349  36.564  49.226  1.00  0.00     0.278 C 
ENDBRANCH   1   7
BRANCH   2   9
ATOM      9  O   UNL     1     -38.441  37.920  49.585  1.00  0.00    -0.504 OA
ATOM     10  H   UNL     1     -37.473  37.785  49.853  1.00  0.00     0.293 HD
ENDBRANCH   2   9
BRANCH   5  11
ATOM     11  C   UNL     1     -39.826  39.577  44.298  1.00  0.00     0.062 C 
BRANCH  11  12
ATOM     12  C   UNL     1     -38.592  39.710  43.451  1.00  0.00    -0.030 C 
ATOM     13  C   UNL     1     -38.354  38.891  42.421  1.00  0.00     0.004 C 
ENDBRANCH  11  12
ENDBRANCH   5  11
TORSDOF 4
ENDMDL
MODEL 2
REMARK VINA RESULT:    -5.310      1.136      2.708
REMARK INTER + INTRA:          -6.516
REMARK INTER:                  -6.332
REMARK INTRA:                  -0.184
REMARK UNBOUND:                -0.119
REMARK SMILES C=CCc1ccc(O)c(OC)c1
REMARK SMILES IDX 9 1 7 2 6 3 5 4 4 5 12 6 10 7 11 8 8 9 3 11 2 12 1 13
REMARK H PARENT 8 10
REMARK Flexibility Score: inf
ROOT
ATOM      1  C   UNL     1     -38.083  38.262  47.596  1.00  0.00     0.160 A 
ATOM      2  C   UNL     1     -39.227  37.988  48.368  1.00  0.00     0.157 A 
ATOM      3  C   UNL     1     -40.501  38.242  47.850  1.00  0.00     0.050 A 
ATOM      4  C   UNL     1     -40.649  38.771  46.567  1.00  0.00     0.008 A 
ATOM      5  C   UNL     1     -39.519  39.062  45.788  1.00  0.00    -0.040 A 
ATOM      6  C   UNL     1     -38.240  38.798  46.302  1.00  0.00     0.054 A 
ENDROOT
BRANCH   1   7
ATOM      7  O   UNL     1     -36.818  37.991  48.141  1.00  0.00    -0.493 OA
ATOM      8  C   UNL     1     -35.681  37.592  47.381  1.00  0.00     0.278 C 
ENDBRANCH   1   7
BRANCH   2   9
ATOM      9  O   UNL     1     -39.119  37.458  49.655  1.00  0.00    -0.504 OA
ATOM     10  H   UNL     1     -38.270  37.537  50.201  1.00  0.00     0.293 HD
ENDBRANCH   2   9
BRANCH   5  11
ATOM     11  C   UNL     1     -39.684  39.605  44.393  1.00  0.00     0.062 C 
BRANCH  11  12
ATOM     12  C   UNL     1     -38.353  39.997  43.814  1.00  0.00    -0.030 C 
ATOM     13  C   UNL     1     -38.026  41.276  43.606  1.00  0.00     0.004 C 
ENDBRANCH  11  12
ENDBRANCH   5  11
TORSDOF 4
ENDMDL
MODEL 3
REMARK VINA RESULT:    -5.157      7.088      9.447
REMARK INTER + INTRA:          -6.332
REMARK INTER:                  -6.124
REMARK INTRA:                  -0.208
REMARK UNBOUND:                -0.119
REMARK SMILES C=CCc1ccc(O)c(OC)c1
REMARK SMILES IDX 9 1 7 2 6 3 5 4 4 5 12 6 10 7 11 8 8 9 3 11 2 12 1 13
REMARK H PARENT 8 10
REMARK Flexibility Score: inf
ROOT
ATOM      1  C   UNL     1     -34.392  41.929  39.800  1.00  0.00     0.160 A 
ATOM      2  C   UNL     1     -34.397  43.104  39.026  1.00  0.00     0.157 A 
ATOM      3  C   UNL     1     -34.787  44.319  39.597  1.00  0.00     0.050 A 
ATOM      4  C   UNL     1     -35.176  44.377  40.936  1.00  0.00     0.008 A 
ATOM      5  C   UNL     1     -35.190  43.214  41.720  1.00  0.00    -0.040 A 
ATOM      6  C   UNL     1     -34.789  41.995  41.151  1.00  0.00     0.054 A 
ENDROOT
BRANCH   1   7
ATOM      7  O   UNL     1     -33.990  40.724  39.200  1.00  0.00    -0.493 OA
ATOM      8  C   UNL     1     -34.464  39.436  39.580  1.00  0.00     0.278 C 
ENDBRANCH   1   7
BRANCH   2   9
ATOM      9  O   UNL     1     -34.013  43.084  37.684  1.00  0.00    -0.504 OA
ATOM     10  H   UNL     1     -33.512  42.304  37.277  1.00  0.00     0.293 HD
ENDBRANCH   2   9
BRANCH   5  11
ATOM     11  C   UNL     1     -35.582  43.286  43.171  1.00  0.00     0.062 C 
BRANCH  11  12
ATOM     12  C   UNL     1     -36.248  42.011  43.607  1.00  0.00    -0.030 C 
ATOM     13  C   UNL     1     -37.577  41.872  43.595  1.00  0.00     0.004 C 
ENDBRANCH  11  12
ENDBRANCH   5  11
TORSDOF 4
ENDMDL
MODEL 4
REMARK VINA RESULT:    -5.142      2.164      2.895
REMARK INTER + INTRA:          -6.312
REMARK INTER:                  -6.030
REMARK INTRA:                  -0.283
REMARK UNBOUND:                -0.119
REMARK SMILES C=CCc1ccc(O)c(OC)c1
REMARK SMILES IDX 9 1 7 2 6 3 5 4 4 5 12 6 10 7 11 8 8 9 3 11 2 12 1 13
REMARK H PARENT 8 10
REMARK Flexibility Score: inf
ROOT
ATOM      1  C   UNL     1     -39.744  37.238  47.378  1.00  0.00     0.160 A 
ATOM      2  C   UNL     1     -40.215  38.419  46.775  1.00  0.00     0.157 A 
ATOM      3  C   UNL     1     -39.432  39.081  45.823  1.00  0.00     0.050 A 
ATOM      4  C   UNL     1     -38.181  38.579  45.465  1.00  0.00     0.008 A 
ATOM      5  C   UNL     1     -37.690  37.410  46.065  1.00  0.00    -0.040 A 
ATOM      6  C   UNL     1     -38.478  36.739  47.013  1.00  0.00     0.054 A 
ENDROOT
BRANCH   1   7
ATOM      7  O   UNL     1     -40.554  36.593  48.326  1.00  0.00    -0.493 OA
ATOM      8  C   UNL     1     -40.382  36.691  49.736  1.00  0.00     0.278 C 
ENDBRANCH   1   7
BRANCH   2   9
ATOM      9  O   UNL     1     -41.462  38.951  47.106  1.00  0.00    -0.504 OA
ATOM     10  H   UNL     1     -41.676  39.934  46.996  1.00  0.00     0.293 HD
ENDBRANCH   2   9
BRANCH   5  11
ATOM     11  C   UNL     1     -36.352  36.855  45.655  1.00  0.00     0.062 C 
BRANCH  11  12
ATOM     12  C   UNL     1     -36.346  36.502  44.194  1.00  0.00    -0.030 C 
ATOM     13  C   UNL     1     -36.739  35.300  43.759  1.00  0.00     0.004 C 
ENDBRANCH  11  12
ENDBRANCH   5  11
TORSDOF 4
ENDMDL
MODEL 5
REMARK VINA RESULT:    -5.112      9.380     11.237
REMARK INTER + INTRA:          -6.276
REMARK INTER:                  -6.034
REMARK INTRA:                  -0.243
REMARK UNBOUND:                -0.119
REMARK SMILES C=CCc1ccc(O)c(OC)c1
REMARK SMILES IDX 9 1 7 2 6 3 5 4 4 5 12 6 10 7 11 8 8 9 3 11 2 12 1 13
REMARK H PARENT 8 10
REMARK Flexibility Score: inf
ROOT
ATOM      1  C   UNL     1     -33.169  44.565  39.424  1.00  0.00     0.160 A 
ATOM      2  C   UNL     1     -34.501  44.785  39.821  1.00  0.00     0.157 A 
ATOM      3  C   UNL     1     -35.144  43.867  40.658  1.00  0.00     0.050 A 
ATOM      4  C   UNL     1     -34.474  42.728  41.105  1.00  0.00     0.008 A 
ATOM      5  C   UNL     1     -33.150  42.486  40.710  1.00  0.00    -0.040 A 
ATOM      6  C   UNL     1     -32.499  43.411  39.878  1.00  0.00     0.054 A 
ENDROOT
BRANCH   1   7
ATOM      7  O   UNL     1     -32.548  45.506  38.588  1.00  0.00    -0.493 OA
ATOM      8  C   UNL     1     -32.515  45.426  37.166  1.00  0.00     0.278 C 
ENDBRANCH   1   7
BRANCH   2   9
ATOM      9  O   UNL     1     -35.204  45.913  39.395  1.00  0.00    -0.504 OA
ATOM     10  H   UNL     1     -34.842  46.538  38.685  1.00  0.00     0.293 HD
ENDBRANCH   2   9
BRANCH   5  11
ATOM     11  C   UNL     1     -32.420  41.272  41.218  1.00  0.00     0.062 C 
BRANCH  11  12
ATOM     12  C   UNL     1     -32.296  41.312  42.715  1.00  0.00    -0.030 C 
ATOM     13  C   UNL     1     -31.109  41.429  43.319  1.00  0.00     0.004 C 
ENDBRANCH  11  12
ENDBRANCH   5  11
TORSDOF 4
ENDMDL
MODEL 6
REMARK VINA RESULT:    -5.110      1.859      3.377
REMARK INTER + INTRA:          -6.274
REMARK INTER:                  -6.003
REMARK INTRA:                  -0.271
REMARK UNBOUND:                -0.119
REMARK SMILES C=CCc1ccc(O)c(OC)c1
REMARK SMILES IDX 9 1 7 2 6 3 5 4 4 5 12 6 10 7 11 8 8 9 3 11 2 12 1 13
REMARK H PARENT 8 10
REMARK Flexibility Score: inf
ROOT
ATOM      1  C   UNL     1     -39.686  37.316  47.360  1.00  0.00     0.160 A 
ATOM      2  C   UNL     1     -40.224  38.438  46.704  1.00  0.00     0.157 A 
ATOM      3  C   UNL     1     -39.455  39.142  45.773  1.00  0.00     0.050 A 
ATOM      4  C   UNL     1     -38.149  38.741  45.487  1.00  0.00     0.008 A 
ATOM      5  C   UNL     1     -37.592  37.632  46.140  1.00  0.00    -0.040 A 
ATOM      6  C   UNL     1     -38.366  36.918  47.069  1.00  0.00     0.054 A 
ENDROOT
BRANCH   1   7
ATOM      7  O   UNL     1     -40.485  36.625  48.286  1.00  0.00    -0.493 OA
ATOM      8  C   UNL     1     -40.438  36.821  49.696  1.00  0.00     0.278 C 
ENDBRANCH   1   7
BRANCH   2   9
ATOM      9  O   UNL     1     -41.527  38.869  46.963  1.00  0.00    -0.504 OA
ATOM     10  H   UNL     1     -41.786  39.848  46.941  1.00  0.00     0.293 HD
ENDBRANCH   2   9
BRANCH   5  11
ATOM     11  C   UNL     1     -36.193  37.184  45.809  1.00  0.00     0.062 C 
BRANCH  11  12
ATOM     12  C   UNL     1     -35.327  37.190  47.037  1.00  0.00    -0.030 C 
ATOM     13  C   UNL     1     -34.838  38.324  47.548  1.00  0.00     0.004 C 
ENDBRANCH  11  12
ENDBRANCH   5  11
TORSDOF 4
ENDMDL
MODEL 7
REMARK VINA RESULT:    -5.035      7.546      9.238
REMARK INTER + INTRA:          -6.185
REMARK INTER:                  -5.920
REMARK INTRA:                  -0.265
REMARK UNBOUND:                -0.119
REMARK SMILES C=CCc1ccc(O)c(OC)c1
REMARK SMILES IDX 9 1 7 2 6 3 5 4 4 5 12 6 10 7 11 8 8 9 3 11 2 12 1 13
REMARK H PARENT 8 10
REMARK Flexibility Score: inf
ROOT
ATOM      1  C   UNL     1     -34.941  43.927  40.939  1.00  0.00     0.160 A 
ATOM      2  C   UNL     1     -35.435  43.664  42.230  1.00  0.00     0.157 A 
ATOM      3  C   UNL     1     -35.109  42.467  42.875  1.00  0.00     0.050 A 
ATOM      4  C   UNL     1     -34.295  41.525  42.246  1.00  0.00     0.008 A 
ATOM      5  C   UNL     1     -33.803  41.764  40.955  1.00  0.00    -0.040 A 
ATOM      6  C   UNL     1     -34.121  42.969  40.309  1.00  0.00     0.054 A 
ENDROOT
BRANCH   1   7
ATOM      7  O   UNL     1     -35.281  45.140  40.318  1.00  0.00    -0.493 OA
ATOM      8  C   UNL     1     -34.899  45.504  38.995  1.00  0.00     0.278 C 
ENDBRANCH   1   7
BRANCH   2   9
ATOM      9  O   UNL     1     -36.251  44.584  42.891  1.00  0.00    -0.504 OA
ATOM     10  H   UNL     1     -37.158  44.330  43.263  1.00  0.00     0.293 HD
ENDBRANCH   2   9
BRANCH   5  11
ATOM     11  C   UNL     1     -32.902  40.758  40.291  1.00  0.00     0.062 C 
BRANCH  11  12
ATOM     12  C   UNL     1     -33.559  39.407  40.238  1.00  0.00    -0.030 C 
ATOM     13  C   UNL     1     -34.583  39.155  39.416  1.00  0.00     0.004 C 
ENDBRANCH  11  12
ENDBRANCH   5  11
TORSDOF 4
ENDMDL
MODEL 8
REMARK VINA RESULT:    -4.966      7.808      9.857
REMARK INTER + INTRA:          -6.100
REMARK INTER:                  -5.839
REMARK INTRA:                  -0.261
REMARK UNBOUND:                -0.119
REMARK SMILES C=CCc1ccc(O)c(OC)c1
REMARK SMILES IDX 9 1 7 2 6 3 5 4 4 5 12 6 10 7 11 8 8 9 3 11 2 12 1 13
REMARK H PARENT 8 10
REMARK Flexibility Score: inf
ROOT
ATOM      1  C   UNL     1     -35.148  42.854  41.001  1.00  0.00     0.160 A 
ATOM      2  C   UNL     1     -35.416  44.006  41.763  1.00  0.00     0.157 A 
ATOM      3  C   UNL     1     -35.236  45.275  41.203  1.00  0.00     0.050 A 
ATOM      4  C   UNL     1     -34.790  45.409  39.888  1.00  0.00     0.008 A 
ATOM      5  C   UNL     1     -34.505  44.273  39.118  1.00  0.00    -0.040 A 
ATOM      6  C   UNL     1     -34.694  42.998  39.675  1.00  0.00     0.054 A 
ENDROOT
BRANCH   1   7
ATOM      7  O   UNL     1     -35.343  41.593  41.588  1.00  0.00    -0.493 OA
ATOM      8  C   UNL     1     -34.310  40.806  42.173  1.00  0.00     0.278 C 
ENDBRANCH   1   7
BRANCH   2   9
ATOM      9  O   UNL     1     -35.866  43.910  43.081  1.00  0.00    -0.504 OA
ATOM     10  H   UNL     1     -35.250  43.660  43.845  1.00  0.00     0.293 HD
ENDBRANCH   2   9
BRANCH   5  11
ATOM     11  C   UNL     1     -34.051  44.422  37.690  1.00  0.00     0.062 C 
BRANCH  11  12
ATOM     12  C   UNL     1     -33.274  45.695  37.509  1.00  0.00    -0.030 C 
ATOM     13  C   UNL     1     -31.951  45.691  37.313  1.00  0.00     0.004 C 
ENDBRANCH  11  12
ENDBRANCH   5  11
TORSDOF 4
ENDMDL
MODEL 9
REMARK VINA RESULT:    -4.936      8.398     10.064
REMARK INTER + INTRA:          -6.065
REMARK INTER:                  -5.792
REMARK INTRA:                  -0.273
REMARK UNBOUND:                -0.119
REMARK SMILES C=CCc1ccc(O)c(OC)c1
REMARK SMILES IDX 9 1 7 2 6 3 5 4 4 5 12 6 10 7 11 8 8 9 3 11 2 12 1 13
REMARK H PARENT 8 10
REMARK Flexibility Score: inf
ROOT
ATOM      1  C   UNL     1     -34.199  42.597  40.134  1.00  0.00     0.160 A 
ATOM      2  C   UNL     1     -35.018  41.456  40.220  1.00  0.00     0.157 A 
ATOM      3  C   UNL     1     -34.480  40.237  40.646  1.00  0.00     0.050 A 
ATOM      4  C   UNL     1     -33.131  40.141  40.985  1.00  0.00     0.008 A 
ATOM      5  C   UNL     1     -32.296  41.264  40.893  1.00  0.00    -0.040 A 
ATOM      6  C   UNL     1     -32.836  42.492  40.476  1.00  0.00     0.054 A 
ENDROOT
BRANCH   1   7
ATOM      7  O   UNL     1     -34.768  43.809  39.709  1.00  0.00    -0.493 OA
ATOM      8  C   UNL     1     -34.406  44.496  38.515  1.00  0.00     0.278 C 
ENDBRANCH   1   7
BRANCH   2   9
ATOM      9  O   UNL     1     -36.373  41.515  39.890  1.00  0.00    -0.504 OA
ATOM     10  H   UNL     1     -37.037  42.058  40.428  1.00  0.00     0.293 HD
ENDBRANCH   2   9
BRANCH   5  11
ATOM     11  C   UNL     1     -30.847  41.164  41.289  1.00  0.00     0.062 C 
BRANCH  11  12
ATOM     12  C   UNL     1     -30.716  40.781  42.736  1.00  0.00    -0.030 C 
ATOM     13  C   UNL     1     -31.174  41.567  43.716  1.00  0.00     0.004 C 
ENDBRANCH  11  12
ENDBRANCH   5  11
TORSDOF 4
ENDMDL
