MODEL 1
REMARK VINA RESULT:    -3.303      0.000      0.000
REMARK INTER + INTRA:          -4.712
REMARK INTER:                  -4.268
REMARK INTRA:                  -0.443
REMARK UNBOUND:                -0.443
REMARK SMILES CCO[C@H]1O[C@H](CO)[C@@H](O)[C@@H](O)[C@@H]1O
REMARK SMILES IDX 4 1 13 2 11 3 9 4 6 5 5 6 3 7 2 8 1 9 14 10 12 12 7 14 8 15
REMARK SMILES IDX 10 17
REMARK H PARENT 14 11 12 13 8 16 10 18
REMARK Flexibility Score: inf
ROOT
ATOM      1  C   UNL     1      11.274  -3.936   1.381  1.00  0.00     0.281 C 
ATOM      2  C   UNL     1       9.877  -3.406   0.982  1.00  0.00     0.202 C 
ATOM      3  C   UNL     1       8.772  -4.108   1.791  1.00  0.00     0.179 C 
ATOM      4  C   UNL     1       8.959  -5.636   1.726  1.00  0.00     0.177 C 
ATOM      5  C   UNL     1      10.413  -6.006   2.101  1.00  0.00     0.178 C 
ATOM      6  O   UNL     1      11.338  -5.348   1.248  1.00  0.00    -0.341 OA
ENDROOT
BRANCH   1   7
ATOM      7  O   UNL     1      11.606  -3.553   2.709  1.00  0.00    -0.350 OA
BRANCH   7   8
ATOM      8  C   UNL     1      12.402  -2.386   2.719  1.00  0.00     0.160 C 
ATOM      9  C   UNL     1      13.641  -2.620   1.868  1.00  0.00     0.035 C 
ENDBRANCH   7   8
ENDBRANCH   1   7
BRANCH   2  10
ATOM     10  O   UNL     1       9.681  -3.629  -0.392  1.00  0.00    -0.385 OA
ATOM     11  H   UNL     1      10.142  -2.894  -0.873  1.00  0.00     0.211 HD
ENDBRANCH   2  10
BRANCH   3  12
ATOM     12  O   UNL     1       8.814  -3.661   3.125  1.00  0.00    -0.387 OA
ATOM     13  H   UNL     1       9.054  -4.442   3.687  1.00  0.00     0.211 HD
ENDBRANCH   3  12
BRANCH   5  14
ATOM     14  C   UNL     1      10.648  -7.522   2.001  1.00  0.00     0.191 C 
BRANCH  14  15
ATOM     15  O   UNL     1       9.752  -8.119   1.100  1.00  0.00    -0.394 OA
ATOM     16  H   UNL     1       8.847  -7.788   1.336  1.00  0.00     0.210 HD
ENDBRANCH  14  15
ENDBRANCH   5  14
BRANCH   4  17
ATOM     17  O   UNL     1       8.060  -6.273   2.599  1.00  0.00    -0.387 OA
ATOM     18  H   UNL     1       7.349  -6.673   2.034  1.00  0.00     0.211 HD
ENDBRANCH   4  17
TORSDOF 7
ENDMDL
MODEL 2
REMARK VINA RESULT:    -3.021      2.038      4.876
REMARK INTER + INTRA:          -4.347
REMARK INTER:                  -4.160
REMARK INTRA:                  -0.187
REMARK UNBOUND:                -0.443
REMARK SMILES CCO[C@H]1O[C@H](CO)[C@@H](O)[C@@H](O)[C@@H]1O
REMARK SMILES IDX 4 1 13 2 11 3 9 4 6 5 5 6 3 7 2 8 1 9 14 10 12 12 7 14 8 15
REMARK SMILES IDX 10 17
REMARK H PARENT 14 11 12 13 8 16 10 18
REMARK Flexibility Score: inf
ROOT
ATOM      1  C   UNL     1       9.614  -3.459   1.871  1.00  0.00     0.281 C 
ATOM      2  C   UNL     1      10.735  -4.179   1.088  1.00  0.00     0.202 C 
ATOM      3  C   UNL     1      12.095  -4.001   1.788  1.00  0.00     0.179 C 
ATOM      4  C   UNL     1      12.337  -2.512   2.101  1.00  0.00     0.177 C 
ATOM      5  C   UNL     1      11.113  -1.922   2.838  1.00  0.00     0.178 C 
ATOM      6  O   UNL     1       9.930  -2.090   2.069  1.00  0.00    -0.341 OA
ENDROOT
BRANCH   1   7
ATOM      7  O   UNL     1       9.375  -4.093   3.122  1.00  0.00    -0.350 OA
BRANCH   7   8
ATOM      8  C   UNL     1       8.317  -5.024   3.028  1.00  0.00     0.160 C 
ATOM      9  C   UNL     1       6.992  -4.283   3.123  1.00  0.00     0.035 C 
ENDBRANCH   7   8
ENDBRANCH   1   7
BRANCH   2  10
ATOM     10  O   UNL     1      10.794  -3.650  -0.213  1.00  0.00    -0.385 OA
ATOM     11  H   UNL     1      10.817  -2.662  -0.122  1.00  0.00     0.211 HD
ENDBRANCH   2  10
BRANCH   3  12
ATOM     12  O   UNL     1      12.115  -4.765   2.970  1.00  0.00    -0.387 OA
ATOM     13  H   UNL     1      12.694  -5.552   2.799  1.00  0.00     0.211 HD
ENDBRANCH   3  12
BRANCH   5  14
ATOM     14  C   UNL     1      11.301  -0.423   3.125  1.00  0.00     0.191 C 
BRANCH  14  15
ATOM     15  O   UNL     1      12.577   0.015   2.736  1.00  0.00    -0.394 OA
ATOM     16  H   UNL     1      13.048   0.292   3.564  1.00  0.00     0.210 HD
ENDBRANCH  14  15
ENDBRANCH   5  14
BRANCH   4  17
ATOM     17  O   UNL     1      13.491  -2.363   2.890  1.00  0.00    -0.387 OA
ATOM     18  H   UNL     1      13.876  -1.475   2.666  1.00  0.00     0.211 HD
ENDBRANCH   4  17
TORSDOF 7
ENDMDL
MODEL 3
REMARK VINA RESULT:    -2.905      9.148     11.064
REMARK INTER + INTRA:          -4.198
REMARK INTER:                  -4.006
REMARK INTRA:                  -0.192
REMARK UNBOUND:                -0.443
REMARK SMILES CCO[C@H]1O[C@H](CO)[C@@H](O)[C@@H](O)[C@@H]1O
REMARK SMILES IDX 4 1 13 2 11 3 9 4 6 5 5 6 3 7 2 8 1 9 14 10 12 12 7 14 8 15
REMARK SMILES IDX 10 17
REMARK H PARENT 14 11 12 13 8 16 10 18
REMARK Flexibility Score: inf
ROOT
ATOM      1  C   UNL     1      -0.582  -8.592   1.165  1.00  0.00     0.281 C 
ATOM      2  C   UNL     1      -0.010  -8.660   2.599  1.00  0.00     0.202 C 
ATOM      3  C   UNL     1       1.502  -8.369   2.602  1.00  0.00     0.179 C 
ATOM      4  C   UNL     1       2.210  -9.243   1.550  1.00  0.00     0.177 C 
ATOM      5  C   UNL     1       1.497  -9.108   0.185  1.00  0.00     0.178 C 
ATOM      6  O   UNL     1       0.125  -9.462   0.294  1.00  0.00    -0.341 OA
ENDROOT
BRANCH   1   7
ATOM      7  O   UNL     1      -0.547  -7.262   0.664  1.00  0.00    -0.350 OA
BRANCH   7   8
ATOM      8  C   UNL     1      -1.651  -6.513   1.128  1.00  0.00     0.160 C 
ATOM      9  C   UNL     1      -2.142  -5.606   0.010  1.00  0.00     0.035 C 
ENDBRANCH   7   8
ENDBRANCH   1   7
BRANCH   2  10
ATOM     10  O   UNL     1      -0.252  -9.942   3.125  1.00  0.00    -0.385 OA
ATOM     11  H   UNL     1       0.063  -9.932   4.066  1.00  0.00     0.211 HD
ENDBRANCH   2  10
BRANCH   3  12
ATOM     12  O   UNL     1       1.715  -7.004   2.337  1.00  0.00    -0.387 OA
ATOM     13  H   UNL     1       2.591  -6.930   1.878  1.00  0.00     0.211 HD
ENDBRANCH   3  12
BRANCH   5  14
ATOM     14  C   UNL     1       2.150 -10.004  -0.880  1.00  0.00     0.191 C 
BRANCH  14  15
ATOM     15  O   UNL     1       1.336 -10.120  -2.018  1.00  0.00    -0.394 OA
ATOM     16  H   UNL     1       1.324 -11.082  -2.264  1.00  0.00     0.210 HD
ENDBRANCH  14  15
ENDBRANCH   5  14
BRANCH   4  17
ATOM     17  O   UNL     1       3.558  -8.861   1.428  1.00  0.00    -0.387 OA
ATOM     18  H   UNL     1       3.635  -7.957   1.831  1.00  0.00     0.211 HD
ENDBRANCH   4  17
TORSDOF 7
ENDMDL
MODEL 4
REMARK VINA RESULT:    -2.797      2.401      4.193
REMARK INTER + INTRA:          -4.058
REMARK INTER:                  -3.731
REMARK INTRA:                  -0.327
REMARK UNBOUND:                -0.443
REMARK SMILES CCO[C@H]1O[C@H](CO)[C@@H](O)[C@@H](O)[C@@H]1O
REMARK SMILES IDX 4 1 13 2 11 3 9 4 6 5 5 6 3 7 2 8 1 9 14 10 12 12 7 14 8 15
REMARK SMILES IDX 10 17
REMARK H PARENT 14 11 12 13 8 16 10 18
REMARK Flexibility Score: inf
ROOT
ATOM      1  C   UNL     1       8.945  -5.612   2.388  1.00  0.00     0.281 C 
ATOM      2  C   UNL     1       8.808  -7.091   1.962  1.00  0.00     0.202 C 
ATOM      3  C   UNL     1       7.513  -7.314   1.160  1.00  0.00     0.179 C 
ATOM      4  C   UNL     1       6.313  -6.715   1.918  1.00  0.00     0.177 C 
ATOM      5  C   UNL     1       6.618  -5.254   2.320  1.00  0.00     0.178 C 
ATOM      6  O   UNL     1       7.799  -5.182   3.107  1.00  0.00    -0.341 OA
ENDROOT
BRANCH   1   7
ATOM      7  O   UNL     1       9.160  -4.773   1.261  1.00  0.00    -0.350 OA
BRANCH   7   8
ATOM      8  C   UNL     1       9.876  -3.609   1.620  1.00  0.00     0.160 C 
ATOM      9  C   UNL     1      11.357  -3.836   1.361  1.00  0.00     0.035 C 
ENDBRANCH   7   8
ENDBRANCH   1   7
BRANCH   2  10
ATOM     10  O   UNL     1       8.804  -7.898   3.113  1.00  0.00    -0.385 OA
ATOM     11  H   UNL     1       9.290  -7.397   3.819  1.00  0.00     0.211 HD
ENDBRANCH   2  10
BRANCH   3  12
ATOM     12  O   UNL     1       7.642  -6.722  -0.109  1.00  0.00    -0.387 OA
ATOM     13  H   UNL     1       7.236  -5.819  -0.053  1.00  0.00     0.211 HD
ENDBRANCH   3  12
BRANCH   5  14
ATOM     14  C   UNL     1       5.459  -4.639   3.120  1.00  0.00     0.191 C 
BRANCH  14  15
ATOM     15  O   UNL     1       4.310  -4.495   2.326  1.00  0.00    -0.394 OA
ATOM     16  H   UNL     1       4.524  -3.817   1.633  1.00  0.00     0.210 HD
ENDBRANCH  14  15
ENDBRANCH   5  14
BRANCH   4  17
ATOM     17  O   UNL     1       5.159  -6.762   1.116  1.00  0.00    -0.387 OA
ATOM     18  H   UNL     1       4.807  -5.835   1.069  1.00  0.00     0.211 HD
ENDBRANCH   4  17
TORSDOF 7
ENDMDL
MODEL 5
REMARK VINA RESULT:    -2.797      8.173     10.558
REMARK INTER + INTRA:          -4.058
REMARK INTER:                  -3.626
REMARK INTRA:                  -0.433
REMARK UNBOUND:                -0.443
REMARK SMILES CCO[C@H]1O[C@H](CO)[C@@H](O)[C@@H](O)[C@@H]1O
REMARK SMILES IDX 4 1 13 2 11 3 9 4 6 5 5 6 3 7 2 8 1 9 14 10 12 12 7 14 8 15
REMARK SMILES IDX 10 17
REMARK H PARENT 14 11 12 13 8 16 10 18
REMARK Flexibility Score: inf
ROOT
ATOM      1  C   UNL     1       0.244  -7.643   0.939  1.00  0.00     0.281 C 
ATOM      2  C   UNL     1       0.528  -9.094   0.489  1.00  0.00     0.202 C 
ATOM      3  C   UNL     1       1.308  -9.862   1.570  1.00  0.00     0.179 C 
ATOM      4  C   UNL     1       2.532  -9.043   2.021  1.00  0.00     0.177 C 
ATOM      5  C   UNL     1       2.098  -7.605   2.391  1.00  0.00     0.178 C 
ATOM      6  O   UNL     1       1.446  -6.977   1.296  1.00  0.00    -0.341 OA
ENDROOT
BRANCH   1   7
ATOM      7  O   UNL     1      -0.673  -7.615   2.026  1.00  0.00    -0.350 OA
BRANCH   7   8
ATOM      8  C   UNL     1      -1.985  -7.344   1.578  1.00  0.00     0.160 C 
ATOM      9  C   UNL     1      -1.990  -6.026   0.819  1.00  0.00     0.035 C 
ENDBRANCH   7   8
ENDBRANCH   1   7
BRANCH   2  10
ATOM     10  O   UNL     1       1.269  -9.063  -0.706  1.00  0.00    -0.385 OA
ATOM     11  H   UNL     1       2.076  -8.512  -0.530  1.00  0.00     0.211 HD
ENDBRANCH   2  10
BRANCH   3  12
ATOM     12  O   UNL     1       0.459 -10.124   2.661  1.00  0.00    -0.387 OA
ATOM     13  H   UNL     1       0.088  -9.253   2.957  1.00  0.00     0.211 HD
ENDBRANCH   3  12
BRANCH   5  14
ATOM     14  C   UNL     1       3.304  -6.744   2.801  1.00  0.00     0.191 C 
BRANCH  14  15
ATOM     15  O   UNL     1       4.465  -7.132   2.115  1.00  0.00    -0.394 OA
ATOM     16  H   UNL     1       5.054  -7.577   2.778  1.00  0.00     0.210 HD
ENDBRANCH  14  15
ENDBRANCH   5  14
BRANCH   4  17
ATOM     17  O   UNL     1       3.149  -9.657   3.125  1.00  0.00    -0.387 OA
ATOM     18  H   UNL     1       3.205 -10.626   2.917  1.00  0.00     0.211 HD
ENDBRANCH   4  17
TORSDOF 7
ENDMDL
MODEL 6
REMARK VINA RESULT:    -2.490      2.369      4.858
REMARK INTER + INTRA:          -3.661
REMARK INTER:                  -3.265
REMARK INTRA:                  -0.395
REMARK UNBOUND:                -0.443
REMARK SMILES CCO[C@H]1O[C@H](CO)[C@@H](O)[C@@H](O)[C@@H]1O
REMARK SMILES IDX 4 1 13 2 11 3 9 4 6 5 5 6 3 7 2 8 1 9 14 10 12 12 7 14 8 15
REMARK SMILES IDX 10 17
REMARK H PARENT 14 11 12 13 8 16 10 18
REMARK Flexibility Score: inf
ROOT
ATOM      1  C   UNL     1       8.904  -8.762   1.831  1.00  0.00     0.281 C 
ATOM      2  C   UNL     1       7.431  -8.293   1.842  1.00  0.00     0.202 C 
ATOM      3  C   UNL     1       7.327  -6.804   1.466  1.00  0.00     0.179 C 
ATOM      4  C   UNL     1       8.307  -5.974   2.318  1.00  0.00     0.177 C 
ATOM      5  C   UNL     1       9.722  -6.593   2.247  1.00  0.00     0.178 C 
ATOM      6  O   UNL     1       9.703  -7.948   2.675  1.00  0.00    -0.341 OA
ENDROOT
BRANCH   1   7
ATOM      7  O   UNL     1       9.430  -8.764   0.510  1.00  0.00    -0.350 OA
BRANCH   7   8
ATOM      8  C   UNL     1      10.151  -9.951   0.250  1.00  0.00     0.160 C 
ATOM      9  C   UNL     1      11.614  -9.605   0.019  1.00  0.00     0.035 C 
ENDBRANCH   7   8
ENDBRANCH   1   7
BRANCH   2  10
ATOM     10  O   UNL     1       6.896  -8.502   3.125  1.00  0.00    -0.385 OA
ATOM     11  H   UNL     1       6.605  -9.450   3.165  1.00  0.00     0.211 HD
ENDBRANCH   2  10
BRANCH   3  12
ATOM     12  O   UNL     1       7.607  -6.647   0.096  1.00  0.00    -0.387 OA
ATOM     13  H   UNL     1       7.642  -5.672  -0.085  1.00  0.00     0.211 HD
ENDBRANCH   3  12
BRANCH   5  14
ATOM     14  C   UNL     1      10.718  -5.817   3.124  1.00  0.00     0.191 C 
BRANCH  14  15
ATOM     15  O   UNL     1      11.238  -4.705   2.444  1.00  0.00    -0.394 OA
ATOM     16  H   UNL     1      10.618  -3.949   2.614  1.00  0.00     0.210 HD
ENDBRANCH  14  15
ENDBRANCH   5  14
BRANCH   4  17
ATOM     17  O   UNL     1       8.341  -4.644   1.863  1.00  0.00    -0.387 OA
ATOM     18  H   UNL     1       8.721  -4.100   2.601  1.00  0.00     0.211 HD
ENDBRANCH   4  17
TORSDOF 7
ENDMDL
MODEL 7
REMARK VINA RESULT:    -2.278     10.613     12.212
REMARK INTER + INTRA:          -3.387
REMARK INTER:                  -3.301
REMARK INTRA:                  -0.087
REMARK UNBOUND:                -0.443
REMARK SMILES CCO[C@H]1O[C@H](CO)[C@@H](O)[C@@H](O)[C@@H]1O
REMARK SMILES IDX 4 1 13 2 11 3 9 4 6 5 5 6 3 7 2 8 1 9 14 10 12 12 7 14 8 15
REMARK SMILES IDX 10 17
REMARK H PARENT 14 11 12 13 8 16 10 18
REMARK Flexibility Score: inf
ROOT
ATOM      1  C   UNL     1       0.631  -8.182   0.736  1.00  0.00     0.281 C 
ATOM      2  C   UNL     1       0.183  -8.772   2.093  1.00  0.00     0.202 C 
ATOM      3  C   UNL     1      -1.348  -8.915   2.151  1.00  0.00     0.179 C 
ATOM      4  C   UNL     1      -2.018  -7.591   1.736  1.00  0.00     0.177 C 
ATOM      5  C   UNL     1      -1.434  -7.103   0.390  1.00  0.00     0.178 C 
ATOM      6  O   UNL     1      -0.024  -6.950   0.477  1.00  0.00    -0.341 OA
ENDROOT
BRANCH   1   7
ATOM      7  O   UNL     1       0.389  -9.099  -0.324  1.00  0.00    -0.350 OA
BRANCH   7   8
ATOM      8  C   UNL     1       1.371 -10.113  -0.354  1.00  0.00     0.160 C 
ATOM      9  C   UNL     1       2.034 -10.125  -1.723  1.00  0.00     0.035 C 
ENDBRANCH   7   8
ENDBRANCH   1   7
BRANCH   2  10
ATOM     10  O   UNL     1       0.625  -7.926   3.125  1.00  0.00    -0.385 OA
ATOM     11  H   UNL     1       1.396  -7.413   2.767  1.00  0.00     0.211 HD
ENDBRANCH   2  10
BRANCH   3  12
ATOM     12  O   UNL     1      -1.753  -9.962   1.302  1.00  0.00    -0.387 OA
ATOM     13  H   UNL     1      -2.681  -9.763   1.016  1.00  0.00     0.211 HD
ENDBRANCH   3  12
BRANCH   5  14
ATOM     14  C   UNL     1      -2.047  -5.758  -0.033  1.00  0.00     0.191 C 
BRANCH  14  15
ATOM     15  O   UNL     1      -3.164  -5.437   0.754  1.00  0.00    -0.394 OA
ATOM     16  H   UNL     1      -3.678  -6.276   0.878  1.00  0.00     0.210 HD
ENDBRANCH  14  15
ENDBRANCH   5  14
BRANCH   4  17
ATOM     17  O   UNL     1      -3.409  -7.765   1.621  1.00  0.00    -0.387 OA
ATOM     18  H   UNL     1      -3.830  -7.078   2.201  1.00  0.00     0.211 HD
ENDBRANCH   4  17
TORSDOF 7
ENDMDL
MODEL 8
REMARK VINA RESULT:    -2.215      2.593      5.390
REMARK INTER + INTRA:          -3.305
REMARK INTER:                  -2.964
REMARK INTRA:                  -0.341
REMARK UNBOUND:                -0.443
REMARK SMILES CCO[C@H]1O[C@H](CO)[C@@H](O)[C@@H](O)[C@@H]1O
REMARK SMILES IDX 4 1 13 2 11 3 9 4 6 5 5 6 3 7 2 8 1 9 14 10 12 12 7 14 8 15
REMARK SMILES IDX 10 17
REMARK H PARENT 14 11 12 13 8 16 10 18
REMARK Flexibility Score: inf
ROOT
ATOM      1  C   UNL     1       6.399  -6.210   1.894  1.00  0.00     0.281 C 
ATOM      2  C   UNL     1       7.248  -7.060   0.920  1.00  0.00     0.202 C 
ATOM      3  C   UNL     1       8.685  -7.224   1.445  1.00  0.00     0.179 C 
ATOM      4  C   UNL     1       9.269  -5.851   1.827  1.00  0.00     0.177 C 
ATOM      5  C   UNL     1       8.289  -5.102   2.760  1.00  0.00     0.178 C 
ATOM      6  O   UNL     1       7.017  -4.956   2.144  1.00  0.00    -0.341 OA
ENDROOT
BRANCH   1   7
ATOM      7  O   UNL     1       6.179  -6.901   3.116  1.00  0.00    -0.350 OA
BRANCH   7   8
ATOM      8  C   UNL     1       4.915  -7.530   3.125  1.00  0.00     0.160 C 
ATOM      9  C   UNL     1       3.828  -6.467   3.068  1.00  0.00     0.035 C 
ENDBRANCH   7   8
ENDBRANCH   1   7
BRANCH   2  10
ATOM     10  O   UNL     1       7.266  -6.430  -0.337  1.00  0.00    -0.385 OA
ATOM     11  H   UNL     1       7.557  -7.112  -0.997  1.00  0.00     0.211 HD
ENDBRANCH   2  10
BRANCH   3  12
ATOM     12  O   UNL     1       8.681  -8.087   2.556  1.00  0.00    -0.387 OA
ATOM     13  H   UNL     1       9.144  -7.614   3.294  1.00  0.00     0.211 HD
ENDBRANCH   3  12
BRANCH   5  14
ATOM     14  C   UNL     1       8.819  -3.706   3.124  1.00  0.00     0.191 C 
BRANCH  14  15
ATOM     15  O   UNL     1       9.284  -3.024   1.989  1.00  0.00    -0.394 OA
ATOM     16  H   UNL     1       9.987  -3.593   1.582  1.00  0.00     0.210 HD
ENDBRANCH  14  15
ENDBRANCH   5  14
BRANCH   4  17
ATOM     17  O   UNL     1      10.512  -6.011   2.465  1.00  0.00    -0.387 OA
ATOM     18  H   UNL     1      10.870  -6.890   2.174  1.00  0.00     0.211 HD
ENDBRANCH   4  17
TORSDOF 7
ENDMDL
