MODEL 1
REMARK VINA RESULT:    -4.738      0.000      0.000
REMARK INTER + INTRA:          -7.453
REMARK INTER:                  -6.400
REMARK INTRA:                  -1.053
REMARK UNBOUND:                -1.053
REMARK SMILES CC(=O)CCC=C(C)CCC=C(C)C
REMARK SMILES IDX 7 1 6 2 8 3 9 4 10 5 11 6 13 7 12 8 14 9 5 10 4 11 2 12 3 13
REMARK SMILES IDX 1 14
REMARK H PARENT
REMARK Flexibility Score: inf
ROOT
ATOM      1  C   UNL     1       1.963 -23.621  23.982  1.00  0.00    -0.077 C 
ATOM      2  C   UNL     1       2.539 -24.288  22.959  1.00  0.00    -0.028 C 
ATOM      3  C   UNL     1       2.389 -23.852  25.413  1.00  0.00     0.039 C 
ENDROOT
BRANCH   1   4
ATOM      4  C   UNL     1       0.863 -22.623  23.690  1.00  0.00     0.034 C 
BRANCH   4   5
ATOM      5  C   UNL     1      -0.337 -23.312  23.034  1.00  0.00     0.032 C 
BRANCH   5   6
ATOM      6  C   UNL     1      -0.965 -24.307  23.978  1.00  0.00    -0.028 C 
ATOM      7  C   UNL     1      -0.348 -26.280  22.564  1.00  0.00     0.039 C 
ATOM      8  C   UNL     1      -1.000 -25.641  23.769  1.00  0.00    -0.080 C 
ATOM      9  C   UNL     1      -1.698 -26.511  24.783  1.00  0.00     0.039 C 
ENDBRANCH   5   6
ENDBRANCH   4   5
ENDBRANCH   1   4
BRANCH   2  10
ATOM     10  C   UNL     1       3.643 -25.300  23.153  1.00  0.00     0.035 C 
BRANCH  10  11
ATOM     11  C   UNL     1       5.005 -24.717  22.766  1.00  0.00     0.079 C 
BRANCH  11  12
ATOM     12  C   UNL     1       5.951 -24.746  23.938  1.00  0.00     0.130 C 
ATOM     13  O   UNL     1       6.877 -23.950  23.982  1.00  0.00    -0.300 OA
ATOM     14  C   UNL     1       5.790 -25.740  25.050  1.00  0.00     0.087 C 
ENDBRANCH  11  12
ENDBRANCH  10  11
ENDBRANCH   2  10
TORSDOF 6
ENDMDL
MODEL 2
REMARK VINA RESULT:    -4.716      2.247      5.422
REMARK INTER + INTRA:          -7.424
REMARK INTER:                  -6.363
REMARK INTRA:                  -1.061
REMARK UNBOUND:                -1.053
REMARK SMILES CC(=O)CCC=C(C)CCC=C(C)C
REMARK SMILES IDX 7 1 6 2 8 3 9 4 10 5 11 6 13 7 12 8 14 9 5 10 4 11 2 12 3 13
REMARK SMILES IDX 1 14
REMARK H PARENT
REMARK Flexibility Score: inf
ROOT
ATOM      1  C   UNL     1       2.649 -25.898  22.978  1.00  0.00    -0.077 C 
ATOM      2  C   UNL     1       2.126 -24.714  22.592  1.00  0.00    -0.028 C 
ATOM      3  C   UNL     1       1.772 -27.018  23.486  1.00  0.00     0.039 C 
ENDROOT
BRANCH   1   4
ATOM      4  C   UNL     1       4.146 -26.106  22.904  1.00  0.00     0.034 C 
BRANCH   4   5
ATOM      5  C   UNL     1       4.889 -24.774  23.043  1.00  0.00     0.032 C 
BRANCH   5   6
ATOM      6  C   UNL     1       5.846 -24.814  24.207  1.00  0.00    -0.028 C 
ATOM      7  C   UNL     1       4.119 -24.066  25.860  1.00  0.00     0.039 C 
ATOM      8  C   UNL     1       5.522 -24.475  25.475  1.00  0.00    -0.080 C 
ATOM      9  C   UNL     1       6.597 -24.526  26.530  1.00  0.00     0.039 C 
ENDBRANCH   5   6
ENDBRANCH   4   5
ENDBRANCH   1   4
BRANCH   2  10
ATOM     10  C   UNL     1       0.647 -24.415  22.630  1.00  0.00     0.035 C 
BRANCH  10  11
ATOM     11  C   UNL     1       0.385 -22.945  22.969  1.00  0.00     0.079 C 
BRANCH  11  12
ATOM     12  C   UNL     1       0.868 -22.623  24.359  1.00  0.00     0.130 C 
ATOM     13  O   UNL     1       1.670 -21.716  24.521  1.00  0.00    -0.300 OA
ATOM     14  C   UNL     1       0.392 -23.398  25.552  1.00  0.00     0.087 C 
ENDBRANCH  11  12
ENDBRANCH  10  11
ENDBRANCH   2  10
TORSDOF 6
ENDMDL
MODEL 3
REMARK VINA RESULT:    -4.699      9.309     11.071
REMARK INTER + INTRA:          -7.400
REMARK INTER:                  -6.307
REMARK INTRA:                  -1.094
REMARK UNBOUND:                -1.053
REMARK SMILES CC(=O)CCC=C(C)CCC=C(C)C
REMARK SMILES IDX 7 1 6 2 8 3 9 4 10 5 11 6 13 7 12 8 14 9 5 10 4 11 2 12 3 13
REMARK SMILES IDX 1 14
REMARK H PARENT
REMARK Flexibility Score: inf
ROOT
ATOM      1  C   UNL     1       9.693 -19.132  20.169  1.00  0.00    -0.077 C 
ATOM      2  C   UNL     1      10.304 -18.326  21.065  1.00  0.00    -0.028 C 
ATOM      3  C   UNL     1      10.446 -19.727  19.002  1.00  0.00     0.039 C 
ENDROOT
BRANCH   1   4
ATOM      4  C   UNL     1       8.221 -19.443  20.335  1.00  0.00     0.034 C 
BRANCH   4   5
ATOM      5  C   UNL     1       7.364 -18.222  19.986  1.00  0.00     0.032 C 
BRANCH   5   6
ATOM      6  C   UNL     1       6.923 -18.272  18.545  1.00  0.00    -0.028 C 
ATOM      7  C   UNL     1       8.565 -16.527  17.815  1.00  0.00     0.039 C 
ATOM      8  C   UNL     1       7.436 -17.498  17.562  1.00  0.00    -0.080 C 
ATOM      9  C   UNL     1       6.867 -17.630  16.173  1.00  0.00     0.039 C 
ENDBRANCH   5   6
ENDBRANCH   4   5
ENDBRANCH   1   4
BRANCH   2  10
ATOM     10  C   UNL     1      11.767 -17.962  20.981  1.00  0.00     0.035 C 
BRANCH  10  11
ATOM     11  C   UNL     1      12.599 -18.774  21.978  1.00  0.00     0.079 C 
BRANCH  11  12
ATOM     12  C   UNL     1      13.464 -19.777  21.260  1.00  0.00     0.130 C 
ATOM     13  O   UNL     1      13.661 -20.871  21.766  1.00  0.00    -0.300 OA
ATOM     14  C   UNL     1      14.100 -19.460  19.939  1.00  0.00     0.087 C 
ENDBRANCH  11  12
ENDBRANCH  10  11
ENDBRANCH   2  10
TORSDOF 6
ENDMDL
MODEL 4
REMARK VINA RESULT:    -4.641     11.057     12.911
REMARK INTER + INTRA:          -7.322
REMARK INTER:                  -6.192
REMARK INTRA:                  -1.130
REMARK UNBOUND:                -1.053
REMARK SMILES CC(=O)CCC=C(C)CCC=C(C)C
REMARK SMILES IDX 7 1 6 2 8 3 9 4 10 5 11 6 13 7 12 8 14 9 5 10 4 11 2 12 3 13
REMARK SMILES IDX 1 14
REMARK H PARENT
REMARK Flexibility Score: inf
ROOT
ATOM      1  C   UNL     1       7.106 -14.607  25.234  1.00  0.00    -0.077 C 
ATOM      2  C   UNL     1       7.443 -13.928  26.352  1.00  0.00    -0.028 C 
ATOM      3  C   UNL     1       5.694 -15.093  25.003  1.00  0.00     0.039 C 
ENDROOT
BRANCH   1   4
ATOM      4  C   UNL     1       8.166 -14.891  24.192  1.00  0.00     0.034 C 
BRANCH   4   5
ATOM      5  C   UNL     1       7.860 -14.149  22.888  1.00  0.00     0.032 C 
BRANCH   5   6
ATOM      6  C   UNL     1       8.385 -12.736  22.940  1.00  0.00    -0.028 C 
ATOM      7  C   UNL     1       6.100 -11.720  23.070  1.00  0.00     0.039 C 
ATOM      8  C   UNL     1       7.606 -11.633  22.997  1.00  0.00    -0.080 C 
ATOM      9  C   UNL     1       8.273 -10.281  23.003  1.00  0.00     0.039 C 
ENDBRANCH   5   6
ENDBRANCH   4   5
ENDBRANCH   1   4
BRANCH   2  10
ATOM     10  C   UNL     1       6.455 -13.598  27.445  1.00  0.00     0.035 C 
BRANCH  10  11
ATOM     11  C   UNL     1       6.855 -14.250  28.771  1.00  0.00     0.079 C 
BRANCH  11  12
ATOM     12  C   UNL     1       6.204 -15.601  28.921  1.00  0.00     0.130 C 
ATOM     13  O   UNL     1       6.858 -16.538  29.353  1.00  0.00    -0.300 OA
ATOM     14  C   UNL     1       4.771 -15.826  28.541  1.00  0.00     0.087 C 
ENDBRANCH  11  12
ENDBRANCH  10  11
ENDBRANCH   2  10
TORSDOF 6
ENDMDL
MODEL 5
REMARK VINA RESULT:    -4.626      2.197      4.968
REMARK INTER + INTRA:          -7.302
REMARK INTER:                  -5.890
REMARK INTRA:                  -1.411
REMARK UNBOUND:                -1.053
REMARK SMILES CC(=O)CCC=C(C)CCC=C(C)C
REMARK SMILES IDX 7 1 6 2 8 3 9 4 10 5 11 6 13 7 12 8 14 9 5 10 4 11 2 12 3 13
REMARK SMILES IDX 1 14
REMARK H PARENT
REMARK Flexibility Score: inf
ROOT
ATOM      1  C   UNL     1       1.253 -24.197  26.156  1.00  0.00    -0.077 C 
ATOM      2  C   UNL     1       0.662 -23.344  25.291  1.00  0.00    -0.028 C 
ATOM      3  C   UNL     1       0.652 -25.549  26.463  1.00  0.00     0.039 C 
ENDROOT
BRANCH   1   4
ATOM      4  C   UNL     1       2.542 -23.789  26.835  1.00  0.00     0.034 C 
BRANCH   4   5
ATOM      5  C   UNL     1       3.680 -24.744  26.462  1.00  0.00     0.032 C 
BRANCH   5   6
ATOM      6  C   UNL     1       4.198 -24.446  25.078  1.00  0.00    -0.028 C 
ATOM      7  C   UNL     1       3.412 -26.631  24.139  1.00  0.00     0.039 C 
ATOM      8  C   UNL     1       4.108 -25.294  24.029  1.00  0.00    -0.080 C 
ATOM      9  C   UNL     1       4.708 -24.875  22.712  1.00  0.00     0.039 C 
ENDBRANCH   5   6
ENDBRANCH   4   5
ENDBRANCH   1   4
BRANCH   2  10
ATOM     10  C   UNL     1      -0.624 -23.664  24.567  1.00  0.00     0.035 C 
BRANCH  10  11
ATOM     11  C   UNL     1      -0.467 -23.491  23.054  1.00  0.00     0.079 C 
BRANCH  11  12
ATOM     12  C   UNL     1       0.410 -24.573  22.479  1.00  0.00     0.130 C 
ATOM     13  O   UNL     1       1.396 -24.264  21.829  1.00  0.00    -0.300 OA
ATOM     14  C   UNL     1       0.093 -26.025  22.679  1.00  0.00     0.087 C 
ENDBRANCH  11  12
ENDBRANCH  10  11
ENDBRANCH   2  10
TORSDOF 6
ENDMDL
MODEL 6
REMARK VINA RESULT:    -4.597      2.488      5.771
REMARK INTER + INTRA:          -7.263
REMARK INTER:                  -6.313
REMARK INTRA:                  -0.950
REMARK UNBOUND:                -1.053
REMARK SMILES CC(=O)CCC=C(C)CCC=C(C)C
REMARK SMILES IDX 7 1 6 2 8 3 9 4 10 5 11 6 13 7 12 8 14 9 5 10 4 11 2 12 3 13
REMARK SMILES IDX 1 14
REMARK H PARENT
REMARK Flexibility Score: inf
ROOT
ATOM      1  C   UNL     1       4.260 -25.327  23.198  1.00  0.00    -0.077 C 
ATOM      2  C   UNL     1       3.082 -24.673  23.294  1.00  0.00    -0.028 C 
ATOM      3  C   UNL     1       4.316 -26.817  22.953  1.00  0.00     0.039 C 
ENDROOT
BRANCH   1   4
ATOM      4  C   UNL     1       5.551 -24.552  23.341  1.00  0.00     0.034 C 
BRANCH   4   5
ATOM      5  C   UNL     1       6.240 -24.881  24.669  1.00  0.00     0.032 C 
BRANCH   5   6
ATOM      6  C   UNL     1       5.945 -23.823  25.702  1.00  0.00    -0.028 C 
ATOM      7  C   UNL     1       4.309 -25.261  26.939  1.00  0.00     0.039 C 
ATOM      8  C   UNL     1       5.061 -23.970  26.714  1.00  0.00    -0.080 C 
ATOM      9  C   UNL     1       4.840 -22.808  27.649  1.00  0.00     0.039 C 
ENDBRANCH   5   6
ENDBRANCH   4   5
ENDBRANCH   1   4
BRANCH   2  10
ATOM     10  C   UNL     1       1.744 -25.361  23.164  1.00  0.00     0.035 C 
BRANCH  10  11
ATOM     11  C   UNL     1       0.848 -24.646  22.149  1.00  0.00     0.079 C 
BRANCH  11  12
ATOM     12  C   UNL     1       0.048 -23.557  22.816  1.00  0.00     0.130 C 
ATOM     13  O   UNL     1       0.327 -22.388  22.598  1.00  0.00    -0.300 OA
ATOM     14  C   UNL     1      -1.080 -23.875  23.752  1.00  0.00     0.087 C 
ENDBRANCH  11  12
ENDBRANCH  10  11
ENDBRANCH   2  10
TORSDOF 6
ENDMDL
MODEL 7
REMARK VINA RESULT:    -4.544     10.417     12.498
REMARK INTER + INTRA:          -7.190
REMARK INTER:                  -6.172
REMARK INTRA:                  -1.019
REMARK UNBOUND:                -1.053
REMARK SMILES CC(=O)CCC=C(C)CCC=C(C)C
REMARK SMILES IDX 7 1 6 2 8 3 9 4 10 5 11 6 13 7 12 8 14 9 5 10 4 11 2 12 3 13
REMARK SMILES IDX 1 14
REMARK H PARENT
REMARK Flexibility Score: inf
ROOT
ATOM      1  C   UNL     1       6.359 -14.594  25.387  1.00  0.00    -0.077 C 
ATOM      2  C   UNL     1       6.675 -13.721  26.368  1.00  0.00    -0.028 C 
ATOM      3  C   UNL     1       6.331 -16.084  25.637  1.00  0.00     0.039 C 
ENDROOT
BRANCH   1   4
ATOM      4  C   UNL     1       6.028 -14.069  24.007  1.00  0.00     0.034 C 
BRANCH   4   5
ATOM      5  C   UNL     1       7.246 -13.385  23.378  1.00  0.00     0.032 C 
BRANCH   5   6
ATOM      6  C   UNL     1       8.373 -14.369  23.185  1.00  0.00    -0.028 C 
ATOM      7  C   UNL     1       9.900 -13.177  24.772  1.00  0.00     0.039 C 
ATOM      8  C   UNL     1       9.580 -14.275  23.785  1.00  0.00    -0.080 C 
ATOM      9  C   UNL     1      10.625 -15.312  23.464  1.00  0.00     0.039 C 
ENDBRANCH   5   6
ENDBRANCH   4   5
ENDBRANCH   1   4
BRANCH   2  10
ATOM     10  C   UNL     1       7.017 -14.151  27.774  1.00  0.00     0.035 C 
BRANCH  10  11
ATOM     11  C   UNL     1       5.774 -14.164  28.669  1.00  0.00     0.079 C 
BRANCH  11  12
ATOM     12  C   UNL     1       5.544 -15.537  29.244  1.00  0.00     0.130 C 
ATOM     13  O   UNL     1       6.501 -16.260  29.473  1.00  0.00    -0.300 OA
ATOM     14  C   UNL     1       4.162 -16.043  29.534  1.00  0.00     0.087 C 
ENDBRANCH  11  12
ENDBRANCH  10  11
ENDBRANCH   2  10
TORSDOF 6
ENDMDL
MODEL 8
REMARK VINA RESULT:    -4.533      2.208      3.278
REMARK INTER + INTRA:          -7.177
REMARK INTER:                  -5.820
REMARK INTRA:                  -1.357
REMARK UNBOUND:                -1.053
REMARK SMILES CC(=O)CCC=C(C)CCC=C(C)C
REMARK SMILES IDX 7 1 6 2 8 3 9 4 10 5 11 6 13 7 12 8 14 9 5 10 4 11 2 12 3 13
REMARK SMILES IDX 1 14
REMARK H PARENT
REMARK Flexibility Score: inf
ROOT
ATOM      1  C   UNL     1       2.472 -24.664  26.449  1.00  0.00    -0.077 C 
ATOM      2  C   UNL     1       3.202 -24.185  25.417  1.00  0.00    -0.028 C 
ATOM      3  C   UNL     1       2.386 -26.145  26.731  1.00  0.00     0.039 C 
ENDROOT
BRANCH   1   4
ATOM      4  C   UNL     1       1.722 -23.696  27.338  1.00  0.00     0.034 C 
BRANCH   4   5
ATOM      5  C   UNL     1       0.210 -23.913  27.226  1.00  0.00     0.032 C 
BRANCH   5   6
ATOM      6  C   UNL     1      -0.281 -23.553  25.846  1.00  0.00    -0.028 C 
ATOM      7  C   UNL     1      -1.147 -25.857  25.379  1.00  0.00     0.039 C 
ATOM      8  C   UNL     1      -0.870 -24.422  24.995  1.00  0.00    -0.080 C 
ATOM      9  C   UNL     1      -1.275 -23.927  23.629  1.00  0.00     0.039 C 
ENDBRANCH   5   6
ENDBRANCH   4   5
ENDBRANCH   1   4
BRANCH   2  10
ATOM     10  C   UNL     1       3.983 -25.072  24.479  1.00  0.00     0.035 C 
BRANCH  10  11
ATOM     11  C   UNL     1       3.704 -24.714  23.016  1.00  0.00     0.079 C 
BRANCH  11  12
ATOM     12  C   UNL     1       2.308 -25.121  22.622  1.00  0.00     0.130 C 
ATOM     13  O   UNL     1       1.641 -24.375  21.922  1.00  0.00    -0.300 OA
ATOM     14  C   UNL     1       1.713 -26.419  23.079  1.00  0.00     0.087 C 
ENDBRANCH  11  12
ENDBRANCH  10  11
ENDBRANCH   2  10
TORSDOF 6
ENDMDL
MODEL 9
REMARK VINA RESULT:    -4.510      1.512      2.205
REMARK INTER + INTRA:          -7.146
REMARK INTER:                  -6.230
REMARK INTRA:                  -0.916
REMARK UNBOUND:                -1.053
REMARK SMILES CC(=O)CCC=C(C)CCC=C(C)C
REMARK SMILES IDX 7 1 6 2 8 3 9 4 10 5 11 6 13 7 12 8 14 9 5 10 4 11 2 12 3 13
REMARK SMILES IDX 1 14
REMARK H PARENT
REMARK Flexibility Score: inf
ROOT
ATOM      1  C   UNL     1       1.971 -25.267  22.994  1.00  0.00    -0.077 C 
ATOM      2  C   UNL     1       2.927 -24.443  23.476  1.00  0.00    -0.028 C 
ATOM      3  C   UNL     1       2.020 -26.757  23.238  1.00  0.00     0.039 C 
ENDROOT
BRANCH   1   4
ATOM      4  C   UNL     1       0.829 -24.686  22.190  1.00  0.00     0.034 C 
BRANCH   4   5
ATOM      5  C   UNL     1      -0.074 -23.820  23.073  1.00  0.00     0.032 C 
BRANCH   5   6
ATOM      6  C   UNL     1      -0.794 -24.665  24.094  1.00  0.00    -0.028 C 
ATOM      7  C   UNL     1       0.368 -23.592  26.037  1.00  0.00     0.039 C 
ATOM      8  C   UNL     1      -0.588 -24.592  25.428  1.00  0.00    -0.080 C 
ATOM      9  C   UNL     1      -1.353 -25.530  26.326  1.00  0.00     0.039 C 
ENDBRANCH   5   6
ENDBRANCH   4   5
ENDBRANCH   1   4
BRANCH   2  10
ATOM     10  C   UNL     1       4.102 -24.930  24.288  1.00  0.00     0.035 C 
BRANCH  10  11
ATOM     11  C   UNL     1       5.420 -24.728  23.536  1.00  0.00     0.079 C 
BRANCH  11  12
ATOM     12  C   UNL     1       6.532 -24.374  24.489  1.00  0.00     0.130 C 
ATOM     13  O   UNL     1       6.517 -24.828  25.623  1.00  0.00    -0.300 OA
ATOM     14  C   UNL     1       7.654 -23.467  24.081  1.00  0.00     0.087 C 
ENDBRANCH  11  12
ENDBRANCH  10  11
ENDBRANCH   2  10
TORSDOF 6
ENDMDL
