MODEL 1
REMARK VINA RESULT:    -2.535      0.000      0.000
REMARK INTER + INTRA:          -2.535
REMARK INTER:                  -2.535
REMARK INTRA:                   0.000
REMARK UNBOUND:                 0.000
REMARK SMILES CC(=O)[O-]
REMARK SMILES IDX 1 1 2 2 3 3 4 4
REMARK H PARENT
REMARK Flexibility Score: inf
ROOT
ATOM      1  C   UNL     1      27.594   3.647   4.072  1.00  0.00     0.063 C 
ATOM      2  C   UNL     1      27.934   2.499   4.963  1.00  0.00     0.038 C 
ATOM      3  O   UNL     1      27.302   1.415   4.865  1.00  0.00    -0.550 OA
ATOM      4  O   UNL     1      28.983   2.606   5.866  1.00  0.00    -0.550 OA
ENDROOT
TORSDOF 0
ENDMDL
MODEL 2
REMARK VINA RESULT:    -2.505      2.424      2.674
REMARK INTER + INTRA:          -2.505
REMARK INTER:                  -2.505
REMARK INTRA:                   0.000
REMARK UNBOUND:                 0.000
REMARK SMILES CC(=O)[O-]
REMARK SMILES IDX 1 1 2 2 3 3 4 4
REMARK H PARENT
REMARK Flexibility Score: inf
ROOT
ATOM      1  C   UNL     1      29.158   5.133   7.016  1.00  0.00     0.063 C 
ATOM      2  C   UNL     1      28.585   4.228   5.978  1.00  0.00     0.038 C 
ATOM      3  O   UNL     1      27.689   4.647   5.199  1.00  0.00    -0.550 OA
ATOM      4  O   UNL     1      29.076   2.938   5.833  1.00  0.00    -0.550 OA
ENDROOT
TORSDOF 0
ENDMDL
MODEL 3
REMARK VINA RESULT:    -2.497      2.441      2.831
REMARK INTER + INTRA:          -2.497
REMARK INTER:                  -2.497
REMARK INTRA:                   0.000
REMARK UNBOUND:                 0.000
REMARK SMILES CC(=O)[O-]
REMARK SMILES IDX 1 1 2 2 3 3 4 4
REMARK H PARENT
REMARK Flexibility Score: inf
ROOT
ATOM      1  C   UNL     1      29.098   5.081   7.124  1.00  0.00     0.063 C 
ATOM      2  C   UNL     1      28.709   4.214   5.975  1.00  0.00     0.038 C 
ATOM      3  O   UNL     1      29.274   3.103   5.801  1.00  0.00    -0.550 OA
ATOM      4  O   UNL     1      27.684   4.605   5.124  1.00  0.00    -0.550 OA
ENDROOT
TORSDOF 0
ENDMDL
MODEL 4
REMARK VINA RESULT:    -2.492      1.369      1.776
REMARK INTER + INTRA:          -2.492
REMARK INTER:                  -2.492
REMARK INTRA:                   0.000
REMARK UNBOUND:                 0.000
REMARK SMILES CC(=O)[O-]
REMARK SMILES IDX 1 1 2 2 3 3 4 4
REMARK H PARENT
REMARK Flexibility Score: inf
ROOT
ATOM      1  C   UNL     1      28.785   2.973   5.877  1.00  0.00     0.063 C 
ATOM      2  C   UNL     1      27.775   2.632   4.834  1.00  0.00     0.038 C 
ATOM      3  O   UNL     1      27.307   1.465   4.764  1.00  0.00    -0.550 OA
ATOM      4  O   UNL     1      27.307   3.614   3.971  1.00  0.00    -0.550 OA
ENDROOT
TORSDOF 0
ENDMDL
MODEL 5
REMARK VINA RESULT:    -2.464      1.347      1.971
REMARK INTER + INTRA:          -2.464
REMARK INTER:                  -2.464
REMARK INTRA:                   0.000
REMARK UNBOUND:                 0.000
REMARK SMILES CC(=O)[O-]
REMARK SMILES IDX 1 1 2 2 3 3 4 4
REMARK H PARENT
REMARK Flexibility Score: inf
ROOT
ATOM      1  C   UNL     1      27.539   3.698   4.012  1.00  0.00     0.063 C 
ATOM      2  C   UNL     1      28.279   3.761   5.306  1.00  0.00     0.038 C 
ATOM      3  O   UNL     1      28.242   4.807   6.005  1.00  0.00    -0.550 OA
ATOM      4  O   UNL     1      28.967   2.647   5.769  1.00  0.00    -0.550 OA
ENDROOT
TORSDOF 0
ENDMDL
MODEL 6
REMARK VINA RESULT:    -2.449      2.912      3.405
REMARK INTER + INTRA:          -2.449
REMARK INTER:                  -2.449
REMARK INTRA:                   0.000
REMARK UNBOUND:                 0.000
REMARK SMILES CC(=O)[O-]
REMARK SMILES IDX 1 1 2 2 3 3 4 4
REMARK H PARENT
REMARK Flexibility Score: inf
ROOT
ATOM      1  C   UNL     1      30.202   4.597   5.481  1.00  0.00     0.063 C 
ATOM      2  C   UNL     1      28.921   4.794   6.221  1.00  0.00     0.038 C 
ATOM      3  O   UNL     1      28.934   5.022   7.458  1.00  0.00    -0.550 OA
ATOM      4  O   UNL     1      27.714   4.781   5.535  1.00  0.00    -0.550 OA
ENDROOT
TORSDOF 0
ENDMDL
MODEL 7
REMARK VINA RESULT:    -2.438      1.973      2.703
REMARK INTER + INTRA:          -2.438
REMARK INTER:                  -2.438
REMARK INTRA:                   0.000
REMARK UNBOUND:                 0.000
REMARK SMILES CC(=O)[O-]
REMARK SMILES IDX 1 1 2 2 3 3 4 4
REMARK H PARENT
REMARK Flexibility Score: inf
ROOT
ATOM      1  C   UNL     1      28.719   2.873   5.843  1.00  0.00     0.063 C 
ATOM      2  C   UNL     1      27.984   3.912   5.065  1.00  0.00     0.038 C 
ATOM      3  O   UNL     1      28.065   5.124   5.396  1.00  0.00    -0.550 OA
ATOM      4  O   UNL     1      27.253   3.552   3.942  1.00  0.00    -0.550 OA
ENDROOT
TORSDOF 0
ENDMDL
MODEL 8
REMARK VINA RESULT:    -2.426      1.943      2.439
REMARK INTER + INTRA:          -2.426
REMARK INTER:                  -2.426
REMARK INTRA:                   0.000
REMARK UNBOUND:                 0.000
REMARK SMILES CC(=O)[O-]
REMARK SMILES IDX 1 1 2 2 3 3 4 4
REMARK H PARENT
REMARK Flexibility Score: inf
ROOT
ATOM      1  C   UNL     1      27.724   1.439   5.622  1.00  0.00     0.063 C 
ATOM      2  C   UNL     1      28.456   1.565   4.327  1.00  0.00     0.038 C 
ATOM      3  O   UNL     1      28.865   2.690   3.940  1.00  0.00    -0.550 OA
ATOM      4  O   UNL     1      28.734   0.433   3.573  1.00  0.00    -0.550 OA
ENDROOT
TORSDOF 0
ENDMDL
MODEL 9
REMARK VINA RESULT:    -2.098      2.491      2.923
REMARK INTER + INTRA:          -2.098
REMARK INTER:                  -2.098
REMARK INTRA:                   0.000
REMARK UNBOUND:                 0.000
REMARK SMILES CC(=O)[O-]
REMARK SMILES IDX 1 1 2 2 3 3 4 4
REMARK H PARENT
REMARK Flexibility Score: inf
ROOT
ATOM      1  C   UNL     1      28.529  -0.784   3.470  1.00  0.00     0.063 C 
ATOM      2  C   UNL     1      28.392   0.241   4.546  1.00  0.00     0.038 C 
ATOM      3  O   UNL     1      27.882   1.362   4.289  1.00  0.00    -0.550 OA
ATOM      4  O   UNL     1      28.777  -0.060   5.845  1.00  0.00    -0.550 OA
ENDROOT
TORSDOF 0
ENDMDL
