MODEL 1
REMARK VINA RESULT:    -3.409      0.000      0.000
REMARK INTER + INTRA:          -5.279
REMARK INTER:                  -4.604
REMARK INTRA:                  -0.675
REMARK UNBOUND:                -0.675
REMARK SMILES C[C@@H](O)[C@H](O)[C@H](O)[C@H](O)C=O
REMARK SMILES IDX 4 1 2 2 1 3 3 4 6 6 8 7 10 8 11 9 9 10 7 12 5 14
REMARK H PARENT 3 5 9 11 7 13 5 15
REMARK Flexibility Score: inf
ROOT
ATOM      1  C   UNL     1      70.660  33.379  58.843  1.00  0.00     0.174 C 
ENDROOT
BRANCH   1   2
ATOM      2  C   UNL     1      70.476  34.913  58.995  1.00  0.00     0.142 C 
ATOM      3  C   UNL     1      69.764  35.553  57.794  1.00  0.00     0.041 C 
BRANCH   2   4
ATOM      4  O   UNL     1      69.763  35.203  60.173  1.00  0.00    -0.391 OA
ATOM      5  H   UNL     1      69.415  34.346  60.534  1.00  0.00     0.211 HD
ENDBRANCH   2   4
ENDBRANCH   1   2
BRANCH   1   6
ATOM      6  C   UNL     1      71.420  32.693  60.016  1.00  0.00     0.181 C 
BRANCH   6   7
ATOM      7  C   UNL     1      72.345  31.522  59.601  1.00  0.00     0.209 C 
BRANCH   7   8
ATOM      8  C   UNL     1      73.108  30.944  60.765  1.00  0.00     0.258 C 
ATOM      9  O   UNL     1      72.809  31.233  61.913  1.00  0.00    -0.300 OA
ENDBRANCH   7   8
BRANCH   7  10
ATOM     10  O   UNL     1      71.568  30.514  59.006  1.00  0.00    -0.383 OA
ATOM     11  H   UNL     1      70.922  30.202  59.692  1.00  0.00     0.211 HD
ENDBRANCH   7  10
ENDBRANCH   6   7
BRANCH   6  12
ATOM     12  O   UNL     1      72.173  33.653  60.715  1.00  0.00    -0.387 OA
ATOM     13  H   UNL     1      73.116  33.343  60.712  1.00  0.00     0.211 HD
ENDBRANCH   6  12
ENDBRANCH   1   6
BRANCH   1  14
ATOM     14  O   UNL     1      69.405  32.766  58.677  1.00  0.00    -0.388 OA
ATOM     15  H   UNL     1      68.816  33.419  58.218  1.00  0.00     0.211 HD
ENDBRANCH   1  14
TORSDOF 8
ENDMDL
MODEL 2
REMARK VINA RESULT:    -3.271      1.228      2.401
REMARK INTER + INTRA:          -5.094
REMARK INTER:                  -4.769
REMARK INTRA:                  -0.324
REMARK UNBOUND:                -0.675
REMARK SMILES C[C@@H](O)[C@H](O)[C@H](O)[C@H](O)C=O
REMARK SMILES IDX 4 1 2 2 1 3 3 4 6 6 8 7 10 8 11 9 9 10 7 12 5 14
REMARK H PARENT 3 5 9 11 7 13 5 15
REMARK Flexibility Score: inf
ROOT
ATOM      1  C   UNL     1      70.019  34.997  58.793  1.00  0.00     0.174 C 
ENDROOT
BRANCH   1   2
ATOM      2  C   UNL     1      70.432  36.280  58.022  1.00  0.00     0.142 C 
ATOM      3  C   UNL     1      69.229  37.125  57.578  1.00  0.00     0.041 C 
BRANCH   2   4
ATOM      4  O   UNL     1      71.292  37.066  58.811  1.00  0.00    -0.391 OA
ATOM      5  H   UNL     1      72.114  37.239  58.281  1.00  0.00     0.211 HD
ENDBRANCH   2   4
ENDBRANCH   1   2
BRANCH   1   6
ATOM      6  C   UNL     1      71.073  33.851  58.766  1.00  0.00     0.181 C 
BRANCH   6   7
ATOM      7  C   UNL     1      71.329  33.163  60.130  1.00  0.00     0.209 C 
BRANCH   7   8
ATOM      8  C   UNL     1      72.075  31.861  59.993  1.00  0.00     0.258 C 
ATOM      9  O   UNL     1      72.881  31.511  60.841  1.00  0.00    -0.300 OA
ENDBRANCH   7   8
BRANCH   7  10
ATOM     10  O   UNL     1      72.060  34.036  60.953  1.00  0.00    -0.383 OA
ATOM     11  H   UNL     1      71.929  33.729  61.889  1.00  0.00     0.211 HD
ENDBRANCH   7  10
ENDBRANCH   6   7
BRANCH   6  12
ATOM     12  O   UNL     1      70.691  32.882  57.822  1.00  0.00    -0.387 OA
ATOM     13  H   UNL     1      69.746  33.065  57.582  1.00  0.00     0.211 HD
ENDBRANCH   6  12
ENDBRANCH   1   6
BRANCH   1  14
ATOM     14  O   UNL     1      69.716  35.323  60.127  1.00  0.00    -0.388 OA
ATOM     15  H   UNL     1      70.370  34.848  60.703  1.00  0.00     0.211 HD
ENDBRANCH   1  14
TORSDOF 8
ENDMDL
MODEL 3
REMARK VINA RESULT:    -3.264     21.233     22.232
REMARK INTER + INTRA:          -5.084
REMARK INTER:                  -4.412
REMARK INTRA:                  -0.672
REMARK UNBOUND:                -0.675
REMARK SMILES C[C@@H](O)[C@H](O)[C@H](O)[C@H](O)C=O
REMARK SMILES IDX 4 1 2 2 1 3 3 4 6 6 8 7 10 8 11 9 9 10 7 12 5 14
REMARK H PARENT 3 5 9 11 7 13 5 15
REMARK Flexibility Score: inf
ROOT
ATOM      1  C   UNL     1      55.789  19.500  52.249  1.00  0.00     0.174 C 
ENDROOT
BRANCH   1   2
ATOM      2  C   UNL     1      54.307  19.903  52.022  1.00  0.00     0.142 C 
ATOM      3  C   UNL     1      53.831  21.003  52.982  1.00  0.00     0.041 C 
BRANCH   2   4
ATOM      4  O   UNL     1      54.115  20.325  50.693  1.00  0.00    -0.391 OA
ATOM      5  H   UNL     1      53.248  19.953  50.381  1.00  0.00     0.211 HD
ENDBRANCH   2   4
ENDBRANCH   1   2
BRANCH   1   6
ATOM      6  C   UNL     1      56.476  18.822  51.026  1.00  0.00     0.181 C 
BRANCH   6   7
ATOM      7  C   UNL     1      57.738  17.990  51.363  1.00  0.00     0.209 C 
BRANCH   7   8
ATOM      8  C   UNL     1      58.052  16.960  50.309  1.00  0.00     0.258 C 
ATOM      9  O   UNL     1      58.109  17.270  49.129  1.00  0.00    -0.300 OA
ENDBRANCH   7   8
BRANCH   7  10
ATOM     10  O   UNL     1      58.833  18.858  51.508  1.00  0.00    -0.383 OA
ATOM     11  H   UNL     1      59.654  18.311  51.393  1.00  0.00     0.211 HD
ENDBRANCH   7  10
ENDBRANCH   6   7
BRANCH   6  12
ATOM     12  O   UNL     1      55.547  18.005  50.358  1.00  0.00    -0.387 OA
ATOM     13  H   UNL     1      55.087  18.576  49.687  1.00  0.00     0.211 HD
ENDBRANCH   6  12
ENDBRANCH   1   6
BRANCH   1  14
ATOM     14  O   UNL     1      56.532  20.630  52.635  1.00  0.00    -0.388 OA
ATOM     15  H   UNL     1      56.025  21.084  53.357  1.00  0.00     0.211 HD
ENDBRANCH   1  14
TORSDOF 8
ENDMDL
MODEL 4
REMARK VINA RESULT:    -3.212     21.363     22.255
REMARK INTER + INTRA:          -5.014
REMARK INTER:                  -4.301
REMARK INTRA:                  -0.713
REMARK UNBOUND:                -0.675
REMARK SMILES C[C@@H](O)[C@H](O)[C@H](O)[C@H](O)C=O
REMARK SMILES IDX 4 1 2 2 1 3 3 4 6 6 8 7 10 8 11 9 9 10 7 12 5 14
REMARK H PARENT 3 5 9 11 7 13 5 15
REMARK Flexibility Score: inf
ROOT
ATOM      1  C   UNL     1      56.098  18.888  50.851  1.00  0.00     0.174 C 
ENDROOT
BRANCH   1   2
ATOM      2  C   UNL     1      55.524  19.419  52.192  1.00  0.00     0.142 C 
ATOM      3  C   UNL     1      54.154  20.095  52.031  1.00  0.00     0.041 C 
BRANCH   2   4
ATOM      4  O   UNL     1      55.425  18.373  53.127  1.00  0.00    -0.391 OA
ATOM      5  H   UNL     1      55.055  17.581  52.655  1.00  0.00     0.211 HD
ENDBRANCH   2   4
ENDBRANCH   1   2
BRANCH   1   6
ATOM      6  C   UNL     1      57.385  18.022  50.989  1.00  0.00     0.181 C 
BRANCH   6   7
ATOM      7  C   UNL     1      58.192  17.834  49.680  1.00  0.00     0.209 C 
BRANCH   7   8
ATOM      8  C   UNL     1      59.602  17.365  49.929  1.00  0.00     0.258 C 
ATOM      9  O   UNL     1      60.492  18.164  50.175  1.00  0.00    -0.300 OA
ENDBRANCH   7   8
BRANCH   7  10
ATOM     10  O   UNL     1      57.527  16.903  48.863  1.00  0.00    -0.383 OA
ATOM     11  H   UNL     1      58.224  16.318  48.465  1.00  0.00     0.211 HD
ENDBRANCH   7  10
ENDBRANCH   6   7
BRANCH   6  12
ATOM     12  O   UNL     1      58.223  18.577  51.973  1.00  0.00    -0.387 OA
ATOM     13  H   UNL     1      59.101  18.750  51.545  1.00  0.00     0.211 HD
ENDBRANCH   6  12
ENDBRANCH   1   6
BRANCH   1  14
ATOM     14  O   UNL     1      55.110  18.153  50.172  1.00  0.00    -0.388 OA
ATOM     15  H   UNL     1      55.014  18.552  49.269  1.00  0.00     0.211 HD
ENDBRANCH   1  14
TORSDOF 8
ENDMDL
MODEL 5
REMARK VINA RESULT:    -3.147      1.520      4.875
REMARK INTER + INTRA:          -4.926
REMARK INTER:                  -4.396
REMARK INTRA:                  -0.531
REMARK UNBOUND:                -0.675
REMARK SMILES C[C@@H](O)[C@H](O)[C@H](O)[C@H](O)C=O
REMARK SMILES IDX 4 1 2 2 1 3 3 4 6 6 8 7 10 8 11 9 9 10 7 12 5 14
REMARK H PARENT 3 5 9 11 7 13 5 15
REMARK Flexibility Score: inf
ROOT
ATOM      1  C   UNL     1      71.319  33.902  59.675  1.00  0.00     0.174 C 
ENDROOT
BRANCH   1   2
ATOM      2  C   UNL     1      71.108  32.385  59.931  1.00  0.00     0.142 C 
ATOM      3  C   UNL     1      71.904  31.499  58.962  1.00  0.00     0.041 C 
BRANCH   2   4
ATOM      4  O   UNL     1      71.456  32.063  61.256  1.00  0.00    -0.391 OA
ATOM      5  H   UNL     1      70.888  31.299  61.539  1.00  0.00     0.211 HD
ENDBRANCH   2   4
ENDBRANCH   1   2
BRANCH   1   6
ATOM      6  C   UNL     1      70.076  34.647  59.103  1.00  0.00     0.181 C 
BRANCH   6   7
ATOM      7  C   UNL     1      70.399  35.870  58.210  1.00  0.00     0.209 C 
BRANCH   7   8
ATOM      8  C   UNL     1      69.163  36.612  57.772  1.00  0.00     0.258 C 
ATOM      9  O   UNL     1      68.125  36.528  58.410  1.00  0.00    -0.300 OA
ENDBRANCH   7   8
BRANCH   7  10
ATOM     10  O   UNL     1      71.242  36.743  58.917  1.00  0.00    -0.383 OA
ATOM     11  H   UNL     1      70.717  37.096  59.683  1.00  0.00     0.211 HD
ENDBRANCH   7  10
ENDBRANCH   6   7
BRANCH   6  12
ATOM     12  O   UNL     1      69.277  33.743  58.380  1.00  0.00    -0.387 OA
ATOM     13  H   UNL     1      69.882  33.040  58.025  1.00  0.00     0.211 HD
ENDBRANCH   6  12
ENDBRANCH   1   6
BRANCH   1  14
ATOM     14  O   UNL     1      71.734  34.529  60.863  1.00  0.00    -0.388 OA
ATOM     15  H   UNL     1      71.686  35.509  60.713  1.00  0.00     0.211 HD
ENDBRANCH   1  14
TORSDOF 8
ENDMDL
MODEL 6
REMARK VINA RESULT:    -3.141      9.955     10.615
REMARK INTER + INTRA:          -4.918
REMARK INTER:                  -4.201
REMARK INTRA:                  -0.717
REMARK UNBOUND:                -0.675
REMARK SMILES C[C@@H](O)[C@H](O)[C@H](O)[C@H](O)C=O
REMARK SMILES IDX 4 1 2 2 1 3 3 4 6 6 8 7 10 8 11 9 9 10 7 12 5 14
REMARK H PARENT 3 5 9 11 7 13 5 15
REMARK Flexibility Score: inf
ROOT
ATOM      1  C   UNL     1      61.965  29.699  61.527  1.00  0.00     0.174 C 
ENDROOT
BRANCH   1   2
ATOM      2  C   UNL     1      63.280  30.457  61.199  1.00  0.00     0.142 C 
ATOM      3  C   UNL     1      63.054  31.945  60.899  1.00  0.00     0.041 C 
BRANCH   2   4
ATOM      4  O   UNL     1      64.194  30.325  62.260  1.00  0.00    -0.391 OA
ATOM      5  H   UNL     1      64.383  29.357  62.378  1.00  0.00     0.211 HD
ENDBRANCH   2   4
ENDBRANCH   1   2
BRANCH   1   6
ATOM      6  C   UNL     1      62.157  28.216  61.963  1.00  0.00     0.181 C 
BRANCH   6   7
ATOM      7  C   UNL     1      60.990  27.268  61.592  1.00  0.00     0.209 C 
BRANCH   7   8
ATOM      8  C   UNL     1      61.032  25.969  62.355  1.00  0.00     0.258 C 
ATOM      9  O   UNL     1      61.840  25.799  63.255  1.00  0.00    -0.300 OA
ENDBRANCH   7   8
BRANCH   7  10
ATOM     10  O   UNL     1      59.772  27.920  61.846  1.00  0.00    -0.383 OA
ATOM     11  H   UNL     1      59.509  27.691  62.776  1.00  0.00     0.211 HD
ENDBRANCH   7  10
ENDBRANCH   6   7
BRANCH   6  12
ATOM     12  O   UNL     1      63.353  27.716  61.417  1.00  0.00    -0.387 OA
ATOM     13  H   UNL     1      63.151  26.815  61.050  1.00  0.00     0.211 HD
ENDBRANCH   6  12
ENDBRANCH   1   6
BRANCH   1  14
ATOM     14  O   UNL     1      61.256  30.391  62.525  1.00  0.00    -0.388 OA
ATOM     15  H   UNL     1      60.792  29.714  63.082  1.00  0.00     0.211 HD
ENDBRANCH   1  14
TORSDOF 8
ENDMDL
MODEL 7
REMARK VINA RESULT:    -3.068      7.975      9.467
REMARK INTER + INTRA:          -4.819
REMARK INTER:                  -4.109
REMARK INTRA:                  -0.709
REMARK UNBOUND:                -0.675
REMARK SMILES C[C@@H](O)[C@H](O)[C@H](O)[C@H](O)C=O
REMARK SMILES IDX 4 1 2 2 1 3 3 4 6 6 8 7 10 8 11 9 9 10 7 12 5 14
REMARK H PARENT 3 5 9 11 7 13 5 15
REMARK Flexibility Score: inf
ROOT
ATOM      1  C   UNL     1      63.287  30.791  61.210  1.00  0.00     0.174 C 
ENDROOT
BRANCH   1   2
ATOM      2  C   UNL     1      62.233  29.696  61.529  1.00  0.00     0.142 C 
ATOM      3  C   UNL     1      62.824  28.279  61.532  1.00  0.00     0.041 C 
BRANCH   2   4
ATOM      4  O   UNL     1      61.625  29.954  62.771  1.00  0.00    -0.391 OA
ATOM      5  H   UNL     1      60.992  30.709  62.646  1.00  0.00     0.211 HD
ENDBRANCH   2   4
ENDBRANCH   1   2
BRANCH   1   6
ATOM      6  C   UNL     1      62.756  32.252  61.294  1.00  0.00     0.181 C 
BRANCH   6   7
ATOM      7  C   UNL     1      63.558  33.289  60.468  1.00  0.00     0.209 C 
BRANCH   7   8
ATOM      8  C   UNL     1      63.438  34.687  61.016  1.00  0.00     0.258 C 
ATOM      9  O   UNL     1      62.343  35.175  61.249  1.00  0.00    -0.300 OA
ENDBRANCH   7   8
BRANCH   7  10
ATOM     10  O   UNL     1      64.911  32.910  60.448  1.00  0.00    -0.383 OA
ATOM     11  H   UNL     1      65.222  32.993  59.509  1.00  0.00     0.211 HD
ENDBRANCH   7  10
ENDBRANCH   6   7
BRANCH   6  12
ATOM     12  O   UNL     1      61.408  32.287  60.897  1.00  0.00    -0.387 OA
ATOM     13  H   UNL     1      60.890  31.788  61.581  1.00  0.00     0.211 HD
ENDBRANCH   6  12
ENDBRANCH   1   6
BRANCH   1  14
ATOM     14  O   UNL     1      64.394  30.645  62.066  1.00  0.00    -0.388 OA
ATOM     15  H   UNL     1      65.144  30.293  61.521  1.00  0.00     0.211 HD
ENDBRANCH   1  14
TORSDOF 8
ENDMDL
MODEL 8
REMARK VINA RESULT:    -3.067      2.024      3.142
REMARK INTER + INTRA:          -4.817
REMARK INTER:                  -4.426
REMARK INTRA:                  -0.392
REMARK UNBOUND:                -0.675
REMARK SMILES C[C@@H](O)[C@H](O)[C@H](O)[C@H](O)C=O
REMARK SMILES IDX 4 1 2 2 1 3 3 4 6 6 8 7 10 8 11 9 9 10 7 12 5 14
REMARK H PARENT 3 5 9 11 7 13 5 15
REMARK Flexibility Score: inf
ROOT
ATOM      1  C   UNL     1      70.595  36.056  57.957  1.00  0.00     0.174 C 
ENDROOT
BRANCH   1   2
ATOM      2  C   UNL     1      71.454  35.515  56.781  1.00  0.00     0.142 C 
ATOM      3  C   UNL     1      70.782  35.701  55.413  1.00  0.00     0.041 C 
BRANCH   2   4
ATOM      4  O   UNL     1      72.715  36.139  56.773  1.00  0.00    -0.391 OA
ATOM      5  H   UNL     1      72.760  36.717  55.967  1.00  0.00     0.211 HD
ENDBRANCH   2   4
ENDBRANCH   1   2
BRANCH   1   6
ATOM      6  C   UNL     1      70.210  34.992  59.027  1.00  0.00     0.181 C 
BRANCH   6   7
ATOM      7  C   UNL     1      70.545  33.529  58.646  1.00  0.00     0.209 C 
BRANCH   7   8
ATOM      8  C   UNL     1      71.554  32.904  59.574  1.00  0.00     0.258 C 
ATOM      9  O   UNL     1      71.219  32.490  60.673  1.00  0.00    -0.300 OA
ENDBRANCH   7   8
BRANCH   7  10
ATOM     10  O   UNL     1      69.363  32.769  58.662  1.00  0.00    -0.383 OA
ATOM     11  H   UNL     1      69.220  32.437  57.737  1.00  0.00     0.211 HD
ENDBRANCH   7  10
ENDBRANCH   6   7
BRANCH   6  12
ATOM     12  O   UNL     1      70.831  35.307  60.249  1.00  0.00    -0.387 OA
ATOM     13  H   UNL     1      71.466  34.572  60.450  1.00  0.00     0.211 HD
ENDBRANCH   6  12
ENDBRANCH   1   6
BRANCH   1  14
ATOM     14  O   UNL     1      71.264  37.125  58.579  1.00  0.00    -0.388 OA
ATOM     15  H   UNL     1      71.345  36.902  59.542  1.00  0.00     0.211 HD
ENDBRANCH   1  14
TORSDOF 8
ENDMDL
MODEL 9
REMARK VINA RESULT:    -3.040     12.918     13.649
REMARK INTER + INTRA:          -4.782
REMARK INTER:                  -3.950
REMARK INTRA:                  -0.832
REMARK UNBOUND:                -0.675
REMARK SMILES C[C@@H](O)[C@H](O)[C@H](O)[C@H](O)C=O
REMARK SMILES IDX 4 1 2 2 1 3 3 4 6 6 8 7 10 8 11 9 9 10 7 12 5 14
REMARK H PARENT 3 5 9 11 7 13 5 15
REMARK Flexibility Score: inf
ROOT
ATOM      1  C   UNL     1      61.662  35.297  50.271  1.00  0.00     0.174 C 
ENDROOT
BRANCH   1   2
ATOM      2  C   UNL     1      61.650  34.486  51.596  1.00  0.00     0.142 C 
ATOM      3  C   UNL     1      61.272  35.339  52.816  1.00  0.00     0.041 C 
BRANCH   2   4
ATOM      4  O   UNL     1      60.766  33.397  51.492  1.00  0.00    -0.391 OA
ATOM      5  H   UNL     1      61.145  32.763  50.828  1.00  0.00     0.211 HD
ENDBRANCH   2   4
ENDBRANCH   1   2
BRANCH   1   6
ATOM      6  C   UNL     1      62.197  34.518  49.034  1.00  0.00     0.181 C 
BRANCH   6   7
ATOM      7  C   UNL     1      63.424  33.614  49.310  1.00  0.00     0.209 C 
BRANCH   7   8
ATOM      8  C   UNL     1      63.140  32.156  49.056  1.00  0.00     0.258 C 
ATOM      9  O   UNL     1      62.401  31.525  49.796  1.00  0.00    -0.300 OA
ENDBRANCH   7   8
BRANCH   7  10
ATOM     10  O   UNL     1      64.492  34.030  48.497  1.00  0.00    -0.383 OA
ATOM     11  H   UNL     1      64.105  34.596  47.778  1.00  0.00     0.211 HD
ENDBRANCH   7  10
ENDBRANCH   6   7
BRANCH   6  12
ATOM     12  O   UNL     1      61.163  33.741  48.483  1.00  0.00    -0.387 OA
ATOM     13  H   UNL     1      60.310  34.203  48.690  1.00  0.00     0.211 HD
ENDBRANCH   6  12
ENDBRANCH   1   6
BRANCH   1  14
ATOM     14  O   UNL     1      60.368  35.776  49.999  1.00  0.00    -0.388 OA
ATOM     15  H   UNL     1      59.934  35.126  49.389  1.00  0.00     0.211 HD
ENDBRANCH   1  14
TORSDOF 8
ENDMDL
