MODEL 1
REMARK VINA RESULT:    -4.571      0.000      0.000
REMARK INTER + INTRA:          -8.351
REMARK INTER:                  -6.976
REMARK INTRA:                  -1.375
REMARK UNBOUND:                -1.375
REMARK SMILES CC(=O)CCC=C(C)CCC=C(C)CCC=C(C)C
REMARK SMILES IDX 10 1 11 2 12 3 13 4 14 5 15 6 16 7 18 8 17 9 19 10 9 11 7 12
REMARK SMILES IDX 6 13 8 14 5 15 4 16 2 17 3 18 1 19
REMARK H PARENT
REMARK Flexibility Score: inf
ROOT
ATOM      1  C   UNL     1      27.456  28.962  25.838  1.00  0.00     0.032 C 
ENDROOT
BRANCH   1   2
ATOM      2  C   UNL     1      27.827  27.513  26.056  1.00  0.00    -0.028 C 
ATOM      3  C   UNL     1      28.155  26.948  27.240  1.00  0.00    -0.077 C 
ATOM      4  C   UNL     1      28.453  25.469  27.256  1.00  0.00     0.039 C 
BRANCH   3   5
ATOM      5  C   UNL     1      28.249  27.724  28.546  1.00  0.00     0.034 C 
BRANCH   5   6
ATOM      6  C   UNL     1      27.102  27.413  29.523  1.00  0.00     0.032 C 
BRANCH   6   7
ATOM      7  C   UNL     1      25.792  28.048  29.117  1.00  0.00    -0.028 C 
ATOM      8  C   UNL     1      23.506  28.169  28.231  1.00  0.00     0.039 C 
ATOM      9  C   UNL     1      24.735  27.382  28.607  1.00  0.00    -0.080 C 
ATOM     10  C   UNL     1      24.743  25.883  28.422  1.00  0.00     0.039 C 
ENDBRANCH   6   7
ENDBRANCH   5   6
ENDBRANCH   3   5
ENDBRANCH   1   2
BRANCH   1  11
ATOM     11  C   UNL     1      28.706  29.843  25.695  1.00  0.00     0.034 C 
BRANCH  11  12
ATOM     12  C   UNL     1      28.800  30.487  24.326  1.00  0.00    -0.077 C 
ATOM     13  C   UNL     1      28.716  31.831  24.221  1.00  0.00    -0.028 C 
ATOM     14  C   UNL     1      28.980  29.611  23.109  1.00  0.00     0.039 C 
BRANCH  13  15
ATOM     15  C   UNL     1      28.816  32.562  22.902  1.00  0.00     0.035 C 
BRANCH  15  16
ATOM     16  C   UNL     1      28.261  33.989  22.991  1.00  0.00     0.079 C 
BRANCH  16  17
ATOM     17  C   UNL     1      28.343  34.702  21.665  1.00  0.00     0.130 C 
ATOM     18  O   UNL     1      28.307  35.923  21.634  1.00  0.00    -0.300 OA
ATOM     19  C   UNL     1      28.479  33.944  20.378  1.00  0.00     0.087 C 
ENDBRANCH  16  17
ENDBRANCH  15  16
ENDBRANCH  13  15
ENDBRANCH  11  12
ENDBRANCH   1  11
TORSDOF 9
ENDMDL
MODEL 2
REMARK VINA RESULT:    -4.545      4.925     11.757
REMARK INTER + INTRA:          -8.312
REMARK INTER:                  -6.390
REMARK INTRA:                  -1.922
REMARK UNBOUND:                -1.375
REMARK SMILES CC(=O)CCC=C(C)CCC=C(C)CCC=C(C)C
REMARK SMILES IDX 10 1 11 2 12 3 13 4 14 5 15 6 16 7 18 8 17 9 19 10 9 11 7 12
REMARK SMILES IDX 6 13 8 14 5 15 4 16 2 17 3 18 1 19
REMARK H PARENT
REMARK Flexibility Score: inf
ROOT
ATOM      1  C   UNL     1      25.853  38.261  20.487  1.00  0.00     0.032 C 
ENDROOT
BRANCH   1   2
ATOM      2  C   UNL     1      26.517  38.312  19.130  1.00  0.00    -0.028 C 
ATOM      3  C   UNL     1      27.827  38.555  18.896  1.00  0.00    -0.077 C 
ATOM      4  C   UNL     1      28.305  38.521  17.467  1.00  0.00     0.039 C 
BRANCH   3   5
ATOM      5  C   UNL     1      28.833  38.872  19.994  1.00  0.00     0.034 C 
BRANCH   5   6
ATOM      6  C   UNL     1      29.124  40.375  20.138  1.00  0.00     0.032 C 
BRANCH   6   7
ATOM      7  C   UNL     1      28.045  41.117  20.893  1.00  0.00    -0.028 C 
ATOM      8  C   UNL     1      26.203  42.699  21.251  1.00  0.00     0.039 C 
ATOM      9  C   UNL     1      27.212  42.031  20.353  1.00  0.00    -0.080 C 
ATOM     10  C   UNL     1      27.253  42.388  18.886  1.00  0.00     0.039 C 
ENDBRANCH   6   7
ENDBRANCH   5   6
ENDBRANCH   3   5
ENDBRANCH   1   2
BRANCH   1  11
ATOM     11  C   UNL     1      25.709  36.814  20.984  1.00  0.00     0.034 C 
BRANCH  11  12
ATOM     12  C   UNL     1      27.013  36.261  21.524  1.00  0.00    -0.077 C 
ATOM     13  C   UNL     1      27.611  35.233  20.884  1.00  0.00    -0.028 C 
ATOM     14  C   UNL     1      27.613  36.869  22.770  1.00  0.00     0.039 C 
BRANCH  13  15
ATOM     15  C   UNL     1      28.919  34.628  21.338  1.00  0.00     0.035 C 
BRANCH  15  16
ATOM     16  C   UNL     1      28.751  33.176  21.800  1.00  0.00     0.079 C 
BRANCH  16  17
ATOM     17  C   UNL     1      28.765  33.066  23.305  1.00  0.00     0.130 C 
ATOM     18  O   UNL     1      28.995  34.060  23.979  1.00  0.00    -0.300 OA
ATOM     19  C   UNL     1      28.492  31.764  23.996  1.00  0.00     0.087 C 
ENDBRANCH  16  17
ENDBRANCH  15  16
ENDBRANCH  13  15
ENDBRANCH  11  12
ENDBRANCH   1  11
TORSDOF 9
ENDMDL
MODEL 3
REMARK VINA RESULT:    -4.467      5.970     11.776
REMARK INTER + INTRA:          -8.193
REMARK INTER:                  -6.493
REMARK INTRA:                  -1.700
REMARK UNBOUND:                -1.375
REMARK SMILES CC(=O)CCC=C(C)CCC=C(C)CCC=C(C)C
REMARK SMILES IDX 10 1 11 2 12 3 13 4 14 5 15 6 16 7 18 8 17 9 19 10 9 11 7 12
REMARK SMILES IDX 6 13 8 14 5 15 4 16 2 17 3 18 1 19
REMARK H PARENT
REMARK Flexibility Score: inf
ROOT
ATOM      1  C   UNL     1      25.482  38.503  20.881  1.00  0.00     0.032 C 
ENDROOT
BRANCH   1   2
ATOM      2  C   UNL     1      26.237  39.511  20.045  1.00  0.00    -0.028 C 
ATOM      3  C   UNL     1      27.401  40.110  20.384  1.00  0.00    -0.077 C 
ATOM      4  C   UNL     1      28.020  41.059  19.388  1.00  0.00     0.039 C 
BRANCH   3   5
ATOM      5  C   UNL     1      28.106  39.888  21.714  1.00  0.00     0.034 C 
BRANCH   5   6
ATOM      6  C   UNL     1      28.971  41.081  22.152  1.00  0.00     0.032 C 
BRANCH   6   7
ATOM      7  C   UNL     1      28.454  41.760  23.400  1.00  0.00    -0.028 C 
ATOM      8  C   UNL     1      27.191  43.378  24.746  1.00  0.00     0.039 C 
ATOM      9  C   UNL     1      27.592  42.799  23.414  1.00  0.00    -0.080 C 
ATOM     10  C   UNL     1      27.011  43.379  22.146  1.00  0.00     0.039 C 
ENDBRANCH   6   7
ENDBRANCH   5   6
ENDBRANCH   3   5
ENDBRANCH   1   2
BRANCH   1  11
ATOM     11  C   UNL     1      25.762  37.067  20.412  1.00  0.00     0.034 C 
BRANCH  11  12
ATOM     12  C   UNL     1      27.015  36.491  21.042  1.00  0.00    -0.077 C 
ATOM     13  C   UNL     1      27.007  36.172  22.355  1.00  0.00    -0.028 C 
ATOM     14  C   UNL     1      28.245  36.292  20.189  1.00  0.00     0.039 C 
BRANCH  13  15
ATOM     15  C   UNL     1      28.202  35.578  23.065  1.00  0.00     0.035 C 
BRANCH  15  16
ATOM     16  C   UNL     1      27.808  34.402  23.967  1.00  0.00     0.079 C 
BRANCH  16  17
ATOM     17  C   UNL     1      28.344  33.094  23.441  1.00  0.00     0.130 C 
ATOM     18  O   UNL     1      28.358  32.112  24.170  1.00  0.00    -0.300 OA
ATOM     19  C   UNL     1      28.850  32.966  22.035  1.00  0.00     0.087 C 
ENDBRANCH  16  17
ENDBRANCH  15  16
ENDBRANCH  13  15
ENDBRANCH  11  12
ENDBRANCH   1  11
TORSDOF 9
ENDMDL
MODEL 4
REMARK VINA RESULT:    -4.418      4.676     11.614
REMARK INTER + INTRA:          -8.117
REMARK INTER:                  -7.194
REMARK INTRA:                  -0.923
REMARK UNBOUND:                -1.375
REMARK SMILES CC(=O)CCC=C(C)CCC=C(C)CCC=C(C)C
REMARK SMILES IDX 10 1 11 2 12 3 13 4 14 5 15 6 16 7 18 8 17 9 19 10 9 11 7 12
REMARK SMILES IDX 6 13 8 14 5 15 4 16 2 17 3 18 1 19
REMARK H PARENT
REMARK Flexibility Score: inf
ROOT
ATOM      1  C   UNL     1      28.387  36.730  21.161  1.00  0.00     0.032 C 
ENDROOT
BRANCH   1   2
ATOM      2  C   UNL     1      27.155  37.572  21.403  1.00  0.00    -0.028 C 
ATOM      3  C   UNL     1      26.550  38.371  20.495  1.00  0.00    -0.077 C 
ATOM      4  C   UNL     1      25.300  39.099  20.921  1.00  0.00     0.039 C 
BRANCH   3   5
ATOM      5  C   UNL     1      27.070  38.582  19.081  1.00  0.00     0.034 C 
BRANCH   5   6
ATOM      6  C   UNL     1      28.148  39.675  18.984  1.00  0.00     0.032 C 
BRANCH   6   7
ATOM      7  C   UNL     1      27.581  41.037  18.659  1.00  0.00    -0.028 C 
ATOM      8  C   UNL     1      26.843  43.344  19.061  1.00  0.00     0.039 C 
ATOM      9  C   UNL     1      27.452  42.052  19.541  1.00  0.00    -0.080 C 
ATOM     10  C   UNL     1      27.912  41.933  20.975  1.00  0.00     0.039 C 
ENDBRANCH   6   7
ENDBRANCH   5   6
ENDBRANCH   3   5
ENDBRANCH   1   2
BRANCH   1  11
ATOM     11  C   UNL     1      28.035  35.238  21.065  1.00  0.00     0.034 C 
BRANCH  11  12
ATOM     12  C   UNL     1      28.158  34.533  22.402  1.00  0.00    -0.077 C 
ATOM     13  C   UNL     1      28.825  33.360  22.471  1.00  0.00    -0.028 C 
ATOM     14  C   UNL     1      27.528  35.155  23.625  1.00  0.00     0.039 C 
BRANCH  13  15
ATOM     15  C   UNL     1      29.013  32.594  23.760  1.00  0.00     0.035 C 
BRANCH  15  16
ATOM     16  C   UNL     1      28.757  31.093  23.580  1.00  0.00     0.079 C 
BRANCH  16  17
ATOM     17  C   UNL     1      28.340  30.441  24.874  1.00  0.00     0.130 C 
ATOM     18  O   UNL     1      28.891  30.765  25.916  1.00  0.00    -0.300 OA
ATOM     19  C   UNL     1      27.252  29.410  24.915  1.00  0.00     0.087 C 
ENDBRANCH  16  17
ENDBRANCH  15  16
ENDBRANCH  13  15
ENDBRANCH  11  12
ENDBRANCH   1  11
TORSDOF 9
ENDMDL
MODEL 5
REMARK VINA RESULT:    -4.399      6.244     11.353
REMARK INTER + INTRA:          -8.089
REMARK INTER:                  -7.032
REMARK INTRA:                  -1.057
REMARK UNBOUND:                -1.375
REMARK SMILES CC(=O)CCC=C(C)CCC=C(C)CCC=C(C)C
REMARK SMILES IDX 10 1 11 2 12 3 13 4 14 5 15 6 16 7 18 8 17 9 19 10 9 11 7 12
REMARK SMILES IDX 6 13 8 14 5 15 4 16 2 17 3 18 1 19
REMARK H PARENT
REMARK Flexibility Score: inf
ROOT
ATOM      1  C   UNL     1      27.420  39.779  20.225  1.00  0.00     0.032 C 
ENDROOT
BRANCH   1   2
ATOM      2  C   UNL     1      26.151  38.984  20.427  1.00  0.00    -0.028 C 
ATOM      3  C   UNL     1      26.075  37.650  20.638  1.00  0.00    -0.077 C 
ATOM      4  C   UNL     1      24.709  37.050  20.861  1.00  0.00     0.039 C 
BRANCH   3   5
ATOM      5  C   UNL     1      27.286  36.730  20.649  1.00  0.00     0.034 C 
BRANCH   5   6
ATOM      6  C   UNL     1      28.048  36.742  21.985  1.00  0.00     0.032 C 
BRANCH   6   7
ATOM      7  C   UNL     1      28.416  35.358  22.469  1.00  0.00    -0.028 C 
ATOM      8  C   UNL     1      28.257  33.302  23.801  1.00  0.00     0.039 C 
ATOM      9  C   UNL     1      27.745  34.666  23.414  1.00  0.00    -0.080 C 
ATOM     10  C   UNL     1      26.500  35.208  24.076  1.00  0.00     0.039 C 
ENDBRANCH   6   7
ENDBRANCH   5   6
ENDBRANCH   3   5
ENDBRANCH   1   2
BRANCH   1  11
ATOM     11  C   UNL     1      27.218  40.903  19.198  1.00  0.00     0.034 C 
BRANCH  11  12
ATOM     12  C   UNL     1      27.097  42.265  19.855  1.00  0.00    -0.077 C 
ATOM     13  C   UNL     1      27.247  42.368  21.193  1.00  0.00    -0.028 C 
ATOM     14  C   UNL     1      26.808  43.474  18.997  1.00  0.00     0.039 C 
BRANCH  13  15
ATOM     15  C   UNL     1      27.161  43.683  21.932  1.00  0.00     0.035 C 
BRANCH  15  16
ATOM     16  C   UNL     1      28.229  43.799  23.026  1.00  0.00     0.079 C 
BRANCH  16  17
ATOM     17  C   UNL     1      27.796  43.116  24.300  1.00  0.00     0.130 C 
ATOM     18  O   UNL     1      26.671  43.310  24.735  1.00  0.00    -0.300 OA
ATOM     19  C   UNL     1      28.715  42.190  25.040  1.00  0.00     0.087 C 
ENDBRANCH  16  17
ENDBRANCH  15  16
ENDBRANCH  13  15
ENDBRANCH  11  12
ENDBRANCH   1  11
TORSDOF 9
ENDMDL
MODEL 6
REMARK VINA RESULT:    -4.392      4.937      6.783
REMARK INTER + INTRA:          -8.078
REMARK INTER:                  -5.412
REMARK INTRA:                  -2.666
REMARK UNBOUND:                -1.375
REMARK SMILES CC(=O)CCC=C(C)CCC=C(C)CCC=C(C)C
REMARK SMILES IDX 10 1 11 2 12 3 13 4 14 5 15 6 16 7 18 8 17 9 19 10 9 11 7 12
REMARK SMILES IDX 6 13 8 14 5 15 4 16 2 17 3 18 1 19
REMARK H PARENT
REMARK Flexibility Score: inf
ROOT
ATOM      1  C   UNL     1      27.614  27.576  25.899  1.00  0.00     0.032 C 
ENDROOT
BRANCH   1   2
ATOM      2  C   UNL     1      28.399  26.290  25.774  1.00  0.00    -0.028 C 
ATOM      3  C   UNL     1      27.945  25.052  26.075  1.00  0.00    -0.077 C 
ATOM      4  C   UNL     1      28.872  23.886  25.839  1.00  0.00     0.039 C 
BRANCH   3   5
ATOM      5  C   UNL     1      26.562  24.778  26.647  1.00  0.00     0.034 C 
BRANCH   5   6
ATOM      6  C   UNL     1      26.585  23.875  27.892  1.00  0.00     0.032 C 
BRANCH   6   7
ATOM      7  C   UNL     1      26.330  24.631  29.175  1.00  0.00    -0.028 C 
ATOM      8  C   UNL     1      26.864  25.908  31.202  1.00  0.00     0.039 C 
ATOM      9  C   UNL     1      27.284  25.209  29.935  1.00  0.00    -0.080 C 
ATOM     10  C   UNL     1      28.743  25.190  29.545  1.00  0.00     0.039 C 
ENDBRANCH   6   7
ENDBRANCH   5   6
ENDBRANCH   3   5
ENDBRANCH   1   2
BRANCH   1  11
ATOM     11  C   UNL     1      28.074  28.394  27.116  1.00  0.00     0.034 C 
BRANCH  11  12
ATOM     12  C   UNL     1      27.028  28.430  28.212  1.00  0.00    -0.077 C 
ATOM     13  C   UNL     1      25.787  27.961  27.956  1.00  0.00    -0.028 C 
ATOM     14  C   UNL     1      27.394  28.994  29.564  1.00  0.00     0.039 C 
BRANCH  13  15
ATOM     15  C   UNL     1      24.685  27.940  28.990  1.00  0.00     0.035 C 
BRANCH  15  16
ATOM     16  C   UNL     1      23.297  28.083  28.354  1.00  0.00     0.079 C 
BRANCH  16  17
ATOM     17  C   UNL     1      22.553  26.771  28.344  1.00  0.00     0.130 C 
ATOM     18  O   UNL     1      23.118  25.761  27.950  1.00  0.00    -0.300 OA
ATOM     19  C   UNL     1      21.133  26.674  28.819  1.00  0.00     0.087 C 
ENDBRANCH  16  17
ENDBRANCH  15  16
ENDBRANCH  13  15
ENDBRANCH  11  12
ENDBRANCH   1  11
TORSDOF 9
ENDMDL
MODEL 7
REMARK VINA RESULT:    -4.389      8.518     11.182
REMARK INTER + INTRA:          -8.073
REMARK INTER:                  -6.225
REMARK INTRA:                  -1.847
REMARK UNBOUND:                -1.375
REMARK SMILES CC(=O)CCC=C(C)CCC=C(C)CCC=C(C)C
REMARK SMILES IDX 10 1 11 2 12 3 13 4 14 5 15 6 16 7 18 8 17 9 19 10 9 11 7 12
REMARK SMILES IDX 6 13 8 14 5 15 4 16 2 17 3 18 1 19
REMARK H PARENT
REMARK Flexibility Score: inf
ROOT
ATOM      1  C   UNL     1      29.125  37.956  18.540  1.00  0.00     0.032 C 
ENDROOT
BRANCH   1   2
ATOM      2  C   UNL     1      28.836  36.518  18.906  1.00  0.00    -0.028 C 
ATOM      3  C   UNL     1      28.718  36.027  20.160  1.00  0.00    -0.077 C 
ATOM      4  C   UNL     1      28.383  34.565  20.315  1.00  0.00     0.039 C 
BRANCH   3   5
ATOM      5  C   UNL     1      28.915  36.866  21.415  1.00  0.00     0.034 C 
BRANCH   5   6
ATOM      6  C   UNL     1      27.594  37.313  22.063  1.00  0.00     0.032 C 
BRANCH   6   7
ATOM      7  C   UNL     1      26.380  36.663  21.439  1.00  0.00    -0.028 C 
ATOM      8  C   UNL     1      24.170  36.529  20.379  1.00  0.00     0.039 C 
ATOM      9  C   UNL     1      25.313  37.329  20.949  1.00  0.00    -0.080 C 
ATOM     10  C   UNL     1      25.241  38.837  20.941  1.00  0.00     0.039 C 
ENDBRANCH   6   7
ENDBRANCH   5   6
ENDBRANCH   3   5
ENDBRANCH   1   2
BRANCH   1  11
ATOM     11  C   UNL     1      27.855  38.818  18.619  1.00  0.00     0.034 C 
BRANCH  11  12
ATOM     12  C   UNL     1      28.125  40.182  19.223  1.00  0.00    -0.077 C 
ATOM     13  C   UNL     1      27.490  41.264  18.721  1.00  0.00    -0.028 C 
ATOM     14  C   UNL     1      29.101  40.302  20.369  1.00  0.00     0.039 C 
BRANCH  13  15
ATOM     15  C   UNL     1      27.682  42.659  19.269  1.00  0.00     0.035 C 
BRANCH  15  16
ATOM     16  C   UNL     1      26.492  43.110  20.125  1.00  0.00     0.079 C 
BRANCH  16  17
ATOM     17  C   UNL     1      26.666  42.713  21.570  1.00  0.00     0.130 C 
ATOM     18  O   UNL     1      25.880  41.927  22.078  1.00  0.00    -0.300 OA
ATOM     19  C   UNL     1      27.793  43.255  22.399  1.00  0.00     0.087 C 
ENDBRANCH  16  17
ENDBRANCH  15  16
ENDBRANCH  13  15
ENDBRANCH  11  12
ENDBRANCH   1  11
TORSDOF 9
ENDMDL
MODEL 8
REMARK VINA RESULT:    -4.337      1.946      3.587
REMARK INTER + INTRA:          -7.994
REMARK INTER:                  -7.189
REMARK INTRA:                  -0.805
REMARK UNBOUND:                -1.375
REMARK SMILES CC(=O)CCC=C(C)CCC=C(C)CCC=C(C)C
REMARK SMILES IDX 10 1 11 2 12 3 13 4 14 5 15 6 16 7 18 8 17 9 19 10 9 11 7 12
REMARK SMILES IDX 6 13 8 14 5 15 4 16 2 17 3 18 1 19
REMARK H PARENT
REMARK Flexibility Score: inf
ROOT
ATOM      1  C   UNL     1      29.057  31.937  24.567  1.00  0.00     0.032 C 
ENDROOT
BRANCH   1   2
ATOM      2  C   UNL     1      28.328  30.618  24.683  1.00  0.00    -0.028 C 
ATOM      3  C   UNL     1      28.300  29.820  25.774  1.00  0.00    -0.077 C 
ATOM      4  C   UNL     1      27.475  28.559  25.704  1.00  0.00     0.039 C 
BRANCH   3   5
ATOM      5  C   UNL     1      29.063  30.121  27.057  1.00  0.00     0.034 C 
BRANCH   5   6
ATOM      6  C   UNL     1      28.930  29.015  28.118  1.00  0.00     0.032 C 
BRANCH   6   7
ATOM      7  C   UNL     1      27.941  29.359  29.208  1.00  0.00    -0.028 C 
ATOM      8  C   UNL     1      26.011  29.065  30.697  1.00  0.00     0.039 C 
ATOM      9  C   UNL     1      26.926  28.564  29.609  1.00  0.00    -0.080 C 
ATOM     10  C   UNL     1      26.695  27.194  29.016  1.00  0.00     0.039 C 
ENDBRANCH   6   7
ENDBRANCH   5   6
ENDBRANCH   3   5
ENDBRANCH   1   2
BRANCH   1  11
ATOM     11  C   UNL     1      28.880  32.553  23.171  1.00  0.00     0.034 C 
BRANCH  11  12
ATOM     12  C   UNL     1      28.544  34.030  23.235  1.00  0.00    -0.077 C 
ATOM     13  C   UNL     1      28.042  34.641  22.140  1.00  0.00    -0.028 C 
ATOM     14  C   UNL     1      28.782  34.786  24.520  1.00  0.00     0.039 C 
BRANCH  13  15
ATOM     15  C   UNL     1      27.662  36.103  22.114  1.00  0.00     0.035 C 
BRANCH  15  16
ATOM     16  C   UNL     1      27.231  36.561  20.716  1.00  0.00     0.079 C 
BRANCH  16  17
ATOM     17  C   UNL     1      26.026  37.467  20.774  1.00  0.00     0.130 C 
ATOM     18  O   UNL     1      26.174  38.674  20.643  1.00  0.00    -0.300 OA
ATOM     19  C   UNL     1      24.645  36.918  20.977  1.00  0.00     0.087 C 
ENDBRANCH  16  17
ENDBRANCH  15  16
ENDBRANCH  13  15
ENDBRANCH  11  12
ENDBRANCH   1  11
TORSDOF 9
ENDMDL
MODEL 9
REMARK VINA RESULT:    -4.295      2.908      8.214
REMARK INTER + INTRA:          -7.930
REMARK INTER:                  -7.398
REMARK INTRA:                  -0.533
REMARK UNBOUND:                -1.375
REMARK SMILES CC(=O)CCC=C(C)CCC=C(C)CCC=C(C)C
REMARK SMILES IDX 10 1 11 2 12 3 13 4 14 5 15 6 16 7 18 8 17 9 19 10 9 11 7 12
REMARK SMILES IDX 6 13 8 14 5 15 4 16 2 17 3 18 1 19
REMARK H PARENT
REMARK Flexibility Score: inf
ROOT
ATOM      1  C   UNL     1      26.889  28.951  25.736  1.00  0.00     0.032 C 
ENDROOT
BRANCH   1   2
ATOM      2  C   UNL     1      27.658  28.858  24.438  1.00  0.00    -0.028 C 
ATOM      3  C   UNL     1      28.391  29.847  23.878  1.00  0.00    -0.077 C 
ATOM      4  C   UNL     1      29.123  29.540  22.595  1.00  0.00     0.039 C 
BRANCH   3   5
ATOM      5  C   UNL     1      28.506  31.246  24.466  1.00  0.00     0.034 C 
BRANCH   5   6
ATOM      6  C   UNL     1      28.906  32.310  23.430  1.00  0.00     0.032 C 
BRANCH   6   7
ATOM      7  C   UNL     1      28.138  33.603  23.585  1.00  0.00    -0.028 C 
ATOM      8  C   UNL     1      27.232  35.794  22.952  1.00  0.00     0.039 C 
ATOM      9  C   UNL     1      28.014  34.548  22.629  1.00  0.00    -0.080 C 
ATOM     10  C   UNL     1      28.617  34.384  21.254  1.00  0.00     0.039 C 
ENDBRANCH   6   7
ENDBRANCH   5   6
ENDBRANCH   3   5
ENDBRANCH   1   2
BRANCH   1  11
ATOM     11  C   UNL     1      27.799  28.687  26.945  1.00  0.00     0.034 C 
BRANCH  11  12
ATOM     12  C   UNL     1      27.068  27.983  28.071  1.00  0.00    -0.077 C 
ATOM     13  C   UNL     1      26.247  26.950  27.781  1.00  0.00    -0.028 C 
ATOM     14  C   UNL     1      27.270  28.455  29.491  1.00  0.00     0.039 C 
BRANCH  13  15
ATOM     15  C   UNL     1      25.491  26.178  28.837  1.00  0.00     0.035 C 
BRANCH  15  16
ATOM     16  C   UNL     1      24.051  25.874  28.406  1.00  0.00     0.079 C 
BRANCH  16  17
ATOM     17  C   UNL     1      23.210  27.126  28.356  1.00  0.00     0.130 C 
ATOM     18  O   UNL     1      23.682  28.184  28.744  1.00  0.00    -0.300 OA
ATOM     19  C   UNL     1      21.807  27.103  27.826  1.00  0.00     0.087 C 
ENDBRANCH  16  17
ENDBRANCH  15  16
ENDBRANCH  13  15
ENDBRANCH  11  12
ENDBRANCH   1  11
TORSDOF 9
ENDMDL
