MODEL 1
REMARK VINA RESULT:    -5.764      0.000      0.000
REMARK INTER + INTRA:         -12.571
REMARK INTER:                 -10.481
REMARK INTRA:                  -2.090
REMARK UNBOUND:                -2.090
REMARK SMILES CCCCCCCCCCCCCCCC(=O)[O-]
REMARK SMILES IDX 9 1 10 2 11 3 12 4 13 5 14 6 15 7 16 8 17 9 18 10 8 11 7 12
REMARK SMILES IDX 6 13 5 14 4 15 3 16 2 17 1 18
REMARK H PARENT
REMARK Flexibility Score: inf
ROOT
ATOM      1  C   UNL     1      12.321 -14.445  37.348  1.00  0.00     0.000 C 
ENDROOT
BRANCH   1   2
ATOM      2  C   UNL     1      10.878 -14.800  36.961  1.00  0.00     0.000 C 
BRANCH   2   3
ATOM      3  C   UNL     1       9.901 -14.717  38.149  1.00  0.00     0.000 C 
BRANCH   3   4
ATOM      4  C   UNL     1       8.626 -13.892  37.887  1.00  0.00     0.000 C 
BRANCH   4   5
ATOM      5  C   UNL     1       8.867 -12.397  37.605  1.00  0.00     0.000 C 
BRANCH   5   6
ATOM      6  C   UNL     1       8.171 -11.888  36.323  1.00  0.00     0.006 C 
BRANCH   6   7
ATOM      7  C   UNL     1       7.575 -13.027  35.489  1.00  0.00     0.053 C 
BRANCH   7   8
ATOM      8  C   UNL     1       8.049 -12.942  34.073  1.00  0.00     0.041 C 
ATOM      9  O   UNL     1       8.881 -12.058  33.735  1.00  0.00    -0.550 OA
ATOM     10  O   UNL     1       7.611 -13.869  33.135  1.00  0.00    -0.550 OA
ENDBRANCH   7   8
ENDBRANCH   6   7
ENDBRANCH   5   6
ENDBRANCH   4   5
ENDBRANCH   3   4
ENDBRANCH   2   3
ENDBRANCH   1   2
BRANCH   1  11
ATOM     11  C   UNL     1      12.904 -13.398  36.390  1.00  0.00     0.000 C 
BRANCH  11  12
ATOM     12  C   UNL     1      11.798 -12.725  35.570  1.00  0.00    -0.000 C 
BRANCH  12  13
ATOM     13  C   UNL     1      12.242 -11.344  35.072  1.00  0.00    -0.000 C 
BRANCH  13  14
ATOM     14  C   UNL     1      13.596 -10.951  35.678  1.00  0.00    -0.000 C 
BRANCH  14  15
ATOM     15  C   UNL     1      13.475  -9.874  36.770  1.00  0.00    -0.000 C 
BRANCH  15  16
ATOM     16  C   UNL     1      12.061  -9.699  37.360  1.00  0.00    -0.000 C 
BRANCH  16  17
ATOM     17  C   UNL     1      11.826 -10.408  38.706  1.00  0.00    -0.003 C 
ATOM     18  C   UNL     1      13.043 -10.352  39.630  1.00  0.00     0.004 C 
ENDBRANCH  16  17
ENDBRANCH  15  16
ENDBRANCH  14  15
ENDBRANCH  13  14
ENDBRANCH  12  13
ENDBRANCH  11  12
ENDBRANCH   1  11
TORSDOF 14
ENDMDL
MODEL 2
REMARK VINA RESULT:    -5.726      1.299      1.944
REMARK INTER + INTRA:         -12.502
REMARK INTER:                  -9.974
REMARK INTRA:                  -2.528
REMARK UNBOUND:                -2.090
REMARK SMILES CCCCCCCCCCCCCCCC(=O)[O-]
REMARK SMILES IDX 9 1 10 2 11 3 12 4 13 5 14 6 15 7 16 8 17 9 18 10 8 11 7 12
REMARK SMILES IDX 6 13 5 14 4 15 3 16 2 17 1 18
REMARK H PARENT
REMARK Flexibility Score: inf
ROOT
ATOM      1  C   UNL     1      13.366 -13.863  36.854  1.00  0.00     0.000 C 
ENDROOT
BRANCH   1   2
ATOM      2  C   UNL     1      12.138 -14.496  37.525  1.00  0.00     0.000 C 
BRANCH   2   3
ATOM      3  C   UNL     1      11.192 -15.182  36.522  1.00  0.00     0.000 C 
BRANCH   3   4
ATOM      4  C   UNL     1       9.747 -14.647  36.518  1.00  0.00     0.000 C 
BRANCH   4   5
ATOM      5  C   UNL     1       9.191 -14.270  37.905  1.00  0.00     0.000 C 
BRANCH   5   6
ATOM      6  C   UNL     1       7.845 -13.516  37.849  1.00  0.00     0.006 C 
BRANCH   6   7
ATOM      7  C   UNL     1       7.224 -13.530  36.447  1.00  0.00     0.053 C 
BRANCH   7   8
ATOM      8  C   UNL     1       7.340 -12.181  35.810  1.00  0.00     0.041 C 
ATOM      9  O   UNL     1       7.108 -11.141  36.481  1.00  0.00    -0.550 OA
ATOM     10  O   UNL     1       7.753 -12.069  34.488  1.00  0.00    -0.550 OA
ENDBRANCH   7   8
ENDBRANCH   6   7
ENDBRANCH   5   6
ENDBRANCH   4   5
ENDBRANCH   3   4
ENDBRANCH   2   3
ENDBRANCH   1   2
BRANCH   1  11
ATOM     11  C   UNL     1      13.012 -13.316  35.465  1.00  0.00     0.000 C 
BRANCH  11  12
ATOM     12  C   UNL     1      13.659 -11.946  35.232  1.00  0.00    -0.000 C 
BRANCH  12  13
ATOM     13  C   UNL     1      12.620 -10.917  34.769  1.00  0.00    -0.000 C 
BRANCH  13  14
ATOM     14  C   UNL     1      11.204 -11.338  35.188  1.00  0.00    -0.000 C 
BRANCH  14  15
ATOM     15  C   UNL     1      10.671 -10.537  36.388  1.00  0.00    -0.000 C 
BRANCH  15  16
ATOM     16  C   UNL     1      10.816 -11.233  37.756  1.00  0.00    -0.000 C 
BRANCH  16  17
ATOM     17  C   UNL     1      11.609 -10.439  38.810  1.00  0.00    -0.003 C 
ATOM     18  C   UNL     1      13.118 -10.468  38.567  1.00  0.00     0.004 C 
ENDBRANCH  16  17
ENDBRANCH  15  16
ENDBRANCH  14  15
ENDBRANCH  13  14
ENDBRANCH  12  13
ENDBRANCH  11  12
ENDBRANCH   1  11
TORSDOF 14
ENDMDL
MODEL 3
REMARK VINA RESULT:    -5.679      2.577      5.794
REMARK INTER + INTRA:         -12.417
REMARK INTER:                 -10.454
REMARK INTRA:                  -1.962
REMARK UNBOUND:                -2.090
REMARK SMILES CCCCCCCCCCCCCCCC(=O)[O-]
REMARK SMILES IDX 9 1 10 2 11 3 12 4 13 5 14 6 15 7 16 8 17 9 18 10 8 11 7 12
REMARK SMILES IDX 6 13 5 14 4 15 3 16 2 17 1 18
REMARK H PARENT
REMARK Flexibility Score: inf
ROOT
ATOM      1  C   UNL     1      11.252 -14.745  36.604  1.00  0.00     0.000 C 
ENDROOT
BRANCH   1   2
ATOM      2  C   UNL     1      12.523 -13.926  36.873  1.00  0.00     0.000 C 
BRANCH   2   3
ATOM      3  C   UNL     1      13.215 -13.451  35.581  1.00  0.00     0.000 C 
BRANCH   3   4
ATOM      4  C   UNL     1      13.231 -11.924  35.375  1.00  0.00     0.000 C 
BRANCH   4   5
ATOM      5  C   UNL     1      11.893 -11.217  35.660  1.00  0.00     0.000 C 
BRANCH   5   6
ATOM      6  C   UNL     1      11.984 -10.141  36.766  1.00  0.00     0.006 C 
BRANCH   6   7
ATOM      7  C   UNL     1      13.138 -10.400  37.740  1.00  0.00     0.053 C 
BRANCH   7   8
ATOM      8  C   UNL     1      12.648 -10.356  39.154  1.00  0.00     0.041 C 
ATOM      9  O   UNL     1      13.470 -10.339  40.109  1.00  0.00    -0.550 OA
ATOM     10  O   UNL     1      11.286 -10.283  39.417  1.00  0.00    -0.550 OA
ENDBRANCH   7   8
ENDBRANCH   6   7
ENDBRANCH   5   6
ENDBRANCH   4   5
ENDBRANCH   3   4
ENDBRANCH   2   3
ENDBRANCH   1   2
BRANCH   1  11
ATOM     11  C   UNL     1      10.240 -14.581  37.745  1.00  0.00     0.000 C 
BRANCH  11  12
ATOM     12  C   UNL     1      10.077 -13.105  38.128  1.00  0.00    -0.000 C 
BRANCH  12  13
ATOM     13  C   UNL     1       8.600 -12.750  38.337  1.00  0.00    -0.000 C 
BRANCH  13  14
ATOM     14  C   UNL     1       7.686 -13.871  37.822  1.00  0.00    -0.000 C 
BRANCH  14  15
ATOM     15  C   UNL     1       6.908 -13.475  36.555  1.00  0.00    -0.000 C 
BRANCH  15  16
ATOM     16  C   UNL     1       7.552 -12.352  35.717  1.00  0.00    -0.000 C 
BRANCH  16  17
ATOM     17  C   UNL     1       8.521 -12.833  34.621  1.00  0.00    -0.003 C 
ATOM     18  C   UNL     1       7.810 -13.520  33.456  1.00  0.00     0.004 C 
ENDBRANCH  16  17
ENDBRANCH  15  16
ENDBRANCH  14  15
ENDBRANCH  13  14
ENDBRANCH  12  13
ENDBRANCH  11  12
ENDBRANCH   1  11
TORSDOF 14
ENDMDL
MODEL 4
REMARK VINA RESULT:    -5.627      2.345      5.699
REMARK INTER + INTRA:         -12.323
REMARK INTER:                 -10.343
REMARK INTRA:                  -1.980
REMARK UNBOUND:                -2.090
REMARK SMILES CCCCCCCCCCCCCCCC(=O)[O-]
REMARK SMILES IDX 9 1 10 2 11 3 12 4 13 5 14 6 15 7 16 8 17 9 18 10 8 11 7 12
REMARK SMILES IDX 6 13 5 14 4 15 3 16 2 17 1 18
REMARK H PARENT
REMARK Flexibility Score: inf
ROOT
ATOM      1  C   UNL     1       7.941 -12.582  35.154  1.00  0.00     0.000 C 
ENDROOT
BRANCH   1   2
ATOM      2  C   UNL     1       9.127 -11.781  35.712  1.00  0.00     0.000 C 
BRANCH   2   3
ATOM      3  C   UNL     1      10.398 -11.914  34.852  1.00  0.00     0.000 C 
BRANCH   3   4
ATOM      4  C   UNL     1      11.410 -10.761  35.004  1.00  0.00     0.000 C 
BRANCH   4   5
ATOM      5  C   UNL     1      12.872 -11.203  35.205  1.00  0.00     0.000 C 
BRANCH   5   6
ATOM      6  C   UNL     1      13.578 -10.493  36.382  1.00  0.00     0.006 C 
BRANCH   6   7
ATOM      7  C   UNL     1      12.602  -9.694  37.253  1.00  0.00     0.053 C 
BRANCH   7   8
ATOM      8  C   UNL     1      12.307 -10.433  38.520  1.00  0.00     0.041 C 
ATOM      9  O   UNL     1      13.036 -10.267  39.535  1.00  0.00    -0.550 OA
ATOM     10  O   UNL     1      11.199 -11.267  38.599  1.00  0.00    -0.550 OA
ENDBRANCH   7   8
ENDBRANCH   6   7
ENDBRANCH   5   6
ENDBRANCH   4   5
ENDBRANCH   3   4
ENDBRANCH   2   3
ENDBRANCH   1   2
BRANCH   1  11
ATOM     11  C   UNL     1       7.161 -13.267  36.284  1.00  0.00     0.000 C 
BRANCH  11  12
ATOM     12  C   UNL     1       7.851 -13.056  37.636  1.00  0.00    -0.000 C 
BRANCH  12  13
ATOM     13  C   UNL     1       7.553 -14.216  38.595  1.00  0.00    -0.000 C 
BRANCH  13  14
ATOM     14  C   UNL     1       8.758 -15.161  38.705  1.00  0.00    -0.000 C 
BRANCH  14  15
ATOM     15  C   UNL     1      10.066 -14.525  38.204  1.00  0.00    -0.000 C 
BRANCH  15  16
ATOM     16  C   UNL     1      10.767 -15.286  37.061  1.00  0.00    -0.000 C 
BRANCH  16  17
ATOM     17  C   UNL     1      11.933 -14.532  36.395  1.00  0.00    -0.003 C 
ATOM     18  C   UNL     1      13.087 -14.250  37.357  1.00  0.00     0.004 C 
ENDBRANCH  16  17
ENDBRANCH  15  16
ENDBRANCH  14  15
ENDBRANCH  13  14
ENDBRANCH  12  13
ENDBRANCH  11  12
ENDBRANCH   1  11
TORSDOF 14
ENDMDL
MODEL 5
REMARK VINA RESULT:    -5.548      0.912      2.239
REMARK INTER + INTRA:         -12.179
REMARK INTER:                  -9.976
REMARK INTRA:                  -2.203
REMARK UNBOUND:                -2.090
REMARK SMILES CCCCCCCCCCCCCCCC(=O)[O-]
REMARK SMILES IDX 9 1 10 2 11 3 12 4 13 5 14 6 15 7 16 8 17 9 18 10 8 11 7 12
REMARK SMILES IDX 6 13 5 14 4 15 3 16 2 17 1 18
REMARK H PARENT
REMARK Flexibility Score: inf
ROOT
ATOM      1  C   UNL     1      11.450 -13.938  36.540  1.00  0.00     0.000 C 
ENDROOT
BRANCH   1   2
ATOM      2  C   UNL     1      10.534 -15.097  36.961  1.00  0.00     0.000 C 
BRANCH   2   3
ATOM      3  C   UNL     1       9.874 -14.871  38.335  1.00  0.00     0.000 C 
BRANCH   3   4
ATOM      4  C   UNL     1       8.471 -14.235  38.286  1.00  0.00     0.000 C 
BRANCH   4   5
ATOM      5  C   UNL     1       8.456 -12.695  38.270  1.00  0.00     0.000 C 
BRANCH   5   6
ATOM      6  C   UNL     1       8.012 -12.093  36.918  1.00  0.00     0.006 C 
BRANCH   6   7
ATOM      7  C   UNL     1       7.468 -13.156  35.956  1.00  0.00     0.053 C 
BRANCH   7   8
ATOM      8  C   UNL     1       8.099 -13.011  34.607  1.00  0.00     0.041 C 
ATOM      9  O   UNL     1       7.598 -13.592  33.607  1.00  0.00    -0.550 OA
ATOM     10  O   UNL     1       9.211 -12.195  34.443  1.00  0.00    -0.550 OA
ENDBRANCH   7   8
ENDBRANCH   6   7
ENDBRANCH   5   6
ENDBRANCH   4   5
ENDBRANCH   3   4
ENDBRANCH   2   3
ENDBRANCH   1   2
BRANCH   1  11
ATOM     11  C   UNL     1      12.796 -14.008  37.273  1.00  0.00     0.000 C 
BRANCH  11  12
ATOM     12  C   UNL     1      13.238 -12.618  37.746  1.00  0.00    -0.000 C 
BRANCH  12  13
ATOM     13  C   UNL     1      12.026 -11.713  38.004  1.00  0.00    -0.000 C 
BRANCH  13  14
ATOM     14  C   UNL     1      12.442 -10.235  38.035  1.00  0.00    -0.000 C 
BRANCH  14  15
ATOM     15  C   UNL     1      12.984  -9.737  36.684  1.00  0.00    -0.000 C 
BRANCH  15  16
ATOM     16  C   UNL     1      12.099 -10.066  35.464  1.00  0.00    -0.000 C 
BRANCH  16  17
ATOM     17  C   UNL     1      12.717 -11.056  34.461  1.00  0.00    -0.003 C 
ATOM     18  C   UNL     1      14.242 -11.114  34.543  1.00  0.00     0.004 C 
ENDBRANCH  16  17
ENDBRANCH  15  16
ENDBRANCH  14  15
ENDBRANCH  13  14
ENDBRANCH  12  13
ENDBRANCH  11  12
ENDBRANCH   1  11
TORSDOF 14
ENDMDL
MODEL 6
REMARK VINA RESULT:    -5.435      1.958      5.158
REMARK INTER + INTRA:         -11.973
REMARK INTER:                  -9.983
REMARK INTRA:                  -1.990
REMARK UNBOUND:                -2.090
REMARK SMILES CCCCCCCCCCCCCCCC(=O)[O-]
REMARK SMILES IDX 9 1 10 2 11 3 12 4 13 5 14 6 15 7 16 8 17 9 18 10 8 11 7 12
REMARK SMILES IDX 6 13 5 14 4 15 3 16 2 17 1 18
REMARK H PARENT
REMARK Flexibility Score: inf
ROOT
ATOM      1  C   UNL     1      10.577 -15.169  36.935  1.00  0.00     0.000 C 
ENDROOT
BRANCH   1   2
ATOM      2  C   UNL     1      11.675 -14.265  36.356  1.00  0.00     0.000 C 
BRANCH   2   3
ATOM      3  C   UNL     1      12.851 -14.052  37.328  1.00  0.00     0.000 C 
BRANCH   3   4
ATOM      4  C   UNL     1      13.095 -12.588  37.744  1.00  0.00     0.000 C 
BRANCH   4   5
ATOM      5  C   UNL     1      11.873 -11.660  37.600  1.00  0.00     0.000 C 
BRANCH   5   6
ATOM      6  C   UNL     1      12.213 -10.275  37.008  1.00  0.00     0.006 C 
BRANCH   6   7
ATOM      7  C   UNL     1      13.526 -10.283  36.217  1.00  0.00     0.053 C 
BRANCH   7   8
ATOM      8  C   UNL     1      13.316 -10.884  34.863  1.00  0.00     0.041 C 
ATOM      9  O   UNL     1      14.130 -11.735  34.414  1.00  0.00    -0.550 OA
ATOM     10  O   UNL     1      12.197 -10.542  34.115  1.00  0.00    -0.550 OA
ENDBRANCH   7   8
ENDBRANCH   6   7
ENDBRANCH   5   6
ENDBRANCH   4   5
ENDBRANCH   3   4
ENDBRANCH   2   3
ENDBRANCH   1   2
BRANCH   1  11
ATOM     11  C   UNL     1      10.228 -14.760  38.371  1.00  0.00     0.000 C 
BRANCH  11  12
ATOM     12  C   UNL     1       8.862 -15.319  38.786  1.00  0.00    -0.000 C 
BRANCH  12  13
ATOM     13  C   UNL     1       7.793 -14.219  38.783  1.00  0.00    -0.000 C 
BRANCH  13  14
ATOM     14  C   UNL     1       8.408 -12.855  38.440  1.00  0.00    -0.000 C 
BRANCH  14  15
ATOM     15  C   UNL     1       7.871 -12.270  37.122  1.00  0.00    -0.000 C 
BRANCH  15  16
ATOM     16  C   UNL     1       7.397 -13.313  36.090  1.00  0.00    -0.000 C 
BRANCH  16  17
ATOM     17  C   UNL     1       7.852 -13.048  34.643  1.00  0.00    -0.003 C 
ATOM     18  C   UNL     1       9.157 -12.258  34.563  1.00  0.00     0.004 C 
ENDBRANCH  16  17
ENDBRANCH  15  16
ENDBRANCH  14  15
ENDBRANCH  13  14
ENDBRANCH  12  13
ENDBRANCH  11  12
ENDBRANCH   1  11
TORSDOF 14
ENDMDL
MODEL 7
REMARK VINA RESULT:    -5.425      2.534      5.350
REMARK INTER + INTRA:         -11.956
REMARK INTER:                  -9.743
REMARK INTRA:                  -2.212
REMARK UNBOUND:                -2.090
REMARK SMILES CCCCCCCCCCCCCCCC(=O)[O-]
REMARK SMILES IDX 9 1 10 2 11 3 12 4 13 5 14 6 15 7 16 8 17 9 18 10 8 11 7 12
REMARK SMILES IDX 6 13 5 14 4 15 3 16 2 17 1 18
REMARK H PARENT
REMARK Flexibility Score: inf
ROOT
ATOM      1  C   UNL     1      10.079 -14.619  38.401  1.00  0.00     0.000 C 
ENDROOT
BRANCH   1   2
ATOM      2  C   UNL     1      10.549 -15.271  37.093  1.00  0.00     0.000 C 
BRANCH   2   3
ATOM      3  C   UNL     1      12.013 -14.936  36.748  1.00  0.00     0.000 C 
BRANCH   3   4
ATOM      4  C   UNL     1      12.371 -13.438  36.813  1.00  0.00     0.000 C 
BRANCH   4   5
ATOM      5  C   UNL     1      12.993 -12.864  35.526  1.00  0.00     0.000 C 
BRANCH   5   6
ATOM      6  C   UNL     1      13.571 -11.441  35.699  1.00  0.00     0.006 C 
BRANCH   6   7
ATOM      7  C   UNL     1      12.523 -10.350  35.455  1.00  0.00     0.053 C 
BRANCH   7   8
ATOM      8  C   UNL     1      12.321  -9.533  36.692  1.00  0.00     0.041 C 
ATOM      9  O   UNL     1      11.759  -8.407  36.623  1.00  0.00    -0.550 OA
ATOM     10  O   UNL     1      12.708 -10.034  37.928  1.00  0.00    -0.550 OA
ENDBRANCH   7   8
ENDBRANCH   6   7
ENDBRANCH   5   6
ENDBRANCH   4   5
ENDBRANCH   3   4
ENDBRANCH   2   3
ENDBRANCH   1   2
BRANCH   1  11
ATOM     11  C   UNL     1       8.653 -15.062  38.754  1.00  0.00     0.000 C 
BRANCH  11  12
ATOM     12  C   UNL     1       7.660 -13.907  38.585  1.00  0.00    -0.000 C 
BRANCH  12  13
ATOM     13  C   UNL     1       8.390 -12.561  38.494  1.00  0.00    -0.000 C 
BRANCH  13  14
ATOM     14  C   UNL     1       7.982 -11.799  37.225  1.00  0.00    -0.000 C 
BRANCH  14  15
ATOM     15  C   UNL     1       9.171 -11.503  36.295  1.00  0.00    -0.000 C 
BRANCH  15  16
ATOM     16  C   UNL     1       9.279 -12.421  35.061  1.00  0.00    -0.000 C 
BRANCH  16  17
ATOM     17  C   UNL     1       8.109 -13.404  34.877  1.00  0.00    -0.003 C 
ATOM     18  C   UNL     1       7.731 -13.613  33.411  1.00  0.00     0.004 C 
ENDBRANCH  16  17
ENDBRANCH  15  16
ENDBRANCH  14  15
ENDBRANCH  13  14
ENDBRANCH  12  13
ENDBRANCH  11  12
ENDBRANCH   1  11
TORSDOF 14
ENDMDL
MODEL 8
REMARK VINA RESULT:    -5.398      2.676      5.873
REMARK INTER + INTRA:         -11.906
REMARK INTER:                  -9.889
REMARK INTRA:                  -2.017
REMARK UNBOUND:                -2.090
REMARK SMILES CCCCCCCCCCCCCCCC(=O)[O-]
REMARK SMILES IDX 9 1 10 2 11 3 12 4 13 5 14 6 15 7 16 8 17 9 18 10 8 11 7 12
REMARK SMILES IDX 6 13 5 14 4 15 3 16 2 17 1 18
REMARK H PARENT
REMARK Flexibility Score: inf
ROOT
ATOM      1  C   UNL     1      10.024 -10.921  35.779  1.00  0.00     0.000 C 
ENDROOT
BRANCH   1   2
ATOM      2  C   UNL     1      11.241 -10.073  35.378  1.00  0.00     0.000 C 
BRANCH   2   3
ATOM      3  C   UNL     1      12.253 -10.848  34.513  1.00  0.00     0.000 C 
BRANCH   3   4
ATOM      4  C   UNL     1      13.481 -11.387  35.274  1.00  0.00     0.000 C 
BRANCH   4   5
ATOM      5  C   UNL     1      13.216 -12.642  36.126  1.00  0.00     0.000 C 
BRANCH   5   6
ATOM      6  C   UNL     1      13.090 -12.350  37.638  1.00  0.00     0.006 C 
BRANCH   6   7
ATOM      7  C   UNL     1      13.315 -10.870  37.968  1.00  0.00     0.053 C 
BRANCH   7   8
ATOM      8  C   UNL     1      12.661 -10.520  39.267  1.00  0.00     0.041 C 
ATOM      9  O   UNL     1      13.363 -10.248  40.278  1.00  0.00    -0.550 OA
ATOM     10  O   UNL     1      11.276 -10.445  39.352  1.00  0.00    -0.550 OA
ENDBRANCH   7   8
ENDBRANCH   6   7
ENDBRANCH   5   6
ENDBRANCH   4   5
ENDBRANCH   3   4
ENDBRANCH   2   3
ENDBRANCH   1   2
BRANCH   1  11
ATOM     11  C   UNL     1       9.846 -12.111  34.827  1.00  0.00     0.000 C 
BRANCH  11  12
ATOM     12  C   UNL     1       8.375 -12.278  34.425  1.00  0.00    -0.000 C 
BRANCH  12  13
ATOM     13  C   UNL     1       7.732 -13.456  35.167  1.00  0.00    -0.000 C 
BRANCH  13  14
ATOM     14  C   UNL     1       7.196 -13.016  36.537  1.00  0.00    -0.000 C 
BRANCH  14  15
ATOM     15  C   UNL     1       7.738 -13.871  37.696  1.00  0.00    -0.000 C 
BRANCH  15  16
ATOM     16  C   UNL     1       9.178 -13.537  38.136  1.00  0.00    -0.000 C 
BRANCH  16  17
ATOM     17  C   UNL     1      10.143 -14.735  38.167  1.00  0.00    -0.003 C 
ATOM     18  C   UNL     1      10.587 -15.179  36.773  1.00  0.00     0.004 C 
ENDBRANCH  16  17
ENDBRANCH  15  16
ENDBRANCH  14  15
ENDBRANCH  13  14
ENDBRANCH  12  13
ENDBRANCH  11  12
ENDBRANCH   1  11
TORSDOF 14
ENDMDL
MODEL 9
REMARK VINA RESULT:    -5.375      1.040      2.992
REMARK INTER + INTRA:         -11.864
REMARK INTER:                 -10.008
REMARK INTRA:                  -1.856
REMARK UNBOUND:                -2.090
REMARK SMILES CCCCCCCCCCCCCCCC(=O)[O-]
REMARK SMILES IDX 9 1 10 2 11 3 12 4 13 5 14 6 15 7 16 8 17 9 18 10 8 11 7 12
REMARK SMILES IDX 6 13 5 14 4 15 3 16 2 17 1 18
REMARK H PARENT
REMARK Flexibility Score: inf
ROOT
ATOM      1  C   UNL     1      12.698 -10.909  38.595  1.00  0.00     0.000 C 
ENDROOT
BRANCH   1   2
ATOM      2  C   UNL     1      11.181 -10.685  38.509  1.00  0.00     0.000 C 
BRANCH   2   3
ATOM      3  C   UNL     1      10.405 -11.966  38.148  1.00  0.00     0.000 C 
BRANCH   3   4
ATOM      4  C   UNL     1       8.909 -11.947  38.517  1.00  0.00     0.000 C 
BRANCH   4   5
ATOM      5  C   UNL     1       8.183 -13.296  38.355  1.00  0.00     0.000 C 
BRANCH   5   6
ATOM      6  C   UNL     1       8.270 -13.879  36.927  1.00  0.00     0.006 C 
BRANCH   6   7
ATOM      7  C   UNL     1       7.386 -13.119  35.931  1.00  0.00     0.053 C 
BRANCH   7   8
ATOM      8  C   UNL     1       8.083 -12.979  34.614  1.00  0.00     0.041 C 
ATOM      9  O   UNL     1       7.606 -13.522  33.583  1.00  0.00    -0.550 OA
ATOM     10  O   UNL     1       9.234 -12.207  34.515  1.00  0.00    -0.550 OA
ENDBRANCH   7   8
ENDBRANCH   6   7
ENDBRANCH   5   6
ENDBRANCH   4   5
ENDBRANCH   3   4
ENDBRANCH   2   3
ENDBRANCH   1   2
BRANCH   1  11
ATOM     11  C   UNL     1      13.428 -10.160  37.473  1.00  0.00     0.000 C 
BRANCH  11  12
ATOM     12  C   UNL     1      12.441  -9.661  36.411  1.00  0.00    -0.000 C 
BRANCH  12  13
ATOM     13  C   UNL     1      12.516 -10.520  35.142  1.00  0.00    -0.000 C 
BRANCH  13  14
ATOM     14  C   UNL     1      13.928 -11.089  34.946  1.00  0.00    -0.000 C 
BRANCH  14  15
ATOM     15  C   UNL     1      13.946 -12.623  34.837  1.00  0.00    -0.000 C 
BRANCH  15  16
ATOM     16  C   UNL     1      12.772 -13.342  35.533  1.00  0.00    -0.000 C 
BRANCH  16  17
ATOM     17  C   UNL     1      13.122 -14.013  36.873  1.00  0.00    -0.003 C 
ATOM     18  C   UNL     1      12.013 -14.929  37.388  1.00  0.00     0.004 C 
ENDBRANCH  16  17
ENDBRANCH  15  16
ENDBRANCH  14  15
ENDBRANCH  13  14
ENDBRANCH  12  13
ENDBRANCH  11  12
ENDBRANCH   1  11
TORSDOF 14
ENDMDL
