MODEL 1
REMARK VINA RESULT:    -5.570      0.000      0.000
REMARK INTER + INTRA:          -6.257
REMARK INTER:                  -6.058
REMARK INTRA:                  -0.199
REMARK UNBOUND:                -0.199
REMARK SMILES C=C(C)[C@H]1CC=C(C)[C@H](O)C1
REMARK SMILES IDX 8 1 7 2 6 3 5 4 4 5 11 6 9 7 10 8 2 10 1 11 3 12
REMARK H PARENT 10 9
REMARK Flexibility Score: inf
ROOT
ATOM      1  C   UNL     1      15.792  15.295  28.382  1.00  0.00     0.042 C 
ATOM      2  C   UNL     1      14.514  15.783  27.757  1.00  0.00    -0.049 C 
ATOM      3  C   UNL     1      13.952  15.088  26.753  1.00  0.00    -0.025 C 
ATOM      4  C   UNL     1      12.672  15.566  26.117  1.00  0.00     0.035 C 
ATOM      5  C   UNL     1      12.623  17.111  25.932  1.00  0.00     0.021 C 
ATOM      6  C   UNL     1      13.539  17.902  26.913  1.00  0.00     0.044 C 
ATOM      7  C   UNL     1      13.894  17.097  28.176  1.00  0.00     0.140 C 
ENDROOT
BRANCH   7   8
ATOM      8  O   UNL     1      12.743  16.845  28.940  1.00  0.00    -0.389 OA
ATOM      9  H   UNL     1      12.167  16.244  28.398  1.00  0.00     0.211 HD
ENDBRANCH   7   8
BRANCH   5  10
ATOM     10  C   UNL     1      12.922  17.502  24.489  1.00  0.00    -0.077 C 
ATOM     11  C   UNL     1      12.000  17.320  23.531  1.00  0.00     0.008 C 
ATOM     12  C   UNL     1      14.245  18.123  24.117  1.00  0.00     0.039 C 
ENDBRANCH   5  10
TORSDOF 2
ENDMDL
MODEL 2
REMARK VINA RESULT:    -5.130      1.805      4.210
REMARK INTER + INTRA:          -5.779
REMARK INTER:                  -5.581
REMARK INTRA:                  -0.197
REMARK UNBOUND:                -0.199
REMARK SMILES C=C(C)[C@H]1CC=C(C)[C@H](O)C1
REMARK SMILES IDX 8 1 7 2 6 3 5 4 4 5 11 6 9 7 10 8 2 10 1 11 3 12
REMARK H PARENT 10 9
REMARK Flexibility Score: inf
ROOT
ATOM      1  C   UNL     1      11.604  17.377  24.562  1.00  0.00     0.042 C 
ATOM      2  C   UNL     1      12.799  16.772  25.247  1.00  0.00    -0.049 C 
ATOM      3  C   UNL     1      12.757  15.492  25.658  1.00  0.00    -0.025 C 
ATOM      4  C   UNL     1      13.946  14.873  26.347  1.00  0.00     0.035 C 
ATOM      5  C   UNL     1      14.646  15.843  27.344  1.00  0.00     0.021 C 
ATOM      6  C   UNL     1      14.419  17.353  27.033  1.00  0.00     0.044 C 
ATOM      7  C   UNL     1      14.019  17.606  25.568  1.00  0.00     0.140 C 
ENDROOT
BRANCH   7   8
ATOM      8  O   UNL     1      15.065  17.250  24.702  1.00  0.00    -0.389 OA
ATOM      9  H   UNL     1      15.719  16.732  25.241  1.00  0.00     0.211 HD
ENDBRANCH   7   8
BRANCH   5  10
ATOM     10  C   UNL     1      14.256  15.530  28.784  1.00  0.00    -0.077 C 
ATOM     11  C   UNL     1      13.151  16.071  29.321  1.00  0.00     0.008 C 
ATOM     12  C   UNL     1      15.085  14.589  29.620  1.00  0.00     0.039 C 
ENDBRANCH   5  10
TORSDOF 2
ENDMDL
MODEL 3
REMARK VINA RESULT:    -5.123      1.787      2.648
REMARK INTER + INTRA:          -5.771
REMARK INTER:                  -5.593
REMARK INTRA:                  -0.178
REMARK UNBOUND:                -0.199
REMARK SMILES C=C(C)[C@H]1CC=C(C)[C@H](O)C1
REMARK SMILES IDX 8 1 7 2 6 3 5 4 4 5 11 6 9 7 10 8 2 10 1 11 3 12
REMARK H PARENT 10 9
REMARK Flexibility Score: inf
ROOT
ATOM      1  C   UNL     1      14.254  14.367  30.385  1.00  0.00     0.042 C 
ATOM      2  C   UNL     1      14.395  15.342  29.248  1.00  0.00    -0.049 C 
ATOM      3  C   UNL     1      13.651  16.462  29.231  1.00  0.00    -0.025 C 
ATOM      4  C   UNL     1      13.781  17.447  28.098  1.00  0.00     0.035 C 
ATOM      5  C   UNL     1      13.939  16.762  26.709  1.00  0.00     0.021 C 
ATOM      6  C   UNL     1      14.519  15.317  26.771  1.00  0.00     0.044 C 
ATOM      7  C   UNL     1      15.297  15.043  28.071  1.00  0.00     0.140 C 
ENDROOT
BRANCH   7   8
ATOM      8  O   UNL     1      16.440  15.855  28.143  1.00  0.00    -0.389 OA
ATOM      9  H   UNL     1      16.719  16.039  27.208  1.00  0.00     0.211 HD
ENDBRANCH   7   8
BRANCH   5  10
ATOM     10  C   UNL     1      12.626  16.777  25.934  1.00  0.00    -0.077 C 
ATOM     11  C   UNL     1      12.412  15.898  24.943  1.00  0.00     0.008 C 
ATOM     12  C   UNL     1      11.538  17.760  26.283  1.00  0.00     0.039 C 
ENDBRANCH   5  10
TORSDOF 2
ENDMDL
MODEL 4
REMARK VINA RESULT:    -5.081      1.810      4.220
REMARK INTER + INTRA:          -5.726
REMARK INTER:                  -5.530
REMARK INTRA:                  -0.196
REMARK UNBOUND:                -0.199
REMARK SMILES C=C(C)[C@H]1CC=C(C)[C@H](O)C1
REMARK SMILES IDX 8 1 7 2 6 3 5 4 4 5 11 6 9 7 10 8 2 10 1 11 3 12
REMARK H PARENT 10 9
REMARK Flexibility Score: inf
ROOT
ATOM      1  C   UNL     1      13.959  18.125  23.682  1.00  0.00     0.042 C 
ATOM      2  C   UNL     1      13.309  17.299  24.758  1.00  0.00    -0.049 C 
ATOM      3  C   UNL     1      12.932  17.879  25.911  1.00  0.00    -0.025 C 
ATOM      4  C   UNL     1      12.281  17.064  26.998  1.00  0.00     0.035 C 
ATOM      5  C   UNL     1      12.920  15.654  27.169  1.00  0.00     0.021 C 
ATOM      6  C   UNL     1      13.640  15.120  25.895  1.00  0.00     0.044 C 
ATOM      7  C   UNL     1      13.153  15.802  24.604  1.00  0.00     0.140 C 
ENDROOT
BRANCH   7   8
ATOM      8  O   UNL     1      11.803  15.499  24.365  1.00  0.00    -0.389 OA
ATOM      9  H   UNL     1      11.698  14.523  24.516  1.00  0.00     0.211 HD
ENDBRANCH   7   8
BRANCH   5  10
ATOM     10  C   UNL     1      13.859  15.618  28.369  1.00  0.00    -0.077 C 
ATOM     11  C   UNL     1      13.372  15.708  29.616  1.00  0.00     0.008 C 
ATOM     12  C   UNL     1      15.346  15.454  28.178  1.00  0.00     0.039 C 
ENDBRANCH   5  10
TORSDOF 2
ENDMDL
MODEL 5
REMARK VINA RESULT:    -4.598      2.148      5.172
REMARK INTER + INTRA:          -5.200
REMARK INTER:                  -5.128
REMARK INTRA:                  -0.072
REMARK UNBOUND:                -0.199
REMARK SMILES C=C(C)[C@H]1CC=C(C)[C@H](O)C1
REMARK SMILES IDX 8 1 7 2 6 3 5 4 4 5 11 6 9 7 10 8 2 10 1 11 3 12
REMARK H PARENT 10 9
REMARK Flexibility Score: inf
ROOT
ATOM      1  C   UNL     1      12.823  15.478  26.199  1.00  0.00     0.042 C 
ATOM      2  C   UNL     1      13.720  15.609  27.400  1.00  0.00    -0.049 C 
ATOM      3  C   UNL     1      14.865  14.907  27.458  1.00  0.00    -0.025 C 
ATOM      4  C   UNL     1      15.773  15.027  28.655  1.00  0.00     0.035 C 
ATOM      5  C   UNL     1      14.998  15.102  30.004  1.00  0.00     0.021 C 
ATOM      6  C   UNL     1      13.538  15.629  29.873  1.00  0.00     0.044 C 
ATOM      7  C   UNL     1      13.313  16.449  28.590  1.00  0.00     0.140 C 
ENDROOT
BRANCH   7   8
ATOM      8  O   UNL     1      14.081  17.623  28.613  1.00  0.00    -0.389 OA
ATOM      9  H   UNL     1      14.904  17.417  29.129  1.00  0.00     0.211 HD
ENDBRANCH   7   8
BRANCH   5  10
ATOM     10  C   UNL     1      15.019  13.760  30.726  1.00  0.00    -0.077 C 
ATOM     11  C   UNL     1      15.356  12.639  30.068  1.00  0.00     0.008 C 
ATOM     12  C   UNL     1      14.688  13.670  32.194  1.00  0.00     0.039 C 
ENDBRANCH   5  10
TORSDOF 2
ENDMDL
MODEL 6
REMARK VINA RESULT:    -4.582      1.265      2.055
REMARK INTER + INTRA:          -5.183
REMARK INTER:                  -4.982
REMARK INTRA:                  -0.201
REMARK UNBOUND:                -0.199
REMARK SMILES C=C(C)[C@H]1CC=C(C)[C@H](O)C1
REMARK SMILES IDX 8 1 7 2 6 3 5 4 4 5 11 6 9 7 10 8 2 10 1 11 3 12
REMARK H PARENT 10 9
REMARK Flexibility Score: inf
ROOT
ATOM      1  C   UNL     1      14.407  14.975  27.054  1.00  0.00     0.042 C 
ATOM      2  C   UNL     1      13.378  15.763  26.291  1.00  0.00    -0.049 C 
ATOM      3  C   UNL     1      12.840  15.251  25.170  1.00  0.00    -0.025 C 
ATOM      4  C   UNL     1      11.809  16.030  24.394  1.00  0.00     0.035 C 
ATOM      5  C   UNL     1      12.127  17.553  24.315  1.00  0.00     0.021 C 
ATOM      6  C   UNL     1      13.031  18.078  25.471  1.00  0.00     0.044 C 
ATOM      7  C   UNL     1      13.002  17.166  26.711  1.00  0.00     0.140 C 
ENDROOT
BRANCH   7   8
ATOM      8  O   UNL     1      11.720  17.152  27.282  1.00  0.00    -0.389 OA
ATOM      9  H   UNL     1      11.090  17.465  26.581  1.00  0.00     0.211 HD
ENDBRANCH   7   8
BRANCH   5  10
ATOM     10  C   UNL     1      12.723  17.921  22.961  1.00  0.00    -0.077 C 
ATOM     11  C   UNL     1      14.044  18.123  22.833  1.00  0.00     0.008 C 
ATOM     12  C   UNL     1      11.847  18.040  21.740  1.00  0.00     0.039 C 
ENDBRANCH   5  10
TORSDOF 2
ENDMDL
MODEL 7
REMARK VINA RESULT:    -3.946      1.328      1.891
REMARK INTER + INTRA:          -4.491
REMARK INTER:                  -4.372
REMARK INTRA:                  -0.119
REMARK UNBOUND:                -0.199
REMARK SMILES C=C(C)[C@H]1CC=C(C)[C@H](O)C1
REMARK SMILES IDX 8 1 7 2 6 3 5 4 4 5 11 6 9 7 10 8 2 10 1 11 3 12
REMARK H PARENT 10 9
REMARK Flexibility Score: inf
ROOT
ATOM      1  C   UNL     1      16.849  15.795  28.566  1.00  0.00     0.042 C 
ATOM      2  C   UNL     1      15.422  15.592  28.133  1.00  0.00    -0.049 C 
ATOM      3  C   UNL     1      15.139  15.399  26.833  1.00  0.00    -0.025 C 
ATOM      4  C   UNL     1      13.714  15.196  26.385  1.00  0.00     0.035 C 
ATOM      5  C   UNL     1      12.703  16.115  27.131  1.00  0.00     0.021 C 
ATOM      6  C   UNL     1      13.190  16.597  28.530  1.00  0.00     0.044 C 
ATOM      7  C   UNL     1      14.285  15.693  29.124  1.00  0.00     0.140 C 
ENDROOT
BRANCH   7   8
ATOM      8  O   UNL     1      13.778  14.409  29.382  1.00  0.00    -0.389 OA
ATOM      9  H   UNL     1      13.751  13.932  28.511  1.00  0.00     0.211 HD
ENDBRANCH   7   8
BRANCH   5  10
ATOM     10  C   UNL     1      12.298  17.304  26.268  1.00  0.00    -0.077 C 
ATOM     11  C   UNL     1      11.311  18.125  26.661  1.00  0.00     0.008 C 
ATOM     12  C   UNL     1      13.013  17.594  24.972  1.00  0.00     0.039 C 
ENDBRANCH   5  10
TORSDOF 2
ENDMDL
