MODEL 1
REMARK VINA RESULT:    -3.389      0.000      0.000
REMARK INTER + INTRA:          -5.532
REMARK INTER:                  -4.974
REMARK INTRA:                  -0.558
REMARK UNBOUND:                -0.558
REMARK SMILES O=C([O-])CCCCCCCC(=O)[O-]
REMARK SMILES IDX 7 1 6 2 5 3 4 4 2 5 1 6 3 7 8 8 9 9 10 10 11 11 12 12 13 13
REMARK H PARENT
REMARK Flexibility Score: inf
ROOT
ATOM      1  C   UNL     1      60.295  17.623  49.604  1.00  0.00     0.000 C 
ENDROOT
BRANCH   1   2
ATOM      2  C   UNL     1      59.284  17.373  48.475  1.00  0.00     0.000 C 
BRANCH   2   3
ATOM      3  C   UNL     1      57.913  16.985  49.041  1.00  0.00     0.006 C 
BRANCH   3   4
ATOM      4  C   UNL     1      57.837  17.271  50.544  1.00  0.00     0.053 C 
BRANCH   4   5
ATOM      5  C   UNL     1      57.051  18.518  50.801  1.00  0.00     0.041 C 
ATOM      6  O   UNL     1      57.597  19.510  51.352  1.00  0.00    -0.550 OA
ATOM      7  O   UNL     1      55.727  18.603  50.387  1.00  0.00    -0.550 OA
ENDBRANCH   4   5
ENDBRANCH   3   4
ENDBRANCH   2   3
ENDBRANCH   1   2
BRANCH   1   8
ATOM      8  C   UNL     1      61.022  18.970  49.460  1.00  0.00     0.000 C 
BRANCH   8   9
ATOM      9  C   UNL     1      60.118  20.072  48.880  1.00  0.00     0.006 C 
BRANCH   9  10
ATOM     10  C   UNL     1      60.922  21.295  48.418  1.00  0.00     0.053 C 
BRANCH  10  11
ATOM     11  C   UNL     1      61.205  22.234  49.552  1.00  0.00     0.041 C 
ATOM     12  O   UNL     1      62.260  22.110  50.227  1.00  0.00    -0.550 OA
ATOM     13  O   UNL     1      60.320  23.265  49.840  1.00  0.00    -0.550 OA
ENDBRANCH  10  11
ENDBRANCH   9  10
ENDBRANCH   8   9
ENDBRANCH   1   8
TORSDOF 8
ENDMDL
MODEL 2
REMARK VINA RESULT:    -3.371      1.573      5.066
REMARK INTER + INTRA:          -5.505
REMARK INTER:                  -4.922
REMARK INTRA:                  -0.583
REMARK UNBOUND:                -0.558
REMARK SMILES O=C([O-])CCCCCCCC(=O)[O-]
REMARK SMILES IDX 7 1 6 2 5 3 4 4 2 5 1 6 3 7 8 8 9 9 10 10 11 11 12 12 13 13
REMARK H PARENT
REMARK Flexibility Score: inf
ROOT
ATOM      1  C   UNL     1      57.773  17.202  49.519  1.00  0.00     0.000 C 
ENDROOT
BRANCH   1   2
ATOM      2  C   UNL     1      58.900  17.151  48.477  1.00  0.00     0.000 C 
BRANCH   2   3
ATOM      3  C   UNL     1      60.042  18.100  48.856  1.00  0.00     0.006 C 
BRANCH   3   4
ATOM      4  C   UNL     1      59.740  19.532  48.405  1.00  0.00     0.053 C 
BRANCH   4   5
ATOM      5  C   UNL     1      60.864  20.447  48.777  1.00  0.00     0.041 C 
ATOM      6  O   UNL     1      61.784  20.045  49.538  1.00  0.00    -0.550 OA
ATOM      7  O   UNL     1      60.923  21.728  48.243  1.00  0.00    -0.550 OA
ENDBRANCH   4   5
ENDBRANCH   3   4
ENDBRANCH   2   3
ENDBRANCH   1   2
BRANCH   1   8
ATOM      8  C   UNL     1      58.280  16.966  50.951  1.00  0.00     0.000 C 
BRANCH   8   9
ATOM      9  C   UNL     1      57.821  18.061  51.930  1.00  0.00     0.006 C 
BRANCH   9  10
ATOM     10  C   UNL     1      56.904  19.091  51.256  1.00  0.00     0.053 C 
BRANCH  10  11
ATOM     11  C   UNL     1      55.569  19.170  51.931  1.00  0.00     0.041 C 
ATOM     12  O   UNL     1      55.423  18.724  53.099  1.00  0.00    -0.550 OA
ATOM     13  O   UNL     1      54.495  19.767  51.283  1.00  0.00    -0.550 OA
ENDBRANCH  10  11
ENDBRANCH   9  10
ENDBRANCH   8   9
ENDBRANCH   1   8
TORSDOF 8
ENDMDL
MODEL 3
REMARK VINA RESULT:    -3.346      7.926      8.974
REMARK INTER + INTRA:          -5.470
REMARK INTER:                  -5.026
REMARK INTRA:                  -0.444
REMARK UNBOUND:                -0.558
REMARK SMILES O=C([O-])CCCCCCCC(=O)[O-]
REMARK SMILES IDX 7 1 6 2 5 3 4 4 2 5 1 6 3 7 8 8 9 9 10 10 11 11 12 12 13 13
REMARK H PARENT
REMARK Flexibility Score: inf
ROOT
ATOM      1  C   UNL     1      57.180  28.684  50.662  1.00  0.00     0.000 C 
ENDROOT
BRANCH   1   2
ATOM      2  C   UNL     1      55.784  29.311  50.776  1.00  0.00     0.000 C 
BRANCH   2   3
ATOM      3  C   UNL     1      54.701  28.331  50.311  1.00  0.00     0.006 C 
BRANCH   3   4
ATOM      4  C   UNL     1      55.311  26.983  49.918  1.00  0.00     0.053 C 
BRANCH   4   5
ATOM      5  C   UNL     1      54.242  25.946  49.774  1.00  0.00     0.041 C 
ATOM      6  O   UNL     1      53.797  25.646  48.635  1.00  0.00    -0.550 OA
ATOM      7  O   UNL     1      53.770  25.274  50.895  1.00  0.00    -0.550 OA
ENDBRANCH   4   5
ENDBRANCH   3   4
ENDBRANCH   2   3
ENDBRANCH   1   2
BRANCH   1   8
ATOM      8  C   UNL     1      58.224  29.660  50.097  1.00  0.00     0.000 C 
BRANCH   8   9
ATOM      9  C   UNL     1      59.069  29.038  48.972  1.00  0.00     0.006 C 
BRANCH   9  10
ATOM     10  C   UNL     1      59.681  27.693  49.385  1.00  0.00     0.053 C 
BRANCH  10  11
ATOM     11  C   UNL     1      61.056  27.860  49.955  1.00  0.00     0.041 C 
ATOM     12  O   UNL     1      62.037  28.067  49.193  1.00  0.00    -0.550 OA
ATOM     13  O   UNL     1      61.250  27.822  51.330  1.00  0.00    -0.550 OA
ENDBRANCH  10  11
ENDBRANCH   9  10
ENDBRANCH   8   9
ENDBRANCH   1   8
TORSDOF 8
ENDMDL
MODEL 4
REMARK VINA RESULT:    -3.331      1.404      2.313
REMARK INTER + INTRA:          -5.447
REMARK INTER:                  -4.824
REMARK INTRA:                  -0.623
REMARK UNBOUND:                -0.558
REMARK SMILES O=C([O-])CCCCCCCC(=O)[O-]
REMARK SMILES IDX 7 1 6 2 5 3 4 4 2 5 1 6 3 7 8 8 9 9 10 10 11 11 12 12 13 13
REMARK H PARENT
REMARK Flexibility Score: inf
ROOT
ATOM      1  C   UNL     1      58.113  16.899  49.474  1.00  0.00     0.000 C 
ENDROOT
BRANCH   1   2
ATOM      2  C   UNL     1      58.699  16.942  50.893  1.00  0.00     0.000 C 
BRANCH   2   3
ATOM      3  C   UNL     1      57.757  17.676  51.854  1.00  0.00     0.006 C 
BRANCH   3   4
ATOM      4  C   UNL     1      57.224  18.966  51.225  1.00  0.00     0.053 C 
BRANCH   4   5
ATOM      5  C   UNL     1      55.737  19.047  51.377  1.00  0.00     0.041 C 
ATOM      6  O   UNL     1      54.992  18.979  50.364  1.00  0.00    -0.550 OA
ATOM      7  O   UNL     1      55.172  19.149  52.641  1.00  0.00    -0.550 OA
ENDBRANCH   4   5
ENDBRANCH   3   4
ENDBRANCH   2   3
ENDBRANCH   1   2
BRANCH   1   8
ATOM      8  C   UNL     1      59.150  17.246  48.395  1.00  0.00     0.000 C 
BRANCH   8   9
ATOM      9  C   UNL     1      60.115  18.359  48.836  1.00  0.00     0.006 C 
BRANCH   9  10
ATOM     10  C   UNL     1      59.600  19.754  48.457  1.00  0.00     0.053 C 
BRANCH  10  11
ATOM     11  C   UNL     1      60.404  20.839  49.108  1.00  0.00     0.041 C 
ATOM     12  O   UNL     1      60.107  21.238  50.264  1.00  0.00    -0.550 OA
ATOM     13  O   UNL     1      61.500  21.384  48.452  1.00  0.00    -0.550 OA
ENDBRANCH  10  11
ENDBRANCH   9  10
ENDBRANCH   8   9
ENDBRANCH   1   8
TORSDOF 8
ENDMDL
MODEL 5
REMARK VINA RESULT:    -3.310      0.322      4.960
REMARK INTER + INTRA:          -5.416
REMARK INTER:                  -4.820
REMARK INTRA:                  -0.597
REMARK UNBOUND:                -0.558
REMARK SMILES O=C([O-])CCCCCCCC(=O)[O-]
REMARK SMILES IDX 7 1 6 2 5 3 4 4 2 5 1 6 3 7 8 8 9 9 10 10 11 11 12 12 13 13
REMARK H PARENT
REMARK Flexibility Score: inf
ROOT
ATOM      1  C   UNL     1      60.454  17.866  49.269  1.00  0.00     0.000 C 
ENDROOT
BRANCH   1   2
ATOM      2  C   UNL     1      60.965  19.274  49.607  1.00  0.00     0.000 C 
BRANCH   2   3
ATOM      3  C   UNL     1      60.162  20.344  48.859  1.00  0.00     0.006 C 
BRANCH   3   4
ATOM      4  C   UNL     1      61.042  21.548  48.509  1.00  0.00     0.053 C 
BRANCH   4   5
ATOM      5  C   UNL     1      61.169  22.464  49.685  1.00  0.00     0.041 C 
ATOM      6  O   UNL     1      62.169  22.383  50.447  1.00  0.00    -0.550 OA
ATOM      7  O   UNL     1      60.208  23.440  49.913  1.00  0.00    -0.550 OA
ENDBRANCH   4   5
ENDBRANCH   3   4
ENDBRANCH   2   3
ENDBRANCH   1   2
BRANCH   1   8
ATOM      8  C   UNL     1      59.037  17.878  48.675  1.00  0.00     0.000 C 
BRANCH   8   9
ATOM      9  C   UNL     1      58.096  16.875  49.366  1.00  0.00     0.006 C 
BRANCH   9  10
ATOM     10  C   UNL     1      57.761  17.294  50.804  1.00  0.00     0.053 C 
BRANCH  10  11
ATOM     11  C   UNL     1      57.031  18.602  50.844  1.00  0.00     0.041 C 
ATOM     12  O   UNL     1      57.586  19.622  51.332  1.00  0.00    -0.550 OA
ATOM     13  O   UNL     1      55.751  18.703  50.314  1.00  0.00    -0.550 OA
ENDBRANCH  10  11
ENDBRANCH   9  10
ENDBRANCH   8   9
ENDBRANCH   1   8
TORSDOF 8
ENDMDL
MODEL 6
REMARK VINA RESULT:    -3.276      7.693     10.184
REMARK INTER + INTRA:          -5.367
REMARK INTER:                  -4.883
REMARK INTRA:                  -0.484
REMARK UNBOUND:                -0.558
REMARK SMILES O=C([O-])CCCCCCCC(=O)[O-]
REMARK SMILES IDX 7 1 6 2 5 3 4 4 2 5 1 6 3 7 8 8 9 9 10 10 11 11 12 12 13 13
REMARK H PARENT
REMARK Flexibility Score: inf
ROOT
ATOM      1  C   UNL     1      56.744  28.499  50.465  1.00  0.00     0.000 C 
ENDROOT
BRANCH   1   2
ATOM      2  C   UNL     1      57.805  29.595  50.643  1.00  0.00     0.000 C 
BRANCH   2   3
ATOM      3  C   UNL     1      58.812  29.578  49.488  1.00  0.00     0.006 C 
BRANCH   3   4
ATOM      4  C   UNL     1      59.181  28.143  49.100  1.00  0.00     0.053 C 
BRANCH   4   5
ATOM      5  C   UNL     1      60.448  27.727  49.777  1.00  0.00     0.041 C 
ATOM      6  O   UNL     1      60.414  26.930  50.752  1.00  0.00    -0.550 OA
ATOM      7  O   UNL     1      61.672  28.180  49.301  1.00  0.00    -0.550 OA
ENDBRANCH   4   5
ENDBRANCH   3   4
ENDBRANCH   2   3
ENDBRANCH   1   2
BRANCH   1   8
ATOM      8  C   UNL     1      55.313  29.024  50.662  1.00  0.00     0.000 C 
BRANCH   8   9
ATOM      9  C   UNL     1      54.249  28.076  50.079  1.00  0.00     0.006 C 
BRANCH   9  10
ATOM     10  C   UNL     1      54.833  26.702  49.722  1.00  0.00     0.053 C 
BRANCH  10  11
ATOM     11  C   UNL     1      54.274  25.618  50.592  1.00  0.00     0.041 C 
ATOM     12  O   UNL     1      53.371  24.859  50.154  1.00  0.00    -0.550 OA
ATOM     13  O   UNL     1      54.774  25.426  51.874  1.00  0.00    -0.550 OA
ENDBRANCH  10  11
ENDBRANCH   9  10
ENDBRANCH   8   9
ENDBRANCH   1   8
TORSDOF 8
ENDMDL
MODEL 7
REMARK VINA RESULT:    -3.194      7.185      9.477
REMARK INTER + INTRA:          -5.246
REMARK INTER:                  -4.713
REMARK INTRA:                  -0.533
REMARK UNBOUND:                -0.558
REMARK SMILES O=C([O-])CCCCCCCC(=O)[O-]
REMARK SMILES IDX 7 1 6 2 5 3 4 4 2 5 1 6 3 7 8 8 9 9 10 10 11 11 12 12 13 13
REMARK H PARENT
REMARK Flexibility Score: inf
ROOT
ATOM      1  C   UNL     1      58.721  29.740  50.847  1.00  0.00     0.000 C 
ENDROOT
BRANCH   1   2
ATOM      2  C   UNL     1      57.298  29.615  51.410  1.00  0.00     0.000 C 
BRANCH   2   3
ATOM      3  C   UNL     1      56.354  28.979  50.384  1.00  0.00     0.006 C 
BRANCH   3   4
ATOM      4  C   UNL     1      54.894  29.096  50.832  1.00  0.00     0.053 C 
BRANCH   4   5
ATOM      5  C   UNL     1      54.020  28.204  50.008  1.00  0.00     0.041 C 
ATOM      6  O   UNL     1      52.875  28.590  49.653  1.00  0.00    -0.550 OA
ATOM      7  O   UNL     1      54.489  26.965  49.590  1.00  0.00    -0.550 OA
ENDBRANCH   4   5
ENDBRANCH   3   4
ENDBRANCH   2   3
ENDBRANCH   1   2
BRANCH   1   8
ATOM      8  C   UNL     1      58.802  29.369  49.357  1.00  0.00     0.000 C 
BRANCH   8   9
ATOM      9  C   UNL     1      59.696  28.144  49.099  1.00  0.00     0.006 C 
BRANCH   9  10
ATOM     10  C   UNL     1      59.824  27.251  50.340  1.00  0.00     0.053 C 
BRANCH  10  11
ATOM     11  C   UNL     1      59.095  25.954  50.167  1.00  0.00     0.041 C 
ATOM     12  O   UNL     1      57.859  25.950  49.927  1.00  0.00    -0.550 OA
ATOM     13  O   UNL     1      59.785  24.750  50.238  1.00  0.00    -0.550 OA
ENDBRANCH  10  11
ENDBRANCH   9  10
ENDBRANCH   8   9
ENDBRANCH   1   8
TORSDOF 8
ENDMDL
MODEL 8
REMARK VINA RESULT:    -3.140     18.236     20.062
REMARK INTER + INTRA:          -5.167
REMARK INTER:                  -4.657
REMARK INTRA:                  -0.511
REMARK UNBOUND:                -0.558
REMARK SMILES O=C([O-])CCCCCCCC(=O)[O-]
REMARK SMILES IDX 7 1 6 2 5 3 4 4 2 5 1 6 3 7 8 8 9 9 10 10 11 11 12 12 13 13
REMARK H PARENT
REMARK Flexibility Score: inf
ROOT
ATOM      1  C   UNL     1      72.358  29.857  60.593  1.00  0.00     0.000 C 
ENDROOT
BRANCH   1   2
ATOM      2  C   UNL     1      72.515  29.585  62.096  1.00  0.00     0.000 C 
BRANCH   2   3
ATOM      3  C   UNL     1      71.168  29.705  62.820  1.00  0.00     0.006 C 
BRANCH   3   4
ATOM      4  C   UNL     1      70.011  29.776  61.821  1.00  0.00     0.053 C 
BRANCH   4   5
ATOM      5  C   UNL     1      69.020  28.687  62.087  1.00  0.00     0.041 C 
ATOM      6  O   UNL     1      67.787  28.940  62.104  1.00  0.00    -0.550 OA
ATOM      7  O   UNL     1      69.457  27.380  62.268  1.00  0.00    -0.550 OA
ENDBRANCH   4   5
ENDBRANCH   3   4
ENDBRANCH   2   3
ENDBRANCH   1   2
BRANCH   1   8
ATOM      8  C   UNL     1      73.084  31.134  60.144  1.00  0.00     0.000 C 
BRANCH   8   9
ATOM      9  C   UNL     1      72.336  32.415  60.550  1.00  0.00     0.006 C 
BRANCH   9  10
ATOM     10  C   UNL     1      71.592  33.050  59.367  1.00  0.00     0.053 C 
BRANCH  10  11
ATOM     11  C   UNL     1      71.105  34.429  59.693  1.00  0.00     0.041 C 
ATOM     12  O   UNL     1      70.482  35.100  58.829  1.00  0.00    -0.550 OA
ATOM     13  O   UNL     1      71.309  34.959  60.960  1.00  0.00    -0.550 OA
ENDBRANCH  10  11
ENDBRANCH   9  10
ENDBRANCH   8   9
ENDBRANCH   1   8
TORSDOF 8
ENDMDL
MODEL 9
REMARK VINA RESULT:    -3.106      7.800      8.724
REMARK INTER + INTRA:          -5.117
REMARK INTER:                  -4.497
REMARK INTRA:                  -0.620
REMARK UNBOUND:                -0.558
REMARK SMILES O=C([O-])CCCCCCCC(=O)[O-]
REMARK SMILES IDX 7 1 6 2 5 3 4 4 2 5 1 6 3 7 8 8 9 9 10 10 11 11 12 12 13 13
REMARK H PARENT
REMARK Flexibility Score: inf
ROOT
ATOM      1  C   UNL     1      58.781  26.386  51.002  1.00  0.00     0.000 C 
ENDROOT
BRANCH   1   2
ATOM      2  C   UNL     1      57.315  25.987  51.222  1.00  0.00     0.000 C 
BRANCH   2   3
ATOM      3  C   UNL     1      56.464  26.318  49.990  1.00  0.00     0.006 C 
BRANCH   3   4
ATOM      4  C   UNL     1      55.433  27.404  50.309  1.00  0.00     0.053 C 
BRANCH   4   5
ATOM      5  C   UNL     1      54.132  27.106  49.633  1.00  0.00     0.041 C 
ATOM      6  O   UNL     1      53.934  25.979  49.105  1.00  0.00    -0.550 OA
ATOM      7  O   UNL     1      53.117  28.055  49.628  1.00  0.00    -0.550 OA
ENDBRANCH   4   5
ENDBRANCH   3   4
ENDBRANCH   2   3
ENDBRANCH   1   2
BRANCH   1   8
ATOM      8  C   UNL     1      59.113  26.629  49.521  1.00  0.00     0.000 C 
BRANCH   8   9
ATOM      9  C   UNL     1      59.847  27.961  49.289  1.00  0.00     0.006 C 
BRANCH   9  10
ATOM     10  C   UNL     1      58.891  29.161  49.318  1.00  0.00     0.053 C 
BRANCH  10  11
ATOM     11  C   UNL     1      58.882  29.832  50.657  1.00  0.00     0.041 C 
ATOM     12  O   UNL     1      59.942  30.325  51.125  1.00  0.00    -0.550 OA
ATOM     13  O   UNL     1      57.698  29.941  51.375  1.00  0.00    -0.550 OA
ENDBRANCH  10  11
ENDBRANCH   9  10
ENDBRANCH   8   9
ENDBRANCH   1   8
TORSDOF 8
ENDMDL
