MODEL 1
REMARK VINA RESULT:    -3.017      0.000      0.000
REMARK INTER + INTRA:          -3.848
REMARK INTER:                  -3.722
REMARK INTRA:                  -0.126
REMARK UNBOUND:                -0.126
REMARK SMILES CCCCCC(=O)[O-]
REMARK SMILES IDX 4 1 5 2 6 3 7 4 8 5 3 6 2 7 1 8
REMARK H PARENT
REMARK Flexibility Score: inf
ROOT
ATOM      1  C   UNL     1      35.801   7.993  -4.482  1.00  0.00     0.006 C 
ENDROOT
BRANCH   1   2
ATOM      2  C   UNL     1      34.524   8.388  -3.731  1.00  0.00     0.053 C 
BRANCH   2   3
ATOM      3  C   UNL     1      34.766   8.385  -2.254  1.00  0.00     0.041 C 
ATOM      4  O   UNL     1      35.882   8.743  -1.794  1.00  0.00    -0.550 OA
ATOM      5  O   UNL     1      33.776   7.939  -1.388  1.00  0.00    -0.550 OA
ENDBRANCH   2   3
ENDBRANCH   1   2
BRANCH   1   6
ATOM      6  C   UNL     1      35.569   6.847  -5.480  1.00  0.00     0.000 C 
BRANCH   6   7
ATOM      7  C   UNL     1      34.720   5.712  -4.890  1.00  0.00    -0.003 C 
ATOM      8  C   UNL     1      34.043   4.902  -5.992  1.00  0.00     0.004 C 
ENDBRANCH   6   7
ENDBRANCH   1   6
TORSDOF 4
ENDMDL
MODEL 2
REMARK VINA RESULT:    -2.947      3.367      4.590
REMARK INTER + INTRA:          -3.762
REMARK INTER:                  -3.709
REMARK INTRA:                  -0.053
REMARK UNBOUND:                -0.126
REMARK SMILES CCCCCC(=O)[O-]
REMARK SMILES IDX 4 1 5 2 6 3 7 4 8 5 3 6 2 7 1 8
REMARK H PARENT
REMARK Flexibility Score: inf
ROOT
ATOM      1  C   UNL     1      33.143   6.179  -6.836  1.00  0.00     0.006 C 
ENDROOT
BRANCH   1   2
ATOM      2  C   UNL     1      34.022   4.973  -6.484  1.00  0.00     0.053 C 
BRANCH   2   3
ATOM      3  C   UNL     1      34.608   5.135  -5.117  1.00  0.00     0.041 C 
ATOM      4  O   UNL     1      34.184   4.437  -4.159  1.00  0.00    -0.550 OA
ATOM      5  O   UNL     1      35.589   6.092  -4.890  1.00  0.00    -0.550 OA
ENDBRANCH   2   3
ENDBRANCH   1   2
BRANCH   1   6
ATOM      6  C   UNL     1      31.716   5.774  -7.237  1.00  0.00     0.000 C 
BRANCH   6   7
ATOM      7  C   UNL     1      30.864   6.973  -7.678  1.00  0.00    -0.003 C 
ATOM      8  C   UNL     1      29.621   7.115  -6.803  1.00  0.00     0.004 C 
ENDBRANCH   6   7
ENDBRANCH   1   6
TORSDOF 4
ENDMDL
MODEL 3
REMARK VINA RESULT:    -2.859      4.902      5.894
REMARK INTER + INTRA:          -3.654
REMARK INTER:                  -3.560
REMARK INTRA:                  -0.094
REMARK UNBOUND:                -0.126
REMARK SMILES CCCCCC(=O)[O-]
REMARK SMILES IDX 4 1 5 2 6 3 7 4 8 5 3 6 2 7 1 8
REMARK H PARENT
REMARK Flexibility Score: inf
ROOT
ATOM      1  C   UNL     1      31.230   7.031  -7.221  1.00  0.00     0.006 C 
ENDROOT
BRANCH   1   2
ATOM      2  C   UNL     1      31.901   5.651  -7.218  1.00  0.00     0.053 C 
BRANCH   2   3
ATOM      3  C   UNL     1      33.250   5.728  -6.575  1.00  0.00     0.041 C 
ATOM      4  O   UNL     1      33.758   6.847  -6.301  1.00  0.00    -0.550 OA
ATOM      5  O   UNL     1      33.967   4.566  -6.323  1.00  0.00    -0.550 OA
ENDBRANCH   2   3
ENDBRANCH   1   2
BRANCH   1   6
ATOM      6  C   UNL     1      29.712   6.951  -6.995  1.00  0.00     0.000 C 
BRANCH   6   7
ATOM      7  C   UNL     1      28.936   7.979  -7.831  1.00  0.00    -0.003 C 
ATOM      8  C   UNL     1      28.653   7.445  -9.233  1.00  0.00     0.004 C 
ENDBRANCH   6   7
ENDBRANCH   1   6
TORSDOF 4
ENDMDL
MODEL 4
REMARK VINA RESULT:    -2.823      8.431      9.078
REMARK INTER + INTRA:          -3.609
REMARK INTER:                  -3.493
REMARK INTRA:                  -0.117
REMARK UNBOUND:                -0.126
REMARK SMILES CCCCCC(=O)[O-]
REMARK SMILES IDX 4 1 5 2 6 3 7 4 8 5 3 6 2 7 1 8
REMARK H PARENT
REMARK Flexibility Score: inf
ROOT
ATOM      1  C   UNL     1      31.645   0.884   1.574  1.00  0.00     0.006 C 
ENDROOT
BRANCH   1   2
ATOM      2  C   UNL     1      32.080   2.279   2.040  1.00  0.00     0.053 C 
BRANCH   2   3
ATOM      3  C   UNL     1      32.314   3.172   0.862  1.00  0.00     0.041 C 
ATOM      4  O   UNL     1      33.352   3.039   0.162  1.00  0.00    -0.550 OA
ATOM      5  O   UNL     1      31.410   4.185   0.567  1.00  0.00    -0.550 OA
ENDBRANCH   2   3
ENDBRANCH   1   2
BRANCH   1   6
ATOM      6  C   UNL     1      32.466  -0.240   2.229  1.00  0.00     0.000 C 
BRANCH   6   7
ATOM      7  C   UNL     1      31.622  -1.120   3.162  1.00  0.00    -0.003 C 
ATOM      8  C   UNL     1      30.130  -0.880   2.943  1.00  0.00     0.004 C 
ENDBRANCH   6   7
ENDBRANCH   1   6
TORSDOF 4
ENDMDL
MODEL 5
REMARK VINA RESULT:    -2.775      6.073      6.961
REMARK INTER + INTRA:          -3.550
REMARK INTER:                  -3.383
REMARK INTRA:                  -0.167
REMARK UNBOUND:                -0.126
REMARK SMILES CCCCCC(=O)[O-]
REMARK SMILES IDX 4 1 5 2 6 3 7 4 8 5 3 6 2 7 1 8
REMARK H PARENT
REMARK Flexibility Score: inf
ROOT
ATOM      1  C   UNL     1      29.584   7.087  -7.223  1.00  0.00     0.006 C 
ENDROOT
BRANCH   1   2
ATOM      2  C   UNL     1      31.082   7.281  -6.961  1.00  0.00     0.053 C 
BRANCH   2   3
ATOM      3  C   UNL     1      31.868   6.166  -7.576  1.00  0.00     0.041 C 
ATOM      4  O   UNL     1      31.903   6.029  -8.827  1.00  0.00    -0.550 OA
ATOM      5  O   UNL     1      32.523   5.248  -6.765  1.00  0.00    -0.550 OA
ENDBRANCH   2   3
ENDBRANCH   1   2
BRANCH   1   6
ATOM      6  C   UNL     1      28.855   8.412  -7.498  1.00  0.00     0.000 C 
BRANCH   6   7
ATOM      7  C   UNL     1      28.402   8.545  -8.959  1.00  0.00    -0.003 C 
ATOM      8  C   UNL     1      28.585   7.230  -9.712  1.00  0.00     0.004 C 
ENDBRANCH   6   7
ENDBRANCH   1   6
TORSDOF 4
ENDMDL
MODEL 6
REMARK VINA RESULT:    -2.645      3.168      4.273
REMARK INTER + INTRA:          -3.389
REMARK INTER:                  -3.118
REMARK INTRA:                  -0.271
REMARK UNBOUND:                -0.126
REMARK SMILES CCCCCC(=O)[O-]
REMARK SMILES IDX 4 1 5 2 6 3 7 4 8 5 3 6 2 7 1 8
REMARK H PARENT
REMARK Flexibility Score: inf
ROOT
ATOM      1  C   UNL     1      34.810   5.266  -7.592  1.00  0.00     0.006 C 
ENDROOT
BRANCH   1   2
ATOM      2  C   UNL     1      33.814   5.160  -6.431  1.00  0.00     0.053 C 
BRANCH   2   3
ATOM      3  C   UNL     1      34.536   5.180  -5.120  1.00  0.00     0.041 C 
ATOM      4  O   UNL     1      34.227   4.362  -4.214  1.00  0.00    -0.550 OA
ATOM      5  O   UNL     1      35.517   6.134  -4.881  1.00  0.00    -0.550 OA
ENDBRANCH   2   3
ENDBRANCH   1   2
BRANCH   1   6
ATOM      6  C   UNL     1      35.667   4.000  -7.754  1.00  0.00     0.000 C 
BRANCH   6   7
ATOM      7  C   UNL     1      37.171   4.288  -7.654  1.00  0.00    -0.003 C 
ATOM      8  C   UNL     1      37.463   5.769  -7.881  1.00  0.00     0.004 C 
ENDBRANCH   6   7
ENDBRANCH   1   6
TORSDOF 4
ENDMDL
MODEL 7
REMARK VINA RESULT:    -2.558     10.665     11.682
REMARK INTER + INTRA:          -3.281
REMARK INTER:                  -3.152
REMARK INTRA:                  -0.130
REMARK UNBOUND:                -0.126
REMARK SMILES CCCCCC(=O)[O-]
REMARK SMILES IDX 4 1 5 2 6 3 7 4 8 5 3 6 2 7 1 8
REMARK H PARENT
REMARK Flexibility Score: inf
ROOT
ATOM      1  C   UNL     1      34.055  -3.320  -4.659  1.00  0.00     0.006 C 
ENDROOT
BRANCH   1   2
ATOM      2  C   UNL     1      32.539  -3.438  -4.458  1.00  0.00     0.053 C 
BRANCH   2   3
ATOM      3  C   UNL     1      32.050  -4.766  -4.945  1.00  0.00     0.041 C 
ATOM      4  O   UNL     1      30.932  -5.206  -4.569  1.00  0.00    -0.550 OA
ATOM      5  O   UNL     1      32.851  -5.541  -5.774  1.00  0.00    -0.550 OA
ENDBRANCH   2   3
ENDBRANCH   1   2
BRANCH   1   6
ATOM      6  C   UNL     1      34.514  -1.867  -4.854  1.00  0.00     0.000 C 
BRANCH   6   7
ATOM      7  C   UNL     1      35.582  -1.726  -5.948  1.00  0.00    -0.003 C 
ATOM      8  C   UNL     1      35.674  -2.995  -6.791  1.00  0.00     0.004 C 
ENDBRANCH   6   7
ENDBRANCH   1   6
TORSDOF 4
ENDMDL
MODEL 8
REMARK VINA RESULT:    -2.528      7.430      8.707
REMARK INTER + INTRA:          -3.245
REMARK INTER:                  -3.109
REMARK INTRA:                  -0.136
REMARK UNBOUND:                -0.126
REMARK SMILES CCCCCC(=O)[O-]
REMARK SMILES IDX 4 1 5 2 6 3 7 4 8 5 3 6 2 7 1 8
REMARK H PARENT
REMARK Flexibility Score: inf
ROOT
ATOM      1  C   UNL     1      33.741   2.306   2.707  1.00  0.00     0.006 C 
ENDROOT
BRANCH   1   2
ATOM      2  C   UNL     1      33.445   2.567   1.225  1.00  0.00     0.053 C 
BRANCH   2   3
ATOM      3  C   UNL     1      31.977   2.766   1.014  1.00  0.00     0.041 C 
ATOM      4  O   UNL     1      31.183   1.796   1.130  1.00  0.00    -0.550 OA
ATOM      5  O   UNL     1      31.491   4.012   0.640  1.00  0.00    -0.550 OA
ENDBRANCH   2   3
ENDBRANCH   1   2
BRANCH   1   6
ATOM      6  C   UNL     1      33.895   3.603   3.517  1.00  0.00     0.000 C 
BRANCH   6   7
ATOM      7  C   UNL     1      34.890   3.460   4.678  1.00  0.00    -0.003 C 
ATOM      8  C   UNL     1      36.133   2.688   4.243  1.00  0.00     0.004 C 
ENDBRANCH   6   7
ENDBRANCH   1   6
TORSDOF 4
ENDMDL
MODEL 9
REMARK VINA RESULT:    -2.516      9.989     10.759
REMARK INTER + INTRA:          -3.230
REMARK INTER:                  -3.119
REMARK INTRA:                  -0.111
REMARK UNBOUND:                -0.126
REMARK SMILES CCCCCC(=O)[O-]
REMARK SMILES IDX 4 1 5 2 6 3 7 4 8 5 3 6 2 7 1 8
REMARK H PARENT
REMARK Flexibility Score: inf
ROOT
ATOM      1  C   UNL     1      40.336   0.717   2.290  1.00  0.00     0.006 C 
ENDROOT
BRANCH   1   2
ATOM      2  C   UNL     1      40.574   0.271   0.842  1.00  0.00     0.053 C 
BRANCH   2   3
ATOM      3  C   UNL     1      39.270   0.010   0.156  1.00  0.00     0.041 C 
ATOM      4  O   UNL     1      38.206  -0.063   0.824  1.00  0.00    -0.550 OA
ATOM      5  O   UNL     1      39.237  -0.201  -1.217  1.00  0.00    -0.550 OA
ENDBRANCH   2   3
ENDBRANCH   1   2
BRANCH   1   6
ATOM      6  C   UNL     1      40.273   2.246   2.435  1.00  0.00     0.000 C 
BRANCH   6   7
ATOM      7  C   UNL     1      41.345   2.793   3.389  1.00  0.00    -0.003 C 
ATOM      8  C   UNL     1      42.361   1.712   3.751  1.00  0.00     0.004 C 
ENDBRANCH   6   7
ENDBRANCH   1   6
TORSDOF 4
ENDMDL
