MODEL 1
REMARK VINA RESULT:    -6.053      0.000      0.000
REMARK INTER + INTRA:          -6.584
REMARK INTER:                  -6.584
REMARK INTRA:                   0.000
REMARK UNBOUND:                 0.000
REMARK SMILES Cc1cc(O)c2c(c1)C(=O)c1cc(O)cc(O)c1C2=O
REMARK SMILES IDX 1 1 2 2 8 3 7 4 6 5 4 6 3 7 19 8 20 9 18 10 11 11 9 12 10 13
REMARK SMILES IDX 12 14 13 15 15 16 16 17 5 18 17 20 14 22
REMARK H PARENT 5 19 17 21 14 23
REMARK Flexibility Score: inf
ROOT
ATOM      1  C   UNL     1      -9.661  -3.752  -9.565  1.00  0.00     0.044 C 
ATOM      2  C   UNL     1      -9.527  -2.530  -8.705  1.00  0.00    -0.047 A 
ATOM      3  C   UNL     1      -9.172  -2.652  -7.358  1.00  0.00     0.016 A 
ATOM      4  C   UNL     1      -9.017  -1.511  -6.551  1.00  0.00     0.038 A 
ATOM      5  C   UNL     1      -9.222  -0.227  -7.103  1.00  0.00     0.076 A 
ATOM      6  C   UNL     1      -9.498  -0.106  -8.489  1.00  0.00     0.127 A 
ATOM      7  C   UNL     1      -9.668  -1.256  -9.267  1.00  0.00     0.050 A 
ATOM      8  C   UNL     1      -9.195   0.944  -6.188  1.00  0.00     0.201 C 
ATOM      9  O   UNL     1      -9.892   1.960  -6.451  1.00  0.00    -0.288 OA
ATOM     10  C   UNL     1      -8.500   0.841  -4.878  1.00  0.00     0.076 A 
ATOM     11  C   UNL     1      -8.295  -0.446  -4.331  1.00  0.00     0.041 A 
ATOM     12  C   UNL     1      -8.634  -1.650  -5.126  1.00  0.00     0.194 C 
ATOM     13  O   UNL     1      -8.572  -2.793  -4.596  1.00  0.00    -0.289 OA
ATOM     14  C   UNL     1      -7.766  -0.577  -3.035  1.00  0.00     0.059 A 
ATOM     15  C   UNL     1      -7.427   0.551  -2.290  1.00  0.00     0.120 A 
ATOM     16  C   UNL     1      -7.590   1.823  -2.842  1.00  0.00     0.093 A 
ATOM     17  C   UNL     1      -8.094   1.981  -4.137  1.00  0.00     0.131 A 
ENDROOT
BRANCH   6  18
ATOM     18  O   UNL     1      -9.576   1.128  -9.139  1.00  0.00    -0.507 OA
ATOM     19  H   UNL     1     -10.125   1.287  -9.973  1.00  0.00     0.293 HD
ENDBRANCH   6  18
BRANCH  17  20
ATOM     20  O   UNL     1      -8.143   3.277  -4.656  1.00  0.00    -0.507 OA
ATOM     21  H   UNL     1      -7.400   3.953  -4.540  1.00  0.00     0.293 HD
ENDBRANCH  17  20
BRANCH  15  22
ATOM     22  O   UNL     1      -6.917   0.396  -1.002  1.00  0.00    -0.508 OA
ATOM     23  H   UNL     1      -6.066  -0.124  -0.828  1.00  0.00     0.293 HD
ENDBRANCH  15  22
TORSDOF 3
ENDMDL
MODEL 2
REMARK VINA RESULT:    -5.889      2.418      6.616
REMARK INTER + INTRA:          -6.405
REMARK INTER:                  -6.405
REMARK INTRA:                   0.000
REMARK UNBOUND:                 0.000
REMARK SMILES Cc1cc(O)c2c(c1)C(=O)c1cc(O)cc(O)c1C2=O
REMARK SMILES IDX 1 1 2 2 8 3 7 4 6 5 4 6 3 7 19 8 20 9 18 10 11 11 9 12 10 13
REMARK SMILES IDX 12 14 13 15 15 16 16 17 5 18 17 20 14 22
REMARK H PARENT 5 19 17 21 14 23
REMARK Flexibility Score: inf
ROOT
ATOM      1  C   UNL     1      -7.119   1.965  -4.118  1.00  0.00     0.044 C 
ATOM      2  C   UNL     1      -7.563   0.546  -4.318  1.00  0.00    -0.047 A 
ATOM      3  C   UNL     1      -7.609  -0.002  -5.605  1.00  0.00     0.016 A 
ATOM      4  C   UNL     1      -7.997  -1.339  -5.800  1.00  0.00     0.038 A 
ATOM      5  C   UNL     1      -8.345  -2.140  -4.689  1.00  0.00     0.076 A 
ATOM      6  C   UNL     1      -8.215  -1.604  -3.383  1.00  0.00     0.127 A 
ATOM      7  C   UNL     1      -7.846  -0.265  -3.215  1.00  0.00     0.050 A 
ATOM      8  C   UNL     1      -8.892  -3.498  -4.946  1.00  0.00     0.201 C 
ATOM      9  O   UNL     1      -9.710  -4.006  -4.135  1.00  0.00    -0.288 OA
ATOM     10  C   UNL     1      -8.618  -4.171  -6.242  1.00  0.00     0.076 A 
ATOM     11  C   UNL     1      -8.268  -3.366  -7.350  1.00  0.00     0.041 A 
ATOM     12  C   UNL     1      -8.037  -1.914  -7.166  1.00  0.00     0.194 C 
ATOM     13  O   UNL     1      -7.849  -1.173  -8.169  1.00  0.00    -0.289 OA
ATOM     14  C   UNL     1      -8.137  -3.949  -8.623  1.00  0.00     0.059 A 
ATOM     15  C   UNL     1      -8.334  -5.318  -8.799  1.00  0.00     0.120 A 
ATOM     16  C   UNL     1      -8.640  -6.124  -7.700  1.00  0.00     0.093 A 
ATOM     17  C   UNL     1      -8.756  -5.572  -6.420  1.00  0.00     0.131 A 
ENDROOT
BRANCH   6  18
ATOM     18  O   UNL     1      -8.404  -2.369  -2.230  1.00  0.00    -0.507 OA
ATOM     19  H   UNL     1      -7.889  -2.224  -1.372  1.00  0.00     0.293 HD
ENDBRANCH   6  18
BRANCH  17  20
ATOM     20  O   UNL     1      -8.973  -6.452  -5.357  1.00  0.00    -0.507 OA
ATOM     21  H   UNL     1      -8.230  -6.839  -4.792  1.00  0.00     0.293 HD
ENDBRANCH  17  20
BRANCH  15  22
ATOM     22  O   UNL     1      -8.211  -5.871 -10.072  1.00  0.00    -0.508 OA
ATOM     23  H   UNL     1      -8.543  -6.806 -10.278  1.00  0.00     0.293 HD
ENDBRANCH  15  22
TORSDOF 3
ENDMDL
MODEL 3
REMARK VINA RESULT:    -5.720     13.541     16.147
REMARK INTER + INTRA:          -6.221
REMARK INTER:                  -6.221
REMARK INTRA:                   0.000
REMARK UNBOUND:                 0.000
REMARK SMILES Cc1cc(O)c2c(c1)C(=O)c1cc(O)cc(O)c1C2=O
REMARK SMILES IDX 1 1 2 2 8 3 7 4 6 5 4 6 3 7 19 8 20 9 18 10 11 11 9 12 10 13
REMARK SMILES IDX 12 14 13 15 15 16 16 17 5 18 17 20 14 22
REMARK H PARENT 5 19 17 21 14 23
REMARK Flexibility Score: inf
ROOT
ATOM      1  C   UNL     1       1.479   4.988   9.717  1.00  0.00     0.044 C 
ATOM      2  C   UNL     1       0.520   5.187   8.582  1.00  0.00    -0.047 A 
ATOM      3  C   UNL     1      -0.652   5.928   8.771  1.00  0.00     0.016 A 
ATOM      4  C   UNL     1      -1.543   6.144   7.706  1.00  0.00     0.038 A 
ATOM      5  C   UNL     1      -1.257   5.609   6.430  1.00  0.00     0.076 A 
ATOM      6  C   UNL     1      -0.027   4.932   6.224  1.00  0.00     0.127 A 
ATOM      7  C   UNL     1       0.834   4.712   7.304  1.00  0.00     0.050 A 
ATOM      8  C   UNL     1      -2.290   5.730   5.369  1.00  0.00     0.201 C 
ATOM      9  O   UNL     1      -2.371   4.851   4.471  1.00  0.00    -0.288 OA
ATOM     10  C   UNL     1      -3.338   6.779   5.476  1.00  0.00     0.076 A 
ATOM     11  C   UNL     1      -3.619   7.313   6.754  1.00  0.00     0.041 A 
ATOM     12  C   UNL     1      -2.779   6.935   7.915  1.00  0.00     0.194 C 
ATOM     13  O   UNL     1      -3.103   7.308   9.076  1.00  0.00    -0.289 OA
ATOM     14  C   UNL     1      -4.694   8.204   6.917  1.00  0.00     0.059 A 
ATOM     15  C   UNL     1      -5.476   8.579   5.825  1.00  0.00     0.120 A 
ATOM     16  C   UNL     1      -5.177   8.085   4.553  1.00  0.00     0.093 A 
ATOM     17  C   UNL     1      -4.100   7.214   4.361  1.00  0.00     0.131 A 
ENDROOT
BRANCH   6  18
ATOM     18  O   UNL     1       0.394   4.497   4.966  1.00  0.00    -0.507 OA
ATOM     19  H   UNL     1       0.121   4.943   4.100  1.00  0.00     0.293 HD
ENDBRANCH   6  18
BRANCH  17  20
ATOM     20  O   UNL     1      -3.804   6.835   3.048  1.00  0.00    -0.507 OA
ATOM     21  H   UNL     1      -2.938   7.066   2.583  1.00  0.00     0.293 HD
ENDBRANCH  17  20
BRANCH  15  22
ATOM     22  O   UNL     1      -6.545   9.453   6.013  1.00  0.00    -0.508 OA
ATOM     23  H   UNL     1      -6.434  10.455   5.914  1.00  0.00     0.293 HD
ENDBRANCH  15  22
TORSDOF 3
ENDMDL
MODEL 4
REMARK VINA RESULT:    -5.685      1.421      6.171
REMARK INTER + INTRA:          -6.183
REMARK INTER:                  -6.183
REMARK INTRA:                   0.000
REMARK UNBOUND:                 0.000
REMARK SMILES Cc1cc(O)c2c(c1)C(=O)c1cc(O)cc(O)c1C2=O
REMARK SMILES IDX 1 1 2 2 8 3 7 4 6 5 4 6 3 7 19 8 20 9 18 10 11 11 9 12 10 13
REMARK SMILES IDX 12 14 13 15 15 16 16 17 5 18 17 20 14 22
REMARK H PARENT 5 19 17 21 14 23
REMARK Flexibility Score: inf
ROOT
ATOM      1  C   UNL     1      -8.518   4.507  -3.370  1.00  0.00     0.044 C 
ATOM      2  C   UNL     1      -8.555   3.039  -3.674  1.00  0.00    -0.047 A 
ATOM      3  C   UNL     1      -9.017   2.588  -4.916  1.00  0.00     0.016 A 
ATOM      4  C   UNL     1      -9.029   1.216  -5.221  1.00  0.00     0.038 A 
ATOM      5  C   UNL     1      -8.571   0.280  -4.266  1.00  0.00     0.076 A 
ATOM      6  C   UNL     1      -8.026   0.749  -3.044  1.00  0.00     0.127 A 
ATOM      7  C   UNL     1      -8.043   2.118  -2.755  1.00  0.00     0.050 A 
ATOM      8  C   UNL     1      -8.738  -1.166  -4.565  1.00  0.00     0.201 C 
ATOM      9  O   UNL     1      -8.899  -1.986  -3.622  1.00  0.00    -0.288 OA
ATOM     10  C   UNL     1      -8.900  -1.615  -5.973  1.00  0.00     0.076 A 
ATOM     11  C   UNL     1      -9.355  -0.674  -6.924  1.00  0.00     0.041 A 
ATOM     12  C   UNL     1      -9.514   0.748  -6.541  1.00  0.00     0.194 C 
ATOM     13  O   UNL     1     -10.038   1.565  -7.347  1.00  0.00    -0.289 OA
ATOM     14  C   UNL     1      -9.651  -1.093  -8.233  1.00  0.00     0.059 A 
ATOM     15  C   UNL     1      -9.486  -2.426  -8.606  1.00  0.00     0.120 A 
ATOM     16  C   UNL     1      -8.998  -3.351  -7.680  1.00  0.00     0.093 A 
ATOM     17  C   UNL     1      -8.675  -2.956  -6.378  1.00  0.00     0.131 A 
ENDROOT
BRANCH   6  18
ATOM     18  O   UNL     1      -7.427  -0.099  -2.109  1.00  0.00    -0.507 OA
ATOM     19  H   UNL     1      -7.077   0.215  -1.214  1.00  0.00     0.293 HD
ENDBRANCH   6  18
BRANCH  17  20
ATOM     20  O   UNL     1      -8.106  -3.915  -5.536  1.00  0.00    -0.507 OA
ATOM     21  H   UNL     1      -7.862  -4.848  -5.838  1.00  0.00     0.293 HD
ENDBRANCH  17  20
BRANCH  15  22
ATOM     22  O   UNL     1      -9.799  -2.820  -9.905  1.00  0.00    -0.508 OA
ATOM     23  H   UNL     1      -9.763  -2.170 -10.680  1.00  0.00     0.293 HD
ENDBRANCH  15  22
TORSDOF 3
ENDMDL
MODEL 5
REMARK VINA RESULT:    -5.629     13.397     15.994
REMARK INTER + INTRA:          -6.122
REMARK INTER:                  -6.122
REMARK INTRA:                   0.000
REMARK UNBOUND:                 0.000
REMARK SMILES Cc1cc(O)c2c(c1)C(=O)c1cc(O)cc(O)c1C2=O
REMARK SMILES IDX 1 1 2 2 8 3 7 4 6 5 4 6 3 7 19 8 20 9 18 10 11 11 9 12 10 13
REMARK SMILES IDX 12 14 13 15 15 16 16 17 5 18 17 20 14 22
REMARK H PARENT 5 19 17 21 14 23
REMARK Flexibility Score: inf
ROOT
ATOM      1  C   UNL     1      -7.677   7.487   7.574  1.00  0.00     0.044 C 
ATOM      2  C   UNL     1      -6.337   6.997   7.108  1.00  0.00    -0.047 A 
ATOM      3  C   UNL     1      -5.201   7.196   7.900  1.00  0.00     0.016 A 
ATOM      4  C   UNL     1      -3.946   6.716   7.486  1.00  0.00     0.038 A 
ATOM      5  C   UNL     1      -3.827   6.028   6.258  1.00  0.00     0.076 A 
ATOM      6  C   UNL     1      -4.996   5.757   5.501  1.00  0.00     0.127 A 
ATOM      7  C   UNL     1      -6.230   6.261   5.924  1.00  0.00     0.050 A 
ATOM      8  C   UNL     1      -2.466   5.668   5.783  1.00  0.00     0.201 C 
ATOM      9  O   UNL     1      -2.232   5.599   4.548  1.00  0.00    -0.288 OA
ATOM     10  C   UNL     1      -1.346   5.575   6.756  1.00  0.00     0.076 A 
ATOM     11  C   UNL     1      -1.471   6.263   7.984  1.00  0.00     0.041 A 
ATOM     12  C   UNL     1      -2.749   6.925   8.335  1.00  0.00     0.194 C 
ATOM     13  O   UNL     1      -2.825   7.644   9.368  1.00  0.00    -0.289 OA
ATOM     14  C   UNL     1      -0.380   6.313   8.870  1.00  0.00     0.059 A 
ATOM     15  C   UNL     1       0.819   5.676   8.556  1.00  0.00     0.120 A 
ATOM     16  C   UNL     1       0.933   4.960   7.362  1.00  0.00     0.093 A 
ATOM     17  C   UNL     1      -0.143   4.878   6.472  1.00  0.00     0.131 A 
ENDROOT
BRANCH   6  18
ATOM     18  O   UNL     1      -4.984   4.965   4.351  1.00  0.00    -0.507 OA
ATOM     19  H   UNL     1      -5.289   5.291   3.444  1.00  0.00     0.293 HD
ENDBRANCH   6  18
BRANCH  17  20
ATOM     20  O   UNL     1       0.014   4.069   5.343  1.00  0.00    -0.507 OA
ATOM     21  H   UNL     1       0.914   3.800   4.971  1.00  0.00     0.293 HD
ENDBRANCH  17  20
BRANCH  15  22
ATOM     22  O   UNL     1       1.890   5.750   9.443  1.00  0.00    -0.508 OA
ATOM     23  H   UNL     1       1.786   6.148  10.369  1.00  0.00     0.293 HD
ENDBRANCH  15  22
TORSDOF 3
ENDMDL
MODEL 6
REMARK VINA RESULT:    -5.478     13.869     15.826
REMARK INTER + INTRA:          -5.958
REMARK INTER:                  -5.958
REMARK INTRA:                   0.000
REMARK UNBOUND:                 0.000
REMARK SMILES Cc1cc(O)c2c(c1)C(=O)c1cc(O)cc(O)c1C2=O
REMARK SMILES IDX 1 1 2 2 8 3 7 4 6 5 4 6 3 7 19 8 20 9 18 10 11 11 9 12 10 13
REMARK SMILES IDX 12 14 13 15 15 16 16 17 5 18 17 20 14 22
REMARK H PARENT 5 19 17 21 14 23
REMARK Flexibility Score: inf
ROOT
ATOM      1  C   UNL     1      -7.525   7.636   7.148  1.00  0.00     0.044 C 
ATOM      2  C   UNL     1      -6.124   7.229   6.802  1.00  0.00    -0.047 A 
ATOM      3  C   UNL     1      -5.278   6.709   7.788  1.00  0.00     0.016 A 
ATOM      4  C   UNL     1      -3.972   6.299   7.468  1.00  0.00     0.038 A 
ATOM      5  C   UNL     1      -3.505   6.412   6.139  1.00  0.00     0.076 A 
ATOM      6  C   UNL     1      -4.395   6.861   5.130  1.00  0.00     0.127 A 
ATOM      7  C   UNL     1      -5.683   7.282   5.476  1.00  0.00     0.050 A 
ATOM      8  C   UNL     1      -2.075   6.109   5.869  1.00  0.00     0.201 C 
ATOM      9  O   UNL     1      -1.477   6.699   4.930  1.00  0.00    -0.288 OA
ATOM     10  C   UNL     1      -1.310   5.258   6.816  1.00  0.00     0.076 A 
ATOM     11  C   UNL     1      -1.782   5.145   8.143  1.00  0.00     0.041 A 
ATOM     12  C   UNL     1      -3.086   5.743   8.518  1.00  0.00     0.194 C 
ATOM     13  O   UNL     1      -3.451   5.755   9.725  1.00  0.00    -0.289 OA
ATOM     14  C   UNL     1      -1.013   4.463   9.102  1.00  0.00     0.059 A 
ATOM     15  C   UNL     1       0.205   3.882   8.752  1.00  0.00     0.120 A 
ATOM     16  C   UNL     1       0.656   3.955   7.433  1.00  0.00     0.093 A 
ATOM     17  C   UNL     1      -0.100   4.610   6.455  1.00  0.00     0.131 A 
ENDROOT
BRANCH   6  18
ATOM     18  O   UNL     1      -4.056   6.869   3.775  1.00  0.00    -0.507 OA
ATOM     19  H   UNL     1      -3.557   7.627   3.328  1.00  0.00     0.293 HD
ENDBRANCH   6  18
BRANCH  17  20
ATOM     20  O   UNL     1       0.370   4.564   5.139  1.00  0.00    -0.507 OA
ATOM     21  H   UNL     1       1.053   5.209   4.768  1.00  0.00     0.293 HD
ENDBRANCH  17  20
BRANCH  15  22
ATOM     22  O   UNL     1       0.956   3.222   9.723  1.00  0.00    -0.508 OA
ATOM     23  H   UNL     1       0.952   2.212   9.801  1.00  0.00     0.293 HD
ENDBRANCH  15  22
TORSDOF 3
ENDMDL
MODEL 7
REMARK VINA RESULT:    -5.453     13.909     16.848
REMARK INTER + INTRA:          -5.931
REMARK INTER:                  -5.931
REMARK INTRA:                   0.000
REMARK UNBOUND:                 0.000
REMARK SMILES Cc1cc(O)c2c(c1)C(=O)c1cc(O)cc(O)c1C2=O
REMARK SMILES IDX 1 1 2 2 8 3 7 4 6 5 4 6 3 7 19 8 20 9 18 10 11 11 9 12 10 13
REMARK SMILES IDX 12 14 13 15 15 16 16 17 5 18 17 20 14 22
REMARK H PARENT 5 19 17 21 14 23
REMARK Flexibility Score: inf
ROOT
ATOM      1  C   UNL     1      -4.361   8.381   3.389  1.00  0.00     0.044 C 
ATOM      2  C   UNL     1      -3.517   8.155   4.608  1.00  0.00    -0.047 A 
ATOM      3  C   UNL     1      -2.816   6.955   4.767  1.00  0.00     0.016 A 
ATOM      4  C   UNL     1      -2.000   6.744   5.892  1.00  0.00     0.038 A 
ATOM      5  C   UNL     1      -1.885   7.753   6.875  1.00  0.00     0.076 A 
ATOM      6  C   UNL     1      -2.531   8.998   6.667  1.00  0.00     0.127 A 
ATOM      7  C   UNL     1      -3.353   9.176   5.550  1.00  0.00     0.050 A 
ATOM      8  C   UNL     1      -1.135   7.439   8.119  1.00  0.00     0.201 C 
ATOM      9  O   UNL     1      -1.454   8.000   9.201  1.00  0.00    -0.288 OA
ATOM     10  C   UNL     1      -0.143   6.333   8.124  1.00  0.00     0.076 A 
ATOM     11  C   UNL     1      -0.260   5.328   7.137  1.00  0.00     0.041 A 
ATOM     12  C   UNL     1      -1.255   5.472   6.048  1.00  0.00     0.194 C 
ATOM     13  O   UNL     1      -1.450   4.523   5.241  1.00  0.00    -0.289 OA
ATOM     14  C   UNL     1       0.573   4.196   7.190  1.00  0.00     0.059 A 
ATOM     15  C   UNL     1       1.525   4.063   8.200  1.00  0.00     0.120 A 
ATOM     16  C   UNL     1       1.672   5.073   9.154  1.00  0.00     0.093 A 
ATOM     17  C   UNL     1       0.870   6.219   9.111  1.00  0.00     0.131 A 
ENDROOT
BRANCH   6  18
ATOM     18  O   UNL     1      -2.356  10.091   7.519  1.00  0.00    -0.507 OA
ATOM     19  H   UNL     1      -1.449  10.454   7.784  1.00  0.00     0.293 HD
ENDBRANCH   6  18
BRANCH  17  20
ATOM     20  O   UNL     1       1.136   7.226  10.041  1.00  0.00    -0.507 OA
ATOM     21  H   UNL     1       0.733   7.251  10.968  1.00  0.00     0.293 HD
ENDBRANCH  17  20
BRANCH  15  22
ATOM     22  O   UNL     1       2.329   2.927   8.240  1.00  0.00    -0.508 OA
ATOM     23  H   UNL     1       3.279   2.936   7.887  1.00  0.00     0.293 HD
ENDBRANCH  15  22
TORSDOF 3
ENDMDL
MODEL 8
REMARK VINA RESULT:    -5.450     13.367     14.707
REMARK INTER + INTRA:          -5.928
REMARK INTER:                  -5.928
REMARK INTRA:                   0.000
REMARK UNBOUND:                 0.000
REMARK SMILES Cc1cc(O)c2c(c1)C(=O)c1cc(O)cc(O)c1C2=O
REMARK SMILES IDX 1 1 2 2 8 3 7 4 6 5 4 6 3 7 19 8 20 9 18 10 11 11 9 12 10 13
REMARK SMILES IDX 12 14 13 15 15 16 16 17 5 18 17 20 14 22
REMARK H PARENT 5 19 17 21 14 23
REMARK Flexibility Score: inf
ROOT
ATOM      1  C   UNL     1      -9.625 -10.125   4.804  1.00  0.00     0.044 C 
ATOM      2  C   UNL     1      -8.299  -9.577   5.241  1.00  0.00    -0.047 A 
ATOM      3  C   UNL     1      -7.262  -9.420   4.315  1.00  0.00     0.016 A 
ATOM      4  C   UNL     1      -6.025  -8.882   4.709  1.00  0.00     0.038 A 
ATOM      5  C   UNL     1      -5.823  -8.494   6.053  1.00  0.00     0.076 A 
ATOM      6  C   UNL     1      -6.904  -8.578   6.967  1.00  0.00     0.127 A 
ATOM      7  C   UNL     1      -8.119  -9.136   6.556  1.00  0.00     0.050 A 
ATOM      8  C   UNL     1      -4.459  -8.070   6.465  1.00  0.00     0.201 C 
ATOM      9  O   UNL     1      -4.074  -8.264   7.648  1.00  0.00    -0.288 OA
ATOM     10  C   UNL     1      -3.494  -7.592   5.441  1.00  0.00     0.076 A 
ATOM     11  C   UNL     1      -3.702  -7.979   4.097  1.00  0.00     0.041 A 
ATOM     12  C   UNL     1      -4.934  -8.712   3.720  1.00  0.00     0.194 C 
ATOM     13  O   UNL     1      -5.064  -9.169   2.552  1.00  0.00    -0.289 OA
ATOM     14  C   UNL     1      -2.739  -7.664   3.123  1.00  0.00     0.059 A 
ATOM     15  C   UNL     1      -1.587  -6.958   3.467  1.00  0.00     0.120 A 
ATOM     16  C   UNL     1      -1.397  -6.538   4.785  1.00  0.00     0.093 A 
ATOM     17  C   UNL     1      -2.350  -6.821   5.770  1.00  0.00     0.131 A 
ENDROOT
BRANCH   6  18
ATOM     18  O   UNL     1      -6.829  -8.088   8.273  1.00  0.00    -0.507 OA
ATOM     19  H   UNL     1      -6.617  -8.666   9.075  1.00  0.00     0.293 HD
ENDBRANCH   6  18
BRANCH  17  20
ATOM     20  O   UNL     1      -2.136  -6.290   7.044  1.00  0.00    -0.507 OA
ATOM     21  H   UNL     1      -1.315  -6.486   7.600  1.00  0.00     0.293 HD
ENDBRANCH  17  20
BRANCH  15  22
ATOM     22  O   UNL     1      -0.640  -6.668   2.487  1.00  0.00    -0.508 OA
ATOM     23  H   UNL     1       0.341  -6.555   2.714  1.00  0.00     0.293 HD
ENDBRANCH  15  22
TORSDOF 3
ENDMDL
MODEL 9
REMARK VINA RESULT:    -5.332      2.826      6.071
REMARK INTER + INTRA:          -5.800
REMARK INTER:                  -5.800
REMARK INTRA:                   0.000
REMARK UNBOUND:                 0.000
REMARK SMILES Cc1cc(O)c2c(c1)C(=O)c1cc(O)cc(O)c1C2=O
REMARK SMILES IDX 1 1 2 2 8 3 7 4 6 5 4 6 3 7 19 8 20 9 18 10 11 11 9 12 10 13
REMARK SMILES IDX 12 14 13 15 15 16 16 17 5 18 17 20 14 22
REMARK H PARENT 5 19 17 21 14 23
REMARK Flexibility Score: inf
ROOT
ATOM      1  C   UNL     1      -8.546   1.191  -2.746  1.00  0.00     0.044 C 
ATOM      2  C   UNL     1      -8.345   0.141  -3.799  1.00  0.00    -0.047 A 
ATOM      3  C   UNL     1      -8.735  -1.181  -3.558  1.00  0.00     0.016 A 
ATOM      4  C   UNL     1      -8.576  -2.166  -4.548  1.00  0.00     0.038 A 
ATOM      5  C   UNL     1      -8.019  -1.822  -5.800  1.00  0.00     0.076 A 
ATOM      6  C   UNL     1      -7.704  -0.465  -6.067  1.00  0.00     0.127 A 
ATOM      7  C   UNL     1      -7.852   0.494  -5.059  1.00  0.00     0.050 A 
ATOM      8  C   UNL     1      -7.729  -2.914  -6.765  1.00  0.00     0.201 C 
ATOM      9  O   UNL     1      -6.776  -2.794  -7.579  1.00  0.00    -0.288 OA
ATOM     10  C   UNL     1      -8.440  -4.214  -6.643  1.00  0.00     0.076 A 
ATOM     11  C   UNL     1      -8.999  -4.553  -5.390  1.00  0.00     0.041 A 
ATOM     12  C   UNL     1      -8.998  -3.563  -4.287  1.00  0.00     0.194 C 
ATOM     13  O   UNL     1      -9.380  -3.903  -3.133  1.00  0.00    -0.289 OA
ATOM     14  C   UNL     1      -9.557  -5.829  -5.197  1.00  0.00     0.059 A 
ATOM     15  C   UNL     1      -9.579  -6.758  -6.235  1.00  0.00     0.120 A 
ATOM     16  C   UNL     1      -9.064  -6.413  -7.487  1.00  0.00     0.093 A 
ATOM     17  C   UNL     1      -8.522  -5.143  -7.712  1.00  0.00     0.131 A 
ENDROOT
BRANCH   6  18
ATOM     18  O   UNL     1      -7.281  -0.020  -7.321  1.00  0.00    -0.507 OA
ATOM     19  H   UNL     1      -6.645  -0.538  -7.912  1.00  0.00     0.293 HD
ENDBRANCH   6  18
BRANCH  17  20
ATOM     20  O   UNL     1      -8.111  -4.839  -9.012  1.00  0.00    -0.507 OA
ATOM     21  H   UNL     1      -8.538  -4.118  -9.577  1.00  0.00     0.293 HD
ENDBRANCH  17  20
BRANCH  15  22
ATOM     22  O   UNL     1     -10.125  -8.021  -6.017  1.00  0.00    -0.508 OA
ATOM     23  H   UNL     1      -9.629  -8.729  -5.488  1.00  0.00     0.293 HD
ENDBRANCH  15  22
TORSDOF 3
ENDMDL
