MODEL 1
REMARK VINA RESULT:    -7.903      0.000      0.000
REMARK INTER + INTRA:          -8.134
REMARK INTER:                  -8.134
REMARK INTRA:                   0.000
REMARK UNBOUND:                 0.000
REMARK SMILES O=c1ccc2cc(O)ccc2o1
REMARK SMILES IDX 9 1 10 2 11 3 5 4 4 5 3 6 2 7 1 8 12 9 6 10 7 11 8 12
REMARK H PARENT 8 13
REMARK Flexibility Score: inf
ROOT
ATOM      1  C   UNL     1      33.700  27.362  20.391  1.00  0.00     0.050 A 
ATOM      2  C   UNL     1      33.246  27.814  19.148  1.00  0.00     0.052 A 
ATOM      3  C   UNL     1      33.377  27.001  18.017  1.00  0.00     0.138 A 
ATOM      4  C   UNL     1      33.968  25.724  18.135  1.00  0.00     0.021 A 
ATOM      5  C   UNL     1      34.084  24.935  16.986  1.00  0.00     0.019 A 
ATOM      6  C   UNL     1      33.618  25.428  15.768  1.00  0.00     0.094 A 
ATOM      7  C   UNL     1      33.043  26.702  15.726  1.00  0.00     0.336 A 
ATOM      8  O   UNL     1      32.617  27.164  14.636  1.00  0.00    -0.246 OA
ATOM      9  O   UNL     1      32.944  27.433  16.834  1.00  0.00    -0.423 OA
ATOM     10  C   UNL     1      34.421  25.276  19.384  1.00  0.00     0.058 A 
ATOM     11  C   UNL     1      34.288  26.094  20.512  1.00  0.00     0.116 A 
ENDROOT
BRANCH  11  12
ATOM     12  O   UNL     1      34.743  25.638  21.747  1.00  0.00    -0.508 OA
ATOM     13  H   UNL     1      34.949  24.658  21.907  1.00  0.00     0.293 HD
ENDBRANCH  11  12
TORSDOF 1
ENDMDL
MODEL 2
REMARK VINA RESULT:    -7.545      0.805      4.768
REMARK INTER + INTRA:          -7.766
REMARK INTER:                  -7.766
REMARK INTRA:                   0.000
REMARK UNBOUND:                 0.000
REMARK SMILES O=c1ccc2cc(O)ccc2o1
REMARK SMILES IDX 9 1 10 2 11 3 5 4 4 5 3 6 2 7 1 8 12 9 6 10 7 11 8 12
REMARK H PARENT 8 13
REMARK Flexibility Score: inf
ROOT
ATOM      1  C   UNL     1      33.587  25.379  15.835  1.00  0.00     0.050 A 
ATOM      2  C   UNL     1      34.039  24.910  17.071  1.00  0.00     0.052 A 
ATOM      3  C   UNL     1      33.959  25.728  18.204  1.00  0.00     0.138 A 
ATOM      4  C   UNL     1      33.420  27.028  18.092  1.00  0.00     0.021 A 
ATOM      5  C   UNL     1      33.354  27.822  19.241  1.00  0.00     0.019 A 
ATOM      6  C   UNL     1      33.817  27.312  20.453  1.00  0.00     0.094 A 
ATOM      7  C   UNL     1      34.338  26.015  20.489  1.00  0.00     0.336 A 
ATOM      8  O   UNL     1      34.762  25.537  21.573  1.00  0.00    -0.246 OA
ATOM      9  O   UNL     1      34.391  25.279  19.380  1.00  0.00    -0.423 OA
ATOM     10  C   UNL     1      32.968  27.494  16.850  1.00  0.00     0.058 A 
ATOM     11  C   UNL     1      33.051  26.670  15.721  1.00  0.00     0.116 A 
ENDROOT
BRANCH  11  12
ATOM     12  O   UNL     1      32.598  27.145  14.491  1.00  0.00    -0.508 OA
ATOM     13  H   UNL     1      32.751  28.105  14.205  1.00  0.00     0.293 HD
ENDBRANCH  11  12
TORSDOF 1
ENDMDL
MODEL 3
REMARK VINA RESULT:    -7.395      1.170      4.331
REMARK INTER + INTRA:          -7.611
REMARK INTER:                  -7.611
REMARK INTRA:                   0.000
REMARK UNBOUND:                 0.000
REMARK SMILES O=c1ccc2cc(O)ccc2o1
REMARK SMILES IDX 9 1 10 2 11 3 5 4 4 5 3 6 2 7 1 8 12 9 6 10 7 11 8 12
REMARK H PARENT 8 13
REMARK Flexibility Score: inf
ROOT
ATOM      1  C   UNL     1      32.652  28.218  16.183  1.00  0.00     0.050 A 
ATOM      2  C   UNL     1      32.915  28.341  17.550  1.00  0.00     0.052 A 
ATOM      3  C   UNL     1      33.409  27.249  18.270  1.00  0.00     0.138 A 
ATOM      4  C   UNL     1      33.643  26.022  17.611  1.00  0.00     0.021 A 
ATOM      5  C   UNL     1      34.137  24.948  18.358  1.00  0.00     0.019 A 
ATOM      6  C   UNL     1      34.383  25.117  19.719  1.00  0.00     0.094 A 
ATOM      7  C   UNL     1      34.129  26.362  20.306  1.00  0.00     0.336 A 
ATOM      8  O   UNL     1      34.345  26.534  21.533  1.00  0.00    -0.246 OA
ATOM      9  O   UNL     1      33.658  27.368  19.573  1.00  0.00    -0.423 OA
ATOM     10  C   UNL     1      33.378  25.904  16.239  1.00  0.00     0.058 A 
ATOM     11  C   UNL     1      32.883  27.001  15.525  1.00  0.00     0.116 A 
ENDROOT
BRANCH  11  12
ATOM     12  O   UNL     1      32.624  26.871  14.162  1.00  0.00    -0.508 OA
ATOM     13  H   UNL     1      32.142  27.596  13.643  1.00  0.00     0.293 HD
ENDBRANCH  11  12
TORSDOF 1
ENDMDL
MODEL 4
REMARK VINA RESULT:    -7.369      1.729      4.566
REMARK INTER + INTRA:          -7.585
REMARK INTER:                  -7.585
REMARK INTRA:                   0.000
REMARK UNBOUND:                 0.000
REMARK SMILES O=c1ccc2cc(O)ccc2o1
REMARK SMILES IDX 9 1 10 2 11 3 5 4 4 5 3 6 2 7 1 8 12 9 6 10 7 11 8 12
REMARK H PARENT 8 13
REMARK Flexibility Score: inf
ROOT
ATOM      1  C   UNL     1      33.211  26.651  17.436  1.00  0.00     0.050 A 
ATOM      2  C   UNL     1      33.118  27.424  18.597  1.00  0.00     0.052 A 
ATOM      3  C   UNL     1      33.692  26.970  19.789  1.00  0.00     0.138 A 
ATOM      4  C   UNL     1      34.365  25.729  19.815  1.00  0.00     0.021 A 
ATOM      5  C   UNL     1      34.928  25.301  21.022  1.00  0.00     0.019 A 
ATOM      6  C   UNL     1      34.810  26.106  22.154  1.00  0.00     0.094 A 
ATOM      7  C   UNL     1      34.130  27.324  22.055  1.00  0.00     0.336 A 
ATOM      8  O   UNL     1      34.013  28.063  23.066  1.00  0.00    -0.246 OA
ATOM      9  O   UNL     1      33.603  27.708  20.894  1.00  0.00    -0.423 OA
ATOM     10  C   UNL     1      34.455  24.957  18.648  1.00  0.00     0.058 A 
ATOM     11  C   UNL     1      33.879  25.418  17.459  1.00  0.00     0.116 A 
ENDROOT
BRANCH  11  12
ATOM     12  O   UNL     1      33.974  24.642  16.305  1.00  0.00    -0.508 OA
ATOM     13  H   UNL     1      33.221  24.029  16.015  1.00  0.00     0.293 HD
ENDBRANCH  11  12
TORSDOF 1
ENDMDL
MODEL 5
REMARK VINA RESULT:    -7.333      1.643      2.213
REMARK INTER + INTRA:          -7.548
REMARK INTER:                  -7.548
REMARK INTRA:                   0.000
REMARK UNBOUND:                 0.000
REMARK SMILES O=c1ccc2cc(O)ccc2o1
REMARK SMILES IDX 9 1 10 2 11 3 5 4 4 5 3 6 2 7 1 8 12 9 6 10 7 11 8 12
REMARK H PARENT 8 13
REMARK Flexibility Score: inf
ROOT
ATOM      1  C   UNL     1      33.970  25.443  19.506  1.00  0.00     0.050 A 
ATOM      2  C   UNL     1      33.627  26.741  19.117  1.00  0.00     0.052 A 
ATOM      3  C   UNL     1      33.319  27.015  17.780  1.00  0.00     0.138 A 
ATOM      4  C   UNL     1      33.356  25.974  16.826  1.00  0.00     0.021 A 
ATOM      5  C   UNL     1      33.044  26.279  15.497  1.00  0.00     0.019 A 
ATOM      6  C   UNL     1      32.708  27.588  15.155  1.00  0.00     0.094 A 
ATOM      7  C   UNL     1      32.691  28.567  16.154  1.00  0.00     0.336 A 
ATOM      8  O   UNL     1      32.391  29.754  15.865  1.00  0.00    -0.246 OA
ATOM      9  O   UNL     1      32.993  28.251  17.412  1.00  0.00    -0.423 OA
ATOM     10  C   UNL     1      33.701  24.674  17.221  1.00  0.00     0.058 A 
ATOM     11  C   UNL     1      34.007  24.408  18.560  1.00  0.00     0.116 A 
ENDROOT
BRANCH  11  12
ATOM     12  O   UNL     1      34.349  23.111  18.941  1.00  0.00    -0.508 OA
ATOM     13  H   UNL     1      33.642  22.403  19.100  1.00  0.00     0.293 HD
ENDBRANCH  11  12
TORSDOF 1
ENDMDL
MODEL 6
REMARK VINA RESULT:    -7.289      1.973      3.785
REMARK INTER + INTRA:          -7.503
REMARK INTER:                  -7.503
REMARK INTRA:                   0.000
REMARK UNBOUND:                 0.000
REMARK SMILES O=c1ccc2cc(O)ccc2o1
REMARK SMILES IDX 9 1 10 2 11 3 5 4 4 5 3 6 2 7 1 8 12 9 6 10 7 11 8 12
REMARK H PARENT 8 13
REMARK Flexibility Score: inf
ROOT
ATOM      1  C   UNL     1      33.340  25.279  16.388  1.00  0.00     0.050 A 
ATOM      2  C   UNL     1      33.135  26.632  16.674  1.00  0.00     0.052 A 
ATOM      3  C   UNL     1      33.295  27.104  17.981  1.00  0.00     0.138 A 
ATOM      4  C   UNL     1      33.664  26.209  19.010  1.00  0.00     0.021 A 
ATOM      5  C   UNL     1      33.816  26.711  20.306  1.00  0.00     0.019 A 
ATOM      6  C   UNL     1      33.601  28.067  20.545  1.00  0.00     0.094 A 
ATOM      7  C   UNL     1      33.237  28.895  19.477  1.00  0.00     0.336 A 
ATOM      8  O   UNL     1      33.038  30.122  19.673  1.00  0.00    -0.246 OA
ATOM      9  O   UNL     1      33.099  28.392  18.252  1.00  0.00    -0.423 OA
ATOM     10  C   UNL     1      33.869  24.853  18.717  1.00  0.00     0.058 A 
ATOM     11  C   UNL     1      33.707  24.387  17.407  1.00  0.00     0.116 A 
ENDROOT
BRANCH  11  12
ATOM     12  O   UNL     1      33.913  23.038  17.129  1.00  0.00    -0.508 OA
ATOM     13  H   UNL     1      34.831  22.679  16.894  1.00  0.00     0.293 HD
ENDBRANCH  11  12
TORSDOF 1
ENDMDL
MODEL 7
REMARK VINA RESULT:    -7.217      1.708      2.720
REMARK INTER + INTRA:          -7.428
REMARK INTER:                  -7.428
REMARK INTRA:                   0.000
REMARK UNBOUND:                 0.000
REMARK SMILES O=c1ccc2cc(O)ccc2o1
REMARK SMILES IDX 9 1 10 2 11 3 5 4 4 5 3 6 2 7 1 8 12 9 6 10 7 11 8 12
REMARK H PARENT 8 13
REMARK Flexibility Score: inf
ROOT
ATOM      1  C   UNL     1      34.767  25.945  22.074  1.00  0.00     0.050 A 
ATOM      2  C   UNL     1      34.887  25.293  20.843  1.00  0.00     0.052 A 
ATOM      3  C   UNL     1      34.291  25.837  19.701  1.00  0.00     0.138 A 
ATOM      4  C   UNL     1      33.568  27.047  19.795  1.00  0.00     0.021 A 
ATOM      5  C   UNL     1      32.983  27.565  18.635  1.00  0.00     0.019 A 
ATOM      6  C   UNL     1      33.130  26.880  17.430  1.00  0.00     0.094 A 
ATOM      7  C   UNL     1      33.860  25.687  17.411  1.00  0.00     0.336 A 
ATOM      8  O   UNL     1      34.003  25.054  16.333  1.00  0.00    -0.246 OA
ATOM      9  O   UNL     1      34.407  25.215  18.530  1.00  0.00    -0.423 OA
ATOM     10  C   UNL     1      33.450  27.697  21.032  1.00  0.00     0.058 A 
ATOM     11  C   UNL     1      34.049  27.147  22.171  1.00  0.00     0.116 A 
ENDROOT
BRANCH  11  12
ATOM     12  O   UNL     1      33.925  27.802  23.395  1.00  0.00    -0.508 OA
ATOM     13  H   UNL     1      33.076  28.294  23.649  1.00  0.00     0.293 HD
ENDBRANCH  11  12
TORSDOF 1
ENDMDL
MODEL 8
REMARK VINA RESULT:    -7.168      1.157      4.775
REMARK INTER + INTRA:          -7.377
REMARK INTER:                  -7.377
REMARK INTRA:                   0.000
REMARK UNBOUND:                 0.000
REMARK SMILES O=c1ccc2cc(O)ccc2o1
REMARK SMILES IDX 9 1 10 2 11 3 5 4 4 5 3 6 2 7 1 8 12 9 6 10 7 11 8 12
REMARK H PARENT 8 13
REMARK Flexibility Score: inf
ROOT
ATOM      1  C   UNL     1      33.792  24.832  17.185  1.00  0.00     0.050 A 
ATOM      2  C   UNL     1      34.070  24.827  18.555  1.00  0.00     0.052 A 
ATOM      3  C   UNL     1      33.862  25.981  19.317  1.00  0.00     0.138 A 
ATOM      4  C   UNL     1      33.369  27.151  18.697  1.00  0.00     0.021 A 
ATOM      5  C   UNL     1      33.172  28.289  19.485  1.00  0.00     0.019 A 
ATOM      6  C   UNL     1      33.464  28.237  20.847  1.00  0.00     0.094 A 
ATOM      7  C   UNL     1      33.948  27.044  21.393  1.00  0.00     0.336 A 
ATOM      8  O   UNL     1      34.218  26.978  22.620  1.00  0.00    -0.246 OA
ATOM      9  O   UNL     1      34.128  25.974  20.621  1.00  0.00    -0.423 OA
ATOM     10  C   UNL     1      33.091  27.151  17.323  1.00  0.00     0.058 A 
ATOM     11  C   UNL     1      33.302  25.992  16.567  1.00  0.00     0.116 A 
ENDROOT
BRANCH  11  12
ATOM     12  O   UNL     1      33.022  26.004  15.201  1.00  0.00    -0.508 OA
ATOM     13  H   UNL     1      33.493  26.643  14.570  1.00  0.00     0.293 HD
ENDBRANCH  11  12
TORSDOF 1
ENDMDL
MODEL 9
REMARK VINA RESULT:    -6.991      1.663      2.988
REMARK INTER + INTRA:          -7.196
REMARK INTER:                  -7.196
REMARK INTRA:                   0.000
REMARK UNBOUND:                 0.000
REMARK SMILES O=c1ccc2cc(O)ccc2o1
REMARK SMILES IDX 9 1 10 2 11 3 5 4 4 5 3 6 2 7 1 8 12 9 6 10 7 11 8 12
REMARK H PARENT 8 13
REMARK Flexibility Score: inf
ROOT
ATOM      1  C   UNL     1      33.962  24.708  17.277  1.00  0.00     0.050 A 
ATOM      2  C   UNL     1      33.533  25.786  16.498  1.00  0.00     0.052 A 
ATOM      3  C   UNL     1      33.177  26.994  17.107  1.00  0.00     0.138 A 
ATOM      4  C   UNL     1      33.253  27.119  18.512  1.00  0.00     0.021 A 
ATOM      5  C   UNL     1      32.890  28.339  19.093  1.00  0.00     0.019 A 
ATOM      6  C   UNL     1      32.469  29.387  18.276  1.00  0.00     0.094 A 
ATOM      7  C   UNL     1      32.419  29.191  16.892  1.00  0.00     0.336 A 
ATOM      8  O   UNL     1      32.041  30.125  16.138  1.00  0.00    -0.246 OA
ATOM      9  O   UNL     1      32.769  28.020  16.364  1.00  0.00    -0.423 OA
ATOM     10  C   UNL     1      33.683  26.034  19.289  1.00  0.00     0.058 A 
ATOM     11  C   UNL     1      34.038  24.829  18.673  1.00  0.00     0.116 A 
ENDROOT
BRANCH  11  12
ATOM     12  O   UNL     1      34.464  23.757  19.455  1.00  0.00    -0.508 OA
ATOM     13  H   UNL     1      34.044  22.839  19.369  1.00  0.00     0.293 HD
ENDBRANCH  11  12
TORSDOF 1
ENDMDL
