MODEL 1
REMARK VINA RESULT:    -3.273      0.000      0.000
REMARK INTER + INTRA:          -3.865
REMARK INTER:                  -3.848
REMARK INTRA:                  -0.017
REMARK UNBOUND:                -0.017
REMARK SMILES CCCCC(=O)[O-]
REMARK SMILES IDX 4 1 5 2 6 3 7 4 3 5 2 6 1 7
REMARK H PARENT
REMARK Flexibility Score: inf
ROOT
ATOM      1  C   UNL     1      42.039  51.718   8.385  1.00  0.00     0.053 C 
ENDROOT
BRANCH   1   2
ATOM      2  C   UNL     1      40.802  52.412   8.862  1.00  0.00     0.041 C 
ATOM      3  O   UNL     1      40.853  53.613   9.237  1.00  0.00    -0.550 OA
ATOM      4  O   UNL     1      39.597  51.723   8.923  1.00  0.00    -0.550 OA
ENDBRANCH   1   2
BRANCH   1   5
ATOM      5  C   UNL     1      42.020  50.217   8.717  1.00  0.00     0.006 C 
BRANCH   5   6
ATOM      6  C   UNL     1      43.307  49.469   8.325  1.00  0.00    -0.003 C 
ATOM      7  C   UNL     1      43.906  48.672   9.482  1.00  0.00     0.004 C 
ENDBRANCH   5   6
ENDBRANCH   1   5
TORSDOF 3
ENDMDL
MODEL 2
REMARK VINA RESULT:    -2.940      2.214      3.044
REMARK INTER + INTRA:          -3.472
REMARK INTER:                  -3.419
REMARK INTRA:                  -0.053
REMARK UNBOUND:                -0.017
REMARK SMILES CCCCC(=O)[O-]
REMARK SMILES IDX 4 1 5 2 6 3 7 4 3 5 2 6 1 7
REMARK H PARENT
REMARK Flexibility Score: inf
ROOT
ATOM      1  C   UNL     1      41.607  53.489   8.184  1.00  0.00     0.053 C 
ENDROOT
BRANCH   1   2
ATOM      2  C   UNL     1      42.255  54.603   8.945  1.00  0.00     0.041 C 
ATOM      3  O   UNL     1      43.364  55.066   8.572  1.00  0.00    -0.550 OA
ATOM      4  O   UNL     1      41.647  55.109  10.088  1.00  0.00    -0.550 OA
ENDBRANCH   1   2
BRANCH   1   5
ATOM      5  C   UNL     1      40.513  52.790   9.008  1.00  0.00     0.006 C 
BRANCH   5   6
ATOM      6  C   UNL     1      40.572  51.253   8.956  1.00  0.00    -0.003 C 
ATOM      7  C   UNL     1      41.968  50.722   8.635  1.00  0.00     0.004 C 
ENDBRANCH   5   6
ENDBRANCH   1   5
TORSDOF 3
ENDMDL
MODEL 3
REMARK VINA RESULT:    -2.865     18.921     19.719
REMARK INTER + INTRA:          -3.385
REMARK INTER:                  -3.312
REMARK INTRA:                  -0.073
REMARK UNBOUND:                -0.017
REMARK SMILES CCCCC(=O)[O-]
REMARK SMILES IDX 4 1 5 2 6 3 7 4 3 5 2 6 1 7
REMARK H PARENT
REMARK Flexibility Score: inf
ROOT
ATOM      1  C   UNL     1      30.193  53.075  25.382  1.00  0.00     0.053 C 
ENDROOT
BRANCH   1   2
ATOM      2  C   UNL     1      29.731  51.713  24.967  1.00  0.00     0.041 C 
ATOM      3  O   UNL     1      29.126  50.972  25.785  1.00  0.00    -0.550 OA
ATOM      4  O   UNL     1      29.995  51.250  23.684  1.00  0.00    -0.550 OA
ENDBRANCH   1   2
BRANCH   1   5
ATOM      5  C   UNL     1      31.440  53.521  24.602  1.00  0.00     0.006 C 
BRANCH   5   6
ATOM      6  C   UNL     1      32.738  53.509  25.430  1.00  0.00    -0.003 C 
ATOM      7  C   UNL     1      33.316  52.106  25.609  1.00  0.00     0.004 C 
ENDBRANCH   5   6
ENDBRANCH   1   5
TORSDOF 3
ENDMDL
MODEL 4
REMARK VINA RESULT:    -2.821     18.783     19.666
REMARK INTER + INTRA:          -3.334
REMARK INTER:                  -3.246
REMARK INTRA:                  -0.088
REMARK UNBOUND:                -0.017
REMARK SMILES CCCCC(=O)[O-]
REMARK SMILES IDX 4 1 5 2 6 3 7 4 3 5 2 6 1 7
REMARK H PARENT
REMARK Flexibility Score: inf
ROOT
ATOM      1  C   UNL     1      31.430  52.788  25.134  1.00  0.00     0.053 C 
ENDROOT
BRANCH   1   2
ATOM      2  C   UNL     1      31.246  51.524  24.352  1.00  0.00     0.041 C 
ATOM      3  O   UNL     1      32.140  50.638  24.358  1.00  0.00    -0.550 OA
ATOM      4  O   UNL     1      30.098  51.339  23.591  1.00  0.00    -0.550 OA
ENDBRANCH   1   2
BRANCH   1   5
ATOM      5  C   UNL     1      31.235  54.037  24.260  1.00  0.00     0.006 C 
BRANCH   5   6
ATOM      6  C   UNL     1      30.278  55.082  24.862  1.00  0.00    -0.003 C 
ATOM      7  C   UNL     1      29.239  54.467  25.798  1.00  0.00     0.004 C 
ENDBRANCH   5   6
ENDBRANCH   1   5
TORSDOF 3
ENDMDL
MODEL 5
REMARK VINA RESULT:    -2.816     18.535     19.168
REMARK INTER + INTRA:          -3.327
REMARK INTER:                  -3.219
REMARK INTRA:                  -0.108
REMARK UNBOUND:                -0.017
REMARK SMILES CCCCC(=O)[O-]
REMARK SMILES IDX 4 1 5 2 6 3 7 4 3 5 2 6 1 7
REMARK H PARENT
REMARK Flexibility Score: inf
ROOT
ATOM      1  C   UNL     1      32.371  51.771  25.830  1.00  0.00     0.053 C 
ENDROOT
BRANCH   1   2
ATOM      2  C   UNL     1      32.154  50.857  24.664  1.00  0.00     0.041 C 
ATOM      3  O   UNL     1      31.177  51.035  23.890  1.00  0.00    -0.550 OA
ATOM      4  O   UNL     1      33.015  49.788  24.450  1.00  0.00    -0.550 OA
ENDBRANCH   1   2
BRANCH   1   5
ATOM      5  C   UNL     1      32.712  53.202  25.382  1.00  0.00     0.006 C 
BRANCH   5   6
ATOM      6  C   UNL     1      31.535  54.189  25.479  1.00  0.00    -0.003 C 
ATOM      7  C   UNL     1      31.014  54.628  24.112  1.00  0.00     0.004 C 
ENDBRANCH   5   6
ENDBRANCH   1   5
TORSDOF 3
ENDMDL
MODEL 6
REMARK VINA RESULT:    -2.739     18.229     18.828
REMARK INTER + INTRA:          -3.237
REMARK INTER:                  -3.175
REMARK INTRA:                  -0.061
REMARK UNBOUND:                -0.017
REMARK SMILES CCCCC(=O)[O-]
REMARK SMILES IDX 4 1 5 2 6 3 7 4 3 5 2 6 1 7
REMARK H PARENT
REMARK Flexibility Score: inf
ROOT
ATOM      1  C   UNL     1      32.318  50.336  25.500  1.00  0.00     0.053 C 
ENDROOT
BRANCH   1   2
ATOM      2  C   UNL     1      33.546  49.579  25.100  1.00  0.00     0.041 C 
ATOM      3  O   UNL     1      34.622  50.190  24.869  1.00  0.00    -0.550 OA
ATOM      4  O   UNL     1      33.493  48.198  24.951  1.00  0.00    -0.550 OA
ENDBRANCH   1   2
BRANCH   1   5
ATOM      5  C   UNL     1      32.454  51.842  25.219  1.00  0.00     0.006 C 
BRANCH   5   6
ATOM      6  C   UNL     1      31.283  52.440  24.419  1.00  0.00    -0.003 C 
ATOM      7  C   UNL     1      30.499  51.389  23.636  1.00  0.00     0.004 C 
ENDBRANCH   5   6
ENDBRANCH   1   5
TORSDOF 3
ENDMDL
MODEL 7
REMARK VINA RESULT:    -2.737     18.058     18.627
REMARK INTER + INTRA:          -3.235
REMARK INTER:                  -3.212
REMARK INTRA:                  -0.023
REMARK UNBOUND:                -0.017
REMARK SMILES CCCCC(=O)[O-]
REMARK SMILES IDX 4 1 5 2 6 3 7 4 3 5 2 6 1 7
REMARK H PARENT
REMARK Flexibility Score: inf
ROOT
ATOM      1  C   UNL     1      31.802  51.252  25.265  1.00  0.00     0.053 C 
ENDROOT
BRANCH   1   2
ATOM      2  C   UNL     1      30.654  51.482  24.332  1.00  0.00     0.041 C 
ATOM      3  O   UNL     1      30.865  51.811  23.136  1.00  0.00    -0.550 OA
ATOM      4  O   UNL     1      29.349  51.363  24.794  1.00  0.00    -0.550 OA
ENDBRANCH   1   2
BRANCH   1   5
ATOM      5  C   UNL     1      32.817  50.249  24.692  1.00  0.00     0.006 C 
BRANCH   5   6
ATOM      6  C   UNL     1      34.243  50.410  25.248  1.00  0.00    -0.003 C 
ATOM      7  C   UNL     1      34.977  49.078  25.394  1.00  0.00     0.004 C 
ENDBRANCH   5   6
ENDBRANCH   1   5
TORSDOF 3
ENDMDL
MODEL 8
REMARK VINA RESULT:    -2.734     18.181     18.752
REMARK INTER + INTRA:          -3.230
REMARK INTER:                  -3.140
REMARK INTRA:                  -0.090
REMARK UNBOUND:                -0.017
REMARK SMILES CCCCC(=O)[O-]
REMARK SMILES IDX 4 1 5 2 6 3 7 4 3 5 2 6 1 7
REMARK H PARENT
REMARK Flexibility Score: inf
ROOT
ATOM      1  C   UNL     1      30.855  52.287  24.871  1.00  0.00     0.053 C 
ENDROOT
BRANCH   1   2
ATOM      2  C   UNL     1      31.602  53.572  24.694  1.00  0.00     0.041 C 
ATOM      3  O   UNL     1      32.738  53.724  25.216  1.00  0.00    -0.550 OA
ATOM      4  O   UNL     1      31.030  54.616  23.977  1.00  0.00    -0.550 OA
ENDBRANCH   1   2
BRANCH   1   5
ATOM      5  C   UNL     1      31.601  51.098  24.245  1.00  0.00     0.006 C 
BRANCH   5   6
ATOM      6  C   UNL     1      32.422  50.270  25.250  1.00  0.00    -0.003 C 
ATOM      7  C   UNL     1      33.922  50.303  24.962  1.00  0.00     0.004 C 
ENDBRANCH   5   6
ENDBRANCH   1   5
TORSDOF 3
ENDMDL
MODEL 9
REMARK VINA RESULT:    -2.692     18.490     19.262
REMARK INTER + INTRA:          -3.181
REMARK INTER:                  -3.080
REMARK INTRA:                  -0.101
REMARK UNBOUND:                -0.017
REMARK SMILES CCCCC(=O)[O-]
REMARK SMILES IDX 4 1 5 2 6 3 7 4 3 5 2 6 1 7
REMARK H PARENT
REMARK Flexibility Score: inf
ROOT
ATOM      1  C   UNL     1      32.113  50.517  24.803  1.00  0.00     0.053 C 
ENDROOT
BRANCH   1   2
ATOM      2  C   UNL     1      33.317  51.229  25.336  1.00  0.00     0.041 C 
ATOM      3  O   UNL     1      33.235  52.434  25.692  1.00  0.00    -0.550 OA
ATOM      4  O   UNL     1      34.538  50.571  25.412  1.00  0.00    -0.550 OA
ENDBRANCH   1   2
BRANCH   1   5
ATOM      5  C   UNL     1      31.264  51.422  23.896  1.00  0.00     0.006 C 
BRANCH   5   6
ATOM      6  C   UNL     1      29.773  51.474  24.277  1.00  0.00    -0.003 C 
ATOM      7  C   UNL     1      29.549  51.605  25.783  1.00  0.00     0.004 C 
ENDBRANCH   5   6
ENDBRANCH   1   5
TORSDOF 3
ENDMDL
