MODEL 1
REMARK VINA RESULT:    -2.353      0.000      0.000
REMARK INTER + INTRA:          -3.281
REMARK INTER:                  -3.109
REMARK INTRA:                  -0.172
REMARK UNBOUND:                -0.172
REMARK SMILES CCCCC=CC=CCO
REMARK SMILES IDX 5 1 6 2 4 3 3 4 2 5 1 6 7 7 8 8 9 9 10 10
REMARK H PARENT 10 11
REMARK Flexibility Score: inf
ROOT
ATOM      1  C   UNL     1      40.042  -0.073 -14.928  1.00  0.00    -0.027 C 
ATOM      2  C   UNL     1      39.899   1.238 -15.140  1.00  0.00    -0.005 C 
ENDROOT
BRANCH   1   3
ATOM      3  C   UNL     1      39.875  -0.676 -13.562  1.00  0.00     0.027 C 
BRANCH   3   4
ATOM      4  C   UNL     1      40.528  -2.061 -13.473  1.00  0.00     0.004 C 
BRANCH   4   5
ATOM      5  C   UNL     1      39.875  -2.942 -12.399  1.00  0.00    -0.003 C 
ATOM      6  C   UNL     1      40.108  -2.371 -11.004  1.00  0.00     0.004 C 
ENDBRANCH   4   5
ENDBRANCH   3   4
ENDBRANCH   1   3
BRANCH   2   7
ATOM      7  C   UNL     1      40.103   1.816 -16.477  1.00  0.00    -0.002 C 
ATOM      8  C   UNL     1      39.882   1.095 -17.579  1.00  0.00     0.001 C 
BRANCH   8   9
ATOM      9  C   UNL     1      40.080   1.682 -18.945  1.00  0.00     0.183 C 
BRANCH   9  10
ATOM     10  O   UNL     1      41.152   2.585 -18.941  1.00  0.00    -0.392 OA
ATOM     11  H   UNL     1      41.874   2.173 -19.483  1.00  0.00     0.210 HD
ENDBRANCH   9  10
ENDBRANCH   8   9
ENDBRANCH   2   7
TORSDOF 6
ENDMDL
MODEL 2
REMARK VINA RESULT:    -1.850      2.913      6.174
REMARK INTER + INTRA:          -2.616
REMARK INTER:                  -2.398
REMARK INTRA:                  -0.218
REMARK UNBOUND:                -0.172
REMARK SMILES CCCCC=CC=CCO
REMARK SMILES IDX 5 1 6 2 4 3 3 4 2 5 1 6 7 7 8 8 9 9 10 10
REMARK H PARENT 10 11
REMARK Flexibility Score: inf
ROOT
ATOM      1  C   UNL     1      39.979   1.169 -14.994  1.00  0.00    -0.027 C 
ATOM      2  C   UNL     1      39.884  -0.158 -14.868  1.00  0.00    -0.005 C 
ENDROOT
BRANCH   1   3
ATOM      3  C   UNL     1      40.028   1.834 -16.341  1.00  0.00     0.027 C 
BRANCH   3   4
ATOM      4  C   UNL     1      39.909   0.812 -17.478  1.00  0.00     0.004 C 
BRANCH   4   5
ATOM      5  C   UNL     1      40.075   1.460 -18.860  1.00  0.00    -0.003 C 
ATOM      6  C   UNL     1      41.468   1.202 -19.425  1.00  0.00     0.004 C 
ENDBRANCH   4   5
ENDBRANCH   3   4
ENDBRANCH   1   3
BRANCH   2   7
ATOM      7  C   UNL     1      39.875  -0.794 -13.542  1.00  0.00    -0.002 C 
ATOM      8  C   UNL     1      40.131  -2.097 -13.403  1.00  0.00     0.001 C 
BRANCH   8   9
ATOM      9  C   UNL     1      40.131  -2.749 -12.052  1.00  0.00     0.183 C 
BRANCH   9  10
ATOM     10  O   UNL     1      40.853  -1.975 -11.133  1.00  0.00    -0.392 OA
ATOM     11  H   UNL     1      41.378  -1.320 -11.663  1.00  0.00     0.210 HD
ENDBRANCH   9  10
ENDBRANCH   8   9
ENDBRANCH   2   7
TORSDOF 6
ENDMDL
MODEL 3
REMARK VINA RESULT:    -1.346      3.930      7.096
REMARK INTER + INTRA:          -1.951
REMARK INTER:                  -1.800
REMARK INTRA:                  -0.151
REMARK UNBOUND:                -0.172
REMARK SMILES CCCCC=CC=CCO
REMARK SMILES IDX 5 1 6 2 4 3 3 4 2 5 1 6 7 7 8 8 9 9 10 10
REMARK H PARENT 10 11
REMARK Flexibility Score: inf
ROOT
ATOM      1  C   UNL     1      40.224  -1.524 -12.749  1.00  0.00    -0.027 C 
ATOM      2  C   UNL     1      40.215  -2.782 -12.299  1.00  0.00    -0.005 C 
ENDROOT
BRANCH   1   3
ATOM      3  C   UNL     1      40.511  -1.201 -14.188  1.00  0.00     0.027 C 
BRANCH   3   4
ATOM      4  C   UNL     1      39.917   0.154 -14.590  1.00  0.00     0.004 C 
BRANCH   4   5
ATOM      5  C   UNL     1      40.015   0.405 -16.102  1.00  0.00    -0.003 C 
ATOM      6  C   UNL     1      39.875   1.889 -16.424  1.00  0.00     0.004 C 
ENDBRANCH   4   5
ENDBRANCH   3   4
ENDBRANCH   1   3
BRANCH   2   7
ATOM      7  C   UNL     1      39.970  -3.078 -10.879  1.00  0.00    -0.002 C 
ATOM      8  C   UNL     1      40.160  -2.148  -9.941  1.00  0.00     0.001 C 
BRANCH   8   9
ATOM      9  C   UNL     1      39.903  -2.441  -8.492  1.00  0.00     0.183 C 
BRANCH   9  10
ATOM     10  O   UNL     1      39.888  -1.255  -7.746  1.00  0.00    -0.392 OA
ATOM     11  H   UNL     1      40.304  -0.556  -8.316  1.00  0.00     0.210 HD
ENDBRANCH   9  10
ENDBRANCH   8   9
ENDBRANCH   2   7
TORSDOF 6
ENDMDL
MODEL 4
REMARK VINA RESULT:    -1.315     19.677     20.653
REMARK INTER + INTRA:          -1.910
REMARK INTER:                  -1.717
REMARK INTRA:                  -0.193
REMARK UNBOUND:                -0.172
REMARK SMILES CCCCC=CC=CCO
REMARK SMILES IDX 5 1 6 2 4 3 3 4 2 5 1 6 7 7 8 8 9 9 10 10
REMARK H PARENT 10 11
REMARK Flexibility Score: inf
ROOT
ATOM      1  C   UNL     1      60.034   3.628 -19.986  1.00  0.00    -0.027 C 
ATOM      2  C   UNL     1      58.996   4.401 -19.657  1.00  0.00    -0.005 C 
ENDROOT
BRANCH   1   3
ATOM      3  C   UNL     1      60.026   2.146 -19.738  1.00  0.00     0.027 C 
BRANCH   3   4
ATOM      4  C   UNL     1      60.123   1.355 -21.049  1.00  0.00     0.004 C 
BRANCH   4   5
ATOM      5  C   UNL     1      58.835   0.578 -21.355  1.00  0.00    -0.003 C 
ATOM      6  C   UNL     1      57.606   1.340 -20.869  1.00  0.00     0.004 C 
ENDBRANCH   4   5
ENDBRANCH   3   4
ENDBRANCH   1   3
BRANCH   2   7
ATOM      7  C   UNL     1      59.036   5.856 -19.873  1.00  0.00    -0.002 C 
ATOM      8  C   UNL     1      60.078   6.433 -20.476  1.00  0.00     0.001 C 
BRANCH   8   9
ATOM      9  C   UNL     1      60.120   7.914 -20.706  1.00  0.00     0.183 C 
BRANCH   9  10
ATOM     10  O   UNL     1      59.628   8.227 -21.980  1.00  0.00    -0.392 OA
ATOM     11  H   UNL     1      60.387   8.126 -22.612  1.00  0.00     0.210 HD
ENDBRANCH   9  10
ENDBRANCH   8   9
ENDBRANCH   2   7
TORSDOF 6
ENDMDL
MODEL 5
REMARK VINA RESULT:    -1.000      2.330      4.366
REMARK INTER + INTRA:          -1.494
REMARK INTER:                  -1.320
REMARK INTRA:                  -0.174
REMARK UNBOUND:                -0.172
REMARK SMILES CCCCC=CC=CCO
REMARK SMILES IDX 5 1 6 2 4 3 3 4 2 5 1 6 7 7 8 8 9 9 10 10
REMARK H PARENT 10 11
REMARK Flexibility Score: inf
ROOT
ATOM      1  C   UNL     1      39.943  -1.858 -11.289  1.00  0.00    -0.027 C 
ATOM      2  C   UNL     1      40.017  -2.534 -12.439  1.00  0.00    -0.005 C 
ENDROOT
BRANCH   1   3
ATOM      3  C   UNL     1      39.990  -2.555  -9.958  1.00  0.00     0.027 C 
BRANCH   3   4
ATOM      4  C   UNL     1      39.875  -1.560  -8.797  1.00  0.00     0.004 C 
BRANCH   4   5
ATOM      5  C   UNL     1      40.767  -1.951  -7.609  1.00  0.00    -0.003 C 
ATOM      6  C   UNL     1      40.143  -3.084  -6.802  1.00  0.00     0.004 C 
ENDBRANCH   4   5
ENDBRANCH   3   4
ENDBRANCH   1   3
BRANCH   2   7
ATOM      7  C   UNL     1      39.933  -1.839 -13.733  1.00  0.00    -0.002 C 
ATOM      8  C   UNL     1      39.954  -0.506 -13.800  1.00  0.00     0.001 C 
BRANCH   8   9
ATOM      9  C   UNL     1      39.876   0.208 -15.117  1.00  0.00     0.183 C 
BRANCH   9  10
ATOM     10  O   UNL     1      40.868   1.195 -15.199  1.00  0.00    -0.392 OA
ATOM     11  H   UNL     1      41.685   0.812 -14.786  1.00  0.00     0.210 HD
ENDBRANCH   9  10
ENDBRANCH   8   9
ENDBRANCH   2   7
TORSDOF 6
ENDMDL
MODEL 6
REMARK VINA RESULT:    -0.871      3.084      6.551
REMARK INTER + INTRA:          -1.322
REMARK INTER:                  -1.182
REMARK INTRA:                  -0.140
REMARK UNBOUND:                -0.172
REMARK SMILES CCCCC=CC=CCO
REMARK SMILES IDX 5 1 6 2 4 3 3 4 2 5 1 6 7 7 8 8 9 9 10 10
REMARK H PARENT 10 11
REMARK Flexibility Score: inf
ROOT
ATOM      1  C   UNL     1      39.875   0.645 -16.682  1.00  0.00    -0.027 C 
ATOM      2  C   UNL     1      40.117   0.482 -15.378  1.00  0.00    -0.005 C 
ENDROOT
BRANCH   1   3
ATOM      3  C   UNL     1      39.970   1.993 -17.341  1.00  0.00     0.027 C 
BRANCH   3   4
ATOM      4  C   UNL     1      40.154   1.866 -18.859  1.00  0.00     0.004 C 
BRANCH   4   5
ATOM      5  C   UNL     1      41.545   2.330 -19.314  1.00  0.00    -0.003 C 
ATOM      6  C   UNL     1      41.585   3.843 -19.503  1.00  0.00     0.004 C 
ENDBRANCH   4   5
ENDBRANCH   3   4
ENDBRANCH   1   3
BRANCH   2   7
ATOM      7  C   UNL     1      39.983  -0.837 -14.742  1.00  0.00    -0.002 C 
ATOM      8  C   UNL     1      40.019  -0.967 -13.415  1.00  0.00     0.001 C 
BRANCH   8   9
ATOM      9  C   UNL     1      39.875  -2.310 -12.761  1.00  0.00     0.183 C 
BRANCH   9  10
ATOM     10  O   UNL     1      39.988  -2.192 -11.369  1.00  0.00    -0.392 OA
ATOM     11  H   UNL     1      40.123  -3.110 -11.015  1.00  0.00     0.210 HD
ENDBRANCH   9  10
ENDBRANCH   8   9
ENDBRANCH   2   7
TORSDOF 6
ENDMDL
MODEL 7
REMARK VINA RESULT:     0.031      3.585      5.633
REMARK INTER + INTRA:          -0.131
REMARK INTER:                   0.068
REMARK INTRA:                  -0.199
REMARK UNBOUND:                -0.172
REMARK SMILES CCCCC=CC=CCO
REMARK SMILES IDX 5 1 6 2 4 3 3 4 2 5 1 6 7 7 8 8 9 9 10 10
REMARK H PARENT 10 11
REMARK Flexibility Score: inf
ROOT
ATOM      1  C   UNL     1      41.540   2.000 -19.233  1.00  0.00    -0.027 C 
ATOM      2  C   UNL     1      42.218   1.048 -19.881  1.00  0.00    -0.005 C 
ENDROOT
BRANCH   1   3
ATOM      3  C   UNL     1      40.096   1.825 -18.855  1.00  0.00     0.027 C 
BRANCH   3   4
ATOM      4  C   UNL     1      39.937   0.866 -17.668  1.00  0.00     0.004 C 
BRANCH   4   5
ATOM      5  C   UNL     1      40.051   1.591 -16.319  1.00  0.00    -0.003 C 
ATOM      6  C   UNL     1      40.190   0.596 -15.171  1.00  0.00     0.004 C 
ENDBRANCH   4   5
ENDBRANCH   3   4
ENDBRANCH   1   3
BRANCH   2   7
ATOM      7  C   UNL     1      43.620   1.251 -20.275  1.00  0.00    -0.002 C 
ATOM      8  C   UNL     1      44.149   0.584 -21.302  1.00  0.00     0.001 C 
BRANCH   8   9
ATOM      9  C   UNL     1      45.576   0.793 -21.714  1.00  0.00     0.183 C 
BRANCH   9  10
ATOM     10  O   UNL     1      46.249  -0.433 -21.797  1.00  0.00    -0.392 OA
ATOM     11  H   UNL     1      45.622  -1.125 -21.458  1.00  0.00     0.210 HD
ENDBRANCH   9  10
ENDBRANCH   8   9
ENDBRANCH   2   7
TORSDOF 6
ENDMDL
