MODEL 1
REMARK VINA RESULT:    -5.200      0.000      0.000
REMARK INTER + INTRA:          -8.628
REMARK INTER:                  -7.176
REMARK INTRA:                  -1.453
REMARK UNBOUND:                -1.453
REMARK SMILES CC[C@H](CC[C@H](C)[C@H]1CC[C@H]2[C@H]3CC=C4C[C@@H](O)CC[C@]4(C)[C@@H]3CC[C@@]12C)C(C)C
REMARK SMILES IDX 5 1 4 2 3 3 2 4 1 5 28 6 29 7 30 8 6 9 7 10 8 11 9 12 26 13
REMARK SMILES IDX 10 14 11 15 25 16 27 17 12 18 24 19 23 20 13 21 21 22 14 23
REMARK SMILES IDX 15 24 20 25 22 26 16 27 19 28 17 29 18 30
REMARK H PARENT 18 31
REMARK Flexibility Score: inf
ROOT
ATOM      1  C   UNL     1       3.376   4.391  -5.395  1.00  0.00     0.004 C 
ENDROOT
BRANCH   1   2
ATOM      2  C   UNL     1       2.576   3.318  -6.163  1.00  0.00     0.004 C 
BRANCH   2   3
ATOM      3  C   UNL     1       1.027   3.454  -6.073  1.00  0.00    -0.009 C 
BRANCH   3   4
ATOM      4  C   UNL     1       0.299   2.537  -7.102  1.00  0.00     0.000 C 
ATOM      5  C   UNL     1       0.829   2.586  -8.541  1.00  0.00     0.004 C 
ENDBRANCH   3   4
BRANCH   3   6
ATOM      6  C   UNL     1       0.438   3.388  -4.622  1.00  0.00    -0.014 C 
ATOM      7  C   UNL     1      -0.492   4.574  -4.307  1.00  0.00     0.007 C 
ATOM      8  C   UNL     1      -0.350   2.081  -4.404  1.00  0.00     0.007 C 
ENDBRANCH   3   6
ENDBRANCH   2   3
ENDBRANCH   1   2
BRANCH   1   9
ATOM      9  C   UNL     1       4.200   3.846  -4.198  1.00  0.00    -0.011 C 
ATOM     10  C   UNL     1       5.292   4.854  -3.780  1.00  0.00     0.008 C 
BRANCH   9  11
ATOM     11  C   UNL     1       4.675   2.362  -4.423  1.00  0.00    -0.002 C 
ATOM     12  C   UNL     1       6.164   2.145  -4.739  1.00  0.00     0.005 C 
ATOM     13  C   UNL     1       4.343   1.338  -3.300  1.00  0.00    -0.026 C 
ATOM     14  C   UNL     1       6.487   0.713  -4.303  1.00  0.00     0.005 C 
ATOM     15  C   UNL     1       5.183   0.117  -3.738  1.00  0.00    -0.001 C 
ATOM     16  C   UNL     1       4.812   1.840  -1.902  1.00  0.00     0.007 C 
ATOM     17  C   UNL     1       2.831   1.000  -3.292  1.00  0.00     0.012 C 
ATOM     18  C   UNL     1       5.356  -0.986  -2.645  1.00  0.00     0.000 C 
ATOM     19  C   UNL     1       4.832   0.728  -0.850  1.00  0.00     0.005 C 
ATOM     20  C   UNL     1       5.772  -0.432  -1.265  1.00  0.00     0.003 C 
ATOM     21  C   UNL     1       6.372  -2.044  -3.095  1.00  0.00     0.031 C 
ATOM     22  C   UNL     1       5.898  -1.573  -0.164  1.00  0.00    -0.008 C 
ATOM     23  C   UNL     1       6.504  -3.132  -2.079  1.00  0.00    -0.027 C 
ATOM     24  C   UNL     1       6.361  -2.921  -0.755  1.00  0.00    -0.065 C 
ATOM     25  C   UNL     1       4.532  -1.840   0.551  1.00  0.00     0.014 C 
ATOM     26  C   UNL     1       6.945  -1.102   0.879  1.00  0.00     0.016 C 
ATOM     27  C   UNL     1       6.414  -4.118   0.172  1.00  0.00     0.063 C 
ATOM     28  C   UNL     1       4.537  -3.055   1.502  1.00  0.00     0.033 C 
ATOM     29  C   UNL     1       5.029  -4.330   0.797  1.00  0.00     0.118 C 
BRANCH  29  30
ATOM     30  O   UNL     1       5.045  -5.415   1.690  1.00  0.00    -0.393 OA
ATOM     31  H   UNL     1       5.356  -5.077   2.570  1.00  0.00     0.210 HD
ENDBRANCH  29  30
ENDBRANCH   9  11
ENDBRANCH   1   9
TORSDOF 7
ENDMDL
MODEL 2
REMARK VINA RESULT:    -4.852      2.827      5.774
REMARK INTER + INTRA:          -8.148
REMARK INTER:                  -6.030
REMARK INTRA:                  -2.118
REMARK UNBOUND:                -1.453
REMARK SMILES CC[C@H](CC[C@H](C)[C@H]1CC[C@H]2[C@H]3CC=C4C[C@@H](O)CC[C@]4(C)[C@@H]3CC[C@@]12C)C(C)C
REMARK SMILES IDX 5 1 4 2 3 3 2 4 1 5 28 6 29 7 30 8 6 9 7 10 8 11 9 12 26 13
REMARK SMILES IDX 10 14 11 15 25 16 27 17 12 18 24 19 23 20 13 21 21 22 14 23
REMARK SMILES IDX 15 24 20 25 22 26 16 27 19 28 17 29 18 30
REMARK H PARENT 18 31
REMARK Flexibility Score: inf
ROOT
ATOM      1  C   UNL     1      -1.418   7.017  -7.234  1.00  0.00     0.004 C 
ENDROOT
BRANCH   1   2
ATOM      2  C   UNL     1      -2.185   6.807  -5.910  1.00  0.00     0.004 C 
BRANCH   2   3
ATOM      3  C   UNL     1      -3.593   6.158  -6.054  1.00  0.00    -0.009 C 
BRANCH   3   4
ATOM      4  C   UNL     1      -3.819   5.563  -7.477  1.00  0.00     0.000 C 
ATOM      5  C   UNL     1      -3.920   4.035  -7.561  1.00  0.00     0.004 C 
ENDBRANCH   3   4
BRANCH   3   6
ATOM      6  C   UNL     1      -4.007   5.201  -4.883  1.00  0.00    -0.014 C 
ATOM      7  C   UNL     1      -2.793   4.591  -4.160  1.00  0.00     0.007 C 
ATOM      8  C   UNL     1      -4.871   5.942  -3.844  1.00  0.00     0.007 C 
ENDBRANCH   3   6
ENDBRANCH   2   3
ENDBRANCH   1   2
BRANCH   1   9
ATOM      9  C   UNL     1      -0.142   6.148  -7.384  1.00  0.00    -0.011 C 
ATOM     10  C   UNL     1       0.186   5.909  -8.873  1.00  0.00     0.008 C 
BRANCH   9  11
ATOM     11  C   UNL     1      -0.175   4.869  -6.467  1.00  0.00    -0.002 C 
ATOM     12  C   UNL     1      -0.248   3.505  -7.173  1.00  0.00     0.005 C 
ATOM     13  C   UNL     1       0.964   4.724  -5.417  1.00  0.00    -0.026 C 
ATOM     14  C   UNL     1       0.343   2.487  -6.193  1.00  0.00     0.005 C 
ATOM     15  C   UNL     1       0.753   3.272  -4.933  1.00  0.00    -0.001 C 
ATOM     16  C   UNL     1       2.372   4.876  -6.066  1.00  0.00     0.007 C 
ATOM     17  C   UNL     1       0.773   5.731  -4.256  1.00  0.00     0.012 C 
ATOM     18  C   UNL     1       1.944   2.674  -4.116  1.00  0.00     0.000 C 
ATOM     19  C   UNL     1       3.499   4.388  -5.153  1.00  0.00     0.005 C 
ATOM     20  C   UNL     1       3.322   2.895  -4.776  1.00  0.00     0.003 C 
ATOM     21  C   UNL     1       1.735   1.174  -3.867  1.00  0.00     0.031 C 
ATOM     22  C   UNL     1       4.516   2.314  -3.900  1.00  0.00    -0.008 C 
ATOM     23  C   UNL     1       2.842   0.606  -3.040  1.00  0.00    -0.027 C 
ATOM     24  C   UNL     1       4.110   1.062  -3.096  1.00  0.00    -0.065 C 
ATOM     25  C   UNL     1       5.038   3.366  -2.866  1.00  0.00     0.014 C 
ATOM     26  C   UNL     1       5.662   1.929  -4.872  1.00  0.00     0.016 C 
ATOM     27  C   UNL     1       5.125   0.478  -2.137  1.00  0.00     0.063 C 
ATOM     28  C   UNL     1       6.073   2.813  -1.863  1.00  0.00     0.033 C 
ATOM     29  C   UNL     1       5.553   1.561  -1.136  1.00  0.00     0.118 C 
BRANCH  29  30
ATOM     30  O   UNL     1       6.521   1.065  -0.247  1.00  0.00    -0.393 OA
ATOM     31  H   UNL     1       7.348   1.599  -0.373  1.00  0.00     0.210 HD
ENDBRANCH  29  30
ENDBRANCH   9  11
ENDBRANCH   1   9
TORSDOF 7
ENDMDL
MODEL 3
REMARK VINA RESULT:    -4.827      5.143      8.005
REMARK INTER + INTRA:          -8.114
REMARK INTER:                  -6.196
REMARK INTRA:                  -1.918
REMARK UNBOUND:                -1.453
REMARK SMILES CC[C@H](CC[C@H](C)[C@H]1CC[C@H]2[C@H]3CC=C4C[C@@H](O)CC[C@]4(C)[C@@H]3CC[C@@]12C)C(C)C
REMARK SMILES IDX 5 1 4 2 3 3 2 4 1 5 28 6 29 7 30 8 6 9 7 10 8 11 9 12 26 13
REMARK SMILES IDX 10 14 11 15 25 16 27 17 12 18 24 19 23 20 13 21 21 22 14 23
REMARK SMILES IDX 15 24 20 25 22 26 16 27 19 28 17 29 18 30
REMARK H PARENT 18 31
REMARK Flexibility Score: inf
ROOT
ATOM      1  C   UNL     1       6.387  -1.331  -0.518  1.00  0.00     0.004 C 
ENDROOT
BRANCH   1   2
ATOM      2  C   UNL     1       5.127  -1.316  -1.410  1.00  0.00     0.004 C 
BRANCH   2   3
ATOM      3  C   UNL     1       5.166  -0.309  -2.597  1.00  0.00    -0.009 C 
BRANCH   3   4
ATOM      4  C   UNL     1       5.216  -1.034  -3.976  1.00  0.00     0.000 C 
ATOM      5  C   UNL     1       6.603  -1.480  -4.454  1.00  0.00     0.004 C 
ENDBRANCH   3   4
BRANCH   3   6
ATOM      6  C   UNL     1       4.118   0.854  -2.518  1.00  0.00    -0.014 C 
ATOM      7  C   UNL     1       4.637   2.160  -3.147  1.00  0.00     0.007 C 
ATOM      8  C   UNL     1       2.804   0.463  -3.223  1.00  0.00     0.007 C 
ENDBRANCH   3   6
ENDBRANCH   2   3
ENDBRANCH   1   2
BRANCH   1   9
ATOM      9  C   UNL     1       7.182   0.002  -0.503  1.00  0.00    -0.011 C 
ATOM     10  C   UNL     1       8.552  -0.170  -1.192  1.00  0.00     0.008 C 
BRANCH   9  11
ATOM     11  C   UNL     1       7.199   0.674   0.920  1.00  0.00    -0.002 C 
ATOM     12  C   UNL     1       8.532   1.281   1.390  1.00  0.00     0.005 C 
ATOM     13  C   UNL     1       6.133   1.772   1.195  1.00  0.00    -0.026 C 
ATOM     14  C   UNL     1       8.171   2.356   2.419  1.00  0.00     0.005 C 
ATOM     15  C   UNL     1       6.634   2.362   2.532  1.00  0.00    -0.001 C 
ATOM     16  C   UNL     1       6.133   2.870   0.090  1.00  0.00     0.007 C 
ATOM     17  C   UNL     1       4.725   1.145   1.356  1.00  0.00     0.012 C 
ATOM     18  C   UNL     1       5.986   3.726   2.931  1.00  0.00     0.000 C 
ATOM     19  C   UNL     1       5.368   4.128   0.504  1.00  0.00     0.005 C 
ATOM     20  C   UNL     1       5.966   4.762   1.786  1.00  0.00     0.003 C 
ATOM     21  C   UNL     1       6.696   4.331   4.150  1.00  0.00     0.031 C 
ATOM     22  C   UNL     1       5.261   6.124   2.210  1.00  0.00    -0.008 C 
ATOM     23  C   UNL     1       6.048   5.609   4.572  1.00  0.00    -0.027 C 
ATOM     24  C   UNL     1       5.461   6.457   3.703  1.00  0.00    -0.065 C 
ATOM     25  C   UNL     1       3.717   6.078   1.961  1.00  0.00     0.014 C 
ATOM     26  C   UNL     1       5.891   7.258   1.360  1.00  0.00     0.016 C 
ATOM     27  C   UNL     1       4.747   7.672   4.258  1.00  0.00     0.063 C 
ATOM     28  C   UNL     1       2.946   7.294   2.514  1.00  0.00     0.033 C 
ATOM     29  C   UNL     1       3.239   7.526   4.006  1.00  0.00     0.118 C 
BRANCH  29  30
ATOM     30  O   UNL     1       2.544   8.652   4.479  1.00  0.00    -0.393 OA
ATOM     31  H   UNL     1       2.582   9.349   3.774  1.00  0.00     0.210 HD
ENDBRANCH  29  30
ENDBRANCH   9  11
ENDBRANCH   1   9
TORSDOF 7
ENDMDL
MODEL 4
REMARK VINA RESULT:    -4.817      4.616      8.565
REMARK INTER + INTRA:          -8.101
REMARK INTER:                  -6.683
REMARK INTRA:                  -1.418
REMARK UNBOUND:                -1.453
REMARK SMILES CC[C@H](CC[C@H](C)[C@H]1CC[C@H]2[C@H]3CC=C4C[C@@H](O)CC[C@]4(C)[C@@H]3CC[C@@]12C)C(C)C
REMARK SMILES IDX 5 1 4 2 3 3 2 4 1 5 28 6 29 7 30 8 6 9 7 10 8 11 9 12 26 13
REMARK SMILES IDX 10 14 11 15 25 16 27 17 12 18 24 19 23 20 13 21 21 22 14 23
REMARK SMILES IDX 15 24 20 25 22 26 16 27 19 28 17 29 18 30
REMARK H PARENT 18 31
REMARK Flexibility Score: inf
ROOT
ATOM      1  C   UNL     1      -5.209   6.554  -5.539  1.00  0.00     0.004 C 
ENDROOT
BRANCH   1   2
ATOM      2  C   UNL     1      -5.447   5.948  -4.139  1.00  0.00     0.004 C 
BRANCH   2   3
ATOM      3  C   UNL     1      -5.864   6.966  -3.037  1.00  0.00    -0.009 C 
BRANCH   3   4
ATOM      4  C   UNL     1      -7.381   6.865  -2.693  1.00  0.00     0.000 C 
ATOM      5  C   UNL     1      -8.066   5.538  -3.045  1.00  0.00     0.004 C 
ENDBRANCH   3   4
BRANCH   3   6
ATOM      6  C   UNL     1      -4.922   7.015  -1.786  1.00  0.00    -0.014 C 
ATOM      7  C   UNL     1      -3.971   8.226  -1.809  1.00  0.00     0.007 C 
ATOM      8  C   UNL     1      -5.739   7.063  -0.480  1.00  0.00     0.007 C 
ENDBRANCH   3   6
ENDBRANCH   2   3
ENDBRANCH   1   2
BRANCH   1   9
ATOM      9  C   UNL     1      -4.103   5.848  -6.367  1.00  0.00    -0.011 C 
ATOM     10  C   UNL     1      -4.643   5.413  -7.745  1.00  0.00     0.008 C 
BRANCH   9  11
ATOM     11  C   UNL     1      -3.344   4.746  -5.538  1.00  0.00    -0.002 C 
ATOM     12  C   UNL     1      -3.329   3.322  -6.120  1.00  0.00     0.005 C 
ATOM     13  C   UNL     1      -1.867   5.044  -5.153  1.00  0.00    -0.026 C 
ATOM     14  C   UNL     1      -2.091   2.637  -5.534  1.00  0.00     0.005 C 
ATOM     15  C   UNL     1      -1.403   3.670  -4.621  1.00  0.00    -0.001 C 
ATOM     16  C   UNL     1      -1.017   5.456  -6.391  1.00  0.00     0.007 C 
ATOM     17  C   UNL     1      -1.795   6.123  -4.043  1.00  0.00     0.012 C 
ATOM     18  C   UNL     1       0.144   3.516  -4.463  1.00  0.00     0.000 C 
ATOM     19  C   UNL     1       0.488   5.405  -6.120  1.00  0.00     0.005 C 
ATOM     20  C   UNL     1       0.943   3.985  -5.698  1.00  0.00     0.003 C 
ATOM     21  C   UNL     1       0.516   2.063  -4.139  1.00  0.00     0.031 C 
ATOM     22  C   UNL     1       2.515   3.856  -5.490  1.00  0.00    -0.008 C 
ATOM     23  C   UNL     1       1.989   1.917  -3.933  1.00  0.00    -0.027 C 
ATOM     24  C   UNL     1       2.900   2.668  -4.584  1.00  0.00    -0.065 C 
ATOM     25  C   UNL     1       3.117   5.141  -4.830  1.00  0.00     0.014 C 
ATOM     26  C   UNL     1       3.154   3.642  -6.888  1.00  0.00     0.016 C 
ATOM     27  C   UNL     1       4.360   2.503  -4.218  1.00  0.00     0.063 C 
ATOM     28  C   UNL     1       4.604   5.017  -4.436  1.00  0.00     0.033 C 
ATOM     29  C   UNL     1       4.858   3.789  -3.544  1.00  0.00     0.118 C 
BRANCH  29  30
ATOM     30  O   UNL     1       6.220   3.686  -3.218  1.00  0.00    -0.393 OA
ATOM     31  H   UNL     1       6.698   3.350  -4.020  1.00  0.00     0.210 HD
ENDBRANCH  29  30
ENDBRANCH   9  11
ENDBRANCH   1   9
TORSDOF 7
ENDMDL
MODEL 5
REMARK VINA RESULT:    -4.730      5.840     11.657
REMARK INTER + INTRA:          -7.980
REMARK INTER:                  -5.774
REMARK INTRA:                  -2.206
REMARK UNBOUND:                -1.453
REMARK SMILES CC[C@H](CC[C@H](C)[C@H]1CC[C@H]2[C@H]3CC=C4C[C@@H](O)CC[C@]4(C)[C@@H]3CC[C@@]12C)C(C)C
REMARK SMILES IDX 5 1 4 2 3 3 2 4 1 5 28 6 29 7 30 8 6 9 7 10 8 11 9 12 26 13
REMARK SMILES IDX 10 14 11 15 25 16 27 17 12 18 24 19 23 20 13 21 21 22 14 23
REMARK SMILES IDX 15 24 20 25 22 26 16 27 19 28 17 29 18 30
REMARK H PARENT 18 31
REMARK Flexibility Score: inf
ROOT
ATOM      1  C   UNL     1       0.139   3.648  -8.044  1.00  0.00     0.004 C 
ENDROOT
BRANCH   1   2
ATOM      2  C   UNL     1       0.137   2.623  -6.890  1.00  0.00     0.004 C 
BRANCH   2   3
ATOM      3  C   UNL     1       1.399   2.648  -5.978  1.00  0.00    -0.009 C 
BRANCH   3   4
ATOM      4  C   UNL     1       2.410   3.753  -6.409  1.00  0.00     0.000 C 
ATOM      5  C   UNL     1       2.555   4.944  -5.453  1.00  0.00     0.004 C 
ENDBRANCH   3   4
BRANCH   3   6
ATOM      6  C   UNL     1       1.108   2.606  -4.438  1.00  0.00    -0.014 C 
ATOM      7  C   UNL     1      -0.382   2.375  -4.124  1.00  0.00     0.007 C 
ATOM      8  C   UNL     1       1.927   1.497  -3.750  1.00  0.00     0.007 C 
ENDBRANCH   3   6
ENDBRANCH   2   3
ENDBRANCH   1   2
BRANCH   1   9
ATOM      9  C   UNL     1      -0.920   4.774  -7.909  1.00  0.00    -0.011 C 
ATOM     10  C   UNL     1      -0.514   6.011  -8.738  1.00  0.00     0.008 C 
BRANCH   9  11
ATOM     11  C   UNL     1      -1.322   5.043  -6.411  1.00  0.00    -0.002 C 
ATOM     12  C   UNL     1      -0.830   6.356  -5.781  1.00  0.00     0.005 C 
ATOM     13  C   UNL     1      -2.836   4.966  -6.062  1.00  0.00    -0.026 C 
ATOM     14  C   UNL     1      -1.805   6.674  -4.644  1.00  0.00     0.005 C 
ATOM     15  C   UNL     1      -2.852   5.544  -4.629  1.00  0.00    -0.001 C 
ATOM     16  C   UNL     1      -3.695   5.856  -7.010  1.00  0.00     0.007 C 
ATOM     17  C   UNL     1      -3.331   3.498  -6.076  1.00  0.00     0.012 C 
ATOM     18  C   UNL     1      -4.268   5.934  -4.096  1.00  0.00     0.000 C 
ATOM     19  C   UNL     1      -5.112   6.087  -6.482  1.00  0.00     0.005 C 
ATOM     20  C   UNL     1      -5.098   6.772  -5.092  1.00  0.00     0.003 C 
ATOM     21  C   UNL     1      -4.159   6.690  -2.764  1.00  0.00     0.031 C 
ATOM     22  C   UNL     1      -6.548   7.116  -4.538  1.00  0.00    -0.008 C 
ATOM     23  C   UNL     1      -5.510   7.020  -2.219  1.00  0.00    -0.027 C 
ATOM     24  C   UNL     1      -6.575   7.281  -3.004  1.00  0.00    -0.065 C 
ATOM     25  C   UNL     1      -7.582   5.996  -4.890  1.00  0.00     0.014 C 
ATOM     26  C   UNL     1      -6.991   8.454  -5.188  1.00  0.00     0.016 C 
ATOM     27  C   UNL     1      -7.918   7.501  -2.340  1.00  0.00     0.063 C 
ATOM     28  C   UNL     1      -8.966   6.176  -4.231  1.00  0.00     0.033 C 
ATOM     29  C   UNL     1      -8.855   6.341  -2.706  1.00  0.00     0.118 C 
BRANCH  29  30
ATOM     30  O   UNL     1     -10.125   6.526  -2.133  1.00  0.00    -0.393 OA
ATOM     31  H   UNL     1     -10.359   5.694  -1.644  1.00  0.00     0.210 HD
ENDBRANCH  29  30
ENDBRANCH   9  11
ENDBRANCH   1   9
TORSDOF 7
ENDMDL
MODEL 6
REMARK VINA RESULT:    -4.707      6.247     10.942
REMARK INTER + INTRA:          -7.948
REMARK INTER:                  -5.913
REMARK INTRA:                  -2.036
REMARK UNBOUND:                -1.453
REMARK SMILES CC[C@H](CC[C@H](C)[C@H]1CC[C@H]2[C@H]3CC=C4C[C@@H](O)CC[C@]4(C)[C@@H]3CC[C@@]12C)C(C)C
REMARK SMILES IDX 5 1 4 2 3 3 2 4 1 5 28 6 29 7 30 8 6 9 7 10 8 11 9 12 26 13
REMARK SMILES IDX 10 14 11 15 25 16 27 17 12 18 24 19 23 20 13 21 21 22 14 23
REMARK SMILES IDX 15 24 20 25 22 26 16 27 19 28 17 29 18 30
REMARK H PARENT 18 31
REMARK Flexibility Score: inf
ROOT
ATOM      1  C   UNL     1      -1.190   3.233  -7.909  1.00  0.00     0.004 C 
ENDROOT
BRANCH   1   2
ATOM      2  C   UNL     1      -0.424   2.553  -6.754  1.00  0.00     0.004 C 
BRANCH   2   3
ATOM      3  C   UNL     1       1.095   2.888  -6.679  1.00  0.00    -0.009 C 
BRANCH   3   4
ATOM      4  C   UNL     1       1.495   4.015  -7.678  1.00  0.00     0.000 C 
ATOM      5  C   UNL     1       2.428   3.600  -8.823  1.00  0.00     0.004 C 
ENDBRANCH   3   4
BRANCH   3   6
ATOM      6  C   UNL     1       1.662   3.080  -5.230  1.00  0.00    -0.014 C 
ATOM      7  C   UNL     1       1.489   4.520  -4.714  1.00  0.00     0.007 C 
ATOM      8  C   UNL     1       0.977   2.122  -4.236  1.00  0.00     0.007 C 
ENDBRANCH   3   6
ENDBRANCH   2   3
ENDBRANCH   1   2
BRANCH   1   9
ATOM      9  C   UNL     1      -2.254   4.268  -7.456  1.00  0.00    -0.011 C 
ATOM     10  C   UNL     1      -2.965   4.892  -8.675  1.00  0.00     0.008 C 
BRANCH   9  11
ATOM     11  C   UNL     1      -1.691   5.278  -6.388  1.00  0.00    -0.002 C 
ATOM     12  C   UNL     1      -1.479   6.731  -6.844  1.00  0.00     0.005 C 
ATOM     13  C   UNL     1      -2.462   5.383  -5.041  1.00  0.00    -0.026 C 
ATOM     14  C   UNL     1      -1.548   7.589  -5.578  1.00  0.00     0.005 C 
ATOM     15  C   UNL     1      -1.802   6.625  -4.403  1.00  0.00    -0.001 C 
ATOM     16  C   UNL     1      -3.983   5.636  -5.262  1.00  0.00     0.007 C 
ATOM     17  C   UNL     1      -2.229   4.120  -4.173  1.00  0.00     0.012 C 
ATOM     18  C   UNL     1      -2.573   7.225  -3.184  1.00  0.00     0.000 C 
ATOM     19  C   UNL     1      -4.697   6.098  -3.990  1.00  0.00     0.005 C 
ATOM     20  C   UNL     1      -4.085   7.410  -3.437  1.00  0.00     0.003 C 
ATOM     21  C   UNL     1      -1.962   8.566  -2.759  1.00  0.00     0.031 C 
ATOM     22  C   UNL     1      -4.849   7.981  -2.164  1.00  0.00    -0.008 C 
ATOM     23  C   UNL     1      -2.659   9.121  -1.560  1.00  0.00    -0.027 C 
ATOM     24  C   UNL     1      -3.971   8.924  -1.316  1.00  0.00    -0.065 C 
ATOM     25  C   UNL     1      -5.327   6.833  -1.214  1.00  0.00     0.014 C 
ATOM     26  C   UNL     1      -6.079   8.776  -2.677  1.00  0.00     0.016 C 
ATOM     27  C   UNL     1      -4.546   9.448  -0.017  1.00  0.00     0.063 C 
ATOM     28  C   UNL     1      -5.917   7.320   0.127  1.00  0.00     0.033 C 
ATOM     29  C   UNL     1      -4.951   8.260   0.868  1.00  0.00     0.118 C 
BRANCH  29  30
ATOM     30  O   UNL     1      -5.519   8.707   2.073  1.00  0.00    -0.393 OA
ATOM     31  H   UNL     1      -6.418   8.293   2.154  1.00  0.00     0.210 HD
ENDBRANCH  29  30
ENDBRANCH   9  11
ENDBRANCH   1   9
TORSDOF 7
ENDMDL
MODEL 7
REMARK VINA RESULT:    -4.652      3.939      9.380
REMARK INTER + INTRA:          -7.873
REMARK INTER:                  -6.396
REMARK INTRA:                  -1.476
REMARK UNBOUND:                -1.453
REMARK SMILES CC[C@H](CC[C@H](C)[C@H]1CC[C@H]2[C@H]3CC=C4C[C@@H](O)CC[C@]4(C)[C@@H]3CC[C@@]12C)C(C)C
REMARK SMILES IDX 5 1 4 2 3 3 2 4 1 5 28 6 29 7 30 8 6 9 7 10 8 11 9 12 26 13
REMARK SMILES IDX 10 14 11 15 25 16 27 17 12 18 24 19 23 20 13 21 21 22 14 23
REMARK SMILES IDX 15 24 20 25 22 26 16 27 19 28 17 29 18 30
REMARK H PARENT 18 31
REMARK Flexibility Score: inf
ROOT
ATOM      1  C   UNL     1       5.875   2.235  -5.048  1.00  0.00     0.004 C 
ENDROOT
BRANCH   1   2
ATOM      2  C   UNL     1       6.609   1.498  -3.907  1.00  0.00     0.004 C 
BRANCH   2   3
ATOM      3  C   UNL     1       5.840   0.289  -3.297  1.00  0.00    -0.009 C 
BRANCH   3   4
ATOM      4  C   UNL     1       6.054  -1.016  -4.123  1.00  0.00     0.000 C 
ATOM      5  C   UNL     1       6.503  -2.250  -3.330  1.00  0.00     0.004 C 
ENDBRANCH   3   4
BRANCH   3   6
ATOM      6  C   UNL     1       6.009   0.106  -1.749  1.00  0.00    -0.014 C 
ATOM      7  C   UNL     1       7.133   0.984  -1.170  1.00  0.00     0.007 C 
ATOM      8  C   UNL     1       4.700   0.439  -1.007  1.00  0.00     0.007 C 
ENDBRANCH   3   6
ENDBRANCH   2   3
ENDBRANCH   1   2
BRANCH   1   9
ATOM      9  C   UNL     1       4.722   3.162  -4.580  1.00  0.00    -0.011 C 
ATOM     10  C   UNL     1       4.962   3.648  -3.135  1.00  0.00     0.008 C 
BRANCH   9  11
ATOM     11  C   UNL     1       3.302   2.552  -4.881  1.00  0.00    -0.002 C 
ATOM     12  C   UNL     1       2.567   1.883  -3.708  1.00  0.00     0.005 C 
ATOM     13  C   UNL     1       2.253   3.496  -5.534  1.00  0.00    -0.026 C 
ATOM     14  C   UNL     1       1.075   1.948  -4.048  1.00  0.00     0.005 C 
ATOM     15  C   UNL     1       0.963   2.655  -5.413  1.00  0.00    -0.001 C 
ATOM     16  C   UNL     1       2.101   4.830  -4.743  1.00  0.00     0.007 C 
ATOM     17  C   UNL     1       2.604   3.766  -7.019  1.00  0.00     0.012 C 
ATOM     18  C   UNL     1      -0.362   3.445  -5.663  1.00  0.00     0.000 C 
ATOM     19  C   UNL     1       0.847   5.612  -5.136  1.00  0.00     0.005 C 
ATOM     20  C   UNL     1      -0.441   4.783  -4.895  1.00  0.00     0.003 C 
ATOM     21  C   UNL     1      -1.584   2.585  -5.313  1.00  0.00     0.031 C 
ATOM     22  C   UNL     1      -1.780   5.583  -5.205  1.00  0.00    -0.008 C 
ATOM     23  C   UNL     1      -2.856   3.314  -5.600  1.00  0.00    -0.027 C 
ATOM     24  C   UNL     1      -2.977   4.652  -5.489  1.00  0.00    -0.065 C 
ATOM     25  C   UNL     1      -1.623   6.511  -6.455  1.00  0.00     0.014 C 
ATOM     26  C   UNL     1      -2.107   6.444  -3.957  1.00  0.00     0.016 C 
ATOM     27  C   UNL     1      -4.285   5.291  -5.906  1.00  0.00     0.063 C 
ATOM     28  C   UNL     1      -2.933   7.181  -6.919  1.00  0.00     0.033 C 
ATOM     29  C   UNL     1      -4.049   6.149  -7.157  1.00  0.00     0.118 C 
BRANCH  29  30
ATOM     30  O   UNL     1      -5.236   6.785  -7.557  1.00  0.00    -0.393 OA
ATOM     31  H   UNL     1      -5.906   6.078  -7.752  1.00  0.00     0.210 HD
ENDBRANCH  29  30
ENDBRANCH   9  11
ENDBRANCH   1   9
TORSDOF 7
ENDMDL
MODEL 8
REMARK VINA RESULT:    -4.611      5.237      8.131
REMARK INTER + INTRA:          -7.816
REMARK INTER:                  -5.962
REMARK INTRA:                  -1.854
REMARK UNBOUND:                -1.453
REMARK SMILES CC[C@H](CC[C@H](C)[C@H]1CC[C@H]2[C@H]3CC=C4C[C@@H](O)CC[C@]4(C)[C@@H]3CC[C@@]12C)C(C)C
REMARK SMILES IDX 5 1 4 2 3 3 2 4 1 5 28 6 29 7 30 8 6 9 7 10 8 11 9 12 26 13
REMARK SMILES IDX 10 14 11 15 25 16 27 17 12 18 24 19 23 20 13 21 21 22 14 23
REMARK SMILES IDX 15 24 20 25 22 26 16 27 19 28 17 29 18 30
REMARK H PARENT 18 31
REMARK Flexibility Score: inf
ROOT
ATOM      1  C   UNL     1      -3.651   4.924  -4.086  1.00  0.00     0.004 C 
ENDROOT
BRANCH   1   2
ATOM      2  C   UNL     1      -4.215   6.351  -4.258  1.00  0.00     0.004 C 
BRANCH   2   3
ATOM      3  C   UNL     1      -3.153   7.489  -4.247  1.00  0.00    -0.009 C 
BRANCH   3   4
ATOM      4  C   UNL     1      -3.106   8.257  -5.603  1.00  0.00     0.000 C 
ATOM      5  C   UNL     1      -1.993   7.843  -6.574  1.00  0.00     0.004 C 
ENDBRANCH   3   4
BRANCH   3   6
ATOM      6  C   UNL     1      -3.184   8.416  -2.983  1.00  0.00    -0.014 C 
ATOM      7  C   UNL     1      -4.148   7.902  -1.898  1.00  0.00     0.007 C 
ATOM      8  C   UNL     1      -1.780   8.551  -2.362  1.00  0.00     0.007 C 
ENDBRANCH   3   6
ENDBRANCH   2   3
ENDBRANCH   1   2
BRANCH   1   9
ATOM      9  C   UNL     1      -2.642   4.493  -5.183  1.00  0.00    -0.011 C 
ATOM     10  C   UNL     1      -3.345   3.669  -6.282  1.00  0.00     0.008 C 
BRANCH   9  11
ATOM     11  C   UNL     1      -1.330   3.866  -4.578  1.00  0.00    -0.002 C 
ATOM     12  C   UNL     1      -1.085   2.371  -4.840  1.00  0.00     0.005 C 
ATOM     13  C   UNL     1       0.013   4.567  -4.928  1.00  0.00    -0.026 C 
ATOM     14  C   UNL     1       0.428   2.163  -4.732  1.00  0.00     0.005 C 
ATOM     15  C   UNL     1       1.043   3.539  -4.409  1.00  0.00    -0.001 C 
ATOM     16  C   UNL     1       0.179   4.766  -6.464  1.00  0.00     0.007 C 
ATOM     17  C   UNL     1       0.144   5.915  -4.174  1.00  0.00     0.012 C 
ATOM     18  C   UNL     1       2.505   3.766  -4.909  1.00  0.00     0.000 C 
ATOM     19  C   UNL     1       1.614   5.114  -6.864  1.00  0.00     0.005 C 
ATOM     20  C   UNL     1       2.610   4.008  -6.431  1.00  0.00     0.003 C 
ATOM     21  C   UNL     1       3.404   2.584  -4.520  1.00  0.00     0.031 C 
ATOM     22  C   UNL     1       4.106   4.279  -6.901  1.00  0.00    -0.008 C 
ATOM     23  C   UNL     1       4.816   2.817  -4.947  1.00  0.00    -0.027 C 
ATOM     24  C   UNL     1       5.144   3.517  -6.052  1.00  0.00    -0.065 C 
ATOM     25  C   UNL     1       4.474   5.797  -6.811  1.00  0.00     0.014 C 
ATOM     26  C   UNL     1       4.224   3.802  -8.373  1.00  0.00     0.016 C 
ATOM     27  C   UNL     1       6.610   3.776  -6.328  1.00  0.00     0.063 C 
ATOM     28  C   UNL     1       5.961   6.108  -7.081  1.00  0.00     0.033 C 
ATOM     29  C   UNL     1       6.891   5.278  -6.180  1.00  0.00     0.118 C 
BRANCH  29  30
ATOM     30  O   UNL     1       8.238   5.563  -6.461  1.00  0.00    -0.393 OA
ATOM     31  H   UNL     1       8.454   5.161  -7.343  1.00  0.00     0.210 HD
ENDBRANCH  29  30
ENDBRANCH   9  11
ENDBRANCH   1   9
TORSDOF 7
ENDMDL
MODEL 9
REMARK VINA RESULT:    -4.595      3.248      6.168
REMARK INTER + INTRA:          -7.793
REMARK INTER:                  -5.760
REMARK INTRA:                  -2.033
REMARK UNBOUND:                -1.453
REMARK SMILES CC[C@H](CC[C@H](C)[C@H]1CC[C@H]2[C@H]3CC=C4C[C@@H](O)CC[C@]4(C)[C@@H]3CC[C@@]12C)C(C)C
REMARK SMILES IDX 5 1 4 2 3 3 2 4 1 5 28 6 29 7 30 8 6 9 7 10 8 11 9 12 26 13
REMARK SMILES IDX 10 14 11 15 25 16 27 17 12 18 24 19 23 20 13 21 21 22 14 23
REMARK SMILES IDX 15 24 20 25 22 26 16 27 19 28 17 29 18 30
REMARK H PARENT 18 31
REMARK Flexibility Score: inf
ROOT
ATOM      1  C   UNL     1       7.445   1.191  -0.922  1.00  0.00     0.004 C 
ENDROOT
BRANCH   1   2
ATOM      2  C   UNL     1       8.232   0.792  -2.189  1.00  0.00     0.004 C 
BRANCH   2   3
ATOM      3  C   UNL     1       7.359   0.339  -3.396  1.00  0.00    -0.009 C 
BRANCH   3   4
ATOM      4  C   UNL     1       6.784   1.551  -4.189  1.00  0.00     0.000 C 
ATOM      5  C   UNL     1       5.264   1.741  -4.122  1.00  0.00     0.004 C 
ENDBRANCH   3   4
BRANCH   3   6
ATOM      6  C   UNL     1       7.996  -0.776  -4.296  1.00  0.00    -0.014 C 
ATOM      7  C   UNL     1       9.126  -1.538  -3.581  1.00  0.00     0.007 C 
ATOM      8  C   UNL     1       6.932  -1.796  -4.748  1.00  0.00     0.007 C 
ENDBRANCH   3   6
ENDBRANCH   2   3
ENDBRANCH   1   2
BRANCH   1   9
ATOM      9  C   UNL     1       7.272   0.050   0.116  1.00  0.00    -0.011 C 
ATOM     10  C   UNL     1       8.273   0.212   1.280  1.00  0.00     0.008 C 
BRANCH   9  11
ATOM     11  C   UNL     1       7.215  -1.371  -0.559  1.00  0.00    -0.002 C 
ATOM     12  C   UNL     1       8.188  -2.436  -0.027  1.00  0.00     0.005 C 
ATOM     13  C   UNL     1       5.829  -2.074  -0.609  1.00  0.00    -0.026 C 
ATOM     14  C   UNL     1       7.553  -3.792  -0.351  1.00  0.00     0.005 C 
ATOM     15  C   UNL     1       6.220  -3.497  -1.065  1.00  0.00    -0.001 C 
ATOM     16  C   UNL     1       5.155  -2.125   0.795  1.00  0.00     0.007 C 
ATOM     17  C   UNL     1       4.902  -1.391  -1.647  1.00  0.00     0.012 C 
ATOM     18  C   UNL     1       5.101  -4.573  -0.889  1.00  0.00     0.000 C 
ATOM     19  C   UNL     1       3.983  -3.107   0.853  1.00  0.00     0.005 C 
ATOM     20  C   UNL     1       4.430  -4.549   0.501  1.00  0.00     0.003 C 
ATOM     21  C   UNL     1       5.649  -5.979  -1.165  1.00  0.00     0.031 C 
ATOM     22  C   UNL     1       3.267  -5.626   0.634  1.00  0.00    -0.008 C 
ATOM     23  C   UNL     1       4.573  -7.009  -1.052  1.00  0.00    -0.027 C 
ATOM     24  C   UNL     1       3.534  -6.896  -0.199  1.00  0.00    -0.065 C 
ATOM     25  C   UNL     1       1.892  -5.053   0.155  1.00  0.00     0.014 C 
ATOM     26  C   UNL     1       3.170  -6.025   2.130  1.00  0.00     0.016 C 
ATOM     27  C   UNL     1       2.450  -7.952  -0.246  1.00  0.00     0.063 C 
ATOM     28  C   UNL     1       0.756  -6.095   0.087  1.00  0.00     0.033 C 
ATOM     29  C   UNL     1       1.151  -7.316  -0.761  1.00  0.00     0.118 C 
BRANCH  29  30
ATOM     30  O   UNL     1       0.110  -8.259  -0.789  1.00  0.00    -0.393 OA
ATOM     31  H   UNL     1      -0.444  -8.073  -1.591  1.00  0.00     0.210 HD
ENDBRANCH  29  30
ENDBRANCH   9  11
ENDBRANCH   1   9
TORSDOF 7
ENDMDL
