MODEL 1
REMARK VINA RESULT:    -3.218      0.000      0.000
REMARK INTER + INTRA:          -4.986
REMARK INTER:                  -4.347
REMARK INTRA:                  -0.639
REMARK UNBOUND:                -0.639
REMARK SMILES O=C[C@@H](O)[C@H](O)[C@H](O)CO
REMARK SMILES IDX 7 1 9 2 10 3 5 5 3 6 2 7 1 8 4 9 6 11 8 13
REMARK H PARENT 10 4 4 10 6 12 8 14
REMARK Flexibility Score: inf
ROOT
ATOM      1  C   UNL     1       1.558  60.129  -7.066  1.00  0.00     0.171 C 
ENDROOT
BRANCH   1   2
ATOM      2  C   UNL     1       1.817  60.078  -8.584  1.00  0.00     0.190 C 
BRANCH   2   3
ATOM      3  O   UNL     1       1.035  61.021  -9.269  1.00  0.00    -0.394 OA
ATOM      4  H   UNL     1       0.227  61.182  -8.714  1.00  0.00     0.210 HD
ENDBRANCH   2   3
ENDBRANCH   1   2
BRANCH   1   5
ATOM      5  C   UNL     1       2.059  61.454  -6.422  1.00  0.00     0.181 C 
BRANCH   5   6
ATOM      6  C   UNL     1       1.764  61.513  -4.900  1.00  0.00     0.209 C 
BRANCH   6   7
ATOM      7  C   UNL     1       1.164  62.837  -4.497  1.00  0.00     0.258 C 
ATOM      8  O   UNL     1      -0.034  63.032  -4.632  1.00  0.00    -0.300 OA
ENDBRANCH   6   7
BRANCH   6   9
ATOM      9  O   UNL     1       0.940  60.446  -4.494  1.00  0.00    -0.383 OA
ATOM     10  H   UNL     1       0.657  60.617  -3.558  1.00  0.00     0.211 HD
ENDBRANCH   6   9
ENDBRANCH   5   6
BRANCH   5  11
ATOM     11  O   UNL     1       1.524  62.577  -7.082  1.00  0.00    -0.387 OA
ATOM     12  H   UNL     1       2.126  62.807  -7.835  1.00  0.00     0.211 HD
ENDBRANCH   5  11
ENDBRANCH   1   5
BRANCH   1  13
ATOM     13  O   UNL     1       2.125  59.005  -6.437  1.00  0.00    -0.388 OA
ATOM     14  H   UNL     1       3.110  59.129  -6.425  1.00  0.00     0.211 HD
ENDBRANCH   1  13
TORSDOF 8
ENDMDL
MODEL 2
REMARK VINA RESULT:    -3.100      1.504      2.216
REMARK INTER + INTRA:          -4.827
REMARK INTER:                  -4.177
REMARK INTRA:                  -0.649
REMARK UNBOUND:                -0.639
REMARK SMILES O=C[C@@H](O)[C@H](O)[C@H](O)CO
REMARK SMILES IDX 7 1 9 2 10 3 5 5 3 6 2 7 1 8 4 9 6 11 8 13
REMARK H PARENT 10 4 4 10 6 12 8 14
REMARK Flexibility Score: inf
ROOT
ATOM      1  C   UNL     1       0.924  61.053  -5.744  1.00  0.00     0.171 C 
ENDROOT
BRANCH   1   2
ATOM      2  C   UNL     1       1.434  59.988  -6.734  1.00  0.00     0.190 C 
BRANCH   2   3
ATOM      3  O   UNL     1       1.009  60.261  -8.043  1.00  0.00    -0.394 OA
ATOM      4  H   UNL     1       1.797  60.131  -8.635  1.00  0.00     0.210 HD
ENDBRANCH   2   3
ENDBRANCH   1   2
BRANCH   1   5
ATOM      5  C   UNL     1       1.601  62.437  -5.958  1.00  0.00     0.181 C 
BRANCH   5   6
ATOM      6  C   UNL     1       0.944  63.549  -5.100  1.00  0.00     0.209 C 
BRANCH   6   7
ATOM      7  C   UNL     1       0.795  64.837  -5.871  1.00  0.00     0.258 C 
ATOM      8  O   UNL     1       1.754  65.578  -6.014  1.00  0.00    -0.300 OA
ENDBRANCH   6   7
BRANCH   6   9
ATOM      9  O   UNL     1      -0.295  63.132  -4.577  1.00  0.00    -0.383 OA
ATOM     10  H   UNL     1      -0.946  63.094  -5.325  1.00  0.00     0.211 HD
ENDBRANCH   6   9
ENDBRANCH   5   6
BRANCH   5  11
ATOM     11  O   UNL     1       1.613  62.795  -7.320  1.00  0.00    -0.387 OA
ATOM     12  H   UNL     1       1.519  63.780  -7.379  1.00  0.00     0.211 HD
ENDBRANCH   5  11
ENDBRANCH   1   5
BRANCH   1  13
ATOM     13  O   UNL     1       1.082  60.603  -4.420  1.00  0.00    -0.388 OA
ATOM     14  H   UNL     1       0.750  61.317  -3.816  1.00  0.00     0.211 HD
ENDBRANCH   1  13
TORSDOF 8
ENDMDL
MODEL 3
REMARK VINA RESULT:    -3.033      7.991      9.844
REMARK INTER + INTRA:          -4.736
REMARK INTER:                  -4.387
REMARK INTRA:                  -0.349
REMARK UNBOUND:                -0.639
REMARK SMILES O=C[C@@H](O)[C@H](O)[C@H](O)CO
REMARK SMILES IDX 7 1 9 2 10 3 5 5 3 6 2 7 1 8 4 9 6 11 8 13
REMARK H PARENT 10 4 4 10 6 12 8 14
REMARK Flexibility Score: inf
ROOT
ATOM      1  C   UNL     1      -3.498  67.509  -6.396  1.00  0.00     0.171 C 
ENDROOT
BRANCH   1   2
ATOM      2  C   UNL     1      -2.979  68.654  -5.504  1.00  0.00     0.190 C 
BRANCH   2   3
ATOM      3  O   UNL     1      -3.264  68.417  -4.150  1.00  0.00    -0.394 OA
ATOM      4  H   UNL     1      -3.887  67.644  -4.118  1.00  0.00     0.210 HD
ENDBRANCH   2   3
ENDBRANCH   1   2
BRANCH   1   5
ATOM      5  C   UNL     1      -5.052  67.419  -6.403  1.00  0.00     0.181 C 
BRANCH   5   6
ATOM      6  C   UNL     1      -5.717  68.812  -6.556  1.00  0.00     0.209 C 
BRANCH   6   7
ATOM      7  C   UNL     1      -6.272  69.017  -7.944  1.00  0.00     0.258 C 
ATOM      8  O   UNL     1      -7.360  68.552  -8.242  1.00  0.00    -0.300 OA
ENDBRANCH   6   7
BRANCH   6   9
ATOM      9  O   UNL     1      -6.714  69.017  -5.583  1.00  0.00    -0.383 OA
ATOM     10  H   UNL     1      -7.034  68.127  -5.280  1.00  0.00     0.211 HD
ENDBRANCH   6   9
ENDBRANCH   5   6
BRANCH   5  11
ATOM     11  O   UNL     1      -5.531  66.757  -5.256  1.00  0.00    -0.387 OA
ATOM     12  H   UNL     1      -5.521  67.402  -4.503  1.00  0.00     0.211 HD
ENDBRANCH   5  11
ENDBRANCH   1   5
BRANCH   1  13
ATOM     13  O   UNL     1      -2.914  66.288  -6.010  1.00  0.00    -0.388 OA
ATOM     14  H   UNL     1      -3.509  65.867  -5.336  1.00  0.00     0.211 HD
ENDBRANCH   1  13
TORSDOF 8
ENDMDL
MODEL 4
REMARK VINA RESULT:    -3.011      7.397      8.936
REMARK INTER + INTRA:          -4.707
REMARK INTER:                  -4.038
REMARK INTRA:                  -0.668
REMARK UNBOUND:                -0.639
REMARK SMILES O=C[C@@H](O)[C@H](O)[C@H](O)CO
REMARK SMILES IDX 7 1 9 2 10 3 5 5 3 6 2 7 1 8 4 9 6 11 8 13
REMARK H PARENT 10 4 4 10 6 12 8 14
REMARK Flexibility Score: inf
ROOT
ATOM      1  C   UNL     1      -2.364  67.955  -6.113  1.00  0.00     0.171 C 
ENDROOT
BRANCH   1   2
ATOM      2  C   UNL     1      -1.595  69.125  -5.467  1.00  0.00     0.190 C 
BRANCH   2   3
ATOM      3  O   UNL     1      -1.694  69.090  -4.068  1.00  0.00    -0.394 OA
ATOM      4  H   UNL     1      -1.230  68.265  -3.766  1.00  0.00     0.210 HD
ENDBRANCH   2   3
ENDBRANCH   1   2
BRANCH   1   5
ATOM      5  C   UNL     1      -3.719  67.670  -5.402  1.00  0.00     0.181 C 
BRANCH   5   6
ATOM      6  C   UNL     1      -4.720  66.932  -6.328  1.00  0.00     0.209 C 
BRANCH   6   7
ATOM      7  C   UNL     1      -5.732  67.878  -6.925  1.00  0.00     0.258 C 
ATOM      8  O   UNL     1      -6.798  68.068  -6.361  1.00  0.00    -0.300 OA
ENDBRANCH   6   7
BRANCH   6   9
ATOM      9  O   UNL     1      -4.055  66.209  -7.336  1.00  0.00    -0.383 OA
ATOM     10  H   UNL     1      -3.567  65.459  -6.905  1.00  0.00     0.211 HD
ENDBRANCH   6   9
ENDBRANCH   5   6
BRANCH   5  11
ATOM     11  O   UNL     1      -4.286  68.852  -4.889  1.00  0.00    -0.387 OA
ATOM     12  H   UNL     1      -3.800  69.090  -4.058  1.00  0.00     0.211 HD
ENDBRANCH   5  11
ENDBRANCH   1   5
BRANCH   1  13
ATOM     13  O   UNL     1      -1.554  66.805  -6.157  1.00  0.00    -0.388 OA
ATOM     14  H   UNL     1      -1.273  66.669  -7.099  1.00  0.00     0.211 HD
ENDBRANCH   1  13
TORSDOF 8
ENDMDL
MODEL 5
REMARK VINA RESULT:    -3.007      7.817      9.627
REMARK INTER + INTRA:          -4.701
REMARK INTER:                  -4.378
REMARK INTRA:                  -0.323
REMARK UNBOUND:                -0.639
REMARK SMILES O=C[C@@H](O)[C@H](O)[C@H](O)CO
REMARK SMILES IDX 7 1 9 2 10 3 5 5 3 6 2 7 1 8 4 9 6 11 8 13
REMARK H PARENT 10 4 4 10 6 12 8 14
REMARK Flexibility Score: inf
ROOT
ATOM      1  C   UNL     1      -3.400  67.644  -5.251  1.00  0.00     0.171 C 
ENDROOT
BRANCH   1   2
ATOM      2  C   UNL     1      -2.229  67.827  -6.237  1.00  0.00     0.190 C 
BRANCH   2   3
ATOM      3  O   UNL     1      -2.509  67.236  -7.478  1.00  0.00    -0.394 OA
ATOM      4  H   UNL     1      -3.396  66.796  -7.395  1.00  0.00     0.210 HD
ENDBRANCH   2   3
ENDBRANCH   1   2
BRANCH   1   5
ATOM      5  C   UNL     1      -4.759  67.425  -5.977  1.00  0.00     0.181 C 
BRANCH   5   6
ATOM      6  C   UNL     1      -5.536  68.753  -6.177  1.00  0.00     0.209 C 
BRANCH   6   7
ATOM      7  C   UNL     1      -6.117  68.858  -7.565  1.00  0.00     0.258 C 
ATOM      8  O   UNL     1      -7.241  68.438  -7.791  1.00  0.00    -0.300 OA
ENDBRANCH   6   7
BRANCH   6   9
ATOM      9  O   UNL     1      -6.538  68.916  -5.202  1.00  0.00    -0.383 OA
ATOM     10  H   UNL     1      -6.363  68.267  -4.471  1.00  0.00     0.211 HD
ENDBRANCH   6   9
ENDBRANCH   5   6
BRANCH   5  11
ATOM     11  O   UNL     1      -5.551  66.476  -5.303  1.00  0.00    -0.387 OA
ATOM     12  H   UNL     1      -5.561  65.645  -5.844  1.00  0.00     0.211 HD
ENDBRANCH   5  11
ENDBRANCH   1   5
BRANCH   1  13
ATOM     13  O   UNL     1      -3.462  68.732  -4.361  1.00  0.00    -0.388 OA
ATOM     14  H   UNL     1      -2.559  69.144  -4.323  1.00  0.00     0.211 HD
ENDBRANCH   1  13
TORSDOF 8
ENDMDL
MODEL 6
REMARK VINA RESULT:    -2.953      7.645      8.854
REMARK INTER + INTRA:          -4.629
REMARK INTER:                  -4.078
REMARK INTRA:                  -0.551
REMARK UNBOUND:                -0.639
REMARK SMILES O=C[C@@H](O)[C@H](O)[C@H](O)CO
REMARK SMILES IDX 7 1 9 2 10 3 5 5 3 6 2 7 1 8 4 9 6 11 8 13
REMARK H PARENT 10 4 4 10 6 12 8 14
REMARK Flexibility Score: inf
ROOT
ATOM      1  C   UNL     1      -4.427  66.707  -5.842  1.00  0.00     0.171 C 
ENDROOT
BRANCH   1   2
ATOM      2  C   UNL     1      -5.869  67.229  -5.990  1.00  0.00     0.190 C 
BRANCH   2   3
ATOM      3  O   UNL     1      -6.096  68.347  -5.172  1.00  0.00    -0.394 OA
ATOM      4  H   UNL     1      -6.324  68.001  -4.269  1.00  0.00     0.210 HD
ENDBRANCH   2   3
ENDBRANCH   1   2
BRANCH   1   5
ATOM      5  C   UNL     1      -3.427  67.450  -6.775  1.00  0.00     0.181 C 
BRANCH   5   6
ATOM      6  C   UNL     1      -3.928  67.506  -8.242  1.00  0.00     0.209 C 
BRANCH   6   7
ATOM      7  C   UNL     1      -3.167  68.524  -9.054  1.00  0.00     0.258 C 
ATOM      8  O   UNL     1      -2.228  69.125  -8.557  1.00  0.00    -0.300 OA
ENDBRANCH   6   7
BRANCH   6   9
ATOM      9  O   UNL     1      -3.876  66.238  -8.853  1.00  0.00    -0.383 OA
ATOM     10  H   UNL     1      -4.754  66.070  -9.284  1.00  0.00     0.211 HD
ENDBRANCH   6   9
ENDBRANCH   5   6
BRANCH   5  11
ATOM     11  O   UNL     1      -2.141  66.879  -6.704  1.00  0.00    -0.387 OA
ATOM     12  H   UNL     1      -1.525  67.445  -7.236  1.00  0.00     0.211 HD
ENDBRANCH   5  11
ENDBRANCH   1   5
BRANCH   1  13
ATOM     13  O   UNL     1      -4.388  65.316  -6.049  1.00  0.00    -0.388 OA
ATOM     14  H   UNL     1      -3.436  65.038  -6.059  1.00  0.00     0.211 HD
ENDBRANCH   1  13
TORSDOF 8
ENDMDL
MODEL 7
REMARK VINA RESULT:    -2.912      7.262      8.970
REMARK INTER + INTRA:          -4.573
REMARK INTER:                  -4.048
REMARK INTRA:                  -0.526
REMARK UNBOUND:                -0.639
REMARK SMILES O=C[C@@H](O)[C@H](O)[C@H](O)CO
REMARK SMILES IDX 7 1 9 2 10 3 5 5 3 6 2 7 1 8 4 9 6 11 8 13
REMARK H PARENT 10 4 4 10 6 12 8 14
REMARK Flexibility Score: inf
ROOT
ATOM      1  C   UNL     1      -5.346  68.041  -5.906  1.00  0.00     0.171 C 
ENDROOT
BRANCH   1   2
ATOM      2  C   UNL     1      -5.775  68.039  -7.386  1.00  0.00     0.190 C 
BRANCH   2   3
ATOM      3  O   UNL     1      -7.121  68.412  -7.529  1.00  0.00    -0.394 OA
ATOM      4  H   UNL     1      -7.617  67.997  -6.776  1.00  0.00     0.210 HD
ENDBRANCH   2   3
ENDBRANCH   1   2
BRANCH   1   5
ATOM      5  C   UNL     1      -3.838  68.376  -5.725  1.00  0.00     0.181 C 
BRANCH   5   6
ATOM      6  C   UNL     1      -2.925  67.433  -6.552  1.00  0.00     0.209 C 
BRANCH   6   7
ATOM      7  C   UNL     1      -1.507  67.942  -6.618  1.00  0.00     0.258 C 
ATOM      8  O   UNL     1      -0.855  68.068  -5.594  1.00  0.00    -0.300 OA
ENDBRANCH   6   7
BRANCH   6   9
ATOM      9  O   UNL     1      -2.962  66.116  -6.057  1.00  0.00    -0.383 OA
ATOM     10  H   UNL     1      -2.114  65.948  -5.568  1.00  0.00     0.211 HD
ENDBRANCH   6   9
ENDBRANCH   5   6
BRANCH   5  11
ATOM     11  O   UNL     1      -3.471  68.364  -4.365  1.00  0.00    -0.387 OA
ATOM     12  H   UNL     1      -4.288  68.194  -3.829  1.00  0.00     0.211 HD
ENDBRANCH   5  11
ENDBRANCH   1   5
BRANCH   1  13
ATOM     13  O   UNL     1      -5.677  66.813  -5.302  1.00  0.00    -0.388 OA
ATOM     14  H   UNL     1      -6.050  66.220  -6.005  1.00  0.00     0.211 HD
ENDBRANCH   1  13
TORSDOF 8
ENDMDL
