MODEL 1
REMARK VINA RESULT:    -3.367      0.000      0.000
REMARK INTER + INTRA:          -4.577
REMARK INTER:                  -4.351
REMARK INTRA:                  -0.225
REMARK UNBOUND:                -0.225
REMARK SMILES CCCCCCC(=O)[O-]
REMARK SMILES IDX 5 1 6 2 7 3 8 4 9 5 4 6 3 7 2 8 1 9
REMARK H PARENT
REMARK Flexibility Score: inf
ROOT
ATOM      1  C   UNL     1      -5.138 -66.161  -1.144  1.00  0.00     0.006 C 
ENDROOT
BRANCH   1   2
ATOM      2  C   UNL     1      -5.225 -67.217  -2.254  1.00  0.00     0.053 C 
BRANCH   2   3
ATOM      3  C   UNL     1      -4.310 -66.898  -3.398  1.00  0.00     0.041 C 
ATOM      4  O   UNL     1      -4.227 -67.682  -4.379  1.00  0.00    -0.550 OA
ATOM      5  O   UNL     1      -3.577 -65.718  -3.395  1.00  0.00    -0.550 OA
ENDBRANCH   2   3
ENDBRANCH   1   2
BRANCH   1   6
ATOM      6  C   UNL     1      -6.475 -65.439  -0.922  1.00  0.00     0.000 C 
BRANCH   6   7
ATOM      7  C   UNL     1      -7.428 -66.295  -0.078  1.00  0.00    -0.000 C 
BRANCH   7   8
ATOM      8  C   UNL     1      -8.775 -66.478  -0.786  1.00  0.00    -0.003 C 
ATOM      9  C   UNL     1      -9.203 -67.943  -0.786  1.00  0.00     0.004 C 
ENDBRANCH   7   8
ENDBRANCH   6   7
ENDBRANCH   1   6
TORSDOF 5
ENDMDL
MODEL 2
REMARK VINA RESULT:    -3.245      3.250      4.774
REMARK INTER + INTRA:          -4.419
REMARK INTER:                  -4.243
REMARK INTRA:                  -0.176
REMARK UNBOUND:                -0.225
REMARK SMILES CCCCCCC(=O)[O-]
REMARK SMILES IDX 5 1 6 2 7 3 8 4 9 5 4 6 3 7 2 8 1 9
REMARK H PARENT
REMARK Flexibility Score: inf
ROOT
ATOM      1  C   UNL     1      -6.725 -65.827  -0.497  1.00  0.00     0.006 C 
ENDROOT
BRANCH   1   2
ATOM      2  C   UNL     1      -7.550 -66.976  -1.094  1.00  0.00     0.053 C 
BRANCH   2   3
ATOM      3  C   UNL     1      -8.906 -67.071  -0.465  1.00  0.00     0.041 C 
ATOM      4  O   UNL     1      -9.667 -68.035  -0.743  1.00  0.00    -0.550 OA
ATOM      5  O   UNL     1      -9.317 -66.114   0.454  1.00  0.00    -0.550 OA
ENDBRANCH   2   3
ENDBRANCH   1   2
BRANCH   1   6
ATOM      6  C   UNL     1      -5.261 -65.860  -0.961  1.00  0.00     0.000 C 
BRANCH   6   7
ATOM      7  C   UNL     1      -5.046 -66.946  -2.024  1.00  0.00    -0.000 C 
BRANCH   7   8
ATOM      8  C   UNL     1      -4.392 -66.363  -3.281  1.00  0.00    -0.003 C 
ATOM      9  C   UNL     1      -4.246 -67.423  -4.369  1.00  0.00     0.004 C 
ENDBRANCH   7   8
ENDBRANCH   6   7
ENDBRANCH   1   6
TORSDOF 5
ENDMDL
MODEL 3
REMARK VINA RESULT:    -3.242      9.880     11.433
REMARK INTER + INTRA:          -4.414
REMARK INTER:                  -4.218
REMARK INTRA:                  -0.196
REMARK UNBOUND:                -0.225
REMARK SMILES CCCCCCC(=O)[O-]
REMARK SMILES IDX 5 1 6 2 7 3 8 4 9 5 4 6 3 7 2 8 1 9
REMARK H PARENT
REMARK Flexibility Score: inf
ROOT
ATOM      1  C   UNL     1     -10.110 -72.522   5.568  1.00  0.00     0.006 C 
ENDROOT
BRANCH   1   2
ATOM      2  C   UNL     1     -11.407 -73.218   5.131  1.00  0.00     0.053 C 
BRANCH   2   3
ATOM      3  C   UNL     1     -12.574 -72.799   5.973  1.00  0.00     0.041 C 
ATOM      4  O   UNL     1     -13.467 -73.633   6.276  1.00  0.00    -0.550 OA
ATOM      5  O   UNL     1     -12.656 -71.497   6.451  1.00  0.00    -0.550 OA
ENDBRANCH   2   3
ENDBRANCH   1   2
BRANCH   1   6
ATOM      6  C   UNL     1      -8.990 -73.524   5.885  1.00  0.00     0.000 C 
BRANCH   6   7
ATOM      7  C   UNL     1      -7.955 -73.567   4.754  1.00  0.00    -0.000 C 
BRANCH   7   8
ATOM      8  C   UNL     1      -7.837 -72.202   4.065  1.00  0.00    -0.003 C 
ATOM      9  C   UNL     1      -6.663 -71.404   4.623  1.00  0.00     0.004 C 
ENDBRANCH   7   8
ENDBRANCH   6   7
ENDBRANCH   1   6
TORSDOF 5
ENDMDL
MODEL 4
REMARK VINA RESULT:    -3.237      0.546      1.241
REMARK INTER + INTRA:          -4.409
REMARK INTER:                  -4.160
REMARK INTRA:                  -0.249
REMARK UNBOUND:                -0.225
REMARK SMILES CCCCCCC(=O)[O-]
REMARK SMILES IDX 5 1 6 2 7 3 8 4 9 5 4 6 3 7 2 8 1 9
REMARK H PARENT
REMARK Flexibility Score: inf
ROOT
ATOM      1  C   UNL     1      -5.156 -66.119  -1.218  1.00  0.00     0.006 C 
ENDROOT
BRANCH   1   2
ATOM      2  C   UNL     1      -5.157 -67.247  -2.259  1.00  0.00     0.053 C 
BRANCH   2   3
ATOM      3  C   UNL     1      -4.328 -66.899  -3.458  1.00  0.00     0.041 C 
ATOM      4  O   UNL     1      -3.656 -65.835  -3.475  1.00  0.00    -0.550 OA
ATOM      5  O   UNL     1      -4.272 -67.767  -4.541  1.00  0.00    -0.550 OA
ENDBRANCH   2   3
ENDBRANCH   1   2
BRANCH   1   6
ATOM      6  C   UNL     1      -6.553 -65.513  -1.016  1.00  0.00     0.000 C 
BRANCH   6   7
ATOM      7  C   UNL     1      -7.033 -65.709   0.427  1.00  0.00    -0.000 C 
BRANCH   7   8
ATOM      8  C   UNL     1      -8.445 -66.303   0.461  1.00  0.00    -0.003 C 
ATOM      9  C   UNL     1      -8.702 -67.182  -0.760  1.00  0.00     0.004 C 
ENDBRANCH   7   8
ENDBRANCH   6   7
ENDBRANCH   1   6
TORSDOF 5
ENDMDL
MODEL 5
REMARK VINA RESULT:    -3.173      1.426      1.929
REMARK INTER + INTRA:          -4.325
REMARK INTER:                  -4.043
REMARK INTRA:                  -0.283
REMARK UNBOUND:                -0.225
REMARK SMILES CCCCCCC(=O)[O-]
REMARK SMILES IDX 5 1 6 2 7 3 8 4 9 5 4 6 3 7 2 8 1 9
REMARK H PARENT
REMARK Flexibility Score: inf
ROOT
ATOM      1  C   UNL     1      -6.957 -65.194  -0.185  1.00  0.00     0.006 C 
ENDROOT
BRANCH   1   2
ATOM      2  C   UNL     1      -5.462 -65.484  -0.377  1.00  0.00     0.053 C 
BRANCH   2   3
ATOM      3  C   UNL     1      -5.173 -66.037  -1.739  1.00  0.00     0.041 C 
ATOM      4  O   UNL     1      -5.405 -67.247  -1.994  1.00  0.00    -0.550 OA
ATOM      5  O   UNL     1      -4.679 -65.206  -2.738  1.00  0.00    -0.550 OA
ENDBRANCH   2   3
ENDBRANCH   1   2
BRANCH   1   6
ATOM      6  C   UNL     1      -7.513 -65.831   1.097  1.00  0.00     0.000 C 
BRANCH   6   7
ATOM      7  C   UNL     1      -8.638 -66.823   0.773  1.00  0.00    -0.000 C 
BRANCH   7   8
ATOM      8  C   UNL     1      -8.809 -66.986  -0.741  1.00  0.00    -0.003 C 
ATOM      9  C   UNL     1      -9.211 -68.413  -1.100  1.00  0.00     0.004 C 
ENDBRANCH   7   8
ENDBRANCH   6   7
ENDBRANCH   1   6
TORSDOF 5
ENDMDL
MODEL 6
REMARK VINA RESULT:    -3.122      2.906      4.564
REMARK INTER + INTRA:          -4.260
REMARK INTER:                  -4.058
REMARK INTRA:                  -0.202
REMARK UNBOUND:                -0.225
REMARK SMILES CCCCCCC(=O)[O-]
REMARK SMILES IDX 5 1 6 2 7 3 8 4 9 5 4 6 3 7 2 8 1 9
REMARK H PARENT
REMARK Flexibility Score: inf
ROOT
ATOM      1  C   UNL     1      -5.990 -65.387   0.019  1.00  0.00     0.006 C 
ENDROOT
BRANCH   1   2
ATOM      2  C   UNL     1      -7.283 -65.931  -0.606  1.00  0.00     0.053 C 
BRANCH   2   3
ATOM      3  C   UNL     1      -8.267 -64.837  -0.887  1.00  0.00     0.041 C 
ATOM      4  O   UNL     1      -9.375 -64.813  -0.289  1.00  0.00    -0.550 OA
ATOM      5  O   UNL     1      -7.947 -63.824  -1.783  1.00  0.00    -0.550 OA
ENDBRANCH   2   3
ENDBRANCH   1   2
BRANCH   1   6
ATOM      6  C   UNL     1      -4.739 -65.835  -0.752  1.00  0.00     0.000 C 
BRANCH   6   7
ATOM      7  C   UNL     1      -5.116 -66.744  -1.929  1.00  0.00    -0.000 C 
BRANCH   7   8
ATOM      8  C   UNL     1      -4.356 -66.342  -3.198  1.00  0.00    -0.003 C 
ATOM      9  C   UNL     1      -4.332 -67.483  -4.211  1.00  0.00     0.004 C 
ENDBRANCH   7   8
ENDBRANCH   6   7
ENDBRANCH   1   6
TORSDOF 5
ENDMDL
MODEL 7
REMARK VINA RESULT:    -3.017      9.120     10.068
REMARK INTER + INTRA:          -4.124
REMARK INTER:                  -3.898
REMARK INTRA:                  -0.225
REMARK UNBOUND:                -0.225
REMARK SMILES CCCCCCC(=O)[O-]
REMARK SMILES IDX 5 1 6 2 7 3 8 4 9 5 4 6 3 7 2 8 1 9
REMARK H PARENT
REMARK Flexibility Score: inf
ROOT
ATOM      1  C   UNL     1      -8.980 -71.607   4.725  1.00  0.00     0.006 C 
ENDROOT
BRANCH   1   2
ATOM      2  C   UNL     1      -8.476 -72.715   3.791  1.00  0.00     0.053 C 
BRANCH   2   3
ATOM      3  C   UNL     1      -7.453 -73.583   4.458  1.00  0.00     0.041 C 
ATOM      4  O   UNL     1      -7.509 -74.835   4.336  1.00  0.00    -0.550 OA
ATOM      5  O   UNL     1      -6.419 -73.007   5.185  1.00  0.00    -0.550 OA
ENDBRANCH   2   3
ENDBRANCH   1   2
BRANCH   1   6
ATOM      6  C   UNL     1     -10.042 -72.115   5.712  1.00  0.00     0.000 C 
BRANCH   6   7
ATOM      7  C   UNL     1     -11.032 -73.057   5.015  1.00  0.00    -0.000 C 
BRANCH   7   8
ATOM      8  C   UNL     1     -12.307 -73.227   5.848  1.00  0.00    -0.003 C 
ATOM      9  C   UNL     1     -12.849 -71.877   6.309  1.00  0.00     0.004 C 
ENDBRANCH   7   8
ENDBRANCH   6   7
ENDBRANCH   1   6
TORSDOF 5
ENDMDL
MODEL 8
REMARK VINA RESULT:    -2.963      1.246      1.763
REMARK INTER + INTRA:          -4.054
REMARK INTER:                  -3.836
REMARK INTRA:                  -0.218
REMARK UNBOUND:                -0.225
REMARK SMILES CCCCCCC(=O)[O-]
REMARK SMILES IDX 5 1 6 2 7 3 8 4 9 5 4 6 3 7 2 8 1 9
REMARK H PARENT
REMARK Flexibility Score: inf
ROOT
ATOM      1  C   UNL     1      -6.568 -65.714  -1.116  1.00  0.00     0.006 C 
ENDROOT
BRANCH   1   2
ATOM      2  C   UNL     1      -5.099 -66.159  -1.132  1.00  0.00     0.053 C 
BRANCH   2   3
ATOM      3  C   UNL     1      -4.621 -66.449  -2.522  1.00  0.00     0.041 C 
ATOM      4  O   UNL     1      -4.845 -67.570  -3.047  1.00  0.00    -0.550 OA
ATOM      5  O   UNL     1      -3.959 -65.467  -3.250  1.00  0.00    -0.550 OA
ENDBRANCH   2   3
ENDBRANCH   1   2
BRANCH   1   6
ATOM      6  C   UNL     1      -7.523 -66.870  -0.782  1.00  0.00     0.000 C 
BRANCH   6   7
ATOM      7  C   UNL     1      -8.911 -66.342  -0.398  1.00  0.00    -0.000 C 
BRANCH   7   8
ATOM      8  C   UNL     1      -8.869 -65.616   0.951  1.00  0.00    -0.003 C 
ATOM      9  C   UNL     1      -8.472 -66.567   2.077  1.00  0.00     0.004 C 
ENDBRANCH   7   8
ENDBRANCH   6   7
ENDBRANCH   1   6
TORSDOF 5
ENDMDL
MODEL 9
REMARK VINA RESULT:    -2.950      2.391      2.840
REMARK INTER + INTRA:          -4.038
REMARK INTER:                  -3.833
REMARK INTRA:                  -0.204
REMARK UNBOUND:                -0.225
REMARK SMILES CCCCCCC(=O)[O-]
REMARK SMILES IDX 5 1 6 2 7 3 8 4 9 5 4 6 3 7 2 8 1 9
REMARK H PARENT
REMARK Flexibility Score: inf
ROOT
ATOM      1  C   UNL     1      -6.654 -65.511  -0.624  1.00  0.00     0.006 C 
ENDROOT
BRANCH   1   2
ATOM      2  C   UNL     1      -5.148 -65.810  -0.615  1.00  0.00     0.053 C 
BRANCH   2   3
ATOM      3  C   UNL     1      -4.336 -64.570  -0.401  1.00  0.00     0.041 C 
ATOM      4  O   UNL     1      -3.091 -64.587  -0.590  1.00  0.00    -0.550 OA
ATOM      5  O   UNL     1      -4.958 -63.385  -0.027  1.00  0.00    -0.550 OA
ENDBRANCH   2   3
ENDBRANCH   1   2
BRANCH   1   6
ATOM      6  C   UNL     1      -7.326 -65.871   0.709  1.00  0.00     0.000 C 
BRANCH   6   7
ATOM      7  C   UNL     1      -8.600 -66.695   0.476  1.00  0.00    -0.000 C 
BRANCH   7   8
ATOM      8  C   UNL     1      -8.614 -67.298  -0.933  1.00  0.00    -0.003 C 
ATOM      9  C   UNL     1      -9.394 -68.609  -0.963  1.00  0.00     0.004 C 
ENDBRANCH   7   8
ENDBRANCH   6   7
ENDBRANCH   1   6
TORSDOF 5
ENDMDL
