MODEL 1
REMARK VINA RESULT:    -3.998      0.000      0.000
REMARK INTER + INTRA:          -4.251
REMARK INTER:                  -4.232
REMARK INTRA:                  -0.020
REMARK UNBOUND:                -0.020
REMARK SMILES O=C([O-])c1cccnc1
REMARK SMILES IDX 4 1 5 2 9 3 6 4 8 5 7 6 2 7 1 8 3 9
REMARK H PARENT
REMARK Flexibility Score: inf
ROOT
ATOM      1  C   UNL     1       5.654   8.304  -1.763  1.00  0.00     0.016 A 
ATOM      2  C   UNL     1       4.998   9.449  -2.245  1.00  0.00     0.013 A 
ATOM      3  C   UNL     1       4.914   7.115  -1.633  1.00  0.00     0.120 A 
ATOM      4  C   UNL     1       3.646   9.391  -2.584  1.00  0.00     0.021 A 
ATOM      5  N   UNL     1       3.597   7.087  -1.971  1.00  0.00    -0.264 NA
ATOM      6  C   UNL     1       2.953   8.188  -2.438  1.00  0.00     0.111 A 
ENDROOT
BRANCH   1   7
ATOM      7  C   UNL     1       7.087   8.352  -1.401  1.00  0.00     0.073 C 
ATOM      8  O   UNL     1       7.537   9.290  -0.689  1.00  0.00    -0.545 OA
ATOM      9  O   UNL     1       7.958   7.361  -1.840  1.00  0.00    -0.545 OA
ENDBRANCH   1   7
TORSDOF 1
ENDMDL
MODEL 2
REMARK VINA RESULT:    -3.994      3.168      3.712
REMARK INTER + INTRA:          -4.248
REMARK INTER:                  -4.231
REMARK INTRA:                  -0.016
REMARK UNBOUND:                -0.020
REMARK SMILES O=C([O-])c1cccnc1
REMARK SMILES IDX 4 1 5 2 9 3 6 4 8 5 7 6 2 7 1 8 3 9
REMARK H PARENT
REMARK Flexibility Score: inf
ROOT
ATOM      1  C   UNL     1       4.624   7.668  -2.949  1.00  0.00     0.016 A 
ATOM      2  C   UNL     1       5.014   7.616  -4.298  1.00  0.00     0.013 A 
ATOM      3  C   UNL     1       5.363   6.925  -2.011  1.00  0.00     0.120 A 
ATOM      4  C   UNL     1       6.110   6.842  -4.681  1.00  0.00     0.021 A 
ATOM      5  N   UNL     1       6.427   6.179  -2.412  1.00  0.00    -0.264 NA
ATOM      6  C   UNL     1       6.812   6.121  -3.713  1.00  0.00     0.111 A 
ENDROOT
BRANCH   1   7
ATOM      7  C   UNL     1       3.465   8.485  -2.531  1.00  0.00     0.073 C 
ATOM      8  O   UNL     1       3.574   9.733  -2.400  1.00  0.00    -0.545 OA
ATOM      9  O   UNL     1       2.237   7.886  -2.276  1.00  0.00    -0.545 OA
ENDBRANCH   1   7
TORSDOF 1
ENDMDL
MODEL 3
REMARK VINA RESULT:    -3.911      2.938      3.983
REMARK INTER + INTRA:          -4.159
REMARK INTER:                  -4.138
REMARK INTRA:                  -0.021
REMARK UNBOUND:                -0.020
REMARK SMILES O=C([O-])c1cccnc1
REMARK SMILES IDX 4 1 5 2 9 3 6 4 8 5 7 6 2 7 1 8 3 9
REMARK H PARENT
REMARK Flexibility Score: inf
ROOT
ATOM      1  C   UNL     1       4.785   8.569  -2.307  1.00  0.00     0.016 A 
ATOM      2  C   UNL     1       5.665   8.052  -1.343  1.00  0.00     0.013 A 
ATOM      3  C   UNL     1       5.310   9.397  -3.316  1.00  0.00     0.120 A 
ATOM      4  C   UNL     1       7.025   8.360  -1.399  1.00  0.00     0.021 A 
ATOM      5  N   UNL     1       6.640   9.681  -3.347  1.00  0.00    -0.264 NA
ATOM      6  C   UNL     1       7.499   9.186  -2.419  1.00  0.00     0.111 A 
ENDROOT
BRANCH   1   7
ATOM      7  C   UNL     1       3.341   8.250  -2.259  1.00  0.00     0.073 C 
ATOM      8  O   UNL     1       2.948   7.120  -1.864  1.00  0.00    -0.545 OA
ATOM      9  O   UNL     1       2.399   9.194  -2.648  1.00  0.00    -0.545 OA
ENDBRANCH   1   7
TORSDOF 1
ENDMDL
MODEL 4
REMARK VINA RESULT:    -3.910     14.269     15.348
REMARK INTER + INTRA:          -4.158
REMARK INTER:                  -4.134
REMARK INTRA:                  -0.024
REMARK UNBOUND:                -0.020
REMARK SMILES O=C([O-])c1cccnc1
REMARK SMILES IDX 4 1 5 2 9 3 6 4 8 5 7 6 2 7 1 8 3 9
REMARK H PARENT
REMARK Flexibility Score: inf
ROOT
ATOM      1  C   UNL     1      -7.469   1.754  -6.412  1.00  0.00     0.016 A 
ATOM      2  C   UNL     1      -7.639   1.430  -7.768  1.00  0.00     0.013 A 
ATOM      3  C   UNL     1      -6.434   2.641  -6.063  1.00  0.00     0.120 A 
ATOM      4  C   UNL     1      -6.795   1.982  -8.733  1.00  0.00     0.021 A 
ATOM      5  N   UNL     1      -5.626   3.165  -7.023  1.00  0.00    -0.264 NA
ATOM      6  C   UNL     1      -5.783   2.857  -8.337  1.00  0.00     0.111 A 
ENDROOT
BRANCH   1   7
ATOM      7  C   UNL     1      -8.356   1.176  -5.381  1.00  0.00     0.073 C 
ATOM      8  O   UNL     1      -9.209   0.301  -5.687  1.00  0.00    -0.545 OA
ATOM      9  O   UNL     1      -8.260   1.590  -4.057  1.00  0.00    -0.545 OA
ENDBRANCH   1   7
TORSDOF 1
ENDMDL
MODEL 5
REMARK VINA RESULT:    -3.789     17.973     18.836
REMARK INTER + INTRA:          -4.030
REMARK INTER:                  -4.014
REMARK INTRA:                  -0.016
REMARK UNBOUND:                -0.020
REMARK SMILES O=C([O-])c1cccnc1
REMARK SMILES IDX 4 1 5 2 9 3 6 4 8 5 7 6 2 7 1 8 3 9
REMARK H PARENT
REMARK Flexibility Score: inf
ROOT
ATOM      1  C   UNL     1      -2.345  -7.193   5.006  1.00  0.00     0.016 A 
ATOM      2  C   UNL     1      -3.320  -7.181   6.017  1.00  0.00     0.013 A 
ATOM      3  C   UNL     1      -1.169  -6.446   5.204  1.00  0.00     0.120 A 
ATOM      4  C   UNL     1      -3.112  -6.442   7.183  1.00  0.00     0.021 A 
ATOM      5  N   UNL     1      -0.992  -5.735   6.350  1.00  0.00    -0.264 NA
ATOM      6  C   UNL     1      -1.929  -5.717   7.333  1.00  0.00     0.111 A 
ENDROOT
BRANCH   1   7
ATOM      7  C   UNL     1      -2.553  -7.971   3.766  1.00  0.00     0.073 C 
ATOM      8  O   UNL     1      -2.110  -9.146   3.666  1.00  0.00    -0.545 OA
ATOM      9  O   UNL     1      -3.242  -7.416   2.694  1.00  0.00    -0.545 OA
ENDBRANCH   1   7
TORSDOF 1
ENDMDL
MODEL 6
REMARK VINA RESULT:    -3.786     13.551     14.654
REMARK INTER + INTRA:          -4.027
REMARK INTER:                  -4.003
REMARK INTRA:                  -0.024
REMARK UNBOUND:                -0.020
REMARK SMILES O=C([O-])c1cccnc1
REMARK SMILES IDX 4 1 5 2 9 3 6 4 8 5 7 6 2 7 1 8 3 9
REMARK H PARENT
REMARK Flexibility Score: inf
ROOT
ATOM      1  C   UNL     1      -7.201   3.099  -6.413  1.00  0.00     0.016 A 
ATOM      2  C   UNL     1      -8.540   3.413  -6.126  1.00  0.00     0.013 A 
ATOM      3  C   UNL     1      -6.703   1.853  -5.993  1.00  0.00     0.120 A 
ATOM      4  C   UNL     1      -9.343   2.499  -5.442  1.00  0.00     0.021 A 
ATOM      5  N   UNL     1      -7.507   0.981  -5.328  1.00  0.00    -0.264 NA
ATOM      6  C   UNL     1      -8.803   1.274  -5.046  1.00  0.00     0.111 A 
ENDROOT
BRANCH   1   7
ATOM      7  C   UNL     1      -6.340   4.059  -7.137  1.00  0.00     0.073 C 
ATOM      8  O   UNL     1      -6.840   5.067  -7.702  1.00  0.00    -0.545 OA
ATOM      9  O   UNL     1      -4.966   3.861  -7.202  1.00  0.00    -0.545 OA
ENDBRANCH   1   7
TORSDOF 1
ENDMDL
MODEL 7
REMARK VINA RESULT:    -3.689     13.558     14.677
REMARK INTER + INTRA:          -3.924
REMARK INTER:                  -3.900
REMARK INTRA:                  -0.024
REMARK UNBOUND:                -0.020
REMARK SMILES O=C([O-])c1cccnc1
REMARK SMILES IDX 4 1 5 2 9 3 6 4 8 5 7 6 2 7 1 8 3 9
REMARK H PARENT
REMARK Flexibility Score: inf
ROOT
ATOM      1  C   UNL     1      -6.512   2.517  -7.454  1.00  0.00     0.016 A 
ATOM      2  C   UNL     1      -7.556   1.752  -8.001  1.00  0.00     0.013 A 
ATOM      3  C   UNL     1      -6.378   2.561  -6.055  1.00  0.00     0.120 A 
ATOM      4  C   UNL     1      -8.428   1.057  -7.162  1.00  0.00     0.021 A 
ATOM      5  N   UNL     1      -7.242   1.874  -5.261  1.00  0.00    -0.264 NA
ATOM      6  C   UNL     1      -8.254   1.131  -5.779  1.00  0.00     0.111 A 
ENDROOT
BRANCH   1   7
ATOM      7  C   UNL     1      -5.581   3.258  -8.332  1.00  0.00     0.073 C 
ATOM      8  O   UNL     1      -5.720   3.228  -9.584  1.00  0.00    -0.545 OA
ATOM      9  O   UNL     1      -4.540   4.000  -7.786  1.00  0.00    -0.545 OA
ENDBRANCH   1   7
TORSDOF 1
ENDMDL
MODEL 8
REMARK VINA RESULT:    -3.676     15.527     16.506
REMARK INTER + INTRA:          -3.911
REMARK INTER:                  -3.894
REMARK INTRA:                  -0.017
REMARK UNBOUND:                -0.020
REMARK SMILES O=C([O-])c1cccnc1
REMARK SMILES IDX 4 1 5 2 9 3 6 4 8 5 7 6 2 7 1 8 3 9
REMARK H PARENT
REMARK Flexibility Score: inf
ROOT
ATOM      1  C   UNL     1      -8.936   1.071  -4.086  1.00  0.00     0.016 A 
ATOM      2  C   UNL     1      -9.444   1.462  -2.836  1.00  0.00     0.013 A 
ATOM      3  C   UNL     1      -8.911  -0.301  -4.398  1.00  0.00     0.120 A 
ATOM      4  C   UNL     1      -9.908   0.501  -1.937  1.00  0.00     0.021 A 
ATOM      5  N   UNL     1      -9.369  -1.216  -3.502  1.00  0.00    -0.264 NA
ATOM      6  C   UNL     1      -9.862  -0.848  -2.291  1.00  0.00     0.111 A 
ENDROOT
BRANCH   1   7
ATOM      7  C   UNL     1      -8.442   2.079  -5.048  1.00  0.00     0.073 C 
ATOM      8  O   UNL     1      -9.245   2.851  -5.636  1.00  0.00    -0.545 OA
ATOM      9  O   UNL     1      -7.082   2.189  -5.316  1.00  0.00    -0.545 OA
ENDBRANCH   1   7
TORSDOF 1
ENDMDL
MODEL 9
REMARK VINA RESULT:    -3.581      1.716      2.303
REMARK INTER + INTRA:          -3.810
REMARK INTER:                  -3.790
REMARK INTRA:                  -0.020
REMARK UNBOUND:                -0.020
REMARK SMILES O=C([O-])c1cccnc1
REMARK SMILES IDX 4 1 5 2 9 3 6 4 8 5 7 6 2 7 1 8 3 9
REMARK H PARENT
REMARK Flexibility Score: inf
ROOT
ATOM      1  C   UNL     1       6.009   7.420  -2.412  1.00  0.00     0.016 A 
ATOM      2  C   UNL     1       4.686   7.093  -2.073  1.00  0.00     0.013 A 
ATOM      3  C   UNL     1       6.282   8.726  -2.858  1.00  0.00     0.120 A 
ATOM      4  C   UNL     1       3.678   8.053  -2.180  1.00  0.00     0.021 A 
ATOM      5  N   UNL     1       5.280   9.642  -2.953  1.00  0.00    -0.264 NA
ATOM      6  C   UNL     1       3.997   9.336  -2.627  1.00  0.00     0.111 A 
ENDROOT
BRANCH   1   7
ATOM      7  C   UNL     1       7.087   6.413  -2.304  1.00  0.00     0.073 C 
ATOM      8  O   UNL     1       8.227   6.739  -1.879  1.00  0.00    -0.545 OA
ATOM      9  O   UNL     1       6.854   5.092  -2.667  1.00  0.00    -0.545 OA
ENDBRANCH   1   7
TORSDOF 1
ENDMDL
