MODEL 1
REMARK VINA RESULT:    -4.388      0.000      0.000
REMARK INTER + INTRA:          -6.849
REMARK INTER:                  -6.441
REMARK INTRA:                  -0.408
REMARK UNBOUND:                -0.408
REMARK SMILES O=C([O-])CCCCCCCC(=O)[O-]
REMARK SMILES IDX 7 1 6 2 5 3 4 4 2 5 1 6 3 7 8 8 9 9 10 10 11 11 12 12 13 13
REMARK H PARENT
REMARK Flexibility Score: inf
ROOT
ATOM      1  C   UNL     1     -25.742  62.756  31.118  1.00  0.00     0.000 C 
ENDROOT
BRANCH   1   2
ATOM      2  C   UNL     1     -25.825  61.273  31.534  1.00  0.00     0.000 C 
BRANCH   2   3
ATOM      3  C   UNL     1     -27.164  60.844  32.159  1.00  0.00     0.006 C 
BRANCH   3   4
ATOM      4  C   UNL     1     -27.799  61.944  33.020  1.00  0.00     0.053 C 
BRANCH   4   5
ATOM      5  C   UNL     1     -27.760  61.564  34.466  1.00  0.00     0.041 C 
ATOM      6  O   UNL     1     -27.808  60.352  34.803  1.00  0.00    -0.550 OA
ATOM      7  O   UNL     1     -27.720  62.549  35.444  1.00  0.00    -0.550 OA
ENDBRANCH   4   5
ENDBRANCH   3   4
ENDBRANCH   2   3
ENDBRANCH   1   2
BRANCH   1   8
ATOM      8  C   UNL     1     -24.741  63.065  29.991  1.00  0.00     0.000 C 
BRANCH   8   9
ATOM      9  C   UNL     1     -23.591  62.048  29.918  1.00  0.00     0.006 C 
BRANCH   9  10
ATOM     10  C   UNL     1     -23.177  61.743  28.472  1.00  0.00     0.053 C 
BRANCH  10  11
ATOM     11  C   UNL     1     -23.580  60.362  28.055  1.00  0.00     0.041 C 
ATOM     12  O   UNL     1     -22.832  59.684  27.303  1.00  0.00    -0.550 OA
ATOM     13  O   UNL     1     -24.767  59.811  28.521  1.00  0.00    -0.550 OA
ENDBRANCH  10  11
ENDBRANCH   9  10
ENDBRANCH   8   9
ENDBRANCH   1   8
TORSDOF 8
ENDMDL
MODEL 2
REMARK VINA RESULT:    -4.388      1.415      2.068
REMARK INTER + INTRA:          -6.848
REMARK INTER:                  -6.385
REMARK INTRA:                  -0.462
REMARK UNBOUND:                -0.408
REMARK SMILES O=C([O-])CCCCCCCC(=O)[O-]
REMARK SMILES IDX 7 1 6 2 5 3 4 4 2 5 1 6 3 7 8 8 9 9 10 10 11 11 12 12 13 13
REMARK H PARENT
REMARK Flexibility Score: inf
ROOT
ATOM      1  C   UNL     1     -24.562  61.172  32.253  1.00  0.00     0.000 C 
ENDROOT
BRANCH   1   2
ATOM      2  C   UNL     1     -25.089  59.948  33.030  1.00  0.00     0.000 C 
BRANCH   2   3
ATOM      3  C   UNL     1     -26.363  60.198  33.857  1.00  0.00     0.006 C 
BRANCH   3   4
ATOM      4  C   UNL     1     -26.133  61.164  35.027  1.00  0.00     0.053 C 
BRANCH   4   5
ATOM      5  C   UNL     1     -27.309  62.073  35.193  1.00  0.00     0.041 C 
ATOM      6  O   UNL     1     -27.795  62.277  36.337  1.00  0.00    -0.550 OA
ATOM      7  O   UNL     1     -27.900  62.656  34.081  1.00  0.00    -0.550 OA
ENDBRANCH   4   5
ENDBRANCH   3   4
ENDBRANCH   2   3
ENDBRANCH   1   2
BRANCH   1   8
ATOM      8  C   UNL     1     -25.615  61.916  31.413  1.00  0.00     0.000 C 
BRANCH   8   9
ATOM      9  C   UNL     1     -24.997  62.735  30.267  1.00  0.00     0.006 C 
BRANCH   9  10
ATOM     10  C   UNL     1     -23.587  62.249  29.904  1.00  0.00     0.053 C 
BRANCH  10  11
ATOM     11  C   UNL     1     -23.558  61.572  28.568  1.00  0.00     0.041 C 
ATOM     12  O   UNL     1     -24.504  60.817  28.220  1.00  0.00    -0.550 OA
ATOM     13  O   UNL     1     -22.502  61.798  27.695  1.00  0.00    -0.550 OA
ENDBRANCH  10  11
ENDBRANCH   9  10
ENDBRANCH   8   9
ENDBRANCH   1   8
TORSDOF 8
ENDMDL
MODEL 3
REMARK VINA RESULT:    -4.348      1.589      6.853
REMARK INTER + INTRA:          -6.789
REMARK INTER:                  -6.426
REMARK INTRA:                  -0.362
REMARK UNBOUND:                -0.408
REMARK SMILES O=C([O-])CCCCCCCC(=O)[O-]
REMARK SMILES IDX 7 1 6 2 5 3 4 4 2 5 1 6 3 7 8 8 9 9 10 10 11 11 12 12 13 13
REMARK H PARENT
REMARK Flexibility Score: inf
ROOT
ATOM      1  C   UNL     1     -24.870  62.024  30.858  1.00  0.00     0.000 C 
ENDROOT
BRANCH   1   2
ATOM      2  C   UNL     1     -24.195  62.488  29.551  1.00  0.00     0.000 C 
BRANCH   2   3
ATOM      3  C   UNL     1     -23.961  61.381  28.508  1.00  0.00     0.006 C 
BRANCH   3   4
ATOM      4  C   UNL     1     -22.573  60.737  28.624  1.00  0.00     0.053 C 
BRANCH   4   5
ATOM      5  C   UNL     1     -21.544  61.590  27.953  1.00  0.00     0.041 C 
ATOM      6  O   UNL     1     -21.792  62.124  26.840  1.00  0.00    -0.550 OA
ATOM      7  O   UNL     1     -20.293  61.756  28.532  1.00  0.00    -0.550 OA
ENDBRANCH   4   5
ENDBRANCH   3   4
ENDBRANCH   2   3
ENDBRANCH   1   2
BRANCH   1   8
ATOM      8  C   UNL     1     -25.787  60.795  30.720  1.00  0.00     0.000 C 
BRANCH   8   9
ATOM      9  C   UNL     1     -26.854  60.719  31.824  1.00  0.00     0.006 C 
BRANCH   9  10
ATOM     10  C   UNL     1     -27.064  62.069  32.522  1.00  0.00     0.053 C 
BRANCH  10  11
ATOM     11  C   UNL     1     -27.627  61.904  33.900  1.00  0.00     0.041 C 
ATOM     12  O   UNL     1     -27.934  62.916  34.584  1.00  0.00    -0.550 OA
ATOM     13  O   UNL     1     -27.844  60.633  34.416  1.00  0.00    -0.550 OA
ENDBRANCH  10  11
ENDBRANCH   9  10
ENDBRANCH   8   9
ENDBRANCH   1   8
TORSDOF 8
ENDMDL
MODEL 4
REMARK VINA RESULT:    -4.336      2.607      3.534
REMARK INTER + INTRA:          -6.772
REMARK INTER:                  -6.333
REMARK INTRA:                  -0.438
REMARK UNBOUND:                -0.408
REMARK SMILES O=C([O-])CCCCCCCC(=O)[O-]
REMARK SMILES IDX 7 1 6 2 5 3 4 4 2 5 1 6 3 7 8 8 9 9 10 10 11 11 12 12 13 13
REMARK H PARENT
REMARK Flexibility Score: inf
ROOT
ATOM      1  C   UNL     1     -24.090  61.507  29.134  1.00  0.00     0.000 C 
ENDROOT
BRANCH   1   2
ATOM      2  C   UNL     1     -24.636  62.840  29.687  1.00  0.00     0.000 C 
BRANCH   2   3
ATOM      3  C   UNL     1     -25.429  62.726  31.001  1.00  0.00     0.006 C 
BRANCH   3   4
ATOM      4  C   UNL     1     -25.183  61.400  31.732  1.00  0.00     0.053 C 
BRANCH   4   5
ATOM      5  C   UNL     1     -26.473  60.671  31.940  1.00  0.00     0.041 C 
ATOM      6  O   UNL     1     -27.527  61.310  32.197  1.00  0.00    -0.550 OA
ATOM      7  O   UNL     1     -26.503  59.283  31.899  1.00  0.00    -0.550 OA
ENDBRANCH   4   5
ENDBRANCH   3   4
ENDBRANCH   2   3
ENDBRANCH   1   2
BRANCH   1   8
ATOM      8  C   UNL     1     -23.104  61.641  27.960  1.00  0.00     0.000 C 
BRANCH   8   9
ATOM      9  C   UNL     1     -21.831  60.801  28.150  1.00  0.00     0.006 C 
BRANCH   9  10
ATOM     10  C   UNL     1     -20.603  61.670  28.453  1.00  0.00     0.053 C 
BRANCH  10  11
ATOM     11  C   UNL     1     -20.239  61.636  29.905  1.00  0.00     0.041 C 
ATOM     12  O   UNL     1     -19.204  61.028  30.284  1.00  0.00    -0.550 OA
ATOM     13  O   UNL     1     -21.026  62.301  30.837  1.00  0.00    -0.550 OA
ENDBRANCH  10  11
ENDBRANCH   9  10
ENDBRANCH   8   9
ENDBRANCH   1   8
TORSDOF 8
ENDMDL
MODEL 5
REMARK VINA RESULT:    -4.331     18.642     21.612
REMARK INTER + INTRA:          -6.764
REMARK INTER:                  -6.261
REMARK INTRA:                  -0.504
REMARK UNBOUND:                -0.408
REMARK SMILES O=C([O-])CCCCCCCC(=O)[O-]
REMARK SMILES IDX 7 1 6 2 5 3 4 4 2 5 1 6 3 7 8 8 9 9 10 10 11 11 12 12 13 13
REMARK H PARENT
REMARK Flexibility Score: inf
ROOT
ATOM      1  C   UNL     1     -14.479  45.029  23.292  1.00  0.00     0.000 C 
ENDROOT
BRANCH   1   2
ATOM      2  C   UNL     1     -13.262  45.605  24.044  1.00  0.00     0.000 C 
BRANCH   2   3
ATOM      3  C   UNL     1     -13.556  46.121  25.464  1.00  0.00     0.006 C 
BRANCH   3   4
ATOM      4  C   UNL     1     -14.857  45.554  26.046  1.00  0.00     0.053 C 
BRANCH   4   5
ATOM      5  C   UNL     1     -15.752  46.663  26.502  1.00  0.00     0.041 C 
ATOM      6  O   UNL     1     -15.928  46.869  27.732  1.00  0.00    -0.550 OA
ATOM      7  O   UNL     1     -16.431  47.437  25.570  1.00  0.00    -0.550 OA
ENDBRANCH   4   5
ENDBRANCH   3   4
ENDBRANCH   2   3
ENDBRANCH   1   2
BRANCH   1   8
ATOM      8  C   UNL     1     -14.227  43.696  22.565  1.00  0.00     0.000 C 
BRANCH   8   9
ATOM      9  C   UNL     1     -13.867  43.884  21.082  1.00  0.00     0.006 C 
BRANCH   9  10
ATOM     10  C   UNL     1     -12.527  43.227  20.723  1.00  0.00     0.053 C 
BRANCH  10  11
ATOM     11  C   UNL     1     -11.367  44.129  21.015  1.00  0.00     0.041 C 
ATOM     12  O   UNL     1     -11.499  45.378  20.928  1.00  0.00    -0.550 OA
ATOM     13  O   UNL     1     -10.150  43.592  21.414  1.00  0.00    -0.550 OA
ENDBRANCH  10  11
ENDBRANCH   9  10
ENDBRANCH   8   9
ENDBRANCH   1   8
TORSDOF 8
ENDMDL
MODEL 6
REMARK VINA RESULT:    -4.306      0.977      6.341
REMARK INTER + INTRA:          -6.729
REMARK INTER:                  -6.248
REMARK INTRA:                  -0.480
REMARK UNBOUND:                -0.408
REMARK SMILES O=C([O-])CCCCCCCC(=O)[O-]
REMARK SMILES IDX 7 1 6 2 5 3 4 4 2 5 1 6 3 7 8 8 9 9 10 10 11 11 12 12 13 13
REMARK H PARENT
REMARK Flexibility Score: inf
ROOT
ATOM      1  C   UNL     1     -25.715  62.649  31.132  1.00  0.00     0.000 C 
ENDROOT
BRANCH   1   2
ATOM      2  C   UNL     1     -24.721  63.065  30.029  1.00  0.00     0.000 C 
BRANCH   2   3
ATOM      3  C   UNL     1     -23.609  62.043  29.732  1.00  0.00     0.006 C 
BRANCH   3   4
ATOM      4  C   UNL     1     -23.554  61.636  28.254  1.00  0.00     0.053 C 
BRANCH   4   5
ATOM      5  C   UNL     1     -23.641  60.149  28.118  1.00  0.00     0.041 C 
ATOM      6  O   UNL     1     -22.702  59.507  27.577  1.00  0.00    -0.550 OA
ATOM      7  O   UNL     1     -24.778  59.476  28.543  1.00  0.00    -0.550 OA
ENDBRANCH   4   5
ENDBRANCH   3   4
ENDBRANCH   2   3
ENDBRANCH   1   2
BRANCH   1   8
ATOM      8  C   UNL     1     -25.722  61.148  31.474  1.00  0.00     0.000 C 
BRANCH   8   9
ATOM      9  C   UNL     1     -25.272  60.861  32.916  1.00  0.00     0.006 C 
BRANCH   9  10
ATOM     10  C   UNL     1     -26.438  60.425  33.812  1.00  0.00     0.053 C 
BRANCH  10  11
ATOM     11  C   UNL     1     -27.091  61.592  34.486  1.00  0.00     0.041 C 
ATOM     12  O   UNL     1     -26.688  61.978  35.615  1.00  0.00    -0.550 OA
ATOM     13  O   UNL     1     -28.125  62.272  33.856  1.00  0.00    -0.550 OA
ENDBRANCH  10  11
ENDBRANCH   9  10
ENDBRANCH   8   9
ENDBRANCH   1   8
TORSDOF 8
ENDMDL
MODEL 7
REMARK VINA RESULT:    -4.266      1.100      6.328
REMARK INTER + INTRA:          -6.669
REMARK INTER:                  -6.183
REMARK INTRA:                  -0.486
REMARK UNBOUND:                -0.408
REMARK SMILES O=C([O-])CCCCCCCC(=O)[O-]
REMARK SMILES IDX 7 1 6 2 5 3 4 4 2 5 1 6 3 7 8 8 9 9 10 10 11 11 12 12 13 13
REMARK H PARENT
REMARK Flexibility Score: inf
ROOT
ATOM      1  C   UNL     1     -24.378  62.941  30.380  1.00  0.00     0.000 C 
ENDROOT
BRANCH   1   2
ATOM      2  C   UNL     1     -23.020  62.355  30.818  1.00  0.00     0.000 C 
BRANCH   2   3
ATOM      3  C   UNL     1     -22.281  61.542  29.740  1.00  0.00     0.006 C 
BRANCH   3   4
ATOM      4  C   UNL     1     -22.987  61.578  28.379  1.00  0.00     0.053 C 
BRANCH   4   5
ATOM      5  C   UNL     1     -23.275  60.190  27.903  1.00  0.00     0.041 C 
ATOM      6  O   UNL     1     -24.203  59.520  28.430  1.00  0.00    -0.550 OA
ATOM      7  O   UNL     1     -22.490  59.616  26.912  1.00  0.00    -0.550 OA
ENDBRANCH   4   5
ENDBRANCH   3   4
ENDBRANCH   2   3
ENDBRANCH   1   2
BRANCH   1   8
ATOM      8  C   UNL     1     -25.606  62.347  31.091  1.00  0.00     0.000 C 
BRANCH   8   9
ATOM      9  C   UNL     1     -25.244  61.209  32.060  1.00  0.00     0.006 C 
BRANCH   9  10
ATOM     10  C   UNL     1     -26.485  60.463  32.568  1.00  0.00     0.053 C 
BRANCH  10  11
ATOM     11  C   UNL     1     -26.668  60.625  34.045  1.00  0.00     0.041 C 
ATOM     12  O   UNL     1     -27.792  60.411  34.571  1.00  0.00    -0.550 OA
ATOM     13  O   UNL     1     -25.592  60.983  34.846  1.00  0.00    -0.550 OA
ENDBRANCH  10  11
ENDBRANCH   9  10
ENDBRANCH   8   9
ENDBRANCH   1   8
TORSDOF 8
ENDMDL
MODEL 8
REMARK VINA RESULT:    -4.258     18.652     22.395
REMARK INTER + INTRA:          -6.657
REMARK INTER:                  -6.223
REMARK INTRA:                  -0.434
REMARK UNBOUND:                -0.408
REMARK SMILES O=C([O-])CCCCCCCC(=O)[O-]
REMARK SMILES IDX 7 1 6 2 5 3 4 4 2 5 1 6 3 7 8 8 9 9 10 10 11 11 12 12 13 13
REMARK H PARENT
REMARK Flexibility Score: inf
ROOT
ATOM      1  C   UNL     1     -14.573  44.499  23.730  1.00  0.00     0.000 C 
ENDROOT
BRANCH   1   2
ATOM      2  C   UNL     1     -14.426  43.682  22.429  1.00  0.00     0.000 C 
BRANCH   2   3
ATOM      3  C   UNL     1     -13.486  44.294  21.376  1.00  0.00     0.006 C 
BRANCH   3   4
ATOM      4  C   UNL     1     -12.388  43.323  20.922  1.00  0.00     0.053 C 
BRANCH   4   5
ATOM      5  C   UNL     1     -11.035  43.890  21.217  1.00  0.00     0.041 C 
ATOM      6  O   UNL     1     -10.033  43.130  21.290  1.00  0.00    -0.550 OA
ATOM      7  O   UNL     1     -10.888  45.249  21.460  1.00  0.00    -0.550 OA
ENDBRANCH   4   5
ENDBRANCH   3   4
ENDBRANCH   2   3
ENDBRANCH   1   2
BRANCH   1   8
ATOM      8  C   UNL     1     -13.430  45.490  24.011  1.00  0.00     0.000 C 
BRANCH   8   9
ATOM      9  C   UNL     1     -13.463  46.050  25.443  1.00  0.00     0.006 C 
BRANCH   9  10
ATOM     10  C   UNL     1     -14.270  47.352  25.538  1.00  0.00     0.053 C 
BRANCH  10  11
ATOM     11  C   UNL     1     -15.607  47.135  26.176  1.00  0.00     0.041 C 
ATOM     12  O   UNL     1     -16.618  46.902  25.462  1.00  0.00    -0.550 OA
ATOM     13  O   UNL     1     -15.732  47.160  27.559  1.00  0.00    -0.550 OA
ENDBRANCH  10  11
ENDBRANCH   9  10
ENDBRANCH   8   9
ENDBRANCH   1   8
TORSDOF 8
ENDMDL
MODEL 9
REMARK VINA RESULT:    -4.249      1.992      6.614
REMARK INTER + INTRA:          -6.645
REMARK INTER:                  -6.210
REMARK INTRA:                  -0.434
REMARK UNBOUND:                -0.408
REMARK SMILES O=C([O-])CCCCCCCC(=O)[O-]
REMARK SMILES IDX 7 1 6 2 5 3 4 4 2 5 1 6 3 7 8 8 9 9 10 10 11 11 12 12 13 13
REMARK H PARENT
REMARK Flexibility Score: inf
ROOT
ATOM      1  C   UNL     1     -22.926  61.772  31.353  1.00  0.00     0.000 C 
ENDROOT
BRANCH   1   2
ATOM      2  C   UNL     1     -21.512  62.334  31.098  1.00  0.00     0.000 C 
BRANCH   2   3
ATOM      3  C   UNL     1     -20.530  61.353  30.435  1.00  0.00     0.006 C 
BRANCH   3   4
ATOM      4  C   UNL     1     -20.203  61.727  28.983  1.00  0.00     0.053 C 
BRANCH   4   5
ATOM      5  C   UNL     1     -21.321  61.322  28.075  1.00  0.00     0.041 C 
ATOM      6  O   UNL     1     -21.671  62.074  27.128  1.00  0.00    -0.550 OA
ATOM      7  O   UNL     1     -22.010  60.138  28.304  1.00  0.00    -0.550 OA
ENDBRANCH   4   5
ENDBRANCH   3   4
ENDBRANCH   2   3
ENDBRANCH   1   2
BRANCH   1   8
ATOM      8  C   UNL     1     -24.058  62.476  30.585  1.00  0.00     0.000 C 
BRANCH   8   9
ATOM      9  C   UNL     1     -25.453  62.152  31.145  1.00  0.00     0.006 C 
BRANCH   9  10
ATOM     10  C   UNL     1     -25.400  61.092  32.254  1.00  0.00     0.053 C 
BRANCH  10  11
ATOM     11  C   UNL     1     -26.739  60.883  32.891  1.00  0.00     0.041 C 
ATOM     12  O   UNL     1     -27.790  61.204  32.275  1.00  0.00    -0.550 OA
ATOM     13  O   UNL     1     -26.830  60.306  34.150  1.00  0.00    -0.550 OA
ENDBRANCH  10  11
ENDBRANCH   9  10
ENDBRANCH   8   9
ENDBRANCH   1   8
TORSDOF 8
ENDMDL
