MODEL 1
REMARK VINA RESULT:    -2.858      0.000      0.000
REMARK INTER + INTRA:          -4.176
REMARK INTER:                  -3.860
REMARK INTRA:                  -0.316
REMARK UNBOUND:                -0.316
REMARK SMILES CCCCCCCC(=O)[O-]
REMARK SMILES IDX 5 1 6 2 7 3 8 4 9 5 10 6 4 7 3 8 2 9 1 10
REMARK H PARENT
REMARK Flexibility Score: inf
ROOT
ATOM      1  C   UNL     1      16.283  64.804  17.535  1.00  0.00     0.000 C 
ENDROOT
BRANCH   1   2
ATOM      2  C   UNL     1      16.659  65.728  16.363  1.00  0.00     0.006 C 
BRANCH   2   3
ATOM      3  C   UNL     1      18.177  65.891  16.219  1.00  0.00     0.053 C 
BRANCH   3   4
ATOM      4  C   UNL     1      18.623  65.705  14.801  1.00  0.00     0.041 C 
ATOM      5  O   UNL     1      17.855  66.010  13.851  1.00  0.00    -0.550 OA
ATOM      6  O   UNL     1      19.873  65.163  14.529  1.00  0.00    -0.550 OA
ENDBRANCH   3   4
ENDBRANCH   2   3
ENDBRANCH   1   2
BRANCH   1   7
ATOM      7  C   UNL     1      14.772  64.536  17.615  1.00  0.00     0.000 C 
BRANCH   7   8
ATOM      8  C   UNL     1      13.934  65.719  17.106  1.00  0.00    -0.000 C 
BRANCH   8   9
ATOM      9  C   UNL     1      12.937  65.263  16.034  1.00  0.00    -0.003 C 
ATOM     10  C   UNL     1      13.435  64.012  15.316  1.00  0.00     0.004 C 
ENDBRANCH   8   9
ENDBRANCH   7   8
ENDBRANCH   1   7
TORSDOF 6
ENDMDL
MODEL 2
REMARK VINA RESULT:    -2.837     15.818     17.006
REMARK INTER + INTRA:          -4.149
REMARK INTER:                  -3.926
REMARK INTRA:                  -0.223
REMARK UNBOUND:                -0.316
REMARK SMILES CCCCCCCC(=O)[O-]
REMARK SMILES IDX 5 1 6 2 7 3 8 4 9 5 10 6 4 7 3 8 2 9 1 10
REMARK H PARENT
REMARK Flexibility Score: inf
ROOT
ATOM      1  C   UNL     1      32.186  64.302  18.448  1.00  0.00     0.000 C 
ENDROOT
BRANCH   1   2
ATOM      2  C   UNL     1      32.677  62.971  19.043  1.00  0.00     0.006 C 
BRANCH   2   3
ATOM      3  C   UNL     1      32.272  62.810  20.514  1.00  0.00     0.053 C 
BRANCH   3   4
ATOM      4  C   UNL     1      32.649  61.464  21.051  1.00  0.00     0.041 C 
ATOM      5  O   UNL     1      32.805  60.491  20.266  1.00  0.00    -0.550 OA
ATOM      6  O   UNL     1      32.795  61.275  22.419  1.00  0.00    -0.550 OA
ENDBRANCH   3   4
ENDBRANCH   2   3
ENDBRANCH   1   2
BRANCH   1   7
ATOM      7  C   UNL     1      31.853  64.193  16.951  1.00  0.00     0.000 C 
BRANCH   7   8
ATOM      8  C   UNL     1      32.717  63.148  16.228  1.00  0.00    -0.000 C 
BRANCH   8   9
ATOM      9  C   UNL     1      32.427  63.146  14.723  1.00  0.00    -0.003 C 
ATOM     10  C   UNL     1      30.967  63.488  14.442  1.00  0.00     0.004 C 
ENDBRANCH   8   9
ENDBRANCH   7   8
ENDBRANCH   1   7
TORSDOF 6
ENDMDL
MODEL 3
REMARK VINA RESULT:    -2.738     12.306     15.001
REMARK INTER + INTRA:          -4.014
REMARK INTER:                  -3.648
REMARK INTRA:                  -0.366
REMARK UNBOUND:                -0.316
REMARK SMILES CCCCCCCC(=O)[O-]
REMARK SMILES IDX 5 1 6 2 7 3 8 4 9 5 10 6 4 7 3 8 2 9 1 10
REMARK H PARENT
REMARK Flexibility Score: inf
ROOT
ATOM      1  C   UNL     1      31.731  64.246  18.143  1.00  0.00     0.000 C 
ENDROOT
BRANCH   1   2
ATOM      2  C   UNL     1      30.799  65.389  17.706  1.00  0.00     0.006 C 
BRANCH   2   3
ATOM      3  C   UNL     1      29.446  65.342  18.428  1.00  0.00     0.053 C 
BRANCH   3   4
ATOM      4  C   UNL     1      28.311  65.162  17.468  1.00  0.00     0.041 C 
ATOM      5  O   UNL     1      27.186  64.778  17.884  1.00  0.00    -0.550 OA
ATOM      6  O   UNL     1      28.504  65.383  16.110  1.00  0.00    -0.550 OA
ENDBRANCH   3   4
ENDBRANCH   2   3
ENDBRANCH   1   2
BRANCH   1   7
ATOM      7  C   UNL     1      32.906  64.037  17.175  1.00  0.00     0.000 C 
BRANCH   7   8
ATOM      8  C   UNL     1      32.729  62.792  16.291  1.00  0.00    -0.000 C 
BRANCH   8   9
ATOM      9  C   UNL     1      32.541  63.186  14.822  1.00  0.00    -0.003 C 
ATOM     10  C   UNL     1      31.069  63.426  14.499  1.00  0.00     0.004 C 
ENDBRANCH   8   9
ENDBRANCH   7   8
ENDBRANCH   1   7
TORSDOF 6
ENDMDL
MODEL 4
REMARK VINA RESULT:    -2.567      3.419      4.693
REMARK INTER + INTRA:          -3.783
REMARK INTER:                  -3.503
REMARK INTRA:                  -0.280
REMARK UNBOUND:                -0.316
REMARK SMILES CCCCCCCC(=O)[O-]
REMARK SMILES IDX 5 1 6 2 7 3 8 4 9 5 10 6 4 7 3 8 2 9 1 10
REMARK H PARENT
REMARK Flexibility Score: inf
ROOT
ATOM      1  C   UNL     1      13.385  64.423  15.167  1.00  0.00     0.000 C 
ENDROOT
BRANCH   1   2
ATOM      2  C   UNL     1      14.190  64.870  13.935  1.00  0.00     0.006 C 
BRANCH   2   3
ATOM      3  C   UNL     1      13.291  65.126  12.718  1.00  0.00     0.053 C 
BRANCH   3   4
ATOM      4  C   UNL     1      13.313  63.975  11.760  1.00  0.00     0.041 C 
ATOM      5  O   UNL     1      13.396  64.185  10.521  1.00  0.00    -0.550 OA
ATOM      6  O   UNL     1      13.207  62.673  12.232  1.00  0.00    -0.550 OA
ENDBRANCH   3   4
ENDBRANCH   2   3
ENDBRANCH   1   2
BRANCH   1   7
ATOM      7  C   UNL     1      12.929  65.606  16.036  1.00  0.00     0.000 C 
BRANCH   7   8
ATOM      8  C   UNL     1      13.815  65.805  17.277  1.00  0.00    -0.000 C 
BRANCH   8   9
ATOM      9  C   UNL     1      14.585  64.522  17.609  1.00  0.00    -0.003 C 
ATOM     10  C   UNL     1      16.087  64.782  17.674  1.00  0.00     0.004 C 
ENDBRANCH   8   9
ENDBRANCH   7   8
ENDBRANCH   1   7
TORSDOF 6
ENDMDL
MODEL 5
REMARK VINA RESULT:    -2.505     11.342     14.312
REMARK INTER + INTRA:          -3.699
REMARK INTER:                  -3.481
REMARK INTRA:                  -0.219
REMARK UNBOUND:                -0.316
REMARK SMILES CCCCCCCC(=O)[O-]
REMARK SMILES IDX 5 1 6 2 7 3 8 4 9 5 10 6 4 7 3 8 2 9 1 10
REMARK H PARENT
REMARK Flexibility Score: inf
ROOT
ATOM      1  C   UNL     1      30.413  64.701  16.035  1.00  0.00     0.000 C 
ENDROOT
BRANCH   1   2
ATOM      2  C   UNL     1      29.139  65.562  16.027  1.00  0.00     0.006 C 
BRANCH   2   3
ATOM      3  C   UNL     1      27.870  64.721  16.216  1.00  0.00     0.053 C 
BRANCH   3   4
ATOM      4  C   UNL     1      26.944  65.331  17.222  1.00  0.00     0.041 C 
ATOM      5  O   UNL     1      25.927  65.968  16.842  1.00  0.00    -0.550 OA
ATOM      6  O   UNL     1      27.223  65.227  18.579  1.00  0.00    -0.550 OA
ENDBRANCH   3   4
ENDBRANCH   2   3
ENDBRANCH   1   2
BRANCH   1   7
ATOM      7  C   UNL     1      30.430  63.659  14.904  1.00  0.00     0.000 C 
BRANCH   7   8
ATOM      8  C   UNL     1      31.836  63.098  14.639  1.00  0.00    -0.000 C 
BRANCH   8   9
ATOM      9  C   UNL     1      32.803  63.493  15.760  1.00  0.00    -0.003 C 
ATOM     10  C   UNL     1      33.083  62.314  16.687  1.00  0.00     0.004 C 
ENDBRANCH   8   9
ENDBRANCH   7   8
ENDBRANCH   1   7
TORSDOF 6
ENDMDL
MODEL 6
REMARK VINA RESULT:    -2.459     13.010     15.464
REMARK INTER + INTRA:          -3.637
REMARK INTER:                  -3.429
REMARK INTRA:                  -0.208
REMARK UNBOUND:                -0.316
REMARK SMILES CCCCCCCC(=O)[O-]
REMARK SMILES IDX 5 1 6 2 7 3 8 4 9 5 10 6 4 7 3 8 2 9 1 10
REMARK H PARENT
REMARK Flexibility Score: inf
ROOT
ATOM      1  C   UNL     1      32.080  64.583  17.879  1.00  0.00     0.000 C 
ENDROOT
BRANCH   1   2
ATOM      2  C   UNL     1      30.621  64.891  18.257  1.00  0.00     0.006 C 
BRANCH   2   3
ATOM      3  C   UNL     1      29.960  65.862  17.271  1.00  0.00     0.053 C 
BRANCH   3   4
ATOM      4  C   UNL     1      29.177  65.138  16.219  1.00  0.00     0.041 C 
ATOM      5  O   UNL     1      27.918  65.186  16.222  1.00  0.00    -0.550 OA
ATOM      6  O   UNL     1      29.834  64.381  15.258  1.00  0.00    -0.550 OA
ENDBRANCH   3   4
ENDBRANCH   2   3
ENDBRANCH   1   2
BRANCH   1   7
ATOM      7  C   UNL     1      32.675  63.432  18.706  1.00  0.00     0.000 C 
BRANCH   7   8
ATOM      8  C   UNL     1      31.915  63.195  20.021  1.00  0.00    -0.000 C 
BRANCH   8   9
ATOM      9  C   UNL     1      32.716  62.284  20.958  1.00  0.00    -0.003 C 
ATOM     10  C   UNL     1      32.279  60.828  20.817  1.00  0.00     0.004 C 
ENDBRANCH   8   9
ENDBRANCH   7   8
ENDBRANCH   1   7
TORSDOF 6
ENDMDL
MODEL 7
REMARK VINA RESULT:    -2.459     15.577     16.553
REMARK INTER + INTRA:          -3.637
REMARK INTER:                  -3.353
REMARK INTRA:                  -0.284
REMARK UNBOUND:                -0.316
REMARK SMILES CCCCCCCC(=O)[O-]
REMARK SMILES IDX 5 1 6 2 7 3 8 4 9 5 10 6 4 7 3 8 2 9 1 10
REMARK H PARENT
REMARK Flexibility Score: inf
ROOT
ATOM      1  C   UNL     1      31.501  64.065  18.615  1.00  0.00     0.000 C 
ENDROOT
BRANCH   1   2
ATOM      2  C   UNL     1      32.547  64.417  17.543  1.00  0.00     0.006 C 
BRANCH   2   3
ATOM      3  C   UNL     1      32.905  63.211  16.665  1.00  0.00     0.053 C 
BRANCH   3   4
ATOM      4  C   UNL     1      32.300  63.320  15.299  1.00  0.00     0.041 C 
ATOM      5  O   UNL     1      31.056  63.464  15.166  1.00  0.00    -0.550 OA
ATOM      6  O   UNL     1      33.106  63.228  14.171  1.00  0.00    -0.550 OA
ENDBRANCH   3   4
ENDBRANCH   2   3
ENDBRANCH   1   2
BRANCH   1   7
ATOM      7  C   UNL     1      31.907  64.543  20.017  1.00  0.00     0.000 C 
BRANCH   7   8
ATOM      8  C   UNL     1      32.477  63.411  20.886  1.00  0.00    -0.000 C 
BRANCH   8   9
ATOM      9  C   UNL     1      32.352  62.059  20.174  1.00  0.00    -0.003 C 
ATOM     10  C   UNL     1      32.449  60.903  21.165  1.00  0.00     0.004 C 
ENDBRANCH   8   9
ENDBRANCH   7   8
ENDBRANCH   1   7
TORSDOF 6
ENDMDL
MODEL 8
REMARK VINA RESULT:    -2.414     12.954     15.064
REMARK INTER + INTRA:          -3.576
REMARK INTER:                  -3.318
REMARK INTRA:                  -0.258
REMARK UNBOUND:                -0.316
REMARK SMILES CCCCCCCC(=O)[O-]
REMARK SMILES IDX 5 1 6 2 7 3 8 4 9 5 10 6 4 7 3 8 2 9 1 10
REMARK H PARENT
REMARK Flexibility Score: inf
ROOT
ATOM      1  C   UNL     1      31.198  64.828  17.541  1.00  0.00     0.000 C 
ENDROOT
BRANCH   1   2
ATOM      2  C   UNL     1      31.270  64.232  18.958  1.00  0.00     0.006 C 
BRANCH   2   3
ATOM      3  C   UNL     1      32.364  63.164  19.081  1.00  0.00     0.053 C 
BRANCH   3   4
ATOM      4  C   UNL     1      32.395  62.557  20.450  1.00  0.00     0.041 C 
ATOM      5  O   UNL     1      32.508  63.291  21.467  1.00  0.00    -0.550 OA
ATOM      6  O   UNL     1      32.334  61.177  20.602  1.00  0.00    -0.550 OA
ENDBRANCH   3   4
ENDBRANCH   2   3
ENDBRANCH   1   2
BRANCH   1   7
ATOM      7  C   UNL     1      29.940  65.684  17.323  1.00  0.00     0.000 C 
BRANCH   7   8
ATOM      8  C   UNL     1      29.147  65.263  16.076  1.00  0.00    -0.000 C 
BRANCH   8   9
ATOM      9  C   UNL     1      27.695  64.930  16.438  1.00  0.00    -0.003 C 
ATOM     10  C   UNL     1      27.495  64.913  17.950  1.00  0.00     0.004 C 
ENDBRANCH   8   9
ENDBRANCH   7   8
ENDBRANCH   1   7
TORSDOF 6
ENDMDL
MODEL 9
REMARK VINA RESULT:    -2.329     14.337     16.212
REMARK INTER + INTRA:          -3.462
REMARK INTER:                  -3.226
REMARK INTRA:                  -0.236
REMARK UNBOUND:                -0.316
REMARK SMILES CCCCCCCC(=O)[O-]
REMARK SMILES IDX 5 1 6 2 7 3 8 4 9 5 10 6 4 7 3 8 2 9 1 10
REMARK H PARENT
REMARK Flexibility Score: inf
ROOT
ATOM      1  C   UNL     1      32.390  63.927  18.003  1.00  0.00     0.000 C 
ENDROOT
BRANCH   1   2
ATOM      2  C   UNL     1      32.919  62.727  18.808  1.00  0.00     0.006 C 
BRANCH   2   3
ATOM      3  C   UNL     1      32.348  62.688  20.231  1.00  0.00     0.053 C 
BRANCH   3   4
ATOM      4  C   UNL     1      32.633  61.383  20.908  1.00  0.00     0.041 C 
ATOM      5  O   UNL     1      32.834  60.345  20.223  1.00  0.00    -0.550 OA
ATOM      6  O   UNL     1      32.641  61.304  22.295  1.00  0.00    -0.550 OA
ENDBRANCH   3   4
ENDBRANCH   2   3
ENDBRANCH   1   2
BRANCH   1   7
ATOM      7  C   UNL     1      31.204  64.623  18.690  1.00  0.00     0.000 C 
BRANCH   7   8
ATOM      8  C   UNL     1      30.693  65.837  17.900  1.00  0.00    -0.000 C 
BRANCH   8   9
ATOM      9  C   UNL     1      29.268  65.596  17.388  1.00  0.00    -0.003 C 
ATOM     10  C   UNL     1      29.279  65.062  15.958  1.00  0.00     0.004 C 
ENDBRANCH   8   9
ENDBRANCH   7   8
ENDBRANCH   1   7
TORSDOF 6
ENDMDL
