MODEL 1
REMARK VINA RESULT:    -3.473      0.000      0.000
REMARK INTER + INTRA:          -4.838
REMARK INTER:                  -4.488
REMARK INTRA:                  -0.349
REMARK UNBOUND:                -0.349
REMARK SMILES CCCCCCC(=O)[O-]
REMARK SMILES IDX 5 1 6 2 7 3 8 4 9 5 4 6 3 7 2 8 1 9
REMARK H PARENT
REMARK Flexibility Score: inf
ROOT
ATOM      1  C   UNL     1      -4.861   7.836  -7.786  1.00  0.00     0.006 C 
ENDROOT
BRANCH   1   2
ATOM      2  C   UNL     1      -3.688   7.575  -6.833  1.00  0.00     0.053 C 
BRANCH   2   3
ATOM      3  C   UNL     1      -3.931   6.334  -6.034  1.00  0.00     0.041 C 
ATOM      4  O   UNL     1      -3.747   6.337  -4.789  1.00  0.00    -0.550 OA
ATOM      5  O   UNL     1      -4.408   5.188  -6.656  1.00  0.00    -0.550 OA
ENDBRANCH   2   3
ENDBRANCH   1   2
BRANCH   1   6
ATOM      6  C   UNL     1      -6.164   8.171  -7.041  1.00  0.00     0.000 C 
BRANCH   6   7
ATOM      7  C   UNL     1      -7.412   7.636  -7.765  1.00  0.00    -0.000 C 
BRANCH   7   8
ATOM      8  C   UNL     1      -7.704   6.166  -7.428  1.00  0.00    -0.003 C 
ATOM      9  C   UNL     1      -7.404   5.222  -8.592  1.00  0.00     0.004 C 
ENDBRANCH   7   8
ENDBRANCH   6   7
ENDBRANCH   1   6
TORSDOF 5
ENDMDL
MODEL 2
REMARK VINA RESULT:    -3.434      1.904      3.805
REMARK INTER + INTRA:          -4.788
REMARK INTER:                  -4.513
REMARK INTRA:                  -0.275
REMARK UNBOUND:                -0.349
REMARK SMILES CCCCCCC(=O)[O-]
REMARK SMILES IDX 5 1 6 2 7 3 8 4 9 5 4 6 3 7 2 8 1 9
REMARK H PARENT
REMARK Flexibility Score: inf
ROOT
ATOM      1  C   UNL     1      -6.287   7.590  -6.777  1.00  0.00     0.006 C 
ENDROOT
BRANCH   1   2
ATOM      2  C   UNL     1      -7.293   7.075  -7.814  1.00  0.00     0.053 C 
BRANCH   2   3
ATOM      3  C   UNL     1      -7.459   5.593  -7.688  1.00  0.00     0.041 C 
ATOM      4  O   UNL     1      -8.453   5.117  -7.079  1.00  0.00    -0.550 OA
ATOM      5  O   UNL     1      -6.543   4.737  -8.285  1.00  0.00    -0.550 OA
ENDBRANCH   2   3
ENDBRANCH   1   2
BRANCH   1   6
ATOM      6  C   UNL     1      -4.954   8.020  -7.411  1.00  0.00     0.000 C 
BRANCH   6   7
ATOM      7  C   UNL     1      -3.739   7.345  -6.750  1.00  0.00    -0.000 C 
BRANCH   7   8
ATOM      8  C   UNL     1      -4.066   5.944  -6.212  1.00  0.00    -0.003 C 
ATOM      9  C   UNL     1      -3.440   5.677  -4.842  1.00  0.00     0.004 C 
ENDBRANCH   7   8
ENDBRANCH   6   7
ENDBRANCH   1   6
TORSDOF 5
ENDMDL
MODEL 3
REMARK VINA RESULT:    -3.353      1.712      3.597
REMARK INTER + INTRA:          -4.683
REMARK INTER:                  -4.256
REMARK INTRA:                  -0.427
REMARK UNBOUND:                -0.349
REMARK SMILES CCCCCCC(=O)[O-]
REMARK SMILES IDX 5 1 6 2 7 3 8 4 9 5 4 6 3 7 2 8 1 9
REMARK H PARENT
REMARK Flexibility Score: inf
ROOT
ATOM      1  C   UNL     1      -7.223   7.957  -7.696  1.00  0.00     0.006 C 
ENDROOT
BRANCH   1   2
ATOM      2  C   UNL     1      -7.024   6.796  -8.678  1.00  0.00     0.053 C 
BRANCH   2   3
ATOM      3  C   UNL     1      -7.124   5.485  -7.964  1.00  0.00     0.041 C 
ATOM      4  O   UNL     1      -6.168   4.667  -8.005  1.00  0.00    -0.550 OA
ATOM      5  O   UNL     1      -8.253   5.187  -7.212  1.00  0.00    -0.550 OA
ENDBRANCH   2   3
ENDBRANCH   1   2
BRANCH   1   6
ATOM      6  C   UNL     1      -5.990   8.202  -6.812  1.00  0.00     0.000 C 
BRANCH   6   7
ATOM      7  C   UNL     1      -4.681   8.244  -7.621  1.00  0.00    -0.000 C 
BRANCH   7   8
ATOM      8  C   UNL     1      -3.553   7.439  -6.959  1.00  0.00    -0.003 C 
ATOM      9  C   UNL     1      -4.067   6.469  -5.895  1.00  0.00     0.004 C 
ENDBRANCH   7   8
ENDBRANCH   6   7
ENDBRANCH   1   6
TORSDOF 5
ENDMDL
MODEL 4
REMARK VINA RESULT:    -3.284      1.258      1.934
REMARK INTER + INTRA:          -4.593
REMARK INTER:                  -4.281
REMARK INTRA:                  -0.312
REMARK UNBOUND:                -0.349
REMARK SMILES CCCCCCC(=O)[O-]
REMARK SMILES IDX 5 1 6 2 7 3 8 4 9 5 4 6 3 7 2 8 1 9
REMARK H PARENT
REMARK Flexibility Score: inf
ROOT
ATOM      1  C   UNL     1      -3.880   7.864  -8.232  1.00  0.00     0.006 C 
ENDROOT
BRANCH   1   2
ATOM      2  C   UNL     1      -3.395   7.730  -6.783  1.00  0.00     0.053 C 
BRANCH   2   3
ATOM      3  C   UNL     1      -4.046   6.557  -6.121  1.00  0.00     0.041 C 
ATOM      4  O   UNL     1      -3.833   6.319  -4.903  1.00  0.00    -0.550 OA
ATOM      5  O   UNL     1      -4.925   5.755  -6.836  1.00  0.00    -0.550 OA
ENDBRANCH   2   3
ENDBRANCH   1   2
BRANCH   1   6
ATOM      6  C   UNL     1      -4.273   9.306  -8.593  1.00  0.00     0.000 C 
BRANCH   6   7
ATOM      7  C   UNL     1      -5.780   9.456  -8.868  1.00  0.00    -0.000 C 
BRANCH   7   8
ATOM      8  C   UNL     1      -6.640   9.080  -7.653  1.00  0.00    -0.003 C 
ATOM      9  C   UNL     1      -7.548   7.880  -7.921  1.00  0.00     0.004 C 
ENDBRANCH   7   8
ENDBRANCH   6   7
ENDBRANCH   1   6
TORSDOF 5
ENDMDL
MODEL 5
REMARK VINA RESULT:    -3.193      3.586      5.819
REMARK INTER + INTRA:          -4.476
REMARK INTER:                  -4.381
REMARK INTRA:                  -0.095
REMARK UNBOUND:                -0.349
REMARK SMILES CCCCCCC(=O)[O-]
REMARK SMILES IDX 5 1 6 2 7 3 8 4 9 5 4 6 3 7 2 8 1 9
REMARK H PARENT
REMARK Flexibility Score: inf
ROOT
ATOM      1  C   UNL     1      -3.410   5.383  -4.519  1.00  0.00     0.006 C 
ENDROOT
BRANCH   1   2
ATOM      2  C   UNL     1      -3.801   5.613  -5.984  1.00  0.00     0.053 C 
BRANCH   2   3
ATOM      3  C   UNL     1      -4.185   7.042  -6.203  1.00  0.00     0.041 C 
ATOM      4  O   UNL     1      -5.176   7.531  -5.600  1.00  0.00    -0.550 OA
ATOM      5  O   UNL     1      -3.419   7.849  -7.034  1.00  0.00    -0.550 OA
ENDBRANCH   2   3
ENDBRANCH   1   2
BRANCH   1   6
ATOM      6  C   UNL     1      -2.533   4.134  -4.331  1.00  0.00     0.000 C 
BRANCH   6   7
ATOM      7  C   UNL     1      -2.873   3.362  -3.043  1.00  0.00    -0.000 C 
BRANCH   7   8
ATOM      8  C   UNL     1      -1.682   2.549  -2.513  1.00  0.00    -0.003 C 
ATOM      9  C   UNL     1      -0.846   3.322  -1.494  1.00  0.00     0.004 C 
ENDBRANCH   7   8
ENDBRANCH   6   7
ENDBRANCH   1   6
TORSDOF 5
ENDMDL
MODEL 6
REMARK VINA RESULT:    -3.070      1.416      2.592
REMARK INTER + INTRA:          -4.316
REMARK INTER:                  -4.062
REMARK INTRA:                  -0.255
REMARK UNBOUND:                -0.349
REMARK SMILES CCCCCCC(=O)[O-]
REMARK SMILES IDX 5 1 6 2 7 3 8 4 9 5 4 6 3 7 2 8 1 9
REMARK H PARENT
REMARK Flexibility Score: inf
ROOT
ATOM      1  C   UNL     1      -6.504   6.943  -7.035  1.00  0.00     0.006 C 
ENDROOT
BRANCH   1   2
ATOM      2  C   UNL     1      -5.335   7.502  -6.214  1.00  0.00     0.053 C 
BRANCH   2   3
ATOM      3  C   UNL     1      -4.368   6.412  -5.875  1.00  0.00     0.041 C 
ATOM      4  O   UNL     1      -3.618   6.521  -4.870  1.00  0.00    -0.550 OA
ATOM      5  O   UNL     1      -4.327   5.255  -6.641  1.00  0.00    -0.550 OA
ENDBRANCH   2   3
ENDBRANCH   1   2
BRANCH   1   6
ATOM      6  C   UNL     1      -7.206   8.023  -7.874  1.00  0.00     0.000 C 
BRANCH   6   7
ATOM      7  C   UNL     1      -6.668   9.437  -7.588  1.00  0.00    -0.000 C 
BRANCH   7   8
ATOM      8  C   UNL     1      -6.060  10.098  -8.834  1.00  0.00    -0.003 C 
ATOM      9  C   UNL     1      -4.638   9.619  -9.123  1.00  0.00     0.004 C 
ENDBRANCH   7   8
ENDBRANCH   6   7
ENDBRANCH   1   6
TORSDOF 5
ENDMDL
MODEL 7
REMARK VINA RESULT:    -2.956     21.231     22.068
REMARK INTER + INTRA:          -4.169
REMARK INTER:                  -3.979
REMARK INTRA:                  -0.190
REMARK UNBOUND:                -0.349
REMARK SMILES CCCCCCC(=O)[O-]
REMARK SMILES IDX 5 1 6 2 7 3 8 4 9 5 4 6 3 7 2 8 1 9
REMARK H PARENT
REMARK Flexibility Score: inf
ROOT
ATOM      1  C   UNL     1       9.767   0.259   8.367  1.00  0.00     0.006 C 
ENDROOT
BRANCH   1   2
ATOM      2  C   UNL     1       9.516   1.524   9.197  1.00  0.00     0.053 C 
BRANCH   2   3
ATOM      3  C   UNL     1       8.716   2.513   8.411  1.00  0.00     0.041 C 
ATOM      4  O   UNL     1       8.719   3.730   8.734  1.00  0.00    -0.550 OA
ATOM      5  O   UNL     1       8.005   2.101   7.291  1.00  0.00    -0.550 OA
ENDBRANCH   2   3
ENDBRANCH   1   2
BRANCH   1   6
ATOM      6  C   UNL     1       9.205  -1.007   9.034  1.00  0.00     0.000 C 
BRANCH   6   7
ATOM      7  C   UNL     1       7.844  -0.764   9.711  1.00  0.00    -0.000 C 
BRANCH   7   8
ATOM      8  C   UNL     1       6.692  -1.479   8.989  1.00  0.00    -0.003 C 
ATOM      9  C   UNL     1       5.783  -2.249   9.947  1.00  0.00     0.004 C 
ENDBRANCH   7   8
ENDBRANCH   6   7
ENDBRANCH   1   6
TORSDOF 5
ENDMDL
MODEL 8
REMARK VINA RESULT:    -2.944      1.355      1.957
REMARK INTER + INTRA:          -4.154
REMARK INTER:                  -4.013
REMARK INTRA:                  -0.142
REMARK UNBOUND:                -0.349
REMARK SMILES CCCCCCC(=O)[O-]
REMARK SMILES IDX 5 1 6 2 7 3 8 4 9 5 4 6 3 7 2 8 1 9
REMARK H PARENT
REMARK Flexibility Score: inf
ROOT
ATOM      1  C   UNL     1      -6.307   7.658  -7.070  1.00  0.00     0.006 C 
ENDROOT
BRANCH   1   2
ATOM      2  C   UNL     1      -5.422   6.434  -6.805  1.00  0.00     0.053 C 
BRANCH   2   3
ATOM      3  C   UNL     1      -4.120   6.853  -6.201  1.00  0.00     0.041 C 
ATOM      4  O   UNL     1      -3.381   7.679  -6.798  1.00  0.00    -0.550 OA
ATOM      5  O   UNL     1      -3.743   6.369  -4.955  1.00  0.00    -0.550 OA
ENDBRANCH   2   3
ENDBRANCH   1   2
BRANCH   1   6
ATOM      6  C   UNL     1      -7.433   7.368  -8.076  1.00  0.00     0.000 C 
BRANCH   6   7
ATOM      7  C   UNL     1      -7.821   5.879  -8.114  1.00  0.00    -0.000 C 
BRANCH   7   8
ATOM      8  C   UNL     1      -8.355   5.445  -9.488  1.00  0.00    -0.003 C 
ATOM      9  C   UNL     1      -8.963   4.043  -9.469  1.00  0.00     0.004 C 
ENDBRANCH   7   8
ENDBRANCH   6   7
ENDBRANCH   1   6
TORSDOF 5
ENDMDL
MODEL 9
REMARK VINA RESULT:    -2.894      2.812      4.150
REMARK INTER + INTRA:          -4.089
REMARK INTER:                  -3.808
REMARK INTRA:                  -0.281
REMARK UNBOUND:                -0.349
REMARK SMILES CCCCCCC(=O)[O-]
REMARK SMILES IDX 5 1 6 2 7 3 8 4 9 5 4 6 3 7 2 8 1 9
REMARK H PARENT
REMARK Flexibility Score: inf
ROOT
ATOM      1  C   UNL     1      -4.727   9.227  -8.713  1.00  0.00     0.006 C 
ENDROOT
BRANCH   1   2
ATOM      2  C   UNL     1      -6.134   8.964  -9.264  1.00  0.00     0.053 C 
BRANCH   2   3
ATOM      3  C   UNL     1      -7.100   8.745  -8.144  1.00  0.00     0.041 C 
ATOM      4  O   UNL     1      -8.133   8.048  -8.326  1.00  0.00    -0.550 OA
ATOM      5  O   UNL     1      -6.837   9.268  -6.885  1.00  0.00    -0.550 OA
ENDBRANCH   2   3
ENDBRANCH   1   2
BRANCH   1   6
ATOM      6  C   UNL     1      -3.933   7.932  -8.475  1.00  0.00     0.000 C 
BRANCH   6   7
ATOM      7  C   UNL     1      -3.529   7.748  -7.002  1.00  0.00    -0.000 C 
BRANCH   7   8
ATOM      8  C   UNL     1      -4.426   6.742  -6.266  1.00  0.00    -0.003 C 
ATOM      9  C   UNL     1      -3.653   5.881  -5.267  1.00  0.00     0.004 C 
ENDBRANCH   7   8
ENDBRANCH   6   7
ENDBRANCH   1   6
TORSDOF 5
ENDMDL
