MODEL 1
REMARK VINA RESULT:    -3.079      0.000      0.000
REMARK INTER + INTRA:          -3.831
REMARK INTER:                  -3.619
REMARK INTRA:                  -0.211
REMARK UNBOUND:                -0.211
REMARK SMILES [NH3+][C@H](CO)C(=O)[O-]
REMARK SMILES IDX 3 1 2 2 1 3 5 7 6 8 7 9 4 10
REMARK H PARENT 1 4 1 5 1 6 4 11
REMARK Flexibility Score: inf
ROOT
ATOM      1  C   UNL     1       8.193  19.837  20.879  1.00  0.00     0.227 C 
ENDROOT
BRANCH   1   2
ATOM      2  C   UNL     1       7.220  18.901  20.138  1.00  0.00     0.253 C 
BRANCH   2   3
ATOM      3  N   UNL     1       6.303  19.661  19.281  1.00  0.00    -0.348 N 
ATOM      4  H   UNL     1       5.436  19.905  19.812  1.00  0.00     0.345 HD
ATOM      5  H   UNL     1       6.025  19.080  18.457  1.00  0.00     0.345 HD
ATOM      6  H   UNL     1       6.756  20.542  18.942  1.00  0.00     0.345 HD
ENDBRANCH   2   3
BRANCH   2   7
ATOM      7  C   UNL     1       7.990  17.895  19.326  1.00  0.00     0.102 C 
ATOM      8  O   UNL     1       9.186  18.116  19.000  1.00  0.00    -0.544 OA
ATOM      9  O   UNL     1       7.385  16.704  18.941  1.00  0.00    -0.544 OA
ENDBRANCH   2   7
ENDBRANCH   1   2
BRANCH   1  10
ATOM     10  O   UNL     1       8.552  20.924  20.068  1.00  0.00    -0.390 OA
ATOM     11  H   UNL     1       9.080  21.541  20.638  1.00  0.00     0.210 HD
ENDBRANCH   1  10
TORSDOF 4
ENDMDL
MODEL 2
REMARK VINA RESULT:    -3.002      5.897      6.518
REMARK INTER + INTRA:          -3.740
REMARK INTER:                  -3.341
REMARK INTRA:                  -0.400
REMARK UNBOUND:                -0.211
REMARK SMILES [NH3+][C@H](CO)C(=O)[O-]
REMARK SMILES IDX 3 1 2 2 1 3 5 7 6 8 7 9 4 10
REMARK H PARENT 1 4 1 5 1 6 4 11
REMARK Flexibility Score: inf
ROOT
ATOM      1  C   UNL     1       5.604  14.375  18.198  1.00  0.00     0.227 C 
ENDROOT
BRANCH   1   2
ATOM      2  C   UNL     1       6.246  13.549  17.068  1.00  0.00     0.253 C 
BRANCH   2   3
ATOM      3  N   UNL     1       5.820  12.146  17.130  1.00  0.00    -0.348 N 
ATOM      4  H   UNL     1       5.730  11.844  18.126  1.00  0.00     0.345 HD
ATOM      5  H   UNL     1       6.536  11.538  16.670  1.00  0.00     0.345 HD
ATOM      6  H   UNL     1       4.899  12.016  16.648  1.00  0.00     0.345 HD
ENDBRANCH   2   3
BRANCH   2   7
ATOM      7  C   UNL     1       5.899  14.147  15.731  1.00  0.00     0.102 C 
ATOM      8  O   UNL     1       4.943  13.686  15.053  1.00  0.00    -0.544 OA
ATOM      9  O   UNL     1       6.627  15.226  15.243  1.00  0.00    -0.544 OA
ENDBRANCH   2   7
ENDBRANCH   1   2
BRANCH   1  10
ATOM     10  O   UNL     1       4.685  15.299  17.679  1.00  0.00    -0.390 OA
ATOM     11  H   UNL     1       5.195  15.896  17.072  1.00  0.00     0.210 HD
ENDBRANCH   1  10
TORSDOF 4
ENDMDL
MODEL 3
REMARK VINA RESULT:    -3.000      1.752      2.891
REMARK INTER + INTRA:          -3.737
REMARK INTER:                  -3.514
REMARK INTRA:                  -0.223
REMARK UNBOUND:                -0.211
REMARK SMILES [NH3+][C@H](CO)C(=O)[O-]
REMARK SMILES IDX 3 1 2 2 1 3 5 7 6 8 7 9 4 10
REMARK H PARENT 1 4 1 5 1 6 4 11
REMARK Flexibility Score: inf
ROOT
ATOM      1  C   UNL     1       7.872  17.388  19.090  1.00  0.00     0.227 C 
ENDROOT
BRANCH   1   2
ATOM      2  C   UNL     1       7.612  18.677  19.892  1.00  0.00     0.253 C 
BRANCH   2   3
ATOM      3  N   UNL     1       6.451  19.404  19.363  1.00  0.00    -0.348 N 
ATOM      4  H   UNL     1       6.668  19.778  18.411  1.00  0.00     0.345 HD
ATOM      5  H   UNL     1       6.227  20.214  19.986  1.00  0.00     0.345 HD
ATOM      6  H   UNL     1       5.616  18.777  19.302  1.00  0.00     0.345 HD
ENDBRANCH   2   3
BRANCH   2   7
ATOM      7  C   UNL     1       7.409  18.347  21.346  1.00  0.00     0.102 C 
ATOM      8  O   UNL     1       8.155  18.853  22.226  1.00  0.00    -0.544 OA
ATOM      9  O   UNL     1       6.384  17.490  21.727  1.00  0.00    -0.544 OA
ENDBRANCH   2   7
ENDBRANCH   1   2
BRANCH   1  10
ATOM     10  O   UNL     1       6.672  16.704  18.843  1.00  0.00    -0.390 OA
ATOM     11  H   UNL     1       5.959  17.392  18.790  1.00  0.00     0.210 HD
ENDBRANCH   1  10
TORSDOF 4
ENDMDL
MODEL 4
REMARK VINA RESULT:    -2.964     10.392     11.833
REMARK INTER + INTRA:          -3.696
REMARK INTER:                  -3.478
REMARK INTRA:                  -0.217
REMARK UNBOUND:                -0.211
REMARK SMILES [NH3+][C@H](CO)C(=O)[O-]
REMARK SMILES IDX 3 1 2 2 1 3 5 7 6 8 7 9 4 10
REMARK H PARENT 1 4 1 5 1 6 4 11
REMARK Flexibility Score: inf
ROOT
ATOM      1  C   UNL     1       4.070  10.332  11.206  1.00  0.00     0.227 C 
ENDROOT
BRANCH   1   2
ATOM      2  C   UNL     1       4.590  11.780  11.151  1.00  0.00     0.253 C 
BRANCH   2   3
ATOM      3  N   UNL     1       4.237  12.421   9.879  1.00  0.00    -0.348 N 
ATOM      4  H   UNL     1       3.384  11.970   9.476  1.00  0.00     0.345 HD
ATOM      5  H   UNL     1       5.020  12.304   9.194  1.00  0.00     0.345 HD
ATOM      6  H   UNL     1       4.052  13.442  10.016  1.00  0.00     0.345 HD
ENDBRANCH   2   3
BRANCH   2   7
ATOM      7  C   UNL     1       4.042  12.570  12.309  1.00  0.00     0.102 C 
ATOM      8  O   UNL     1       2.916  12.289  12.798  1.00  0.00    -0.544 OA
ATOM      9  O   UNL     1       4.787  13.608  12.856  1.00  0.00    -0.544 OA
ENDBRANCH   2   7
ENDBRANCH   1   2
BRANCH   1  10
ATOM     10  O   UNL     1       2.824  10.226  10.571  1.00  0.00    -0.390 OA
ATOM     11  H   UNL     1       2.365   9.443  10.974  1.00  0.00     0.210 HD
ENDBRANCH   1  10
TORSDOF 4
ENDMDL
MODEL 5
REMARK VINA RESULT:    -2.945     12.178     13.031
REMARK INTER + INTRA:          -3.673
REMARK INTER:                  -3.489
REMARK INTRA:                  -0.184
REMARK UNBOUND:                -0.211
REMARK SMILES [NH3+][C@H](CO)C(=O)[O-]
REMARK SMILES IDX 3 1 2 2 1 3 5 7 6 8 7 9 4 10
REMARK H PARENT 1 4 1 5 1 6 4 11
REMARK Flexibility Score: inf
ROOT
ATOM      1  C   UNL     1       8.398   9.976   9.875  1.00  0.00     0.227 C 
ENDROOT
BRANCH   1   2
ATOM      2  C   UNL     1       7.039   9.406  10.323  1.00  0.00     0.253 C 
BRANCH   2   3
ATOM      3  N   UNL     1       7.032   7.940  10.252  1.00  0.00    -0.348 N 
ATOM      4  H   UNL     1       6.072   7.598  10.015  1.00  0.00     0.345 HD
ATOM      5  H   UNL     1       7.298   7.539  11.181  1.00  0.00     0.345 HD
ATOM      6  H   UNL     1       7.705   7.600   9.526  1.00  0.00     0.345 HD
ENDBRANCH   2   3
BRANCH   2   7
ATOM      7  C   UNL     1       6.721   9.868  11.719  1.00  0.00     0.102 C 
ATOM      8  O   UNL     1       7.605  10.418  12.428  1.00  0.00    -0.544 OA
ATOM      9  O   UNL     1       5.440   9.701  12.230  1.00  0.00    -0.544 OA
ENDBRANCH   2   7
ENDBRANCH   1   2
BRANCH   1  10
ATOM     10  O   UNL     1       9.441   9.103  10.215  1.00  0.00    -0.390 OA
ATOM     11  H   UNL     1       9.808   9.421  11.081  1.00  0.00     0.210 HD
ENDBRANCH   1  10
TORSDOF 4
ENDMDL
MODEL 6
REMARK VINA RESULT:    -2.939      1.670      2.077
REMARK INTER + INTRA:          -3.666
REMARK INTER:                  -3.445
REMARK INTRA:                  -0.222
REMARK UNBOUND:                -0.211
REMARK SMILES [NH3+][C@H](CO)C(=O)[O-]
REMARK SMILES IDX 3 1 2 2 1 3 5 7 6 8 7 9 4 10
REMARK H PARENT 1 4 1 5 1 6 4 11
REMARK Flexibility Score: inf
ROOT
ATOM      1  C   UNL     1       7.031  19.608  20.341  1.00  0.00     0.227 C 
ENDROOT
BRANCH   1   2
ATOM      2  C   UNL     1       7.600  18.201  20.600  1.00  0.00     0.253 C 
BRANCH   2   3
ATOM      3  N   UNL     1       6.574  17.309  21.155  1.00  0.00    -0.348 N 
ATOM      4  H   UNL     1       6.910  16.320  21.133  1.00  0.00     0.345 HD
ATOM      5  H   UNL     1       5.704  17.369  20.578  1.00  0.00     0.345 HD
ATOM      6  H   UNL     1       6.349  17.571  22.143  1.00  0.00     0.345 HD
ENDBRANCH   2   3
BRANCH   2   7
ATOM      7  C   UNL     1       8.162  17.629  19.327  1.00  0.00     0.102 C 
ATOM      8  O   UNL     1       7.502  16.794  18.655  1.00  0.00    -0.544 OA
ATOM      9  O   UNL     1       9.413  18.033  18.878  1.00  0.00    -0.544 OA
ENDBRANCH   2   7
ENDBRANCH   1   2
BRANCH   1  10
ATOM     10  O   UNL     1       6.235  19.618  19.186  1.00  0.00    -0.390 OA
ATOM     11  H   UNL     1       5.794  18.730  19.137  1.00  0.00     0.210 HD
ENDBRANCH   1  10
TORSDOF 4
ENDMDL
MODEL 7
REMARK VINA RESULT:    -2.916      1.547      2.488
REMARK INTER + INTRA:          -3.639
REMARK INTER:                  -3.240
REMARK INTRA:                  -0.398
REMARK UNBOUND:                -0.211
REMARK SMILES [NH3+][C@H](CO)C(=O)[O-]
REMARK SMILES IDX 3 1 2 2 1 3 5 7 6 8 7 9 4 10
REMARK H PARENT 1 4 1 5 1 6 4 11
REMARK Flexibility Score: inf
ROOT
ATOM      1  C   UNL     1       6.637  18.606  21.579  1.00  0.00     0.227 C 
ENDROOT
BRANCH   1   2
ATOM      2  C   UNL     1       7.253  18.842  20.188  1.00  0.00     0.253 C 
BRANCH   2   3
ATOM      3  N   UNL     1       6.368  19.659  19.349  1.00  0.00    -0.348 N 
ATOM      4  H   UNL     1       6.458  20.668  19.610  1.00  0.00     0.345 HD
ATOM      5  H   UNL     1       5.373  19.373  19.501  1.00  0.00     0.345 HD
ATOM      6  H   UNL     1       6.607  19.545  18.336  1.00  0.00     0.345 HD
ENDBRANCH   2   3
BRANCH   2   7
ATOM      7  C   UNL     1       8.601  19.497  20.325  1.00  0.00     0.102 C 
ATOM      8  O   UNL     1       9.655  18.809  20.270  1.00  0.00    -0.544 OA
ATOM      9  O   UNL     1       8.690  20.873  20.501  1.00  0.00    -0.544 OA
ENDBRANCH   2   7
ENDBRANCH   1   2
BRANCH   1  10
ATOM     10  O   UNL     1       7.527  18.996  22.591  1.00  0.00    -0.390 OA
ATOM     11  H   UNL     1       8.389  18.543  22.401  1.00  0.00     0.210 HD
ENDBRANCH   1  10
TORSDOF 4
ENDMDL
MODEL 8
REMARK VINA RESULT:    -2.904      9.968     11.137
REMARK INTER + INTRA:          -3.624
REMARK INTER:                  -3.263
REMARK INTRA:                  -0.362
REMARK UNBOUND:                -0.211
REMARK SMILES [NH3+][C@H](CO)C(=O)[O-]
REMARK SMILES IDX 3 1 2 2 1 3 5 7 6 8 7 9 4 10
REMARK H PARENT 1 4 1 5 1 6 4 11
REMARK Flexibility Score: inf
ROOT
ATOM      1  C   UNL     1       5.071  11.570  10.267  1.00  0.00     0.227 C 
ENDROOT
BRANCH   1   2
ATOM      2  C   UNL     1       5.297  11.602  11.790  1.00  0.00     0.253 C 
BRANCH   2   3
ATOM      3  N   UNL     1       6.685  11.953  12.112  1.00  0.00    -0.348 N 
ATOM      4  H   UNL     1       7.280  11.879  11.255  1.00  0.00     0.345 HD
ATOM      5  H   UNL     1       7.061  11.287  12.826  1.00  0.00     0.345 HD
ATOM      6  H   UNL     1       6.744  12.928  12.487  1.00  0.00     0.345 HD
ENDBRANCH   2   3
BRANCH   2   7
ATOM      7  C   UNL     1       4.345  12.575  12.432  1.00  0.00     0.102 C 
ATOM      8  O   UNL     1       4.756  13.687  12.856  1.00  0.00    -0.544 OA
ATOM      9  O   UNL     1       2.998  12.253  12.548  1.00  0.00    -0.544 OA
ENDBRANCH   2   7
ENDBRANCH   1   2
BRANCH   1  10
ATOM     10  O   UNL     1       4.117  12.524   9.885  1.00  0.00    -0.390 OA
ATOM     11  H   UNL     1       3.339  12.406  10.490  1.00  0.00     0.210 HD
ENDBRANCH   1  10
TORSDOF 4
ENDMDL
MODEL 9
REMARK VINA RESULT:    -2.813      7.457      7.863
REMARK INTER + INTRA:          -3.518
REMARK INTER:                  -3.294
REMARK INTRA:                  -0.224
REMARK UNBOUND:                -0.211
REMARK SMILES [NH3+][C@H](CO)C(=O)[O-]
REMARK SMILES IDX 3 1 2 2 1 3 5 7 6 8 7 9 4 10
REMARK H PARENT 1 4 1 5 1 6 4 11
REMARK Flexibility Score: inf
ROOT
ATOM      1  C   UNL     1       7.910  13.269  14.102  1.00  0.00     0.227 C 
ENDROOT
BRANCH   1   2
ATOM      2  C   UNL     1       6.850  14.070  14.881  1.00  0.00     0.253 C 
BRANCH   2   3
ATOM      3  N   UNL     1       7.061  15.515  14.730  1.00  0.00    -0.348 N 
ATOM      4  H   UNL     1       6.209  16.035  15.040  1.00  0.00     0.345 HD
ATOM      5  H   UNL     1       7.233  15.744  13.724  1.00  0.00     0.345 HD
ATOM      6  H   UNL     1       7.881  15.831  15.298  1.00  0.00     0.345 HD
ENDBRANCH   2   3
BRANCH   2   7
ATOM      7  C   UNL     1       5.471  13.687  14.415  1.00  0.00     0.102 C 
ATOM      8  O   UNL     1       5.111  13.910  13.229  1.00  0.00    -0.544 OA
ATOM      9  O   UNL     1       4.588  13.070  15.294  1.00  0.00    -0.544 OA
ENDBRANCH   2   7
ENDBRANCH   1   2
BRANCH   1  10
ATOM     10  O   UNL     1       8.071  13.783  12.807  1.00  0.00    -0.390 OA
ATOM     11  H   UNL     1       9.048  13.810  12.631  1.00  0.00     0.210 HD
ENDBRANCH   1  10
TORSDOF 4
ENDMDL
