MODEL 1
REMARK VINA RESULT:    -3.223      0.000      0.000
REMARK INTER + INTRA:          -4.752
REMARK INTER:                  -4.353
REMARK INTRA:                  -0.398
REMARK UNBOUND:                -0.398
REMARK SMILES CCCCCCC=CC(=O)[O-]
REMARK SMILES IDX 5 1 6 2 7 3 8 4 9 5 10 6 11 7 4 8 3 9 2 10 1 11
REMARK H PARENT
REMARK Flexibility Score: inf
ROOT
ATOM      1  C   UNL     1     -34.631  -5.338 -33.278  1.00  0.00     0.004 C 
ENDROOT
BRANCH   1   2
ATOM      2  C   UNL     1     -34.939  -5.741 -31.827  1.00  0.00     0.027 C 
BRANCH   2   3
ATOM      3  C   UNL     1     -34.551  -7.163 -31.532  1.00  0.00    -0.025 C 
ATOM      4  C   UNL     1     -33.331  -7.476 -31.085  1.00  0.00     0.020 C 
BRANCH   4   5
ATOM      5  C   UNL     1     -32.941  -8.862 -30.786  1.00  0.00     0.064 C 
ATOM      6  O   UNL     1     -32.329  -9.118 -29.716  1.00  0.00    -0.545 OA
ATOM      7  O   UNL     1     -33.237  -9.895 -31.667  1.00  0.00    -0.545 OA
ENDBRANCH   4   5
ENDBRANCH   2   3
ENDBRANCH   1   2
BRANCH   1   8
ATOM      8  C   UNL     1     -33.386  -4.439 -33.378  1.00  0.00     0.000 C 
BRANCH   8   9
ATOM      9  C   UNL     1     -33.753  -2.940 -33.426  1.00  0.00    -0.000 C 
BRANCH   9  10
ATOM     10  C   UNL     1     -33.082  -2.107 -32.320  1.00  0.00    -0.003 C 
ATOM     11  C   UNL     1     -33.714  -2.319 -30.946  1.00  0.00     0.004 C 
ENDBRANCH   9  10
ENDBRANCH   8   9
ENDBRANCH   1   8
TORSDOF 6
ENDMDL
MODEL 2
REMARK VINA RESULT:    -3.194     13.920     15.499
REMARK INTER + INTRA:          -4.712
REMARK INTER:                  -4.105
REMARK INTRA:                  -0.607
REMARK UNBOUND:                -0.398
REMARK SMILES CCCCCCC=CC(=O)[O-]
REMARK SMILES IDX 5 1 6 2 7 3 8 4 9 5 10 6 11 7 4 8 3 9 2 10 1 11
REMARK H PARENT
REMARK Flexibility Score: inf
ROOT
ATOM      1  C   UNL     1     -24.616   8.083 -28.934  1.00  0.00     0.004 C 
ENDROOT
BRANCH   1   2
ATOM      2  C   UNL     1     -23.732   6.825 -28.944  1.00  0.00     0.027 C 
BRANCH   2   3
ATOM      3  C   UNL     1     -23.753   6.121 -30.272  1.00  0.00    -0.025 C 
ATOM      4  C   UNL     1     -24.889   5.953 -30.956  1.00  0.00     0.020 C 
BRANCH   4   5
ATOM      5  C   UNL     1     -24.922   5.272 -32.259  1.00  0.00     0.064 C 
ATOM      6  O   UNL     1     -26.029   4.962 -32.771  1.00  0.00    -0.545 OA
ATOM      7  O   UNL     1     -23.747   4.964 -32.936  1.00  0.00    -0.545 OA
ENDBRANCH   4   5
ENDBRANCH   2   3
ENDBRANCH   1   2
BRANCH   1   8
ATOM      8  C   UNL     1     -25.558   8.120 -27.718  1.00  0.00     0.000 C 
BRANCH   8   9
ATOM      9  C   UNL     1     -27.045   8.125 -28.132  1.00  0.00    -0.000 C 
BRANCH   9  10
ATOM     10  C   UNL     1     -27.639   6.717 -28.310  1.00  0.00    -0.003 C 
ATOM     11  C   UNL     1     -28.327   6.525 -29.659  1.00  0.00     0.004 C 
ENDBRANCH   9  10
ENDBRANCH   8   9
ENDBRANCH   1   8
TORSDOF 6
ENDMDL
MODEL 3
REMARK VINA RESULT:    -3.177     14.050     15.518
REMARK INTER + INTRA:          -4.690
REMARK INTER:                  -4.336
REMARK INTRA:                  -0.354
REMARK UNBOUND:                -0.398
REMARK SMILES CCCCCCC=CC(=O)[O-]
REMARK SMILES IDX 5 1 6 2 7 3 8 4 9 5 10 6 11 7 4 8 3 9 2 10 1 11
REMARK H PARENT
REMARK Flexibility Score: inf
ROOT
ATOM      1  C   UNL     1     -25.072   6.436 -30.024  1.00  0.00     0.004 C 
ENDROOT
BRANCH   1   2
ATOM      2  C   UNL     1     -23.811   5.942 -30.751  1.00  0.00     0.027 C 
BRANCH   2   3
ATOM      3  C   UNL     1     -24.065   5.646 -32.203  1.00  0.00    -0.025 C 
ATOM      4  C   UNL     1     -25.266   5.250 -32.636  1.00  0.00     0.020 C 
BRANCH   4   5
ATOM      5  C   UNL     1     -25.530   4.965 -34.055  1.00  0.00     0.064 C 
ATOM      6  O   UNL     1     -24.779   4.171 -34.679  1.00  0.00    -0.545 OA
ATOM      7  O   UNL     1     -26.597   5.560 -34.718  1.00  0.00    -0.545 OA
ENDBRANCH   4   5
ENDBRANCH   2   3
ENDBRANCH   1   2
BRANCH   1   8
ATOM      8  C   UNL     1     -24.940   7.897 -29.561  1.00  0.00     0.000 C 
BRANCH   8   9
ATOM      9  C   UNL     1     -24.748   8.009 -28.034  1.00  0.00    -0.000 C 
BRANCH   9  10
ATOM     10  C   UNL     1     -24.819   6.656 -27.304  1.00  0.00    -0.003 C 
ATOM     11  C   UNL     1     -23.530   6.309 -26.562  1.00  0.00     0.004 C 
ENDBRANCH   9  10
ENDBRANCH   8   9
ENDBRANCH   1   8
TORSDOF 6
ENDMDL
MODEL 4
REMARK VINA RESULT:    -3.132     14.803     16.163
REMARK INTER + INTRA:          -4.628
REMARK INTER:                  -4.364
REMARK INTRA:                  -0.265
REMARK UNBOUND:                -0.398
REMARK SMILES CCCCCCC=CC(=O)[O-]
REMARK SMILES IDX 5 1 6 2 7 3 8 4 9 5 10 6 11 7 4 8 3 9 2 10 1 11
REMARK H PARENT
REMARK Flexibility Score: inf
ROOT
ATOM      1  C   UNL     1     -24.745   7.933 -29.181  1.00  0.00     0.004 C 
ENDROOT
BRANCH   1   2
ATOM      2  C   UNL     1     -24.063   6.623 -29.605  1.00  0.00     0.027 C 
BRANCH   2   3
ATOM      3  C   UNL     1     -24.074   6.427 -31.095  1.00  0.00    -0.025 C 
ATOM      4  C   UNL     1     -24.180   5.211 -31.639  1.00  0.00     0.020 C 
BRANCH   4   5
ATOM      5  C   UNL     1     -24.199   5.007 -33.096  1.00  0.00     0.064 C 
ATOM      6  O   UNL     1     -25.194   5.390 -33.765  1.00  0.00    -0.545 OA
ATOM      7  O   UNL     1     -23.133   4.395 -33.746  1.00  0.00    -0.545 OA
ENDBRANCH   4   5
ENDBRANCH   2   3
ENDBRANCH   1   2
BRANCH   1   8
ATOM      8  C   UNL     1     -24.746   8.120 -27.654  1.00  0.00     0.000 C 
BRANCH   8   9
ATOM      9  C   UNL     1     -24.054   6.950 -26.923  1.00  0.00    -0.000 C 
BRANCH   9  10
ATOM     10  C   UNL     1     -24.265   6.966 -25.399  1.00  0.00    -0.003 C 
ATOM     11  C   UNL     1     -25.630   7.515 -24.991  1.00  0.00     0.004 C 
ENDBRANCH   9  10
ENDBRANCH   8   9
ENDBRANCH   1   8
TORSDOF 6
ENDMDL
MODEL 5
REMARK VINA RESULT:    -3.107     14.516     15.460
REMARK INTER + INTRA:          -4.595
REMARK INTER:                  -4.115
REMARK INTRA:                  -0.480
REMARK UNBOUND:                -0.398
REMARK SMILES CCCCCCC=CC(=O)[O-]
REMARK SMILES IDX 5 1 6 2 7 3 8 4 9 5 10 6 11 7 4 8 3 9 2 10 1 11
REMARK H PARENT
REMARK Flexibility Score: inf
ROOT
ATOM      1  C   UNL     1     -24.771   5.041 -27.799  1.00  0.00     0.004 C 
ENDROOT
BRANCH   1   2
ATOM      2  C   UNL     1     -24.157   4.146 -28.887  1.00  0.00     0.027 C 
BRANCH   2   3
ATOM      3  C   UNL     1     -24.193   4.788 -30.246  1.00  0.00    -0.025 C 
ATOM      4  C   UNL     1     -23.796   4.131 -31.340  1.00  0.00     0.020 C 
BRANCH   4   5
ATOM      5  C   UNL     1     -23.834   4.745 -32.676  1.00  0.00     0.064 C 
ATOM      6  O   UNL     1     -24.499   5.798 -32.858  1.00  0.00    -0.545 OA
ATOM      7  O   UNL     1     -23.147   4.178 -33.744  1.00  0.00    -0.545 OA
ENDBRANCH   4   5
ENDBRANCH   2   3
ENDBRANCH   1   2
BRANCH   1   8
ATOM      8  C   UNL     1     -23.829   6.187 -27.390  1.00  0.00     0.000 C 
BRANCH   8   9
ATOM      9  C   UNL     1     -24.537   7.558 -27.405  1.00  0.00    -0.000 C 
BRANCH   9  10
ATOM     10  C   UNL     1     -24.768   8.116 -28.820  1.00  0.00    -0.003 C 
ATOM     11  C   UNL     1     -26.236   8.092 -29.239  1.00  0.00     0.004 C 
ENDBRANCH   9  10
ENDBRANCH   8   9
ENDBRANCH   1   8
TORSDOF 6
ENDMDL
MODEL 6
REMARK VINA RESULT:    -3.090      3.537      5.076
REMARK INTER + INTRA:          -4.573
REMARK INTER:                  -3.877
REMARK INTRA:                  -0.695
REMARK UNBOUND:                -0.398
REMARK SMILES CCCCCCC=CC(=O)[O-]
REMARK SMILES IDX 5 1 6 2 7 3 8 4 9 5 10 6 11 7 4 8 3 9 2 10 1 11
REMARK H PARENT
REMARK Flexibility Score: inf
ROOT
ATOM      1  C   UNL     1     -34.642  -6.334 -31.237  1.00  0.00     0.004 C 
ENDROOT
BRANCH   1   2
ATOM      2  C   UNL     1     -35.406  -5.962 -32.517  1.00  0.00     0.027 C 
BRANCH   2   3
ATOM      3  C   UNL     1     -34.655  -4.976 -33.368  1.00  0.00    -0.025 C 
ATOM      4  C   UNL     1     -33.959  -3.972 -32.825  1.00  0.00     0.020 C 
BRANCH   4   5
ATOM      5  C   UNL     1     -33.213  -3.006 -33.646  1.00  0.00     0.064 C 
ATOM      6  O   UNL     1     -33.757  -1.920 -33.975  1.00  0.00    -0.545 OA
ATOM      7  O   UNL     1     -31.916  -3.275 -34.066  1.00  0.00    -0.545 OA
ENDBRANCH   4   5
ENDBRANCH   2   3
ENDBRANCH   1   2
BRANCH   1   8
ATOM      8  C   UNL     1     -33.914  -7.683 -31.365  1.00  0.00     0.000 C 
BRANCH   8   9
ATOM      9  C   UNL     1     -32.463  -7.614 -30.846  1.00  0.00    -0.000 C 
BRANCH   9  10
ATOM     10  C   UNL     1     -31.876  -6.192 -30.848  1.00  0.00    -0.003 C 
ATOM     11  C   UNL     1     -30.872  -5.961 -31.976  1.00  0.00     0.004 C 
ENDBRANCH   9  10
ENDBRANCH   8   9
ENDBRANCH   1   8
TORSDOF 6
ENDMDL
MODEL 7
REMARK VINA RESULT:    -3.040     13.627     14.487
REMARK INTER + INTRA:          -4.505
REMARK INTER:                  -4.208
REMARK INTRA:                  -0.297
REMARK UNBOUND:                -0.398
REMARK SMILES CCCCCCC=CC(=O)[O-]
REMARK SMILES IDX 5 1 6 2 7 3 8 4 9 5 10 6 11 7 4 8 3 9 2 10 1 11
REMARK H PARENT
REMARK Flexibility Score: inf
ROOT
ATOM      1  C   UNL     1     -25.663   4.062 -34.718  1.00  0.00     0.004 C 
ENDROOT
BRANCH   1   2
ATOM      2  C   UNL     1     -24.235   4.179 -34.163  1.00  0.00     0.027 C 
BRANCH   2   3
ATOM      3  C   UNL     1     -24.176   4.988 -32.897  1.00  0.00    -0.025 C 
ATOM      4  C   UNL     1     -23.816   4.440 -31.733  1.00  0.00     0.020 C 
BRANCH   4   5
ATOM      5  C   UNL     1     -23.747   5.222 -30.489  1.00  0.00     0.064 C 
ATOM      6  O   UNL     1     -23.742   4.627 -29.380  1.00  0.00    -0.545 OA
ATOM      7  O   UNL     1     -23.689   6.611 -30.520  1.00  0.00    -0.545 OA
ENDBRANCH   4   5
ENDBRANCH   2   3
ENDBRANCH   1   2
BRANCH   1   8
ATOM      8  C   UNL     1     -26.349   5.433 -34.849  1.00  0.00     0.000 C 
BRANCH   8   9
ATOM      9  C   UNL     1     -26.703   5.770 -36.312  1.00  0.00    -0.000 C 
BRANCH   9  10
ATOM     10  C   UNL     1     -26.988   4.531 -37.178  1.00  0.00    -0.003 C 
ATOM     11  C   UNL     1     -28.204   4.703 -38.086  1.00  0.00     0.004 C 
ENDBRANCH   9  10
ENDBRANCH   8   9
ENDBRANCH   1   8
TORSDOF 6
ENDMDL
MODEL 8
REMARK VINA RESULT:    -3.039      1.492      2.387
REMARK INTER + INTRA:          -4.503
REMARK INTER:                  -4.177
REMARK INTRA:                  -0.326
REMARK UNBOUND:                -0.398
REMARK SMILES CCCCCCC=CC(=O)[O-]
REMARK SMILES IDX 5 1 6 2 7 3 8 4 9 5 10 6 11 7 4 8 3 9 2 10 1 11
REMARK H PARENT
REMARK Flexibility Score: inf
ROOT
ATOM      1  C   UNL     1     -34.962  -6.342 -30.774  1.00  0.00     0.004 C 
ENDROOT
BRANCH   1   2
ATOM      2  C   UNL     1     -34.262  -7.468 -31.551  1.00  0.00     0.027 C 
BRANCH   2   3
ATOM      3  C   UNL     1     -32.920  -7.817 -30.971  1.00  0.00    -0.025 C 
ATOM      4  C   UNL     1     -32.679  -9.019 -30.439  1.00  0.00     0.020 C 
BRANCH   4   5
ATOM      5  C   UNL     1     -31.368  -9.375 -29.875  1.00  0.00     0.064 C 
ATOM      6  O   UNL     1     -30.324  -9.158 -30.543  1.00  0.00    -0.545 OA
ATOM      7  O   UNL     1     -31.265  -9.950 -28.614  1.00  0.00    -0.545 OA
ENDBRANCH   4   5
ENDBRANCH   2   3
ENDBRANCH   1   2
BRANCH   1   8
ATOM      8  C   UNL     1     -34.665  -4.954 -31.369  1.00  0.00     0.000 C 
BRANCH   8   9
ATOM      9  C   UNL     1     -34.526  -4.996 -32.905  1.00  0.00    -0.000 C 
BRANCH   9  10
ATOM     10  C   UNL     1     -33.326  -4.193 -33.437  1.00  0.00    -0.003 C 
ATOM     11  C   UNL     1     -33.614  -2.698 -33.556  1.00  0.00     0.004 C 
ENDBRANCH   9  10
ENDBRANCH   8   9
ENDBRANCH   1   8
TORSDOF 6
ENDMDL
MODEL 9
REMARK VINA RESULT:    -3.020      4.104      5.393
REMARK INTER + INTRA:          -4.478
REMARK INTER:                  -3.831
REMARK INTRA:                  -0.647
REMARK UNBOUND:                -0.398
REMARK SMILES CCCCCCC=CC(=O)[O-]
REMARK SMILES IDX 5 1 6 2 7 3 8 4 9 5 10 6 11 7 4 8 3 9 2 10 1 11
REMARK H PARENT
REMARK Flexibility Score: inf
ROOT
ATOM      1  C   UNL     1     -34.295  -6.070 -32.392  1.00  0.00     0.004 C 
ENDROOT
BRANCH   1   2
ATOM      2  C   UNL     1     -34.593  -5.040 -33.493  1.00  0.00     0.027 C 
BRANCH   2   3
ATOM      3  C   UNL     1     -33.557  -3.954 -33.558  1.00  0.00    -0.025 C 
ATOM      4  C   UNL     1     -33.899  -2.664 -33.627  1.00  0.00     0.020 C 
BRANCH   4   5
ATOM      5  C   UNL     1     -32.895  -1.591 -33.684  1.00  0.00     0.064 C 
ATOM      6  O   UNL     1     -32.770  -0.804 -32.710  1.00  0.00    -0.545 OA
ATOM      7  O   UNL     1     -32.080  -1.432 -34.798  1.00  0.00    -0.545 OA
ENDBRANCH   4   5
ENDBRANCH   2   3
ENDBRANCH   1   2
BRANCH   1   8
ATOM      8  C   UNL     1     -35.484  -6.259 -31.435  1.00  0.00     0.000 C 
BRANCH   8   9
ATOM      9  C   UNL     1     -35.345  -5.403 -30.158  1.00  0.00    -0.000 C 
BRANCH   9  10
ATOM     10  C   UNL     1     -33.912  -4.904 -29.905  1.00  0.00    -0.003 C 
ATOM     11  C   UNL     1     -33.807  -3.381 -29.876  1.00  0.00     0.004 C 
ENDBRANCH   9  10
ENDBRANCH   8   9
ENDBRANCH   1   8
TORSDOF 6
ENDMDL
