MODEL 1
REMARK VINA RESULT:    -2.445      0.000      0.000
REMARK INTER + INTRA:          -2.737
REMARK INTER:                  -2.731
REMARK INTRA:                  -0.007
REMARK UNBOUND:                -0.007
REMARK SMILES CCCC(=O)[O-]
REMARK SMILES IDX 3 1 4 2 5 3 6 4 2 5 1 6
REMARK H PARENT
REMARK Flexibility Score: inf
ROOT
ATOM      1  C   UNL     1      16.081  43.689   5.184  1.00  0.00     0.052 C 
ENDROOT
BRANCH   1   2
ATOM      2  C   UNL     1      17.243  42.942   5.765  1.00  0.00     0.041 C 
ATOM      3  O   UNL     1      17.477  42.994   7.002  1.00  0.00    -0.550 OA
ATOM      4  O   UNL     1      18.046  42.159   4.945  1.00  0.00    -0.550 OA
ENDBRANCH   1   2
BRANCH   1   5
ATOM      5  C   UNL     1      15.346  42.860   4.123  1.00  0.00     0.003 C 
ATOM      6  C   UNL     1      13.856  43.194   4.055  1.00  0.00     0.004 C 
ENDBRANCH   1   5
TORSDOF 2
ENDMDL
MODEL 2
REMARK VINA RESULT:    -2.443     17.632     18.120
REMARK INTER + INTRA:          -2.735
REMARK INTER:                  -2.717
REMARK INTRA:                  -0.018
REMARK UNBOUND:                -0.007
REMARK SMILES CCCC(=O)[O-]
REMARK SMILES IDX 3 1 4 2 5 3 6 4 2 5 1 6
REMARK H PARENT
REMARK Flexibility Score: inf
ROOT
ATOM      1  C   UNL     1       8.317  43.946  20.476  1.00  0.00     0.052 C 
ENDROOT
BRANCH   1   2
ATOM      2  C   UNL     1       8.510  43.891  21.960  1.00  0.00     0.041 C 
ATOM      3  O   UNL     1       9.651  43.664  22.444  1.00  0.00    -0.550 OA
ATOM      4  O   UNL     1       7.436  44.125  22.810  1.00  0.00    -0.550 OA
ENDBRANCH   1   2
BRANCH   1   5
ATOM      5  C   UNL     1       7.001  43.284  20.049  1.00  0.00     0.003 C 
ATOM      6  C   UNL     1       6.332  44.016  18.886  1.00  0.00     0.004 C 
ENDBRANCH   1   5
TORSDOF 2
ENDMDL
MODEL 3
REMARK VINA RESULT:    -2.429      0.091      1.324
REMARK INTER + INTRA:          -2.720
REMARK INTER:                  -2.711
REMARK INTRA:                  -0.008
REMARK UNBOUND:                -0.007
REMARK SMILES CCCC(=O)[O-]
REMARK SMILES IDX 3 1 4 2 5 3 6 4 2 5 1 6
REMARK H PARENT
REMARK Flexibility Score: inf
ROOT
ATOM      1  C   UNL     1      16.088  43.711   5.198  1.00  0.00     0.052 C 
ENDROOT
BRANCH   1   2
ATOM      2  C   UNL     1      17.254  42.961   5.766  1.00  0.00     0.041 C 
ATOM      3  O   UNL     1      17.977  42.250   5.019  1.00  0.00    -0.550 OA
ATOM      4  O   UNL     1      17.563  43.076   7.116  1.00  0.00    -0.550 OA
ENDBRANCH   1   2
BRANCH   1   5
ATOM      5  C   UNL     1      15.372  42.906   4.107  1.00  0.00     0.003 C 
ATOM      6  C   UNL     1      13.870  43.188   4.067  1.00  0.00     0.004 C 
ENDBRANCH   1   5
TORSDOF 2
ENDMDL
MODEL 4
REMARK VINA RESULT:    -2.331     21.281     21.813
REMARK INTER + INTRA:          -2.611
REMARK INTER:                  -2.573
REMARK INTRA:                  -0.038
REMARK UNBOUND:                -0.007
REMARK SMILES CCCC(=O)[O-]
REMARK SMILES IDX 3 1 4 2 5 3 6 4 2 5 1 6
REMARK H PARENT
REMARK Flexibility Score: inf
ROOT
ATOM      1  C   UNL     1       4.482  24.987   6.604  1.00  0.00     0.052 C 
ENDROOT
BRANCH   1   2
ATOM      2  C   UNL     1       4.949  25.038   8.026  1.00  0.00     0.041 C 
ATOM      3  O   UNL     1       4.361  24.364   8.913  1.00  0.00    -0.550 OA
ATOM      4  O   UNL     1       6.057  25.804   8.367  1.00  0.00    -0.550 OA
ENDBRANCH   1   2
BRANCH   1   5
ATOM      5  C   UNL     1       3.028  24.509   6.500  1.00  0.00     0.003 C 
ATOM      6  C   UNL     1       2.046  25.668   6.335  1.00  0.00     0.004 C 
ENDBRANCH   1   5
TORSDOF 2
ENDMDL
MODEL 5
REMARK VINA RESULT:    -2.288     21.579     22.209
REMARK INTER + INTRA:          -2.562
REMARK INTER:                  -2.524
REMARK INTRA:                  -0.039
REMARK UNBOUND:                -0.007
REMARK SMILES CCCC(=O)[O-]
REMARK SMILES IDX 3 1 4 2 5 3 6 4 2 5 1 6
REMARK H PARENT
REMARK Flexibility Score: inf
ROOT
ATOM      1  C   UNL     1       4.026  24.897   6.310  1.00  0.00     0.052 C 
ENDROOT
BRANCH   1   2
ATOM      2  C   UNL     1       2.611  25.352   6.496  1.00  0.00     0.041 C 
ATOM      3  O   UNL     1       1.909  25.666   5.498  1.00  0.00    -0.550 OA
ATOM      4  O   UNL     1       2.057  25.395   7.769  1.00  0.00    -0.550 OA
ENDBRANCH   1   2
BRANCH   1   5
ATOM      5  C   UNL     1       4.714  24.617   7.652  1.00  0.00     0.003 C 
ATOM      6  C   UNL     1       5.671  25.737   8.059  1.00  0.00     0.004 C 
ENDBRANCH   1   5
TORSDOF 2
ENDMDL
MODEL 6
REMARK VINA RESULT:    -2.207     22.154     22.806
REMARK INTER + INTRA:          -2.472
REMARK INTER:                  -2.435
REMARK INTRA:                  -0.038
REMARK UNBOUND:                -0.007
REMARK SMILES CCCC(=O)[O-]
REMARK SMILES IDX 3 1 4 2 5 3 6 4 2 5 1 6
REMARK H PARENT
REMARK Flexibility Score: inf
ROOT
ATOM      1  C   UNL     1       2.100  25.602   5.974  1.00  0.00     0.052 C 
ENDROOT
BRANCH   1   2
ATOM      2  C   UNL     1       1.087  26.000   7.004  1.00  0.00     0.041 C 
ATOM      3  O   UNL     1       1.343  25.868   8.230  1.00  0.00    -0.550 OA
ATOM      4  O   UNL     1      -0.127  26.547   6.609  1.00  0.00    -0.550 OA
ENDBRANCH   1   2
BRANCH   1   5
ATOM      5  C   UNL     1       3.061  24.532   6.506  1.00  0.00     0.003 C 
ATOM      6  C   UNL     1       4.475  25.073   6.717  1.00  0.00     0.004 C 
ENDBRANCH   1   5
TORSDOF 2
ENDMDL
MODEL 7
REMARK VINA RESULT:    -2.161     17.966     18.318
REMARK INTER + INTRA:          -2.421
REMARK INTER:                  -2.413
REMARK INTRA:                  -0.007
REMARK UNBOUND:                -0.007
REMARK SMILES CCCC(=O)[O-]
REMARK SMILES IDX 3 1 4 2 5 3 6 4 2 5 1 6
REMARK H PARENT
REMARK Flexibility Score: inf
ROOT
ATOM      1  C   UNL     1       9.233  43.145  22.759  1.00  0.00     0.052 C 
ENDROOT
BRANCH   1   2
ATOM      2  C   UNL     1      10.674  42.744  22.841  1.00  0.00     0.041 C 
ATOM      3  O   UNL     1      11.568  43.617  22.995  1.00  0.00    -0.550 OA
ATOM      4  O   UNL     1      11.026  41.402  22.781  1.00  0.00    -0.550 OA
ENDBRANCH   1   2
BRANCH   1   5
ATOM      5  C   UNL     1       8.974  44.098  21.585  1.00  0.00     0.003 C 
ATOM      6  C   UNL     1       7.762  43.679  20.753  1.00  0.00     0.004 C 
ENDBRANCH   1   5
TORSDOF 2
ENDMDL
MODEL 8
REMARK VINA RESULT:    -2.144     22.027     22.365
REMARK INTER + INTRA:          -2.401
REMARK INTER:                  -2.362
REMARK INTRA:                  -0.039
REMARK UNBOUND:                -0.007
REMARK SMILES CCCC(=O)[O-]
REMARK SMILES IDX 3 1 4 2 5 3 6 4 2 5 1 6
REMARK H PARENT
REMARK Flexibility Score: inf
ROOT
ATOM      1  C   UNL     1       4.978  25.001   8.355  1.00  0.00     0.052 C 
ENDROOT
BRANCH   1   2
ATOM      2  C   UNL     1       4.257  24.601   9.606  1.00  0.00     0.041 C 
ATOM      3  O   UNL     1       4.827  23.875  10.463  1.00  0.00    -0.550 OA
ATOM      4  O   UNL     1       2.967  25.059   9.840  1.00  0.00    -0.550 OA
ENDBRANCH   1   2
BRANCH   1   5
ATOM      5  C   UNL     1       4.497  24.198   7.140  1.00  0.00     0.003 C 
ATOM      6  C   UNL     1       3.539  24.997   6.257  1.00  0.00     0.004 C 
ENDBRANCH   1   5
TORSDOF 2
ENDMDL
MODEL 9
REMARK VINA RESULT:    -2.108      2.068      3.363
REMARK INTER + INTRA:          -2.361
REMARK INTER:                  -2.353
REMARK INTRA:                  -0.008
REMARK UNBOUND:                -0.007
REMARK SMILES CCCC(=O)[O-]
REMARK SMILES IDX 3 1 4 2 5 3 6 4 2 5 1 6
REMARK H PARENT
REMARK Flexibility Score: inf
ROOT
ATOM      1  C   UNL     1      16.125  43.994   5.430  1.00  0.00     0.052 C 
ENDROOT
BRANCH   1   2
ATOM      2  C   UNL     1      15.573  43.039   4.416  1.00  0.00     0.041 C 
ATOM      3  O   UNL     1      16.340  42.244   3.809  1.00  0.00    -0.550 OA
ATOM      4  O   UNL     1      14.207  43.003   4.166  1.00  0.00    -0.550 OA
ENDBRANCH   1   2
BRANCH   1   5
ATOM      5  C   UNL     1      17.252  43.359   6.254  1.00  0.00     0.003 C 
ATOM      6  C   UNL     1      17.528  44.125   7.547  1.00  0.00     0.004 C 
ENDBRANCH   1   5
TORSDOF 2
ENDMDL
