MODEL 1
REMARK VINA RESULT:    -3.935      0.000      0.000
REMARK INTER + INTRA:          -3.935
REMARK INTER:                  -3.935
REMARK INTRA:                   0.000
REMARK UNBOUND:                 0.000
REMARK SMILES O=c1ccc2ccccc2o1
REMARK SMILES IDX 7 1 8 2 9 3 10 4 5 5 6 6 4 7 3 8 2 9 1 10 11 11
REMARK H PARENT
REMARK Flexibility Score: inf
ROOT
ATOM      1  C   UNL     1      18.919  15.232   0.552  1.00  0.00     0.001 A 
ATOM      2  C   UNL     1      18.884  14.754   1.866  1.00  0.00     0.004 A 
ATOM      3  C   UNL     1      20.069  14.385   2.512  1.00  0.00     0.048 A 
ATOM      4  C   UNL     1      21.294  14.494   1.845  1.00  0.00     0.138 A 
ATOM      5  C   UNL     1      21.329  14.978   0.517  1.00  0.00     0.018 A 
ATOM      6  C   UNL     1      20.138  15.345  -0.125  1.00  0.00     0.012 A 
ATOM      7  C   UNL     1      22.567  15.075  -0.124  1.00  0.00     0.019 A 
ATOM      8  C   UNL     1      23.723  14.697   0.559  1.00  0.00     0.094 A 
ATOM      9  C   UNL     1      23.612  14.227   1.873  1.00  0.00     0.336 A 
ATOM     10  O   UNL     1      24.644  13.881   2.505  1.00  0.00    -0.246 OA
ATOM     11  O   UNL     1      22.422  14.144   2.460  1.00  0.00    -0.423 OA
ENDROOT
TORSDOF 0
ENDMDL
MODEL 2
REMARK VINA RESULT:    -2.681      1.000      2.148
REMARK INTER + INTRA:          -2.681
REMARK INTER:                  -2.681
REMARK INTRA:                   0.000
REMARK UNBOUND:                 0.000
REMARK SMILES O=c1ccc2ccccc2o1
REMARK SMILES IDX 7 1 8 2 9 3 10 4 5 5 6 6 4 7 3 8 2 9 1 10 11 11
REMARK H PARENT
REMARK Flexibility Score: inf
ROOT
ATOM      1  C   UNL     1      18.549  14.994   1.074  1.00  0.00     0.001 A 
ATOM      2  C   UNL     1      19.269  15.214  -0.105  1.00  0.00     0.004 A 
ATOM      3  C   UNL     1      20.657  15.041  -0.124  1.00  0.00     0.048 A 
ATOM      4  C   UNL     1      21.331  14.648   1.038  1.00  0.00     0.138 A 
ATOM      5  C   UNL     1      20.602  14.426   2.229  1.00  0.00     0.018 A 
ATOM      6  C   UNL     1      19.211  14.601   2.241  1.00  0.00     0.012 A 
ATOM      7  C   UNL     1      21.302  14.035   3.374  1.00  0.00     0.019 A 
ATOM      8  C   UNL     1      22.686  13.875   3.310  1.00  0.00     0.094 A 
ATOM      9  C   UNL     1      23.340  14.112   2.095  1.00  0.00     0.336 A 
ATOM     10  O   UNL     1      24.589  13.973   2.018  1.00  0.00    -0.246 OA
ATOM     11  O   UNL     1      22.651  14.484   1.021  1.00  0.00    -0.423 OA
ENDROOT
TORSDOF 0
ENDMDL
MODEL 3
REMARK VINA RESULT:    -2.391     13.992     14.763
REMARK INTER + INTRA:          -2.391
REMARK INTER:                  -2.391
REMARK INTRA:                   0.000
REMARK UNBOUND:                 0.000
REMARK SMILES O=c1ccc2ccccc2o1
REMARK SMILES IDX 7 1 8 2 9 3 10 4 5 5 6 6 4 7 3 8 2 9 1 10 11 11
REMARK H PARENT
REMARK Flexibility Score: inf
ROOT
ATOM      1  C   UNL     1      27.507  30.787   1.392  1.00  0.00     0.001 A 
ATOM      2  C   UNL     1      27.489  30.270   0.093  1.00  0.00     0.004 A 
ATOM      3  C   UNL     1      27.191  28.920  -0.125  1.00  0.00     0.048 A 
ATOM      4  C   UNL     1      26.909  28.082   0.960  1.00  0.00     0.138 A 
ATOM      5  C   UNL     1      26.927  28.604   2.274  1.00  0.00     0.018 A 
ATOM      6  C   UNL     1      27.227  29.958   2.484  1.00  0.00     0.012 A 
ATOM      7  C   UNL     1      26.642  27.743   3.337  1.00  0.00     0.019 A 
ATOM      8  C   UNL     1      26.351  26.405   3.074  1.00  0.00     0.094 A 
ATOM      9  C   UNL     1      26.351  25.958   1.748  1.00  0.00     0.336 A 
ATOM     10  O   UNL     1      26.090  24.753   1.492  1.00  0.00    -0.246 OA
ATOM     11  O   UNL     1      26.626  26.798   0.754  1.00  0.00    -0.423 OA
ENDROOT
TORSDOF 0
ENDMDL
MODEL 4
REMARK VINA RESULT:    -1.065     14.364     15.068
REMARK INTER + INTRA:          -1.065
REMARK INTER:                  -1.065
REMARK INTRA:                   0.000
REMARK UNBOUND:                 0.000
REMARK SMILES O=c1ccc2ccccc2o1
REMARK SMILES IDX 7 1 8 2 9 3 10 4 5 5 6 6 4 7 3 8 2 9 1 10 11 11
REMARK H PARENT
REMARK Flexibility Score: inf
ROOT
ATOM      1  C   UNL     1      26.373  25.796   2.696  1.00  0.00     0.001 A 
ATOM      2  C   UNL     1      26.750  25.552   1.371  1.00  0.00     0.004 A 
ATOM      3  C   UNL     1      27.134  26.611   0.542  1.00  0.00     0.048 A 
ATOM      4  C   UNL     1      27.144  27.921   1.037  1.00  0.00     0.138 A 
ATOM      5  C   UNL     1      26.763  28.167   2.376  1.00  0.00     0.018 A 
ATOM      6  C   UNL     1      26.379  27.101   3.201  1.00  0.00     0.012 A 
ATOM      7  C   UNL     1      26.782  29.485   2.842  1.00  0.00     0.019 A 
ATOM      8  C   UNL     1      27.172  30.510   1.980  1.00  0.00     0.094 A 
ATOM      9  C   UNL     1      27.535  30.191   0.667  1.00  0.00     0.336 A 
ATOM     10  O   UNL     1      27.890  31.103  -0.125  1.00  0.00    -0.246 OA
ATOM     11  O   UNL     1      27.508  28.929   0.248  1.00  0.00    -0.423 OA
ENDROOT
TORSDOF 0
ENDMDL
