MODEL 1
REMARK VINA RESULT:    -4.007      0.000      0.000
REMARK INTER + INTRA:          -5.806
REMARK INTER:                  -5.412
REMARK INTRA:                  -0.394
REMARK UNBOUND:                -0.394
REMARK SMILES CCCCCCCC(=O)[O-]
REMARK SMILES IDX 5 1 6 2 7 3 8 4 9 5 10 6 4 7 3 8 2 9 1 10
REMARK H PARENT
REMARK Flexibility Score: inf
ROOT
ATOM      1  C   UNL     1     -42.992  27.469  25.876  1.00  0.00     0.000 C 
ENDROOT
BRANCH   1   2
ATOM      2  C   UNL     1     -44.176  26.799  25.155  1.00  0.00     0.006 C 
BRANCH   2   3
ATOM      3  C   UNL     1     -44.574  27.549  23.877  1.00  0.00     0.053 C 
BRANCH   3   4
ATOM      4  C   UNL     1     -44.608  26.639  22.687  1.00  0.00     0.041 C 
ATOM      5  O   UNL     1     -44.924  27.090  21.554  1.00  0.00    -0.550 OA
ATOM      6  O   UNL     1     -44.327  25.287  22.836  1.00  0.00    -0.550 OA
ENDBRANCH   3   4
ENDBRANCH   2   3
ENDBRANCH   1   2
BRANCH   1   7
ATOM      7  C   UNL     1     -43.408  28.717  26.670  1.00  0.00     0.000 C 
BRANCH   7   8
ATOM      8  C   UNL     1     -42.835  30.015  26.071  1.00  0.00    -0.000 C 
BRANCH   8   9
ATOM      9  C   UNL     1     -43.929  31.044  25.747  1.00  0.00    -0.003 C 
ATOM     10  C   UNL     1     -44.191  31.180  24.248  1.00  0.00     0.004 C 
ENDBRANCH   8   9
ENDBRANCH   7   8
ENDBRANCH   1   7
TORSDOF 6
ENDMDL
MODEL 2
REMARK VINA RESULT:    -3.606      2.340      3.263
REMARK INTER + INTRA:          -5.266
REMARK INTER:                  -4.833
REMARK INTRA:                  -0.433
REMARK UNBOUND:                -0.394
REMARK SMILES CCCCCCCC(=O)[O-]
REMARK SMILES IDX 5 1 6 2 7 3 8 4 9 5 10 6 4 7 3 8 2 9 1 10
REMARK H PARENT
REMARK Flexibility Score: inf
ROOT
ATOM      1  C   UNL     1     -43.636  28.733  24.040  1.00  0.00     0.000 C 
ENDROOT
BRANCH   1   2
ATOM      2  C   UNL     1     -44.546  27.494  24.117  1.00  0.00     0.006 C 
BRANCH   2   3
ATOM      3  C   UNL     1     -44.884  27.114  25.564  1.00  0.00     0.053 C 
BRANCH   3   4
ATOM      4  C   UNL     1     -43.687  27.216  26.460  1.00  0.00     0.041 C 
ATOM      5  O   UNL     1     -43.702  27.994  27.450  1.00  0.00    -0.550 OA
ATOM      6  O   UNL     1     -42.544  26.479  26.180  1.00  0.00    -0.550 OA
ENDBRANCH   3   4
ENDBRANCH   2   3
ENDBRANCH   1   2
BRANCH   1   7
ATOM      7  C   UNL     1     -44.289  29.903  23.286  1.00  0.00     0.000 C 
BRANCH   7   8
ATOM      8  C   UNL     1     -44.329  31.194  24.123  1.00  0.00    -0.000 C 
BRANCH   8   9
ATOM      9  C   UNL     1     -44.942  30.972  25.514  1.00  0.00    -0.003 C 
ATOM     10  C   UNL     1     -44.018  31.415  26.648  1.00  0.00     0.004 C 
ENDBRANCH   8   9
ENDBRANCH   7   8
ENDBRANCH   1   7
TORSDOF 6
ENDMDL
MODEL 3
REMARK VINA RESULT:    -3.594     12.894     14.422
REMARK INTER + INTRA:          -5.249
REMARK INTER:                  -5.019
REMARK INTRA:                  -0.230
REMARK UNBOUND:                -0.394
REMARK SMILES CCCCCCCC(=O)[O-]
REMARK SMILES IDX 5 1 6 2 7 3 8 4 9 5 10 6 4 7 3 8 2 9 1 10
REMARK H PARENT
REMARK Flexibility Score: inf
ROOT
ATOM      1  C   UNL     1     -31.611  24.343  29.594  1.00  0.00     0.000 C 
ENDROOT
BRANCH   1   2
ATOM      2  C   UNL     1     -32.120  25.118  30.823  1.00  0.00     0.006 C 
BRANCH   2   3
ATOM      3  C   UNL     1     -33.602  25.491  30.699  1.00  0.00     0.053 C 
BRANCH   3   4
ATOM      4  C   UNL     1     -34.394  25.021  31.881  1.00  0.00     0.041 C 
ATOM      5  O   UNL     1     -35.419  24.309  31.714  1.00  0.00    -0.550 OA
ATOM      6  O   UNL     1     -34.020  25.399  33.164  1.00  0.00    -0.550 OA
ENDBRANCH   3   4
ENDBRANCH   2   3
ENDBRANCH   1   2
BRANCH   1   7
ATOM      7  C   UNL     1     -31.836  22.827  29.712  1.00  0.00     0.000 C 
BRANCH   7   8
ATOM      8  C   UNL     1     -31.159  22.040  28.576  1.00  0.00    -0.000 C 
BRANCH   8   9
ATOM      9  C   UNL     1     -29.683  22.425  28.394  1.00  0.00    -0.003 C 
ATOM     10  C   UNL     1     -29.307  22.660  26.931  1.00  0.00     0.004 C 
ENDBRANCH   8   9
ENDBRANCH   7   8
ENDBRANCH   1   7
TORSDOF 6
ENDMDL
MODEL 4
REMARK VINA RESULT:    -3.590     13.210     14.682
REMARK INTER + INTRA:          -5.244
REMARK INTER:                  -4.989
REMARK INTRA:                  -0.255
REMARK UNBOUND:                -0.394
REMARK SMILES CCCCCCCC(=O)[O-]
REMARK SMILES IDX 5 1 6 2 7 3 8 4 9 5 10 6 4 7 3 8 2 9 1 10
REMARK H PARENT
REMARK Flexibility Score: inf
ROOT
ATOM      1  C   UNL     1     -31.947  22.838  29.733  1.00  0.00     0.000 C 
ENDROOT
BRANCH   1   2
ATOM      2  C   UNL     1     -31.648  24.341  29.588  1.00  0.00     0.006 C 
BRANCH   2   3
ATOM      3  C   UNL     1     -32.136  25.148  30.798  1.00  0.00     0.053 C 
BRANCH   3   4
ATOM      4  C   UNL     1     -33.629  25.108  30.928  1.00  0.00     0.041 C 
ATOM      5  O   UNL     1     -34.352  25.728  30.105  1.00  0.00    -0.550 OA
ATOM      6  O   UNL     1     -34.218  24.416  31.978  1.00  0.00    -0.550 OA
ENDBRANCH   3   4
ENDBRANCH   2   3
ENDBRANCH   1   2
BRANCH   1   7
ATOM      7  C   UNL     1     -31.031  21.963  28.863  1.00  0.00     0.000 C 
BRANCH   7   8
ATOM      8  C   UNL     1     -29.970  22.786  28.112  1.00  0.00    -0.000 C 
BRANCH   8   9
ATOM      9  C   UNL     1     -29.470  22.081  26.842  1.00  0.00    -0.003 C 
ATOM     10  C   UNL     1     -28.304  22.811  26.176  1.00  0.00     0.004 C 
ENDBRANCH   8   9
ENDBRANCH   7   8
ENDBRANCH   1   7
TORSDOF 6
ENDMDL
MODEL 5
REMARK VINA RESULT:    -3.584     12.691     14.150
REMARK INTER + INTRA:          -5.235
REMARK INTER:                  -4.922
REMARK INTRA:                  -0.313
REMARK UNBOUND:                -0.394
REMARK SMILES CCCCCCCC(=O)[O-]
REMARK SMILES IDX 5 1 6 2 7 3 8 4 9 5 10 6 4 7 3 8 2 9 1 10
REMARK H PARENT
REMARK Flexibility Score: inf
ROOT
ATOM      1  C   UNL     1     -31.998  25.224  30.771  1.00  0.00     0.000 C 
ENDROOT
BRANCH   1   2
ATOM      2  C   UNL     1     -33.533  25.345  30.749  1.00  0.00     0.006 C 
BRANCH   2   3
ATOM      3  C   UNL     1     -34.148  25.160  32.142  1.00  0.00     0.053 C 
BRANCH   3   4
ATOM      4  C   UNL     1     -34.674  23.770  32.337  1.00  0.00     0.041 C 
ATOM      5  O   UNL     1     -35.912  23.548  32.279  1.00  0.00    -0.550 OA
ATOM      6  O   UNL     1     -33.800  22.728  32.619  1.00  0.00    -0.550 OA
ENDBRANCH   3   4
ENDBRANCH   2   3
ENDBRANCH   1   2
BRANCH   1   7
ATOM      7  C   UNL     1     -31.450  24.400  29.595  1.00  0.00     0.000 C 
BRANCH   7   8
ATOM      8  C   UNL     1     -31.866  22.920  29.668  1.00  0.00    -0.000 C 
BRANCH   8   9
ATOM      9  C   UNL     1     -31.231  22.076  28.552  1.00  0.00    -0.003 C 
ATOM     10  C   UNL     1     -29.807  22.515  28.212  1.00  0.00     0.004 C 
ENDBRANCH   8   9
ENDBRANCH   7   8
ENDBRANCH   1   7
TORSDOF 6
ENDMDL
MODEL 6
REMARK VINA RESULT:    -3.480     12.709     13.727
REMARK INTER + INTRA:          -5.095
REMARK INTER:                  -4.681
REMARK INTRA:                  -0.414
REMARK UNBOUND:                -0.394
REMARK SMILES CCCCCCCC(=O)[O-]
REMARK SMILES IDX 5 1 6 2 7 3 8 4 9 5 10 6 4 7 3 8 2 9 1 10
REMARK H PARENT
REMARK Flexibility Score: inf
ROOT
ATOM      1  C   UNL     1     -33.643  25.308  30.362  1.00  0.00     0.000 C 
ENDROOT
BRANCH   1   2
ATOM      2  C   UNL     1     -32.191  25.010  30.779  1.00  0.00     0.006 C 
BRANCH   2   3
ATOM      3  C   UNL     1     -31.417  24.261  29.687  1.00  0.00     0.053 C 
BRANCH   3   4
ATOM      4  C   UNL     1     -31.760  22.802  29.665  1.00  0.00     0.041 C 
ATOM      5  O   UNL     1     -31.509  22.109  28.643  1.00  0.00    -0.550 OA
ATOM      6  O   UNL     1     -32.388  22.217  30.756  1.00  0.00    -0.550 OA
ENDBRANCH   3   4
ENDBRANCH   2   3
ENDBRANCH   1   2
BRANCH   1   7
ATOM      7  C   UNL     1     -34.634  25.189  31.531  1.00  0.00     0.000 C 
BRANCH   7   8
ATOM      8  C   UNL     1     -33.953  24.742  32.837  1.00  0.00    -0.000 C 
BRANCH   8   9
ATOM      9  C   UNL     1     -34.713  23.602  33.534  1.00  0.00    -0.003 C 
ATOM     10  C   UNL     1     -35.679  22.874  32.600  1.00  0.00     0.004 C 
ENDBRANCH   8   9
ENDBRANCH   7   8
ENDBRANCH   1   7
TORSDOF 6
ENDMDL
MODEL 7
REMARK VINA RESULT:    -3.375     13.237     14.468
REMARK INTER + INTRA:          -4.953
REMARK INTER:                  -4.675
REMARK INTRA:                  -0.278
REMARK UNBOUND:                -0.394
REMARK SMILES CCCCCCCC(=O)[O-]
REMARK SMILES IDX 5 1 6 2 7 3 8 4 9 5 10 6 4 7 3 8 2 9 1 10
REMARK H PARENT
REMARK Flexibility Score: inf
ROOT
ATOM      1  C   UNL     1     -31.584  24.371  29.583  1.00  0.00     0.000 C 
ENDROOT
BRANCH   1   2
ATOM      2  C   UNL     1     -31.564  22.845  29.786  1.00  0.00     0.006 C 
BRANCH   2   3
ATOM      3  C   UNL     1     -31.143  22.098  28.514  1.00  0.00     0.053 C 
BRANCH   3   4
ATOM      4  C   UNL     1     -29.724  22.397  28.138  1.00  0.00     0.041 C 
ATOM      5  O   UNL     1     -29.456  22.861  26.998  1.00  0.00    -0.550 OA
ATOM      6  O   UNL     1     -28.696  22.129  29.031  1.00  0.00    -0.550 OA
ENDBRANCH   3   4
ENDBRANCH   2   3
ENDBRANCH   1   2
BRANCH   1   7
ATOM      7  C   UNL     1     -32.140  25.125  30.801  1.00  0.00     0.000 C 
BRANCH   7   8
ATOM      8  C   UNL     1     -33.629  25.482  30.645  1.00  0.00    -0.000 C 
BRANCH   8   9
ATOM      9  C   UNL     1     -34.515  24.771  31.681  1.00  0.00    -0.003 C 
ATOM     10  C   UNL     1     -34.124  25.100  33.121  1.00  0.00     0.004 C 
ENDBRANCH   8   9
ENDBRANCH   7   8
ENDBRANCH   1   7
TORSDOF 6
ENDMDL
MODEL 8
REMARK VINA RESULT:    -3.295     12.549     13.871
REMARK INTER + INTRA:          -4.845
REMARK INTER:                  -4.393
REMARK INTRA:                  -0.452
REMARK UNBOUND:                -0.394
REMARK SMILES CCCCCCCC(=O)[O-]
REMARK SMILES IDX 5 1 6 2 7 3 8 4 9 5 10 6 4 7 3 8 2 9 1 10
REMARK H PARENT
REMARK Flexibility Score: inf
ROOT
ATOM      1  C   UNL     1     -33.910  25.421  30.995  1.00  0.00     0.000 C 
ENDROOT
BRANCH   1   2
ATOM      2  C   UNL     1     -34.393  24.796  32.316  1.00  0.00     0.006 C 
BRANCH   2   3
ATOM      3  C   UNL     1     -35.562  23.825  32.104  1.00  0.00     0.053 C 
BRANCH   3   4
ATOM      4  C   UNL     1     -35.512  22.676  33.064  1.00  0.00     0.041 C 
ATOM      5  O   UNL     1     -34.472  22.463  33.742  1.00  0.00    -0.550 OA
ATOM      6  O   UNL     1     -36.599  21.821  33.184  1.00  0.00    -0.550 OA
ENDBRANCH   3   4
ENDBRANCH   2   3
ENDBRANCH   1   2
BRANCH   1   7
ATOM      7  C   UNL     1     -32.398  25.257  30.777  1.00  0.00     0.000 C 
BRANCH   7   8
ATOM      8  C   UNL     1     -32.068  24.234  29.676  1.00  0.00    -0.000 C 
BRANCH   8   9
ATOM      9  C   UNL     1     -31.248  23.047  30.204  1.00  0.00    -0.003 C 
ATOM     10  C   UNL     1     -32.066  22.106  31.089  1.00  0.00     0.004 C 
ENDBRANCH   8   9
ENDBRANCH   7   8
ENDBRANCH   1   7
TORSDOF 6
ENDMDL
MODEL 9
REMARK VINA RESULT:    -3.290      1.402      2.170
REMARK INTER + INTRA:          -4.838
REMARK INTER:                  -4.648
REMARK INTRA:                  -0.191
REMARK UNBOUND:                -0.394
REMARK SMILES CCCCCCCC(=O)[O-]
REMARK SMILES IDX 5 1 6 2 7 3 8 4 9 5 10 6 4 7 3 8 2 9 1 10
REMARK H PARENT
REMARK Flexibility Score: inf
ROOT
ATOM      1  C   UNL     1     -44.042  27.413  24.268  1.00  0.00     0.000 C 
ENDROOT
BRANCH   1   2
ATOM      2  C   UNL     1     -45.100  26.828  23.315  1.00  0.00     0.006 C 
BRANCH   2   3
ATOM      3  C   UNL     1     -44.494  25.830  22.320  1.00  0.00     0.053 C 
BRANCH   3   4
ATOM      4  C   UNL     1     -44.710  26.259  20.900  1.00  0.00     0.041 C 
ATOM      5  O   UNL     1     -45.125  27.421  20.647  1.00  0.00    -0.550 OA
ATOM      6  O   UNL     1     -44.488  25.365  19.862  1.00  0.00    -0.550 OA
ENDBRANCH   3   4
ENDBRANCH   2   3
ENDBRANCH   1   2
BRANCH   1   7
ATOM      7  C   UNL     1     -44.315  27.072  25.741  1.00  0.00     0.000 C 
BRANCH   7   8
ATOM      8  C   UNL     1     -44.544  28.326  26.604  1.00  0.00    -0.000 C 
BRANCH   8   9
ATOM      9  C   UNL     1     -43.252  29.125  26.833  1.00  0.00    -0.003 C 
ATOM     10  C   UNL     1     -43.237  30.457  26.083  1.00  0.00     0.004 C 
ENDBRANCH   8   9
ENDBRANCH   7   8
ENDBRANCH   1   7
TORSDOF 6
ENDMDL
