MODEL 1
REMARK VINA RESULT:    -4.929      0.000      0.000
REMARK INTER + INTRA:         -10.948
REMARK INTER:                  -9.251
REMARK INTRA:                  -1.697
REMARK UNBOUND:                -1.697
REMARK SMILES O=C([O-])CCCCCCCCCCCCCCC(=O)[O-]
REMARK SMILES IDX 10 1 9 2 8 3 7 4 6 5 5 6 4 7 2 8 1 9 3 10 11 11 12 12 13 13
REMARK SMILES IDX 14 14 15 15 16 16 17 17 18 18 19 19 20 20
REMARK H PARENT
REMARK Flexibility Score: inf
ROOT
ATOM      1  C   UNL     1      15.322  28.932  63.674  1.00  0.00     0.000 C 
ENDROOT
BRANCH   1   2
ATOM      2  C   UNL     1      16.593  28.199  63.213  1.00  0.00     0.000 C 
BRANCH   2   3
ATOM      3  C   UNL     1      17.075  28.670  61.829  1.00  0.00     0.000 C 
BRANCH   3   4
ATOM      4  C   UNL     1      17.306  30.189  61.770  1.00  0.00     0.000 C 
BRANCH   4   5
ATOM      5  C   UNL     1      16.937  30.793  60.407  1.00  0.00     0.000 C 
BRANCH   5   6
ATOM      6  C   UNL     1      15.768  30.030  59.766  1.00  0.00     0.006 C 
BRANCH   6   7
ATOM      7  C   UNL     1      14.741  30.971  59.127  1.00  0.00     0.053 C 
BRANCH   7   8
ATOM      8  C   UNL     1      14.494  30.630  57.688  1.00  0.00     0.041 C 
ATOM      9  O   UNL     1      15.227  29.792  57.101  1.00  0.00    -0.550 OA
ATOM     10  O   UNL     1      13.432  31.213  57.008  1.00  0.00    -0.550 OA
ENDBRANCH   7   8
ENDBRANCH   6   7
ENDBRANCH   5   6
ENDBRANCH   4   5
ENDBRANCH   3   4
ENDBRANCH   2   3
ENDBRANCH   1   2
BRANCH   1  11
ATOM     11  C   UNL     1      14.123  28.684  62.741  1.00  0.00     0.000 C 
BRANCH  11  12
ATOM     12  C   UNL     1      13.407  29.984  62.339  1.00  0.00     0.000 C 
BRANCH  12  13
ATOM     13  C   UNL     1      11.948  29.745  61.912  1.00  0.00     0.000 C 
BRANCH  13  14
ATOM     14  C   UNL     1      11.836  28.808  60.698  1.00  0.00     0.000 C 
BRANCH  14  15
ATOM     15  C   UNL     1      11.342  29.533  59.433  1.00  0.00     0.000 C 
BRANCH  15  16
ATOM     16  C   UNL     1       9.932  30.127  59.592  1.00  0.00     0.006 C 
BRANCH  16  17
ATOM     17  C   UNL     1       8.890  29.127  60.127  1.00  0.00     0.053 C 
BRANCH  17  18
ATOM     18  C   UNL     1       8.112  29.669  61.289  1.00  0.00     0.041 C 
ATOM     19  O   UNL     1       7.012  30.251  61.101  1.00  0.00    -0.550 OA
ATOM     20  O   UNL     1       8.590  29.501  62.582  1.00  0.00    -0.550 OA
ENDBRANCH  17  18
ENDBRANCH  16  17
ENDBRANCH  15  16
ENDBRANCH  14  15
ENDBRANCH  13  14
ENDBRANCH  12  13
ENDBRANCH  11  12
ENDBRANCH   1  11
TORSDOF 15
ENDMDL
MODEL 2
REMARK VINA RESULT:    -4.864      3.150      4.619
REMARK INTER + INTRA:         -10.826
REMARK INTER:                  -9.903
REMARK INTRA:                  -0.923
REMARK UNBOUND:                -1.697
REMARK SMILES O=C([O-])CCCCCCCCCCCCCCC(=O)[O-]
REMARK SMILES IDX 10 1 9 2 8 3 7 4 6 5 5 6 4 7 2 8 1 9 3 10 11 11 12 12 13 13
REMARK SMILES IDX 14 14 15 15 16 16 17 17 18 18 19 19 20 20
REMARK H PARENT
REMARK Flexibility Score: inf
ROOT
ATOM      1  C   UNL     1      15.692  29.732  61.008  1.00  0.00     0.000 C 
ENDROOT
BRANCH   1   2
ATOM      2  C   UNL     1      15.498  29.931  62.520  1.00  0.00     0.000 C 
BRANCH   2   3
ATOM      3  C   UNL     1      16.582  29.224  63.352  1.00  0.00     0.000 C 
BRANCH   3   4
ATOM      4  C   UNL     1      16.136  27.838  63.847  1.00  0.00     0.000 C 
BRANCH   4   5
ATOM      5  C   UNL     1      17.284  26.818  63.871  1.00  0.00     0.000 C 
BRANCH   5   6
ATOM      6  C   UNL     1      18.253  27.054  62.704  1.00  0.00     0.006 C 
BRANCH   6   7
ATOM      7  C   UNL     1      19.338  25.973  62.621  1.00  0.00     0.053 C 
BRANCH   7   8
ATOM      8  C   UNL     1      20.696  26.565  62.392  1.00  0.00     0.041 C 
ATOM      9  O   UNL     1      20.831  27.810  62.265  1.00  0.00    -0.550 OA
ATOM     10  O   UNL     1      21.814  25.743  62.354  1.00  0.00    -0.550 OA
ENDBRANCH   7   8
ENDBRANCH   6   7
ENDBRANCH   5   6
ENDBRANCH   4   5
ENDBRANCH   3   4
ENDBRANCH   2   3
ENDBRANCH   1   2
BRANCH   1  11
ATOM     11  C   UNL     1      14.419  30.043  60.201  1.00  0.00     0.000 C 
BRANCH  11  12
ATOM     12  C   UNL     1      13.210  30.357  61.098  1.00  0.00     0.000 C 
BRANCH  12  13
ATOM     13  C   UNL     1      12.317  29.127  61.335  1.00  0.00     0.000 C 
BRANCH  13  14
ATOM     14  C   UNL     1      11.644  28.631  60.044  1.00  0.00     0.000 C 
BRANCH  14  15
ATOM     15  C   UNL     1      11.147  29.784  59.153  1.00  0.00     0.000 C 
BRANCH  15  16
ATOM     16  C   UNL     1       9.690  30.185  59.446  1.00  0.00     0.006 C 
BRANCH  16  17
ATOM     17  C   UNL     1       8.874  29.093  60.161  1.00  0.00     0.053 C 
BRANCH  17  18
ATOM     18  C   UNL     1       8.207  29.592  61.407  1.00  0.00     0.041 C 
ATOM     19  O   UNL     1       8.789  29.501  62.520  1.00  0.00    -0.550 OA
ATOM     20  O   UNL     1       6.953  30.185  61.334  1.00  0.00    -0.550 OA
ENDBRANCH  17  18
ENDBRANCH  16  17
ENDBRANCH  15  16
ENDBRANCH  14  15
ENDBRANCH  13  14
ENDBRANCH  12  13
ENDBRANCH  11  12
ENDBRANCH   1  11
TORSDOF 15
ENDMDL
MODEL 3
REMARK VINA RESULT:    -4.847      2.951      7.492
REMARK INTER + INTRA:         -10.795
REMARK INTER:                  -9.625
REMARK INTRA:                  -1.169
REMARK UNBOUND:                -1.697
REMARK SMILES O=C([O-])CCCCCCCCCCCCCCC(=O)[O-]
REMARK SMILES IDX 10 1 9 2 8 3 7 4 6 5 5 6 4 7 2 8 1 9 3 10 11 11 12 12 13 13
REMARK SMILES IDX 14 14 15 15 16 16 17 17 18 18 19 19 20 20
REMARK H PARENT
REMARK Flexibility Score: inf
ROOT
ATOM      1  C   UNL     1      15.711  30.591  59.547  1.00  0.00     0.000 C 
ENDROOT
BRANCH   1   2
ATOM      2  C   UNL     1      14.807  29.875  58.531  1.00  0.00     0.000 C 
BRANCH   2   3
ATOM      3  C   UNL     1      13.670  30.775  58.016  1.00  0.00     0.000 C 
BRANCH   3   4
ATOM      4  C   UNL     1      12.384  30.635  58.848  1.00  0.00     0.000 C 
BRANCH   4   5
ATOM      5  C   UNL     1      12.324  29.314  59.630  1.00  0.00     0.000 C 
BRANCH   5   6
ATOM      6  C   UNL     1      11.288  29.393  60.761  1.00  0.00     0.006 C 
BRANCH   6   7
ATOM      7  C   UNL     1       9.931  28.811  60.349  1.00  0.00     0.053 C 
BRANCH   7   8
ATOM      8  C   UNL     1       8.861  29.860  60.322  1.00  0.00     0.041 C 
ATOM      9  O   UNL     1       8.832  30.712  59.396  1.00  0.00    -0.550 OA
ATOM     10  O   UNL     1       7.877  29.874  61.302  1.00  0.00    -0.550 OA
ENDBRANCH   7   8
ENDBRANCH   6   7
ENDBRANCH   5   6
ENDBRANCH   4   5
ENDBRANCH   3   4
ENDBRANCH   2   3
ENDBRANCH   1   2
BRANCH   1  11
ATOM     11  C   UNL     1      16.111  29.685  60.726  1.00  0.00     0.000 C 
BRANCH  11  12
ATOM     12  C   UNL     1      15.128  29.778  61.905  1.00  0.00     0.000 C 
BRANCH  12  13
ATOM     13  C   UNL     1      15.791  29.442  63.252  1.00  0.00     0.000 C 
BRANCH  13  14
ATOM     14  C   UNL     1      15.355  28.071  63.796  1.00  0.00     0.000 C 
BRANCH  14  15
ATOM     15  C   UNL     1      16.549  27.170  64.158  1.00  0.00     0.000 C 
BRANCH  15  16
ATOM     16  C   UNL     1      17.677  27.215  63.111  1.00  0.00     0.006 C 
BRANCH  16  17
ATOM     17  C   UNL     1      18.701  26.073  63.246  1.00  0.00     0.053 C 
BRANCH  17  18
ATOM     18  C   UNL     1      19.859  26.222  62.305  1.00  0.00     0.041 C 
ATOM     19  O   UNL     1      20.074  25.353  61.420  1.00  0.00    -0.550 OA
ATOM     20  O   UNL     1      20.682  27.337  62.388  1.00  0.00    -0.550 OA
ENDBRANCH  17  18
ENDBRANCH  16  17
ENDBRANCH  15  16
ENDBRANCH  14  15
ENDBRANCH  13  14
ENDBRANCH  12  13
ENDBRANCH  11  12
ENDBRANCH   1  11
TORSDOF 15
ENDMDL
MODEL 4
REMARK VINA RESULT:    -4.809      2.007      5.875
REMARK INTER + INTRA:         -10.724
REMARK INTER:                  -8.862
REMARK INTRA:                  -1.861
REMARK UNBOUND:                -1.697
REMARK SMILES O=C([O-])CCCCCCCCCCCCCCC(=O)[O-]
REMARK SMILES IDX 10 1 9 2 8 3 7 4 6 5 5 6 4 7 2 8 1 9 3 10 11 11 12 12 13 13
REMARK SMILES IDX 14 14 15 15 16 16 17 17 18 18 19 19 20 20
REMARK H PARENT
REMARK Flexibility Score: inf
ROOT
ATOM      1  C   UNL     1      16.539  30.009  62.686  1.00  0.00     0.000 C 
ENDROOT
BRANCH   1   2
ATOM      2  C   UNL     1      15.388  29.406  63.507  1.00  0.00     0.000 C 
BRANCH   2   3
ATOM      3  C   UNL     1      14.849  28.100  62.896  1.00  0.00     0.000 C 
BRANCH   3   4
ATOM      4  C   UNL     1      13.384  28.220  62.447  1.00  0.00     0.000 C 
BRANCH   4   5
ATOM      5  C   UNL     1      12.946  29.677  62.230  1.00  0.00     0.000 C 
BRANCH   5   6
ATOM      6  C   UNL     1      11.454  29.755  61.874  1.00  0.00     0.006 C 
BRANCH   6   7
ATOM      7  C   UNL     1      11.154  29.158  60.493  1.00  0.00     0.053 C 
BRANCH   7   8
ATOM      8  C   UNL     1       9.770  29.497  60.030  1.00  0.00     0.041 C 
ATOM      9  O   UNL     1       9.575  30.500  59.294  1.00  0.00    -0.550 OA
ATOM     10  O   UNL     1       8.700  28.685  60.385  1.00  0.00    -0.550 OA
ENDBRANCH   7   8
ENDBRANCH   6   7
ENDBRANCH   5   6
ENDBRANCH   4   5
ENDBRANCH   3   4
ENDBRANCH   2   3
ENDBRANCH   1   2
BRANCH   1  11
ATOM     11  C   UNL     1      16.591  29.463  61.247  1.00  0.00     0.000 C 
BRANCH  11  12
ATOM     12  C   UNL     1      16.149  30.502  60.203  1.00  0.00     0.000 C 
BRANCH  12  13
ATOM     13  C   UNL     1      15.129  29.933  59.201  1.00  0.00     0.000 C 
BRANCH  13  14
ATOM     14  C   UNL     1      13.955  30.892  58.948  1.00  0.00     0.000 C 
BRANCH  14  15
ATOM     15  C   UNL     1      13.530  30.933  57.469  1.00  0.00     0.000 C 
BRANCH  15  16
ATOM     16  C   UNL     1      14.362  31.919  56.631  1.00  0.00     0.006 C 
BRANCH  16  17
ATOM     17  C   UNL     1      14.719  33.221  57.371  1.00  0.00     0.053 C 
BRANCH  17  18
ATOM     18  C   UNL     1      16.185  33.530  57.325  1.00  0.00     0.041 C 
ATOM     19  O   UNL     1      17.032  32.622  57.535  1.00  0.00    -0.550 OA
ATOM     20  O   UNL     1      16.616  34.814  57.019  1.00  0.00    -0.550 OA
ENDBRANCH  17  18
ENDBRANCH  16  17
ENDBRANCH  15  16
ENDBRANCH  14  15
ENDBRANCH  13  14
ENDBRANCH  12  13
ENDBRANCH  11  12
ENDBRANCH   1  11
TORSDOF 15
ENDMDL
MODEL 5
REMARK VINA RESULT:    -4.766      0.994      5.902
REMARK INTER + INTRA:         -10.643
REMARK INTER:                  -9.006
REMARK INTRA:                  -1.637
REMARK UNBOUND:                -1.697
REMARK SMILES O=C([O-])CCCCCCCCCCCCCCC(=O)[O-]
REMARK SMILES IDX 10 1 9 2 8 3 7 4 6 5 5 6 4 7 2 8 1 9 3 10 11 11 12 12 13 13
REMARK SMILES IDX 14 14 15 15 16 16 17 17 18 18 19 19 20 20
REMARK H PARENT
REMARK Flexibility Score: inf
ROOT
ATOM      1  C   UNL     1      15.437  27.493  63.984  1.00  0.00     0.000 C 
ENDROOT
BRANCH   1   2
ATOM      2  C   UNL     1      14.503  28.518  63.321  1.00  0.00     0.000 C 
BRANCH   2   3
ATOM      3  C   UNL     1      13.421  27.854  62.450  1.00  0.00     0.000 C 
BRANCH   3   4
ATOM      4  C   UNL     1      12.534  28.880  61.727  1.00  0.00     0.000 C 
BRANCH   4   5
ATOM      5  C   UNL     1      11.998  28.360  60.384  1.00  0.00     0.000 C 
BRANCH   5   6
ATOM      6  C   UNL     1      11.142  29.426  59.685  1.00  0.00     0.006 C 
BRANCH   6   7
ATOM      7  C   UNL     1       9.679  28.992  59.537  1.00  0.00     0.053 C 
BRANCH   7   8
ATOM      8  C   UNL     1       8.772  29.782  60.431  1.00  0.00     0.041 C 
ATOM      9  O   UNL     1       7.992  30.641  59.942  1.00  0.00    -0.550 OA
ATOM     10  O   UNL     1       8.764  29.544  61.799  1.00  0.00    -0.550 OA
ENDBRANCH   7   8
ENDBRANCH   6   7
ENDBRANCH   5   6
ENDBRANCH   4   5
ENDBRANCH   3   4
ENDBRANCH   2   3
ENDBRANCH   1   2
BRANCH   1  11
ATOM     11  C   UNL     1      16.925  27.795  63.731  1.00  0.00     0.000 C 
BRANCH  11  12
ATOM     12  C   UNL     1      17.204  28.220  62.280  1.00  0.00     0.000 C 
BRANCH  12  13
ATOM     13  C   UNL     1      17.680  29.679  62.175  1.00  0.00     0.000 C 
BRANCH  13  14
ATOM     14  C   UNL     1      16.844  30.501  61.181  1.00  0.00     0.000 C 
BRANCH  14  15
ATOM     15  C   UNL     1      15.911  29.626  60.324  1.00  0.00     0.000 C 
BRANCH  15  16
ATOM     16  C   UNL     1      15.057  30.443  59.339  1.00  0.00     0.006 C 
BRANCH  16  17
ATOM     17  C   UNL     1      14.786  29.726  58.003  1.00  0.00     0.053 C 
BRANCH  17  18
ATOM     18  C   UNL     1      14.986  30.620  56.817  1.00  0.00     0.041 C 
ATOM     19  O   UNL     1      14.600  31.818  56.851  1.00  0.00    -0.550 OA
ATOM     20  O   UNL     1      15.627  30.138  55.683  1.00  0.00    -0.550 OA
ENDBRANCH  17  18
ENDBRANCH  16  17
ENDBRANCH  15  16
ENDBRANCH  14  15
ENDBRANCH  13  14
ENDBRANCH  12  13
ENDBRANCH  11  12
ENDBRANCH   1  11
TORSDOF 15
ENDMDL
MODEL 6
REMARK VINA RESULT:    -4.745      4.717      8.500
REMARK INTER + INTRA:         -10.603
REMARK INTER:                 -10.005
REMARK INTRA:                  -0.598
REMARK UNBOUND:                -1.697
REMARK SMILES O=C([O-])CCCCCCCCCCCCCCC(=O)[O-]
REMARK SMILES IDX 10 1 9 2 8 3 7 4 6 5 5 6 4 7 2 8 1 9 3 10 11 11 12 12 13 13
REMARK SMILES IDX 14 14 15 15 16 16 17 17 18 18 19 19 20 20
REMARK H PARENT
REMARK Flexibility Score: inf
ROOT
ATOM      1  C   UNL     1       7.228  30.247  61.394  1.00  0.00     0.000 C 
ENDROOT
BRANCH   1   2
ATOM      2  C   UNL     1       6.418  31.362  60.712  1.00  0.00     0.000 C 
BRANCH   2   3
ATOM      3  C   UNL     1       7.186  32.024  59.554  1.00  0.00     0.000 C 
BRANCH   3   4
ATOM      4  C   UNL     1       6.258  32.774  58.584  1.00  0.00     0.000 C 
BRANCH   4   5
ATOM      5  C   UNL     1       5.828  34.150  59.117  1.00  0.00     0.000 C 
BRANCH   5   6
ATOM      6  C   UNL     1       7.021  35.116  59.165  1.00  0.00     0.006 C 
BRANCH   6   7
ATOM      7  C   UNL     1       6.579  36.577  59.310  1.00  0.00     0.053 C 
BRANCH   7   8
ATOM      8  C   UNL     1       7.520  37.514  58.615  1.00  0.00     0.041 C 
ATOM      9  O   UNL     1       8.762  37.412  58.793  1.00  0.00    -0.550 OA
ATOM     10  O   UNL     1       7.025  38.477  57.744  1.00  0.00    -0.550 OA
ENDBRANCH   7   8
ENDBRANCH   6   7
ENDBRANCH   5   6
ENDBRANCH   4   5
ENDBRANCH   3   4
ENDBRANCH   2   3
ENDBRANCH   1   2
BRANCH   1  11
ATOM     11  C   UNL     1       8.257  29.599  60.449  1.00  0.00     0.000 C 
BRANCH  11  12
ATOM     12  C   UNL     1       9.646  29.458  61.094  1.00  0.00     0.000 C 
BRANCH  12  13
ATOM     13  C   UNL     1      10.754  29.210  60.057  1.00  0.00     0.000 C 
BRANCH  13  14
ATOM     14  C   UNL     1      12.086  28.801  60.705  1.00  0.00     0.000 C 
BRANCH  14  15
ATOM     15  C   UNL     1      12.549  29.793  61.788  1.00  0.00     0.000 C 
BRANCH  15  16
ATOM     16  C   UNL     1      14.074  29.790  61.995  1.00  0.00     0.006 C 
BRANCH  16  17
ATOM     17  C   UNL     1      14.617  28.490  62.617  1.00  0.00     0.053 C 
BRANCH  17  18
ATOM     18  C   UNL     1      16.018  28.636  63.130  1.00  0.00     0.041 C 
ATOM     19  O   UNL     1      16.228  29.111  64.277  1.00  0.00    -0.550 OA
ATOM     20  O   UNL     1      17.089  28.218  62.352  1.00  0.00    -0.550 OA
ENDBRANCH  17  18
ENDBRANCH  16  17
ENDBRANCH  15  16
ENDBRANCH  14  15
ENDBRANCH  13  14
ENDBRANCH  12  13
ENDBRANCH  11  12
ENDBRANCH   1  11
TORSDOF 15
ENDMDL
MODEL 7
REMARK VINA RESULT:    -4.709      2.359      6.537
REMARK INTER + INTRA:         -10.536
REMARK INTER:                  -8.711
REMARK INTRA:                  -1.825
REMARK UNBOUND:                -1.697
REMARK SMILES O=C([O-])CCCCCCCCCCCCCCC(=O)[O-]
REMARK SMILES IDX 10 1 9 2 8 3 7 4 6 5 5 6 4 7 2 8 1 9 3 10 11 11 12 12 13 13
REMARK SMILES IDX 14 14 15 15 16 16 17 17 18 18 19 19 20 20
REMARK H PARENT
REMARK Flexibility Score: inf
ROOT
ATOM      1  C   UNL     1      15.751  29.751  60.300  1.00  0.00     0.000 C 
ENDROOT
BRANCH   1   2
ATOM      2  C   UNL     1      15.303  29.656  61.767  1.00  0.00     0.000 C 
BRANCH   2   3
ATOM      3  C   UNL     1      13.783  29.833  61.932  1.00  0.00     0.000 C 
BRANCH   3   4
ATOM      4  C   UNL     1      13.036  28.491  61.989  1.00  0.00     0.000 C 
BRANCH   4   5
ATOM      5  C   UNL     1      12.146  28.254  60.759  1.00  0.00     0.000 C 
BRANCH   5   6
ATOM      6  C   UNL     1      10.995  29.270  60.710  1.00  0.00     0.006 C 
BRANCH   6   7
ATOM      7  C   UNL     1      10.985  30.074  59.405  1.00  0.00     0.053 C 
BRANCH   7   8
ATOM      8  C   UNL     1       9.616  30.130  58.797  1.00  0.00     0.041 C 
ATOM      9  O   UNL     1       9.351  29.453  57.770  1.00  0.00    -0.550 OA
ATOM     10  O   UNL     1       8.625  30.904  59.386  1.00  0.00    -0.550 OA
ENDBRANCH   7   8
ENDBRANCH   6   7
ENDBRANCH   5   6
ENDBRANCH   4   5
ENDBRANCH   3   4
ENDBRANCH   2   3
ENDBRANCH   1   2
BRANCH   1  11
ATOM     11  C   UNL     1      14.727  30.482  59.413  1.00  0.00     0.000 C 
BRANCH  11  12
ATOM     12  C   UNL     1      14.740  29.982  57.958  1.00  0.00     0.000 C 
BRANCH  12  13
ATOM     13  C   UNL     1      13.833  30.819  57.040  1.00  0.00     0.000 C 
BRANCH  13  14
ATOM     14  C   UNL     1      14.216  30.688  55.557  1.00  0.00     0.000 C 
BRANCH  14  15
ATOM     15  C   UNL     1      15.714  30.397  55.354  1.00  0.00     0.000 C 
BRANCH  15  16
ATOM     16  C   UNL     1      16.546  31.670  55.116  1.00  0.00     0.006 C 
BRANCH  16  17
ATOM     17  C   UNL     1      17.741  31.822  56.076  1.00  0.00     0.053 C 
BRANCH  17  18
ATOM     18  C   UNL     1      17.354  32.440  57.386  1.00  0.00     0.041 C 
ATOM     19  O   UNL     1      17.811  31.979  58.465  1.00  0.00    -0.550 OA
ATOM     20  O   UNL     1      16.514  33.545  57.412  1.00  0.00    -0.550 OA
ENDBRANCH  17  18
ENDBRANCH  16  17
ENDBRANCH  15  16
ENDBRANCH  14  15
ENDBRANCH  13  14
ENDBRANCH  12  13
ENDBRANCH  11  12
ENDBRANCH   1  11
TORSDOF 15
ENDMDL
MODEL 8
REMARK VINA RESULT:    -4.699      1.648      2.999
REMARK INTER + INTRA:         -10.516
REMARK INTER:                  -8.896
REMARK INTRA:                  -1.621
REMARK UNBOUND:                -1.697
REMARK SMILES O=C([O-])CCCCCCCCCCCCCCC(=O)[O-]
REMARK SMILES IDX 10 1 9 2 8 3 7 4 6 5 5 6 4 7 2 8 1 9 3 10 11 11 12 12 13 13
REMARK SMILES IDX 14 14 15 15 16 16 17 17 18 18 19 19 20 20
REMARK H PARENT
REMARK Flexibility Score: inf
ROOT
ATOM      1  C   UNL     1      15.702  29.503  60.857  1.00  0.00     0.000 C 
ENDROOT
BRANCH   1   2
ATOM      2  C   UNL     1      15.846  30.516  59.710  1.00  0.00     0.000 C 
BRANCH   2   3
ATOM      3  C   UNL     1      14.486  30.949  59.132  1.00  0.00     0.000 C 
BRANCH   3   4
ATOM      4  C   UNL     1      14.158  30.243  57.806  1.00  0.00     0.000 C 
BRANCH   4   5
ATOM      5  C   UNL     1      15.347  30.224  56.833  1.00  0.00     0.000 C 
BRANCH   5   6
ATOM      6  C   UNL     1      14.921  30.701  55.436  1.00  0.00     0.006 C 
BRANCH   6   7
ATOM      7  C   UNL     1      13.833  31.780  55.497  1.00  0.00     0.053 C 
BRANCH   7   8
ATOM      8  C   UNL     1      14.420  33.158  55.554  1.00  0.00     0.041 C 
ATOM      9  O   UNL     1      14.728  33.671  56.661  1.00  0.00    -0.550 OA
ATOM     10  O   UNL     1      14.656  33.861  54.379  1.00  0.00    -0.550 OA
ENDBRANCH   7   8
ENDBRANCH   6   7
ENDBRANCH   5   6
ENDBRANCH   4   5
ENDBRANCH   3   4
ENDBRANCH   2   3
ENDBRANCH   1   2
BRANCH   1  11
ATOM     11  C   UNL     1      14.599  29.894  61.858  1.00  0.00     0.000 C 
BRANCH  11  12
ATOM     12  C   UNL     1      13.489  28.834  61.959  1.00  0.00     0.000 C 
BRANCH  12  13
ATOM     13  C   UNL     1      12.106  29.391  61.581  1.00  0.00     0.000 C 
BRANCH  13  14
ATOM     14  C   UNL     1      11.557  28.772  60.285  1.00  0.00     0.000 C 
BRANCH  14  15
ATOM     15  C   UNL     1      10.890  29.813  59.367  1.00  0.00     0.000 C 
BRANCH  15  16
ATOM     16  C   UNL     1       9.397  29.530  59.123  1.00  0.00     0.006 C 
BRANCH  16  17
ATOM     17  C   UNL     1       8.727  28.707  60.239  1.00  0.00     0.053 C 
BRANCH  17  18
ATOM     18  C   UNL     1       8.137  29.566  61.316  1.00  0.00     0.041 C 
ATOM     19  O   UNL     1       8.633  29.564  62.474  1.00  0.00    -0.550 OA
ATOM     20  O   UNL     1       7.059  30.394  61.032  1.00  0.00    -0.550 OA
ENDBRANCH  17  18
ENDBRANCH  16  17
ENDBRANCH  15  16
ENDBRANCH  14  15
ENDBRANCH  13  14
ENDBRANCH  12  13
ENDBRANCH  11  12
ENDBRANCH   1  11
TORSDOF 15
ENDMDL
MODEL 9
REMARK VINA RESULT:    -4.677      3.201      5.014
REMARK INTER + INTRA:         -10.475
REMARK INTER:                  -9.383
REMARK INTRA:                  -1.092
REMARK UNBOUND:                -1.697
REMARK SMILES O=C([O-])CCCCCCCCCCCCCCC(=O)[O-]
REMARK SMILES IDX 10 1 9 2 8 3 7 4 6 5 5 6 4 7 2 8 1 9 3 10 11 11 12 12 13 13
REMARK SMILES IDX 14 14 15 15 16 16 17 17 18 18 19 19 20 20
REMARK H PARENT
REMARK Flexibility Score: inf
ROOT
ATOM      1  C   UNL     1      12.078  30.561  58.762  1.00  0.00     0.000 C 
ENDROOT
BRANCH   1   2
ATOM      2  C   UNL     1      13.128  29.557  59.263  1.00  0.00     0.000 C 
BRANCH   2   3
ATOM      3  C   UNL     1      14.547  30.154  59.293  1.00  0.00     0.000 C 
BRANCH   3   4
ATOM      4  C   UNL     1      15.161  30.143  60.702  1.00  0.00     0.000 C 
BRANCH   4   5
ATOM      5  C   UNL     1      14.139  29.789  61.793  1.00  0.00     0.000 C 
BRANCH   5   6
ATOM      6  C   UNL     1      14.814  29.053  62.960  1.00  0.00     0.006 C 
BRANCH   6   7
ATOM      7  C   UNL     1      16.344  29.073  62.853  1.00  0.00     0.053 C 
BRANCH   7   8
ATOM      8  C   UNL     1      16.943  27.745  63.202  1.00  0.00     0.041 C 
ATOM      9  O   UNL     1      17.987  27.348  62.622  1.00  0.00    -0.550 OA
ATOM     10  O   UNL     1      16.366  26.961  64.193  1.00  0.00    -0.550 OA
ENDBRANCH   7   8
ENDBRANCH   6   7
ENDBRANCH   5   6
ENDBRANCH   4   5
ENDBRANCH   3   4
ENDBRANCH   2   3
ENDBRANCH   1   2
BRANCH   1  11
ATOM     11  C   UNL     1      10.642  30.156  59.143  1.00  0.00     0.000 C 
BRANCH  11  12
ATOM     12  C   UNL     1      10.598  29.155  60.309  1.00  0.00     0.000 C 
BRANCH  12  13
ATOM     13  C   UNL     1       9.370  29.357  61.214  1.00  0.00     0.000 C 
BRANCH  13  14
ATOM     14  C   UNL     1       8.116  29.758  60.421  1.00  0.00     0.000 C 
BRANCH  14  15
ATOM     15  C   UNL     1       7.049  30.434  61.302  1.00  0.00     0.000 C 
BRANCH  15  16
ATOM     16  C   UNL     1       6.293  31.560  60.574  1.00  0.00     0.006 C 
BRANCH  16  17
ATOM     17  C   UNL     1       7.016  32.089  59.322  1.00  0.00     0.053 C 
BRANCH  17  18
ATOM     18  C   UNL     1       6.402  33.348  58.788  1.00  0.00     0.041 C 
ATOM     19  O   UNL     1       6.826  34.472  59.164  1.00  0.00    -0.550 OA
ATOM     20  O   UNL     1       5.379  33.278  57.851  1.00  0.00    -0.550 OA
ENDBRANCH  17  18
ENDBRANCH  16  17
ENDBRANCH  15  16
ENDBRANCH  14  15
ENDBRANCH  13  14
ENDBRANCH  12  13
ENDBRANCH  11  12
ENDBRANCH   1  11
TORSDOF 15
ENDMDL
