MODEL 1
REMARK VINA RESULT:    -5.357      0.000      0.000
REMARK INTER + INTRA:          -5.670
REMARK INTER:                  -5.670
REMARK INTRA:                   0.000
REMARK UNBOUND:                 0.000
REMARK SMILES O=c1ccc2cc(O)c(O)cc2o1
REMARK SMILES IDX 4 1 3 2 2 3 1 4 13 5 12 6 11 7 9 8 7 9 6 10 5 11 8 12 10 14
REMARK H PARENT 8 13 10 15
REMARK Flexibility Score: inf
ROOT
ATOM      1  C   UNL     1      10.117  -7.083  -9.747  1.00  0.00     0.019 A 
ATOM      2  C   UNL     1       9.357  -7.791 -10.677  1.00  0.00     0.094 A 
ATOM      3  C   UNL     1       7.991  -7.975 -10.437  1.00  0.00     0.336 A 
ATOM      4  O   UNL     1       7.287  -8.612 -11.264  1.00  0.00    -0.246 OA
ATOM      5  O   UNL     1       7.428  -7.480  -9.337  1.00  0.00    -0.423 OA
ATOM      6  C   UNL     1       8.117  -6.798  -8.424  1.00  0.00     0.142 A 
ATOM      7  C   UNL     1       7.472  -6.302  -7.288  1.00  0.00     0.098 A 
ATOM      8  C   UNL     1       8.189  -5.585  -6.324  1.00  0.00     0.161 A 
ATOM      9  C   UNL     1       9.567  -5.359  -6.497  1.00  0.00     0.158 A 
ATOM     10  C   UNL     1      10.219  -5.856  -7.636  1.00  0.00     0.062 A 
ATOM     11  C   UNL     1       9.499  -6.574  -8.600  1.00  0.00     0.022 A 
ENDROOT
BRANCH   9  12
ATOM     12  O   UNL     1      10.283  -4.645  -5.538  1.00  0.00    -0.504 OA
ATOM     13  H   UNL     1      11.262  -4.834  -5.356  1.00  0.00     0.293 HD
ENDBRANCH   9  12
BRANCH   8  14
ATOM     14  O   UNL     1       7.517  -5.102  -5.201  1.00  0.00    -0.504 OA
ATOM     15  H   UNL     1       7.026  -4.217  -5.207  1.00  0.00     0.293 HD
ENDBRANCH   8  14
TORSDOF 2
ENDMDL
MODEL 2
REMARK VINA RESULT:    -5.323     16.808     17.979
REMARK INTER + INTRA:          -5.635
REMARK INTER:                  -5.635
REMARK INTRA:                   0.000
REMARK UNBOUND:                 0.000
REMARK SMILES O=c1ccc2cc(O)c(O)cc2o1
REMARK SMILES IDX 4 1 3 2 2 3 1 4 13 5 12 6 11 7 9 8 7 9 6 10 5 11 8 12 10 14
REMARK H PARENT 8 13 10 15
REMARK Flexibility Score: inf
ROOT
ATOM      1  C   UNL     1      20.279  -1.283 -21.537  1.00  0.00     0.019 A 
ATOM      2  C   UNL     1      21.058  -0.637 -22.496  1.00  0.00     0.094 A 
ATOM      3  C   UNL     1      21.804   0.485 -22.120  1.00  0.00     0.336 A 
ATOM      4  O   UNL     1      22.514   1.083 -22.971  1.00  0.00    -0.246 OA
ATOM      5  O   UNL     1      21.770   0.926 -20.865  1.00  0.00    -0.423 OA
ATOM      6  C   UNL     1      21.040   0.339 -19.919  1.00  0.00     0.142 A 
ATOM      7  C   UNL     1      21.043   0.848 -18.617  1.00  0.00     0.098 A 
ATOM      8  C   UNL     1      20.278   0.237 -17.617  1.00  0.00     0.161 A 
ATOM      9  C   UNL     1      19.502  -0.897 -17.920  1.00  0.00     0.158 A 
ATOM     10  C   UNL     1      19.496  -1.411 -19.226  1.00  0.00     0.062 A 
ATOM     11  C   UNL     1      20.262  -0.797 -20.226  1.00  0.00     0.022 A 
ENDROOT
BRANCH   9  12
ATOM     12  O   UNL     1      18.740  -1.507 -16.925  1.00  0.00    -0.504 OA
ATOM     13  H   UNL     1      17.885  -2.006 -17.143  1.00  0.00     0.293 HD
ENDBRANCH   9  12
BRANCH   8  14
ATOM     14  O   UNL     1      20.302   0.767 -16.327  1.00  0.00    -0.504 OA
ATOM     15  H   UNL     1      21.049   0.563 -15.675  1.00  0.00     0.293 HD
ENDBRANCH   8  14
TORSDOF 2
ENDMDL
MODEL 3
REMARK VINA RESULT:    -5.206      1.213      2.286
REMARK INTER + INTRA:          -5.511
REMARK INTER:                  -5.511
REMARK INTRA:                   0.000
REMARK UNBOUND:                 0.000
REMARK SMILES O=c1ccc2cc(O)c(O)cc2o1
REMARK SMILES IDX 4 1 3 2 2 3 1 4 13 5 12 6 11 7 9 8 7 9 6 10 5 11 8 12 10 14
REMARK H PARENT 8 13 10 15
REMARK Flexibility Score: inf
ROOT
ATOM      1  C   UNL     1       7.537  -7.637  -9.447  1.00  0.00     0.019 A 
ATOM      2  C   UNL     1       8.233  -8.035 -10.588  1.00  0.00     0.094 A 
ATOM      3  C   UNL     1       9.577  -7.670 -10.723  1.00  0.00     0.336 A 
ATOM      4  O   UNL     1      10.223  -8.020 -11.746  1.00  0.00    -0.246 OA
ATOM      5  O   UNL     1      10.180  -6.955  -9.777  1.00  0.00    -0.423 OA
ATOM      6  C   UNL     1       9.552  -6.554  -8.673  1.00  0.00     0.142 A 
ATOM      7  C   UNL     1      10.237  -5.805  -7.713  1.00  0.00     0.098 A 
ATOM      8  C   UNL     1       9.585  -5.379  -6.550  1.00  0.00     0.161 A 
ATOM      9  C   UNL     1       8.232  -5.708  -6.343  1.00  0.00     0.158 A 
ATOM     10  C   UNL     1       7.541  -6.460  -7.305  1.00  0.00     0.062 A 
ATOM     11  C   UNL     1       8.196  -6.885  -8.469  1.00  0.00     0.022 A 
ENDROOT
BRANCH   9  12
ATOM     12  O   UNL     1       7.581  -5.285  -5.186  1.00  0.00    -0.504 OA
ATOM     13  H   UNL     1       7.810  -5.671  -4.277  1.00  0.00     0.293 HD
ENDBRANCH   9  12
BRANCH   8  14
ATOM     14  O   UNL     1      10.295  -4.632  -5.610  1.00  0.00    -0.504 OA
ATOM     15  H   UNL     1       9.860  -3.897  -5.067  1.00  0.00     0.293 HD
ENDBRANCH   8  14
TORSDOF 2
ENDMDL
MODEL 4
REMARK VINA RESULT:    -5.153      1.663      2.421
REMARK INTER + INTRA:          -5.455
REMARK INTER:                  -5.455
REMARK INTRA:                   0.000
REMARK UNBOUND:                 0.000
REMARK SMILES O=c1ccc2cc(O)c(O)cc2o1
REMARK SMILES IDX 4 1 3 2 2 3 1 4 13 5 12 6 11 7 9 8 7 9 6 10 5 11 8 12 10 14
REMARK H PARENT 8 13 10 15
REMARK Flexibility Score: inf
ROOT
ATOM      1  C   UNL     1       7.883  -8.736  -8.216  1.00  0.00     0.019 A 
ATOM      2  C   UNL     1       8.095  -8.371  -9.544  1.00  0.00     0.094 A 
ATOM      3  C   UNL     1       8.278  -7.019  -9.854  1.00  0.00     0.336 A 
ATOM      4  O   UNL     1       8.470  -6.668 -11.048  1.00  0.00    -0.246 OA
ATOM      5  O   UNL     1       8.250  -6.098  -8.894  1.00  0.00    -0.423 OA
ATOM      6  C   UNL     1       8.050  -6.404  -7.614  1.00  0.00     0.142 A 
ATOM      7  C   UNL     1       8.032  -5.394  -6.648  1.00  0.00     0.098 A 
ATOM      8  C   UNL     1       7.822  -5.707  -5.300  1.00  0.00     0.161 A 
ATOM      9  C   UNL     1       7.631  -7.046  -4.912  1.00  0.00     0.158 A 
ATOM     10  C   UNL     1       7.649  -8.063  -5.878  1.00  0.00     0.062 A 
ATOM     11  C   UNL     1       7.858  -7.748  -7.227  1.00  0.00     0.022 A 
ENDROOT
BRANCH   9  12
ATOM     12  O   UNL     1       7.422  -7.359  -3.570  1.00  0.00    -0.504 OA
ATOM     13  H   UNL     1       7.956  -8.084  -3.105  1.00  0.00     0.293 HD
ENDBRANCH   9  12
BRANCH   8  14
ATOM     14  O   UNL     1       7.809  -4.677  -4.361  1.00  0.00    -0.504 OA
ATOM     15  H   UNL     1       6.974  -4.430  -3.844  1.00  0.00     0.293 HD
ENDBRANCH   8  14
TORSDOF 2
ENDMDL
MODEL 5
REMARK VINA RESULT:    -5.141     16.843     18.485
REMARK INTER + INTRA:          -5.441
REMARK INTER:                  -5.441
REMARK INTRA:                   0.000
REMARK UNBOUND:                 0.000
REMARK SMILES O=c1ccc2cc(O)c(O)cc2o1
REMARK SMILES IDX 4 1 3 2 2 3 1 4 13 5 12 6 11 7 9 8 7 9 6 10 5 11 8 12 10 14
REMARK H PARENT 8 13 10 15
REMARK Flexibility Score: inf
ROOT
ATOM      1  C   UNL     1      19.444  -1.234 -18.500  1.00  0.00     0.019 A 
ATOM      2  C   UNL     1      19.470  -0.632 -17.243  1.00  0.00     0.094 A 
ATOM      3  C   UNL     1      20.244   0.519 -17.059  1.00  0.00     0.336 A 
ATOM      4  O   UNL     1      20.282   1.078 -15.930  1.00  0.00    -0.246 OA
ATOM      5  O   UNL     1      20.943   1.031 -18.069  1.00  0.00    -0.423 OA
ATOM      6  C   UNL     1      20.946   0.487 -19.285  1.00  0.00     0.142 A 
ATOM      7  C   UNL     1      21.699   1.068 -20.308  1.00  0.00     0.098 A 
ATOM      8  C   UNL     1      21.708   0.503 -21.589  1.00  0.00     0.161 A 
ATOM      9  C   UNL     1      20.954  -0.656 -21.850  1.00  0.00     0.158 A 
ATOM     10  C   UNL     1      20.196  -1.242 -20.826  1.00  0.00     0.062 A 
ATOM     11  C   UNL     1      20.189  -0.675 -19.544  1.00  0.00     0.022 A 
ENDROOT
BRANCH   9  12
ATOM     12  O   UNL     1      20.962  -1.219 -23.125  1.00  0.00    -0.504 OA
ATOM     13  H   UNL     1      21.025  -0.646 -23.958  1.00  0.00     0.293 HD
ENDBRANCH   9  12
BRANCH   8  14
ATOM     14  O   UNL     1      22.470   1.106 -22.589  1.00  0.00    -0.504 OA
ATOM     15  H   UNL     1      22.187   1.097 -23.561  1.00  0.00     0.293 HD
ENDBRANCH   8  14
TORSDOF 2
ENDMDL
MODEL 6
REMARK VINA RESULT:    -5.134      2.402      3.080
REMARK INTER + INTRA:          -5.434
REMARK INTER:                  -5.434
REMARK INTRA:                   0.000
REMARK UNBOUND:                 0.000
REMARK SMILES O=c1ccc2cc(O)c(O)cc2o1
REMARK SMILES IDX 4 1 3 2 2 3 1 4 13 5 12 6 11 7 9 8 7 9 6 10 5 11 8 12 10 14
REMARK H PARENT 8 13 10 15
REMARK Flexibility Score: inf
ROOT
ATOM      1  C   UNL     1      10.269  -8.439  -8.735  1.00  0.00     0.019 A 
ATOM      2  C   UNL     1      11.236  -7.803  -9.514  1.00  0.00     0.094 A 
ATOM      3  C   UNL     1      11.463  -6.436  -9.328  1.00  0.00     0.336 A 
ATOM      4  O   UNL     1      12.332  -5.842 -10.021  1.00  0.00    -0.246 OA
ATOM      5  O   UNL     1      10.768  -5.754  -8.420  1.00  0.00    -0.423 OA
ATOM      6  C   UNL     1       9.837  -6.323  -7.657  1.00  0.00     0.142 A 
ATOM      7  C   UNL     1       9.139  -5.557  -6.720  1.00  0.00     0.098 A 
ATOM      8  C   UNL     1       8.158  -6.146  -5.913  1.00  0.00     0.161 A 
ATOM      9  C   UNL     1       7.873  -7.518  -6.044  1.00  0.00     0.158 A 
ATOM     10  C   UNL     1       8.573  -8.291  -6.983  1.00  0.00     0.062 A 
ATOM     11  C   UNL     1       9.554  -7.699  -7.790  1.00  0.00     0.022 A 
ENDROOT
BRANCH   9  12
ATOM     12  O   UNL     1       6.897  -8.107  -5.241  1.00  0.00    -0.504 OA
ATOM     13  H   UNL     1       7.141  -8.736  -4.485  1.00  0.00     0.293 HD
ENDBRANCH   9  12
BRANCH   8  14
ATOM     14  O   UNL     1       7.478  -5.356  -4.987  1.00  0.00    -0.504 OA
ATOM     15  H   UNL     1       7.955  -4.683  -4.400  1.00  0.00     0.293 HD
ENDBRANCH   8  14
TORSDOF 2
ENDMDL
MODEL 7
REMARK VINA RESULT:    -5.094      2.087      2.963
REMARK INTER + INTRA:          -5.391
REMARK INTER:                  -5.391
REMARK INTRA:                   0.000
REMARK UNBOUND:                 0.000
REMARK SMILES O=c1ccc2cc(O)c(O)cc2o1
REMARK SMILES IDX 4 1 3 2 2 3 1 4 13 5 12 6 11 7 9 8 7 9 6 10 5 11 8 12 10 14
REMARK H PARENT 8 13 10 15
REMARK Flexibility Score: inf
ROOT
ATOM      1  C   UNL     1       8.238  -6.888 -11.711  1.00  0.00     0.019 A 
ATOM      2  C   UNL     1       9.045  -7.623 -12.580  1.00  0.00     0.094 A 
ATOM      3  C   UNL     1      10.347  -7.945 -12.184  1.00  0.00     0.336 A 
ATOM      4  O   UNL     1      11.092  -8.608 -12.954  1.00  0.00    -0.246 OA
ATOM      5  O   UNL     1      10.807  -7.557 -10.998  1.00  0.00    -0.423 OA
ATOM      6  C   UNL     1      10.071  -6.855 -10.139  1.00  0.00     0.142 A 
ATOM      7  C   UNL     1      10.607  -6.474  -8.906  1.00  0.00     0.098 A 
ATOM      8  C   UNL     1       9.839  -5.736  -7.998  1.00  0.00     0.161 A 
ATOM      9  C   UNL     1       8.519  -5.374  -8.326  1.00  0.00     0.158 A 
ATOM     10  C   UNL     1       7.977  -5.754  -9.562  1.00  0.00     0.062 A 
ATOM     11  C   UNL     1       8.747  -6.493 -10.470  1.00  0.00     0.022 A 
ENDROOT
BRANCH   9  12
ATOM     12  O   UNL     1       7.753  -4.638  -7.423  1.00  0.00    -0.504 OA
ATOM     13  H   UNL     1       6.771  -4.451  -7.589  1.00  0.00     0.293 HD
ENDBRANCH   9  12
BRANCH   8  14
ATOM     14  O   UNL     1      10.402  -5.371  -6.776  1.00  0.00    -0.504 OA
ATOM     15  H   UNL     1      10.974  -6.007  -6.235  1.00  0.00     0.293 HD
ENDBRANCH   8  14
TORSDOF 2
ENDMDL
MODEL 8
REMARK VINA RESULT:    -5.087      1.946      2.418
REMARK INTER + INTRA:          -5.384
REMARK INTER:                  -5.384
REMARK INTRA:                   0.000
REMARK UNBOUND:                 0.000
REMARK SMILES O=c1ccc2cc(O)c(O)cc2o1
REMARK SMILES IDX 4 1 3 2 2 3 1 4 13 5 12 6 11 7 9 8 7 9 6 10 5 11 8 12 10 14
REMARK H PARENT 8 13 10 15
REMARK Flexibility Score: inf
ROOT
ATOM      1  C   UNL     1      11.110  -6.971  -8.418  1.00  0.00     0.019 A 
ATOM      2  C   UNL     1      11.576  -7.298  -9.691  1.00  0.00     0.094 A 
ATOM      3  C   UNL     1      10.781  -6.997 -10.802  1.00  0.00     0.336 A 
ATOM      4  O   UNL     1      11.183  -7.284 -11.960  1.00  0.00    -0.246 OA
ATOM      5  O   UNL     1       9.599  -6.406 -10.644  1.00  0.00    -0.423 OA
ATOM      6  C   UNL     1       9.117  -6.078  -9.447  1.00  0.00     0.142 A 
ATOM      7  C   UNL     1       7.868  -5.459  -9.342  1.00  0.00     0.098 A 
ATOM      8  C   UNL     1       7.354  -5.110  -8.088  1.00  0.00     0.161 A 
ATOM      9  C   UNL     1       8.097  -5.382  -6.924  1.00  0.00     0.158 A 
ATOM     10  C   UNL     1       9.350  -6.003  -7.025  1.00  0.00     0.062 A 
ATOM     11  C   UNL     1       9.864  -6.351  -8.282  1.00  0.00     0.022 A 
ENDROOT
BRANCH   9  12
ATOM     12  O   UNL     1       7.586  -5.036  -5.675  1.00  0.00    -0.504 OA
ATOM     13  H   UNL     1       6.627  -5.238  -5.419  1.00  0.00     0.293 HD
ENDBRANCH   9  12
BRANCH   8  14
ATOM     14  O   UNL     1       6.105  -4.494  -8.016  1.00  0.00    -0.504 OA
ATOM     15  H   UNL     1       5.926  -3.710  -7.401  1.00  0.00     0.293 HD
ENDBRANCH   8  14
TORSDOF 2
ENDMDL
MODEL 9
REMARK VINA RESULT:    -5.068      1.617      2.091
REMARK INTER + INTRA:          -5.365
REMARK INTER:                  -5.365
REMARK INTRA:                   0.000
REMARK UNBOUND:                 0.000
REMARK SMILES O=c1ccc2cc(O)c(O)cc2o1
REMARK SMILES IDX 4 1 3 2 2 3 1 4 13 5 12 6 11 7 9 8 7 9 6 10 5 11 8 12 10 14
REMARK H PARENT 8 13 10 15
REMARK Flexibility Score: inf
ROOT
ATOM      1  C   UNL     1       8.627  -5.751  -8.655  1.00  0.00     0.019 A 
ATOM      2  C   UNL     1       8.632  -6.666  -9.708  1.00  0.00     0.094 A 
ATOM      3  C   UNL     1       8.301  -8.000  -9.448  1.00  0.00     0.336 A 
ATOM      4  O   UNL     1       8.300  -8.842 -10.385  1.00  0.00    -0.246 OA
ATOM      5  O   UNL     1       7.987  -8.388  -8.215  1.00  0.00    -0.423 OA
ATOM      6  C   UNL     1       7.971  -7.548  -7.182  1.00  0.00     0.142 A 
ATOM      7  C   UNL     1       7.632  -8.013  -5.908  1.00  0.00     0.098 A 
ATOM      8  C   UNL     1       7.613  -7.137  -4.817  1.00  0.00     0.161 A 
ATOM      9  C   UNL     1       7.934  -5.779  -5.001  1.00  0.00     0.158 A 
ATOM     10  C   UNL     1       8.274  -5.308  -6.278  1.00  0.00     0.062 A 
ATOM     11  C   UNL     1       8.293  -6.187  -7.369  1.00  0.00     0.022 A 
ENDROOT
BRANCH   9  12
ATOM     12  O   UNL     1       7.915  -4.905  -3.915  1.00  0.00    -0.504 OA
ATOM     13  H   UNL     1       7.413  -4.025  -3.951  1.00  0.00     0.293 HD
ENDBRANCH   9  12
BRANCH   8  14
ATOM     14  O   UNL     1       7.271  -7.630  -3.558  1.00  0.00    -0.504 OA
ATOM     15  H   UNL     1       6.636  -7.139  -2.941  1.00  0.00     0.293 HD
ENDBRANCH   8  14
TORSDOF 2
ENDMDL
