MODEL 1
REMARK VINA RESULT:    -4.150      0.000      0.000
REMARK INTER + INTRA:          -5.335
REMARK INTER:                  -5.121
REMARK INTRA:                  -0.215
REMARK UNBOUND:                -0.215
REMARK SMILES CCCCCC(=O)[O-]
REMARK SMILES IDX 4 1 5 2 6 3 7 4 8 5 3 6 2 7 1 8
REMARK H PARENT
REMARK Flexibility Score: inf
ROOT
ATOM      1  C   UNL     1      15.458   2.707  12.799  1.00  0.00     0.006 C 
ENDROOT
BRANCH   1   2
ATOM      2  C   UNL     1      14.712   1.849  13.835  1.00  0.00     0.053 C 
BRANCH   2   3
ATOM      3  C   UNL     1      15.654   1.058  14.691  1.00  0.00     0.041 C 
ATOM      4  O   UNL     1      15.927  -0.135  14.395  1.00  0.00    -0.550 OA
ATOM      5  O   UNL     1      16.201   1.626  15.834  1.00  0.00    -0.550 OA
ENDBRANCH   2   3
ENDBRANCH   1   2
BRANCH   1   6
ATOM      6  C   UNL     1      15.765   1.985  11.473  1.00  0.00     0.000 C 
BRANCH   6   7
ATOM      7  C   UNL     1      17.255   1.936  11.090  1.00  0.00    -0.003 C 
ATOM      8  C   UNL     1      17.986   0.735  11.687  1.00  0.00     0.004 C 
ENDBRANCH   6   7
ENDBRANCH   1   6
TORSDOF 4
ENDMDL
MODEL 2
REMARK VINA RESULT:    -4.135     14.251     15.759
REMARK INTER + INTRA:          -5.316
REMARK INTER:                  -5.079
REMARK INTRA:                  -0.237
REMARK UNBOUND:                -0.215
REMARK SMILES CCCCCC(=O)[O-]
REMARK SMILES IDX 4 1 5 2 6 3 7 4 8 5 3 6 2 7 1 8
REMARK H PARENT
REMARK Flexibility Score: inf
ROOT
ATOM      1  C   UNL     1      28.594  -2.656   5.381  1.00  0.00     0.006 C 
ENDROOT
BRANCH   1   2
ATOM      2  C   UNL     1      29.790  -3.320   6.082  1.00  0.00     0.053 C 
BRANCH   2   3
ATOM      3  C   UNL     1      31.003  -2.440   6.078  1.00  0.00     0.041 C 
ATOM      4  O   UNL     1      30.875  -1.187   6.102  1.00  0.00    -0.550 OA
ATOM      5  O   UNL     1      32.271  -3.001   6.014  1.00  0.00    -0.550 OA
ENDBRANCH   2   3
ENDBRANCH   1   2
BRANCH   1   6
ATOM      6  C   UNL     1      27.438  -2.266   6.323  1.00  0.00     0.000 C 
BRANCH   6   7
ATOM      7  C   UNL     1      27.354  -0.767   6.661  1.00  0.00    -0.003 C 
ATOM      8  C   UNL     1      27.992  -0.421   8.006  1.00  0.00     0.004 C 
ENDBRANCH   6   7
ENDBRANCH   1   6
TORSDOF 4
ENDMDL
MODEL 3
REMARK VINA RESULT:    -4.099      1.551      1.945
REMARK INTER + INTRA:          -5.272
REMARK INTER:                  -5.224
REMARK INTRA:                  -0.048
REMARK UNBOUND:                -0.215
REMARK SMILES CCCCCC(=O)[O-]
REMARK SMILES IDX 4 1 5 2 6 3 7 4 8 5 3 6 2 7 1 8
REMARK H PARENT
REMARK Flexibility Score: inf
ROOT
ATOM      1  C   UNL     1      15.620   2.568  12.791  1.00  0.00     0.006 C 
ENDROOT
BRANCH   1   2
ATOM      2  C   UNL     1      14.737   1.702  13.705  1.00  0.00     0.053 C 
BRANCH   2   3
ATOM      3  C   UNL     1      14.324   2.435  14.945  1.00  0.00     0.041 C 
ATOM      4  O   UNL     1      15.196   2.903  15.724  1.00  0.00    -0.550 OA
ATOM      5  O   UNL     1      12.978   2.571  15.258  1.00  0.00    -0.550 OA
ENDBRANCH   2   3
ENDBRANCH   1   2
BRANCH   1   6
ATOM      6  C   UNL     1      15.981   1.912  11.444  1.00  0.00     0.000 C 
BRANCH   6   7
ATOM      7  C   UNL     1      17.451   1.480  11.307  1.00  0.00    -0.003 C 
ATOM      8  C   UNL     1      17.745   0.769   9.987  1.00  0.00     0.004 C 
ENDBRANCH   6   7
ENDBRANCH   1   6
TORSDOF 4
ENDMDL
MODEL 4
REMARK VINA RESULT:    -4.097     13.893     15.671
REMARK INTER + INTRA:          -5.270
REMARK INTER:                  -5.089
REMARK INTRA:                  -0.181
REMARK UNBOUND:                -0.215
REMARK SMILES CCCCCC(=O)[O-]
REMARK SMILES IDX 4 1 5 2 6 3 7 4 8 5 3 6 2 7 1 8
REMARK H PARENT
REMARK Flexibility Score: inf
ROOT
ATOM      1  C   UNL     1      29.667  -2.169   5.795  1.00  0.00     0.006 C 
ENDROOT
BRANCH   1   2
ATOM      2  C   UNL     1      30.466  -3.216   6.589  1.00  0.00     0.053 C 
BRANCH   2   3
ATOM      3  C   UNL     1      31.248  -2.597   7.706  1.00  0.00     0.041 C 
ATOM      4  O   UNL     1      32.301  -3.146   8.122  1.00  0.00    -0.550 OA
ATOM      5  O   UNL     1      30.795  -1.431   8.311  1.00  0.00    -0.550 OA
ENDBRANCH   2   3
ENDBRANCH   1   2
BRANCH   1   6
ATOM      6  C   UNL     1      28.237  -2.606   5.419  1.00  0.00     0.000 C 
BRANCH   6   7
ATOM      7  C   UNL     1      27.177  -2.360   6.506  1.00  0.00    -0.003 C 
ATOM      8  C   UNL     1      27.434  -1.089   7.315  1.00  0.00     0.004 C 
ENDBRANCH   6   7
ENDBRANCH   1   6
TORSDOF 4
ENDMDL
MODEL 5
REMARK VINA RESULT:    -4.093     13.006     14.182
REMARK INTER + INTRA:          -5.265
REMARK INTER:                  -5.046
REMARK INTRA:                  -0.218
REMARK UNBOUND:                -0.215
REMARK SMILES CCCCCC(=O)[O-]
REMARK SMILES IDX 4 1 5 2 6 3 7 4 8 5 3 6 2 7 1 8
REMARK H PARENT
REMARK Flexibility Score: inf
ROOT
ATOM      1  C   UNL     1      27.188  -1.492   7.235  1.00  0.00     0.006 C 
ENDROOT
BRANCH   1   2
ATOM      2  C   UNL     1      28.025  -0.202   7.221  1.00  0.00     0.053 C 
BRANCH   2   3
ATOM      3  C   UNL     1      28.734   0.021   8.522  1.00  0.00     0.041 C 
ATOM      4  O   UNL     1      28.262   0.822   9.371  1.00  0.00    -0.550 OA
ATOM      5  O   UNL     1      29.933  -0.629   8.782  1.00  0.00    -0.550 OA
ENDBRANCH   2   3
ENDBRANCH   1   2
BRANCH   1   6
ATOM      6  C   UNL     1      27.581  -2.519   6.155  1.00  0.00     0.000 C 
BRANCH   6   7
ATOM      7  C   UNL     1      29.011  -2.370   5.607  1.00  0.00    -0.003 C 
ATOM      8  C   UNL     1      29.997  -3.356   6.232  1.00  0.00     0.004 C 
ENDBRANCH   6   7
ENDBRANCH   1   6
TORSDOF 4
ENDMDL
MODEL 6
REMARK VINA RESULT:    -3.988      1.397      3.032
REMARK INTER + INTRA:          -5.135
REMARK INTER:                  -4.937
REMARK INTRA:                  -0.198
REMARK UNBOUND:                -0.215
REMARK SMILES CCCCCC(=O)[O-]
REMARK SMILES IDX 4 1 5 2 6 3 7 4 8 5 3 6 2 7 1 8
REMARK H PARENT
REMARK Flexibility Score: inf
ROOT
ATOM      1  C   UNL     1      17.190   1.521  11.507  1.00  0.00     0.006 C 
ENDROOT
BRANCH   1   2
ATOM      2  C   UNL     1      17.484   0.032  11.754  1.00  0.00     0.053 C 
BRANCH   2   3
ATOM      3  C   UNL     1      17.777  -0.251  13.196  1.00  0.00     0.041 C 
ATOM      4  O   UNL     1      18.969  -0.338  13.594  1.00  0.00    -0.550 OA
ATOM      5  O   UNL     1      16.736  -0.453  14.092  1.00  0.00    -0.550 OA
ENDBRANCH   2   3
ENDBRANCH   1   2
BRANCH   1   6
ATOM      6  C   UNL     1      15.715   1.923  11.706  1.00  0.00     0.000 C 
BRANCH   6   7
ATOM      7  C   UNL     1      15.469   2.959  12.816  1.00  0.00    -0.003 C 
ATOM      8  C   UNL     1      14.715   2.385  14.014  1.00  0.00     0.004 C 
ENDBRANCH   6   7
ENDBRANCH   1   6
TORSDOF 4
ENDMDL
MODEL 7
REMARK VINA RESULT:    -3.983      1.371      1.967
REMARK INTER + INTRA:          -5.129
REMARK INTER:                  -5.060
REMARK INTRA:                  -0.069
REMARK UNBOUND:                -0.215
REMARK SMILES CCCCCC(=O)[O-]
REMARK SMILES IDX 4 1 5 2 6 3 7 4 8 5 3 6 2 7 1 8
REMARK H PARENT
REMARK Flexibility Score: inf
ROOT
ATOM      1  C   UNL     1      14.849   1.589  13.706  1.00  0.00     0.006 C 
ENDROOT
BRANCH   1   2
ATOM      2  C   UNL     1      13.989   2.283  14.774  1.00  0.00     0.053 C 
BRANCH   2   3
ATOM      3  C   UNL     1      14.468   1.984  16.162  1.00  0.00     0.041 C 
ATOM      4  O   UNL     1      13.639   1.757  17.083  1.00  0.00    -0.550 OA
ATOM      5  O   UNL     1      15.827   1.991  16.447  1.00  0.00    -0.550 OA
ENDBRANCH   2   3
ENDBRANCH   1   2
BRANCH   1   6
ATOM      6  C   UNL     1      15.516   2.547  12.700  1.00  0.00     0.000 C 
BRANCH   6   7
ATOM      7  C   UNL     1      15.912   1.907  11.359  1.00  0.00    -0.003 C 
ATOM      8  C   UNL     1      17.421   1.912  11.116  1.00  0.00     0.004 C 
ENDBRANCH   6   7
ENDBRANCH   1   6
TORSDOF 4
ENDMDL
MODEL 8
REMARK VINA RESULT:    -3.952     13.781     15.199
REMARK INTER + INTRA:          -5.091
REMARK INTER:                  -4.856
REMARK INTRA:                  -0.235
REMARK UNBOUND:                -0.215
REMARK SMILES CCCCCC(=O)[O-]
REMARK SMILES IDX 4 1 5 2 6 3 7 4 8 5 3 6 2 7 1 8
REMARK H PARENT
REMARK Flexibility Score: inf
ROOT
ATOM      1  C   UNL     1      29.598  -3.468   6.054  1.00  0.00     0.006 C 
ENDROOT
BRANCH   1   2
ATOM      2  C   UNL     1      28.609  -2.524   5.351  1.00  0.00     0.053 C 
BRANCH   2   3
ATOM      3  C   UNL     1      27.510  -2.079   6.267  1.00  0.00     0.041 C 
ATOM      4  O   UNL     1      26.889  -2.922   6.968  1.00  0.00    -0.550 OA
ATOM      5  O   UNL     1      27.148  -0.740   6.322  1.00  0.00    -0.550 OA
ENDBRANCH   2   3
ENDBRANCH   1   2
BRANCH   1   6
ATOM      6  C   UNL     1      30.507  -2.782   7.094  1.00  0.00     0.000 C 
BRANCH   6   7
ATOM      7  C   UNL     1      31.089  -1.428   6.653  1.00  0.00    -0.003 C 
ATOM      8  C   UNL     1      30.641  -0.267   7.539  1.00  0.00     0.004 C 
ENDBRANCH   6   7
ENDBRANCH   1   6
TORSDOF 4
ENDMDL
