MODEL 1
REMARK VINA RESULT:    -4.184      0.000      0.000
REMARK INTER + INTRA:          -6.964
REMARK INTER:                  -6.386
REMARK INTRA:                  -0.578
REMARK UNBOUND:                -0.578
REMARK SMILES CCCCCCCCCCC(=O)[O-]
REMARK SMILES IDX 7 1 8 2 9 3 10 4 11 5 12 6 13 7 6 8 5 9 4 10 3 11 2 12 1 13
REMARK H PARENT
REMARK Flexibility Score: inf
ROOT
ATOM      1  C   UNL     1      46.063  -3.993  83.859  1.00  0.00     0.000 C 
ENDROOT
BRANCH   1   2
ATOM      2  C   UNL     1      45.081  -5.183  83.840  1.00  0.00     0.000 C 
BRANCH   2   3
ATOM      3  C   UNL     1      43.829  -4.916  84.694  1.00  0.00     0.006 C 
BRANCH   3   4
ATOM      4  C   UNL     1      42.556  -5.481  84.050  1.00  0.00     0.053 C 
BRANCH   4   5
ATOM      5  C   UNL     1      42.499  -6.974  84.156  1.00  0.00     0.041 C 
ATOM      6  O   UNL     1      42.177  -7.667  83.155  1.00  0.00    -0.550 OA
ATOM      7  O   UNL     1      42.828  -7.601  85.350  1.00  0.00    -0.550 OA
ENDBRANCH   4   5
ENDBRANCH   3   4
ENDBRANCH   2   3
ENDBRANCH   1   2
BRANCH   1   8
ATOM      8  C   UNL     1      45.772  -2.975  84.975  1.00  0.00     0.000 C 
BRANCH   8   9
ATOM      9  C   UNL     1      46.763  -1.799  84.982  1.00  0.00    -0.000 C 
BRANCH   9  10
ATOM     10  C   UNL     1      48.015  -2.077  84.135  1.00  0.00    -0.000 C 
BRANCH  10  11
ATOM     11  C   UNL     1      48.083  -1.198  82.877  1.00  0.00    -0.000 C 
BRANCH  11  12
ATOM     12  C   UNL     1      48.736  -1.954  81.714  1.00  0.00    -0.003 C 
ATOM     13  C   UNL     1      47.727  -2.235  80.603  1.00  0.00     0.004 C 
ENDBRANCH  11  12
ENDBRANCH  10  11
ENDBRANCH   9  10
ENDBRANCH   8   9
ENDBRANCH   1   8
TORSDOF 9
ENDMDL
MODEL 2
REMARK VINA RESULT:    -3.993     11.583     13.283
REMARK INTER + INTRA:          -6.671
REMARK INTER:                  -5.809
REMARK INTRA:                  -0.862
REMARK UNBOUND:                -0.578
REMARK SMILES CCCCCCCCCCC(=O)[O-]
REMARK SMILES IDX 7 1 8 2 9 3 10 4 11 5 12 6 13 7 6 8 5 9 4 10 3 11 2 12 1 13
REMARK H PARENT
REMARK Flexibility Score: inf
ROOT
ATOM      1  C   UNL     1      51.385  -0.500  72.240  1.00  0.00     0.000 C 
ENDROOT
BRANCH   1   2
ATOM      2  C   UNL     1      52.611  -1.436  72.260  1.00  0.00     0.000 C 
BRANCH   2   3
ATOM      3  C   UNL     1      52.638  -2.332  73.511  1.00  0.00     0.006 C 
BRANCH   3   4
ATOM      4  C   UNL     1      52.655  -3.824  73.156  1.00  0.00     0.053 C 
BRANCH   4   5
ATOM      5  C   UNL     1      53.788  -4.539  73.826  1.00  0.00     0.041 C 
ATOM      6  O   UNL     1      53.599  -5.659  74.367  1.00  0.00    -0.550 OA
ATOM      7  O   UNL     1      55.060  -3.981  73.826  1.00  0.00    -0.550 OA
ENDBRANCH   4   5
ENDBRANCH   3   4
ENDBRANCH   2   3
ENDBRANCH   1   2
BRANCH   1   8
ATOM      8  C   UNL     1      50.086  -1.199  71.801  1.00  0.00     0.000 C 
BRANCH   8   9
ATOM      9  C   UNL     1      48.973  -1.106  72.859  1.00  0.00    -0.000 C 
BRANCH   9  10
ATOM     10  C   UNL     1      48.709  -2.450  73.557  1.00  0.00    -0.000 C 
BRANCH  10  11
ATOM     11  C   UNL     1      48.958  -3.653  72.636  1.00  0.00    -0.000 C 
BRANCH  11  12
ATOM     12  C   UNL     1      48.404  -4.941  73.255  1.00  0.00    -0.003 C 
ATOM     13  C   UNL     1      47.462  -5.657  72.290  1.00  0.00     0.004 C 
ENDBRANCH  11  12
ENDBRANCH  10  11
ENDBRANCH   9  10
ENDBRANCH   8   9
ENDBRANCH   1   8
TORSDOF 9
ENDMDL
MODEL 3
REMARK VINA RESULT:    -3.912     10.778     13.345
REMARK INTER + INTRA:          -6.548
REMARK INTER:                  -5.591
REMARK INTRA:                  -0.958
REMARK UNBOUND:                -0.578
REMARK SMILES CCCCCCCCCCC(=O)[O-]
REMARK SMILES IDX 7 1 8 2 9 3 10 4 11 5 12 6 13 7 6 8 5 9 4 10 3 11 2 12 1 13
REMARK H PARENT
REMARK Flexibility Score: inf
ROOT
ATOM      1  C   UNL     1      52.315  -1.402  72.499  1.00  0.00     0.000 C 
ENDROOT
BRANCH   1   2
ATOM      2  C   UNL     1      51.912  -2.892  72.523  1.00  0.00     0.000 C 
BRANCH   2   3
ATOM      3  C   UNL     1      52.678  -3.683  73.597  1.00  0.00     0.006 C 
BRANCH   3   4
ATOM      4  C   UNL     1      54.193  -3.681  73.350  1.00  0.00     0.053 C 
BRANCH   4   5
ATOM      5  C   UNL     1      54.814  -4.996  73.709  1.00  0.00     0.041 C 
ATOM      6  O   UNL     1      54.150  -5.857  74.344  1.00  0.00    -0.550 OA
ATOM      7  O   UNL     1      56.115  -5.282  73.317  1.00  0.00    -0.550 OA
ENDBRANCH   4   5
ENDBRANCH   3   4
ENDBRANCH   2   3
ENDBRANCH   1   2
BRANCH   1   8
ATOM      8  C   UNL     1      51.158  -0.460  72.121  1.00  0.00     0.000 C 
BRANCH   8   9
ATOM      9  C   UNL     1      49.863  -1.215  71.776  1.00  0.00    -0.000 C 
BRANCH   9  10
ATOM     10  C   UNL     1      48.615  -0.553  72.380  1.00  0.00    -0.000 C 
BRANCH  10  11
ATOM     11  C   UNL     1      48.735  -0.339  73.896  1.00  0.00    -0.000 C 
BRANCH  11  12
ATOM     12  C   UNL     1      48.640  -1.672  74.647  1.00  0.00    -0.003 C 
ATOM     13  C   UNL     1      49.889  -1.922  75.489  1.00  0.00     0.004 C 
ENDBRANCH  11  12
ENDBRANCH  10  11
ENDBRANCH   9  10
ENDBRANCH   8   9
ENDBRANCH   1   8
TORSDOF 9
ENDMDL
MODEL 4
REMARK VINA RESULT:    -3.901     10.627     12.711
REMARK INTER + INTRA:          -6.531
REMARK INTER:                  -5.252
REMARK INTRA:                  -1.279
REMARK UNBOUND:                -0.578
REMARK SMILES CCCCCCCCCCC(=O)[O-]
REMARK SMILES IDX 7 1 8 2 9 3 10 4 11 5 12 6 13 7 6 8 5 9 4 10 3 11 2 12 1 13
REMARK H PARENT
REMARK Flexibility Score: inf
ROOT
ATOM      1  C   UNL     1      48.925   0.575  73.391  1.00  0.00     0.000 C 
ENDROOT
BRANCH   1   2
ATOM      2  C   UNL     1      48.649  -0.465  72.285  1.00  0.00     0.000 C 
BRANCH   2   3
ATOM      3  C   UNL     1      49.947  -1.043  71.695  1.00  0.00     0.006 C 
BRANCH   3   4
ATOM      4  C   UNL     1      51.197  -0.357  72.260  1.00  0.00     0.053 C 
BRANCH   4   5
ATOM      5  C   UNL     1      52.397  -1.252  72.195  1.00  0.00     0.041 C 
ATOM      6  O   UNL     1      52.356  -2.404  72.702  1.00  0.00    -0.550 OA
ATOM      7  O   UNL     1      53.550  -0.826  71.547  1.00  0.00    -0.550 OA
ENDBRANCH   4   5
ENDBRANCH   3   4
ENDBRANCH   2   3
ENDBRANCH   1   2
BRANCH   1   8
ATOM      8  C   UNL     1      47.902   0.535  74.539  1.00  0.00     0.000 C 
BRANCH   8   9
ATOM      9  C   UNL     1      47.915  -0.800  75.303  1.00  0.00    -0.000 C 
BRANCH   9  10
ATOM     10  C   UNL     1      49.330  -1.225  75.724  1.00  0.00    -0.000 C 
BRANCH  10  11
ATOM     11  C   UNL     1      49.743  -2.578  75.125  1.00  0.00    -0.000 C 
BRANCH  11  12
ATOM     12  C   UNL     1      48.513  -3.422  74.778  1.00  0.00    -0.003 C 
ATOM     13  C   UNL     1      48.640  -4.038  73.387  1.00  0.00     0.004 C 
ENDBRANCH  11  12
ENDBRANCH  10  11
ENDBRANCH   9  10
ENDBRANCH   8   9
ENDBRANCH   1   8
TORSDOF 9
ENDMDL
MODEL 5
REMARK VINA RESULT:    -3.894     10.693     12.980
REMARK INTER + INTRA:          -6.521
REMARK INTER:                  -5.314
REMARK INTRA:                  -1.207
REMARK UNBOUND:                -0.578
REMARK SMILES CCCCCCCCCCC(=O)[O-]
REMARK SMILES IDX 7 1 8 2 9 3 10 4 11 5 12 6 13 7 6 8 5 9 4 10 3 11 2 12 1 13
REMARK H PARENT
REMARK Flexibility Score: inf
ROOT
ATOM      1  C   UNL     1      51.002  -1.293  72.434  1.00  0.00     0.000 C 
ENDROOT
BRANCH   1   2
ATOM      2  C   UNL     1      49.700  -1.136  71.619  1.00  0.00     0.000 C 
BRANCH   2   3
ATOM      3  C   UNL     1      48.601  -0.411  72.416  1.00  0.00     0.006 C 
BRANCH   3   4
ATOM      4  C   UNL     1      49.159   0.313  73.648  1.00  0.00     0.053 C 
BRANCH   4   5
ATOM      5  C   UNL     1      48.897   1.787  73.589  1.00  0.00     0.041 C 
ATOM      6  O   UNL     1      49.782   2.603  73.959  1.00  0.00    -0.550 OA
ATOM      7  O   UNL     1      47.688   2.261  73.097  1.00  0.00    -0.550 OA
ENDBRANCH   4   5
ENDBRANCH   3   4
ENDBRANCH   2   3
ENDBRANCH   1   2
BRANCH   1   8
ATOM      8  C   UNL     1      51.414  -2.759  72.654  1.00  0.00     0.000 C 
BRANCH   8   9
ATOM      9  C   UNL     1      50.509  -3.752  71.905  1.00  0.00    -0.000 C 
BRANCH   9  10
ATOM     10  C   UNL     1      49.694  -4.643  72.856  1.00  0.00    -0.000 C 
BRANCH  10  11
ATOM     11  C   UNL     1      48.194  -4.313  72.834  1.00  0.00    -0.000 C 
BRANCH  11  12
ATOM     12  C   UNL     1      47.646  -4.160  74.257  1.00  0.00    -0.003 C 
ATOM     13  C   UNL     1      48.423  -3.102  75.037  1.00  0.00     0.004 C 
ENDBRANCH  11  12
ENDBRANCH  10  11
ENDBRANCH   9  10
ENDBRANCH   8   9
ENDBRANCH   1   8
TORSDOF 9
ENDMDL
MODEL 6
REMARK VINA RESULT:    -3.891     11.511     13.624
REMARK INTER + INTRA:          -6.517
REMARK INTER:                  -6.026
REMARK INTRA:                  -0.491
REMARK UNBOUND:                -0.578
REMARK SMILES CCCCCCCCCCC(=O)[O-]
REMARK SMILES IDX 7 1 8 2 9 3 10 4 11 5 12 6 13 7 6 8 5 9 4 10 3 11 2 12 1 13
REMARK H PARENT
REMARK Flexibility Score: inf
ROOT
ATOM      1  C   UNL     1      48.872  -2.008  72.762  1.00  0.00     0.000 C 
ENDROOT
BRANCH   1   2
ATOM      2  C   UNL     1      50.103  -1.888  71.838  1.00  0.00     0.000 C 
BRANCH   2   3
ATOM      3  C   UNL     1      51.237  -1.073  72.485  1.00  0.00     0.006 C 
BRANCH   3   4
ATOM      4  C   UNL     1      52.339  -1.970  73.063  1.00  0.00     0.053 C 
BRANCH   4   5
ATOM      5  C   UNL     1      53.552  -1.991  72.184  1.00  0.00     0.041 C 
ATOM      6  O   UNL     1      54.223  -3.049  72.057  1.00  0.00    -0.550 OA
ATOM      7  O   UNL     1      53.924  -0.852  71.483  1.00  0.00    -0.550 OA
ENDBRANCH   4   5
ENDBRANCH   3   4
ENDBRANCH   2   3
ENDBRANCH   1   2
BRANCH   1   8
ATOM      8  C   UNL     1      48.787  -3.355  73.499  1.00  0.00     0.000 C 
BRANCH   8   9
ATOM      9  C   UNL     1      48.913  -4.562  72.553  1.00  0.00    -0.000 C 
BRANCH   9  10
ATOM     10  C   UNL     1      47.640  -5.422  72.521  1.00  0.00    -0.000 C 
BRANCH  10  11
ATOM     11  C   UNL     1      46.751  -5.209  73.755  1.00  0.00    -0.000 C 
BRANCH  11  12
ATOM     12  C   UNL     1      45.804  -6.396  73.960  1.00  0.00    -0.003 C 
ATOM     13  C   UNL     1      44.371  -5.924  74.193  1.00  0.00     0.004 C 
ENDBRANCH  11  12
ENDBRANCH  10  11
ENDBRANCH   9  10
ENDBRANCH   8   9
ENDBRANCH   1   8
TORSDOF 9
ENDMDL
MODEL 7
REMARK VINA RESULT:    -3.861     11.046     12.204
REMARK INTER + INTRA:          -6.470
REMARK INTER:                  -6.031
REMARK INTRA:                  -0.439
REMARK UNBOUND:                -0.578
REMARK SMILES CCCCCCCCCCC(=O)[O-]
REMARK SMILES IDX 7 1 8 2 9 3 10 4 11 5 12 6 13 7 6 8 5 9 4 10 3 11 2 12 1 13
REMARK H PARENT
REMARK Flexibility Score: inf
ROOT
ATOM      1  C   UNL     1      49.923  -4.426  72.882  1.00  0.00     0.000 C 
ENDROOT
BRANCH   1   2
ATOM      2  C   UNL     1      48.451  -4.028  72.647  1.00  0.00     0.000 C 
BRANCH   2   3
ATOM      3  C   UNL     1      47.469  -5.068  73.215  1.00  0.00     0.006 C 
BRANCH   3   4
ATOM      4  C   UNL     1      47.111  -6.149  72.187  1.00  0.00     0.053 C 
BRANCH   4   5
ATOM      5  C   UNL     1      46.693  -7.426  72.850  1.00  0.00     0.041 C 
ATOM      6  O   UNL     1      46.379  -7.433  74.070  1.00  0.00    -0.550 OA
ATOM      7  O   UNL     1      46.623  -8.602  72.115  1.00  0.00    -0.550 OA
ENDBRANCH   4   5
ENDBRANCH   3   4
ENDBRANCH   2   3
ENDBRANCH   1   2
BRANCH   1   8
ATOM      8  C   UNL     1      50.931  -3.459  72.239  1.00  0.00     0.000 C 
BRANCH   8   9
ATOM      9  C   UNL     1      50.349  -2.052  72.017  1.00  0.00    -0.000 C 
BRANCH   9  10
ATOM     10  C   UNL     1      51.407  -0.946  72.155  1.00  0.00    -0.000 C 
BRANCH  10  11
ATOM     11  C   UNL     1      52.798  -1.499  72.499  1.00  0.00    -0.000 C 
BRANCH  11  12
ATOM     12  C   UNL     1      53.853  -0.978  71.517  1.00  0.00    -0.003 C 
ATOM     13  C   UNL     1      53.537   0.449  71.074  1.00  0.00     0.004 C 
ENDBRANCH  11  12
ENDBRANCH  10  11
ENDBRANCH   9  10
ENDBRANCH   8   9
ENDBRANCH   1   8
TORSDOF 9
ENDMDL
MODEL 8
REMARK VINA RESULT:    -3.826     10.384     11.520
REMARK INTER + INTRA:          -6.418
REMARK INTER:                  -5.358
REMARK INTRA:                  -1.060
REMARK UNBOUND:                -0.578
REMARK SMILES CCCCCCCCCCC(=O)[O-]
REMARK SMILES IDX 7 1 8 2 9 3 10 4 11 5 12 6 13 7 6 8 5 9 4 10 3 11 2 12 1 13
REMARK H PARENT
REMARK Flexibility Score: inf
ROOT
ATOM      1  C   UNL     1      50.414  -4.308  73.444  1.00  0.00     0.000 C 
ENDROOT
BRANCH   1   2
ATOM      2  C   UNL     1      48.955  -4.332  73.945  1.00  0.00     0.000 C 
BRANCH   2   3
ATOM      3  C   UNL     1      47.942  -4.277  72.787  1.00  0.00     0.006 C 
BRANCH   3   4
ATOM      4  C   UNL     1      47.560  -5.676  72.284  1.00  0.00     0.053 C 
BRANCH   4   5
ATOM      5  C   UNL     1      46.677  -6.392  73.260  1.00  0.00     0.041 C 
ATOM      6  O   UNL     1      45.682  -5.806  73.761  1.00  0.00    -0.550 OA
ATOM      7  O   UNL     1      46.936  -7.715  73.593  1.00  0.00    -0.550 OA
ENDBRANCH   4   5
ENDBRANCH   3   4
ENDBRANCH   2   3
ENDBRANCH   1   2
BRANCH   1   8
ATOM      8  C   UNL     1      50.628  -3.401  72.219  1.00  0.00     0.000 C 
BRANCH   8   9
ATOM      9  C   UNL     1      51.374  -2.101  72.563  1.00  0.00    -0.000 C 
BRANCH   9  10
ATOM     10  C   UNL     1      50.700  -0.857  71.965  1.00  0.00    -0.000 C 
BRANCH  10  11
ATOM     11  C   UNL     1      49.171  -0.986  71.901  1.00  0.00    -0.000 C 
BRANCH  11  12
ATOM     12  C   UNL     1      48.497  -0.008  72.869  1.00  0.00    -0.003 C 
ATOM     13  C   UNL     1      48.486  -0.561  74.293  1.00  0.00     0.004 C 
ENDBRANCH  11  12
ENDBRANCH  10  11
ENDBRANCH   9  10
ENDBRANCH   8   9
ENDBRANCH   1   8
TORSDOF 9
ENDMDL
MODEL 9
REMARK VINA RESULT:    -3.820     10.013     12.040
REMARK INTER + INTRA:          -6.408
REMARK INTER:                  -5.061
REMARK INTRA:                  -1.347
REMARK UNBOUND:                -0.578
REMARK SMILES CCCCCCCCCCC(=O)[O-]
REMARK SMILES IDX 7 1 8 2 9 3 10 4 11 5 12 6 13 7 6 8 5 9 4 10 3 11 2 12 1 13
REMARK H PARENT
REMARK Flexibility Score: inf
ROOT
ATOM      1  C   UNL     1      51.136  -0.955  72.262  1.00  0.00     0.000 C 
ENDROOT
BRANCH   1   2
ATOM      2  C   UNL     1      51.596  -2.313  72.833  1.00  0.00     0.000 C 
BRANCH   2   3
ATOM      3  C   UNL     1      50.895  -3.499  72.148  1.00  0.00     0.006 C 
BRANCH   3   4
ATOM      4  C   UNL     1      50.223  -4.438  73.159  1.00  0.00     0.053 C 
BRANCH   4   5
ATOM      5  C   UNL     1      48.843  -4.824  72.722  1.00  0.00     0.041 C 
ATOM      6  O   UNL     1      47.962  -3.941  72.555  1.00  0.00    -0.550 OA
ATOM      7  O   UNL     1      48.539  -6.156  72.472  1.00  0.00    -0.550 OA
ENDBRANCH   4   5
ENDBRANCH   3   4
ENDBRANCH   2   3
ENDBRANCH   1   2
BRANCH   1   8
ATOM      8  C   UNL     1      49.782  -1.023  71.534  1.00  0.00     0.000 C 
BRANCH   8   9
ATOM      9  C   UNL     1      48.616  -0.510  72.395  1.00  0.00    -0.000 C 
BRANCH   9  10
ATOM     10  C   UNL     1      49.081   0.423  73.525  1.00  0.00    -0.000 C 
BRANCH  10  11
ATOM     11  C   UNL     1      48.478   0.048  74.887  1.00  0.00    -0.000 C 
BRANCH  11  12
ATOM     12  C   UNL     1      48.514  -1.469  75.103  1.00  0.00    -0.003 C 
ATOM     13  C   UNL     1      49.733  -1.881  75.924  1.00  0.00     0.004 C 
ENDBRANCH  11  12
ENDBRANCH  10  11
ENDBRANCH   9  10
ENDBRANCH   8   9
ENDBRANCH   1   8
TORSDOF 9
ENDMDL
