MODEL 1
REMARK VINA RESULT:    35.330      0.000      0.000
REMARK INTER + INTRA:          42.865
REMARK INTER:                  42.558
REMARK INTRA:                   0.306
REMARK UNBOUND:                 0.306
REMARK SMILES O=c1c(O)c(-c2ccc(O)c(O)c2)oc2cc(O)cc(O)c12
REMARK SMILES IDX 5 1 3 2 2 3 1 4 22 5 20 6 19 7 17 8 16 9 15 10 14 11 6 12
REMARK SMILES IDX 7 13 8 14 9 15 13 16 11 17 10 18 12 20 4 22 21 24 18 26
REMARK H PARENT 10 19 12 21 4 23 21 25 18 27
REMARK Flexibility Score: inf
ROOT
ATOM      1  C   UNL     1      15.826  49.150  59.468  1.00  0.00     0.180 A 
ATOM      2  C   UNL     1      15.480  48.911  60.809  1.00  0.00     0.208 A 
ATOM      3  C   UNL     1      15.109  49.995  61.620  1.00  0.00     0.238 A 
ATOM      4  O   UNL     1      14.851  49.782  62.834  1.00  0.00    -0.285 OA
ATOM      5  C   UNL     1      15.073  51.302  61.077  1.00  0.00     0.111 A 
ATOM      6  C   UNL     1      14.673  52.468  61.797  1.00  0.00     0.134 A 
ATOM      7  C   UNL     1      14.802  53.727  61.197  1.00  0.00     0.093 A 
ATOM      8  C   UNL     1      15.253  53.858  59.884  1.00  0.00     0.123 A 
ATOM      9  C   UNL     1      15.590  52.719  59.151  1.00  0.00     0.094 A 
ATOM     10  C   UNL     1      15.507  51.452  59.734  1.00  0.00     0.146 A 
ATOM     11  O   UNL     1      15.847  50.395  59.006  1.00  0.00    -0.452 OA
ENDROOT
BRANCH   1  12
ATOM     12  C   UNL     1      16.205  48.056  58.544  1.00  0.00     0.025 A 
ATOM     13  C   UNL     1      15.772  46.736  58.759  1.00  0.00     0.016 A 
ATOM     14  C   UNL     1      16.121  45.723  57.860  1.00  0.00     0.051 A 
ATOM     15  C   UNL     1      16.894  46.018  56.730  1.00  0.00     0.157 A 
ATOM     16  C   UNL     1      16.962  48.349  57.398  1.00  0.00     0.062 A 
ATOM     17  C   UNL     1      17.313  47.333  56.497  1.00  0.00     0.158 A 
BRANCH  15  18
ATOM     18  O   UNL     1      17.245  45.011  55.833  1.00  0.00    -0.504 OA
ATOM     19  H   UNL     1      17.527  44.091  56.152  1.00  0.00     0.293 HD
ENDBRANCH  15  18
BRANCH  17  20
ATOM     20  O   UNL     1      18.076  47.625  55.368  1.00  0.00    -0.504 OA
ATOM     21  H   UNL     1      17.647  47.786  54.464  1.00  0.00     0.293 HD
ENDBRANCH  17  20
ENDBRANCH   1  12
BRANCH   2  22
ATOM     22  O   UNL     1      15.543  47.616  61.330  1.00  0.00    -0.502 OA
ATOM     23  H   UNL     1      15.303  46.797  60.783  1.00  0.00     0.293 HD
ENDBRANCH   2  22
BRANCH   6  24
ATOM     24  O   UNL     1      14.123  52.441  63.081  1.00  0.00    -0.507 OA
ATOM     25  H   UNL     1      13.787  53.251  63.579  1.00  0.00     0.293 HD
ENDBRANCH   6  24
BRANCH   8  26
ATOM     26  O   UNL     1      15.354  55.125  59.315  1.00  0.00    -0.508 OA
ATOM     27  H   UNL     1      14.532  55.679  59.107  1.00  0.00     0.293 HD
ENDBRANCH   8  26
TORSDOF 6
ENDMDL
MODEL 2
REMARK VINA RESULT:    35.404      1.928      3.030
REMARK INTER + INTRA:          42.954
REMARK INTER:                  43.152
REMARK INTRA:                  -0.198
REMARK UNBOUND:                 0.306
REMARK SMILES O=c1c(O)c(-c2ccc(O)c(O)c2)oc2cc(O)cc(O)c12
REMARK SMILES IDX 5 1 3 2 2 3 1 4 22 5 20 6 19 7 17 8 16 9 15 10 14 11 6 12
REMARK SMILES IDX 7 13 8 14 9 15 13 16 11 17 10 18 12 20 4 22 21 24 18 26
REMARK H PARENT 10 19 12 21 4 23 21 25 18 27
REMARK Flexibility Score: inf
ROOT
ATOM      1  C   UNL     1      15.978  49.809  58.841  1.00  0.00     0.180 A 
ATOM      2  C   UNL     1      14.959  50.676  58.411  1.00  0.00     0.208 A 
ATOM      3  C   UNL     1      14.857  51.949  58.994  1.00  0.00     0.238 A 
ATOM      4  O   UNL     1      13.910  52.701  58.644  1.00  0.00    -0.285 OA
ATOM      5  C   UNL     1      15.783  52.344  59.990  1.00  0.00     0.111 A 
ATOM      6  C   UNL     1      15.799  53.624  60.620  1.00  0.00     0.134 A 
ATOM      7  C   UNL     1      16.679  53.859  61.684  1.00  0.00     0.093 A 
ATOM      8  C   UNL     1      17.587  52.886  62.097  1.00  0.00     0.123 A 
ATOM      9  C   UNL     1      17.622  51.651  61.447  1.00  0.00     0.094 A 
ATOM     10  C   UNL     1      16.732  51.373  60.407  1.00  0.00     0.146 A 
ATOM     11  O   UNL     1      16.790  50.183  59.822  1.00  0.00    -0.452 OA
ENDROOT
BRANCH   1  12
ATOM     12  C   UNL     1      16.164  48.461  58.255  1.00  0.00     0.025 A 
ATOM     13  C   UNL     1      17.298  48.149  57.484  1.00  0.00     0.016 A 
ATOM     14  C   UNL     1      17.465  46.862  56.963  1.00  0.00     0.051 A 
ATOM     15  C   UNL     1      16.510  45.869  57.215  1.00  0.00     0.157 A 
ATOM     16  C   UNL     1      15.222  47.454  58.523  1.00  0.00     0.062 A 
ATOM     17  C   UNL     1      15.389  46.164  57.998  1.00  0.00     0.158 A 
BRANCH  15  18
ATOM     18  O   UNL     1      16.674  44.586  56.695  1.00  0.00    -0.504 OA
ATOM     19  H   UNL     1      16.157  43.795  57.063  1.00  0.00     0.293 HD
ENDBRANCH  15  18
BRANCH  17  20
ATOM     20  O   UNL     1      14.445  45.171  58.255  1.00  0.00    -0.504 OA
ATOM     21  H   UNL     1      14.167  44.934  59.200  1.00  0.00     0.293 HD
ENDBRANCH  17  20
ENDBRANCH   1  12
BRANCH   2  22
ATOM     22  O   UNL     1      14.042  50.258  57.442  1.00  0.00    -0.502 OA
ATOM     23  H   UNL     1      13.409  49.481  57.592  1.00  0.00     0.293 HD
ENDBRANCH   2  22
BRANCH   6  24
ATOM     24  O   UNL     1      14.996  54.698  60.225  1.00  0.00    -0.507 OA
ATOM     25  H   UNL     1      14.990  55.604  60.668  1.00  0.00     0.293 HD
ENDBRANCH   6  24
BRANCH   8  26
ATOM     26  O   UNL     1      18.459  53.160  63.148  1.00  0.00    -0.508 OA
ATOM     27  H   UNL     1      18.612  52.494  63.897  1.00  0.00     0.293 HD
ENDBRANCH   8  26
TORSDOF 6
ENDMDL
MODEL 3
REMARK VINA RESULT:    36.892      1.926      2.947
REMARK INTER + INTRA:          44.747
REMARK INTER:                  44.285
REMARK INTRA:                   0.462
REMARK UNBOUND:                 0.306
REMARK SMILES O=c1c(O)c(-c2ccc(O)c(O)c2)oc2cc(O)cc(O)c12
REMARK SMILES IDX 5 1 3 2 2 3 1 4 22 5 20 6 19 7 17 8 16 9 15 10 14 11 6 12
REMARK SMILES IDX 7 13 8 14 9 15 13 16 11 17 10 18 12 20 4 22 21 24 18 26
REMARK H PARENT 10 19 12 21 4 23 21 25 18 27
REMARK Flexibility Score: inf
ROOT
ATOM      1  C   UNL     1      16.687  49.479  59.452  1.00  0.00     0.180 A 
ATOM      2  C   UNL     1      17.834  50.288  59.518  1.00  0.00     0.208 A 
ATOM      3  C   UNL     1      17.821  51.422  60.347  1.00  0.00     0.238 A 
ATOM      4  O   UNL     1      18.831  52.172  60.363  1.00  0.00    -0.285 OA
ATOM      5  C   UNL     1      16.666  51.723  61.110  1.00  0.00     0.111 A 
ATOM      6  C   UNL     1      16.556  52.823  62.013  1.00  0.00     0.134 A 
ATOM      7  C   UNL     1      15.323  53.101  62.615  1.00  0.00     0.093 A 
ATOM      8  C   UNL     1      14.215  52.282  62.400  1.00  0.00     0.123 A 
ATOM      9  C   UNL     1      14.328  51.169  61.566  1.00  0.00     0.094 A 
ATOM     10  C   UNL     1      15.535  50.887  60.921  1.00  0.00     0.146 A 
ATOM     11  O   UNL     1      15.597  49.825  60.128  1.00  0.00    -0.452 OA
ENDROOT
BRANCH   1  12
ATOM     12  C   UNL     1      16.634  48.255  58.620  1.00  0.00     0.025 A 
ATOM     13  C   UNL     1      17.773  47.776  57.950  1.00  0.00     0.016 A 
ATOM     14  C   UNL     1      17.706  46.604  57.190  1.00  0.00     0.051 A 
ATOM     15  C   UNL     1      16.504  45.890  57.100  1.00  0.00     0.157 A 
ATOM     16  C   UNL     1      15.438  47.522  58.543  1.00  0.00     0.062 A 
ATOM     17  C   UNL     1      15.370  46.348  57.779  1.00  0.00     0.158 A 
BRANCH  15  18
ATOM     18  O   UNL     1      16.434  44.722  56.342  1.00  0.00    -0.504 OA
ATOM     19  H   UNL     1      17.217  44.404  55.784  1.00  0.00     0.293 HD
ENDBRANCH  15  18
BRANCH  17  20
ATOM     20  O   UNL     1      14.178  45.630  57.695  1.00  0.00    -0.504 OA
ATOM     21  H   UNL     1      14.155  44.623  57.800  1.00  0.00     0.293 HD
ENDBRANCH  17  20
ENDBRANCH   1  12
BRANCH   2  22
ATOM     22  O   UNL     1      18.955  49.985  58.741  1.00  0.00    -0.502 OA
ATOM     23  H   UNL     1      19.324  50.623  58.046  1.00  0.00     0.293 HD
ENDBRANCH   2  22
BRANCH   6  24
ATOM     24  O   UNL     1      17.625  53.650  62.370  1.00  0.00    -0.507 OA
ATOM     25  H   UNL     1      17.756  54.594  62.041  1.00  0.00     0.293 HD
ENDBRANCH   6  24
BRANCH   8  26
ATOM     26  O   UNL     1      13.008  52.579  63.028  1.00  0.00    -0.508 OA
ATOM     27  H   UNL     1      12.967  52.820  64.012  1.00  0.00     0.293 HD
ENDBRANCH   8  26
TORSDOF 6
ENDMDL
