MODEL 1
REMARK VINA RESULT:    -3.078      0.000      0.000
REMARK INTER + INTRA:         -11.696
REMARK INTER:                  -7.036
REMARK INTRA:                  -4.661
REMARK UNBOUND:                -4.661
REMARK SMILES CCCCCCCCCCCCCCCCCCCCCCCC(=O)[O-]
REMARK SMILES IDX 13 1 14 2 15 3 16 4 17 5 18 6 19 7 20 8 21 9 22 10 23 11
REMARK SMILES IDX 24 12 25 13 26 14 12 15 11 16 10 17 9 18 8 19 7 20 6 21 5 22
REMARK SMILES IDX 4 23 3 24 2 25 1 26
REMARK H PARENT
REMARK Flexibility Score: inf
ROOT
ATOM      1  C   UNL     1      30.248  31.113  52.035  1.00  0.00     0.000 C 
ENDROOT
BRANCH   1   2
ATOM      2  C   UNL     1      30.296  32.269  51.017  1.00  0.00     0.000 C 
BRANCH   2   3
ATOM      3  C   UNL     1      29.306  33.412  51.315  1.00  0.00     0.000 C 
BRANCH   3   4
ATOM      4  C   UNL     1      29.399  33.938  52.760  1.00  0.00     0.000 C 
BRANCH   4   5
ATOM      5  C   UNL     1      28.012  34.009  53.422  1.00  0.00     0.000 C 
BRANCH   5   6
ATOM      6  C   UNL     1      26.878  33.675  52.429  1.00  0.00     0.000 C 
BRANCH   6   7
ATOM      7  C   UNL     1      25.716  32.921  53.097  1.00  0.00     0.000 C 
BRANCH   7   8
ATOM      8  C   UNL     1      25.261  31.717  52.249  1.00  0.00     0.000 C 
BRANCH   8   9
ATOM      9  C   UNL     1      26.437  30.949  51.616  1.00  0.00     0.000 C 
BRANCH   9  10
ATOM     10  C   UNL     1      26.304  30.685  50.102  1.00  0.00     0.006 C 
BRANCH  10  11
ATOM     11  C   UNL     1      26.995  31.727  49.209  1.00  0.00     0.053 C 
BRANCH  11  12
ATOM     12  C   UNL     1      26.018  32.694  48.612  1.00  0.00     0.041 C 
ATOM     13  O   UNL     1      26.403  33.833  48.235  1.00  0.00    -0.550 OA
ATOM     14  O   UNL     1      24.681  32.339  48.482  1.00  0.00    -0.550 OA
ENDBRANCH  11  12
ENDBRANCH  10  11
ENDBRANCH   9  10
ENDBRANCH   8   9
ENDBRANCH   7   8
ENDBRANCH   6   7
ENDBRANCH   5   6
ENDBRANCH   4   5
ENDBRANCH   3   4
ENDBRANCH   2   3
ENDBRANCH   1   2
BRANCH   1  15
ATOM     15  C   UNL     1      31.605  30.707  52.641  1.00  0.00     0.000 C 
BRANCH  15  16
ATOM     16  C   UNL     1      32.247  31.752  53.575  1.00  0.00     0.000 C 
BRANCH  16  17
ATOM     17  C   UNL     1      32.926  31.120  54.798  1.00  0.00     0.000 C 
BRANCH  17  18
ATOM     18  C   UNL     1      32.176  31.468  56.093  1.00  0.00    -0.000 C 
BRANCH  18  19
ATOM     19  C   UNL     1      31.098  32.545  55.885  1.00  0.00    -0.000 C 
BRANCH  19  20
ATOM     20  C   UNL     1      29.694  32.061  56.289  1.00  0.00    -0.000 C 
BRANCH  20  21
ATOM     21  C   UNL     1      29.306  30.724  55.626  1.00  0.00    -0.000 C 
BRANCH  21  22
ATOM     22  C   UNL     1      27.900  30.688  54.999  1.00  0.00    -0.000 C 
BRANCH  22  23
ATOM     23  C   UNL     1      27.307  29.270  54.929  1.00  0.00    -0.000 C 
BRANCH  23  24
ATOM     24  C   UNL     1      25.766  29.286  54.902  1.00  0.00    -0.000 C 
BRANCH  24  25
ATOM     25  C   UNL     1      25.146  30.267  55.909  1.00  0.00    -0.003 C 
ATOM     26  C   UNL     1      23.688  30.602  55.597  1.00  0.00     0.004 C 
ENDBRANCH  24  25
ENDBRANCH  23  24
ENDBRANCH  22  23
ENDBRANCH  21  22
ENDBRANCH  20  21
ENDBRANCH  19  20
ENDBRANCH  18  19
ENDBRANCH  17  18
ENDBRANCH  16  17
ENDBRANCH  15  16
ENDBRANCH   1  15
TORSDOF 22
ENDMDL
MODEL 2
REMARK VINA RESULT:    -3.018      1.696      2.571
REMARK INTER + INTRA:         -11.560
REMARK INTER:                  -7.408
REMARK INTRA:                  -4.153
REMARK UNBOUND:                -4.661
REMARK SMILES CCCCCCCCCCCCCCCCCCCCCCCC(=O)[O-]
REMARK SMILES IDX 13 1 14 2 15 3 16 4 17 5 18 6 19 7 20 8 21 9 22 10 23 11
REMARK SMILES IDX 24 12 25 13 26 14 12 15 11 16 10 17 9 18 8 19 7 20 6 21 5 22
REMARK SMILES IDX 4 23 3 24 2 25 1 26
REMARK H PARENT
REMARK Flexibility Score: inf
ROOT
ATOM      1  C   UNL     1      30.456  33.033  52.012  1.00  0.00     0.000 C 
ENDROOT
BRANCH   1   2
ATOM      2  C   UNL     1      29.522  33.980  52.789  1.00  0.00     0.000 C 
BRANCH   2   3
ATOM      3  C   UNL     1      28.141  33.376  53.114  1.00  0.00     0.000 C 
BRANCH   3   4
ATOM      4  C   UNL     1      27.022  34.430  53.203  1.00  0.00     0.000 C 
BRANCH   4   5
ATOM      5  C   UNL     1      25.650  33.822  52.866  1.00  0.00     0.000 C 
BRANCH   5   6
ATOM      6  C   UNL     1      25.758  32.335  52.463  1.00  0.00     0.000 C 
BRANCH   6   7
ATOM      7  C   UNL     1      25.331  32.089  51.007  1.00  0.00     0.000 C 
BRANCH   7   8
ATOM      8  C   UNL     1      25.347  33.392  50.184  1.00  0.00     0.000 C 
BRANCH   8   9
ATOM      9  C   UNL     1      26.359  33.356  49.023  1.00  0.00     0.000 C 
BRANCH   9  10
ATOM     10  C   UNL     1      27.802  32.992  49.427  1.00  0.00     0.006 C 
BRANCH  10  11
ATOM     11  C   UNL     1      28.799  32.941  48.259  1.00  0.00     0.053 C 
BRANCH  11  12
ATOM     12  C   UNL     1      29.853  31.895  48.464  1.00  0.00     0.041 C 
ATOM     13  O   UNL     1      31.073  32.208  48.422  1.00  0.00    -0.550 OA
ATOM     14  O   UNL     1      29.487  30.574  48.690  1.00  0.00    -0.550 OA
ENDBRANCH  11  12
ENDBRANCH  10  11
ENDBRANCH   9  10
ENDBRANCH   8   9
ENDBRANCH   7   8
ENDBRANCH   6   7
ENDBRANCH   5   6
ENDBRANCH   4   5
ENDBRANCH   3   4
ENDBRANCH   2   3
ENDBRANCH   1   2
BRANCH   1  15
ATOM     15  C   UNL     1      30.220  31.529  52.247  1.00  0.00     0.000 C 
BRANCH  15  16
ATOM     16  C   UNL     1      31.427  30.755  52.814  1.00  0.00     0.000 C 
BRANCH  16  17
ATOM     17  C   UNL     1      32.463  31.672  53.479  1.00  0.00     0.000 C 
BRANCH  17  18
ATOM     18  C   UNL     1      33.117  30.987  54.689  1.00  0.00    -0.000 C 
BRANCH  18  19
ATOM     19  C   UNL     1      32.401  31.305  56.012  1.00  0.00    -0.000 C 
BRANCH  19  20
ATOM     20  C   UNL     1      31.497  32.546  55.910  1.00  0.00    -0.000 C 
BRANCH  20  21
ATOM     21  C   UNL     1      30.002  32.218  56.101  1.00  0.00    -0.000 C 
BRANCH  21  22
ATOM     22  C   UNL     1      29.697  30.766  56.512  1.00  0.00    -0.000 C 
BRANCH  22  23
ATOM     23  C   UNL     1      28.894  29.995  55.450  1.00  0.00    -0.000 C 
BRANCH  23  24
ATOM     24  C   UNL     1      27.498  30.608  55.221  1.00  0.00    -0.000 C 
BRANCH  24  25
ATOM     25  C   UNL     1      26.390  29.933  56.042  1.00  0.00    -0.003 C 
ATOM     26  C   UNL     1      24.985  30.346  55.604  1.00  0.00     0.004 C 
ENDBRANCH  24  25
ENDBRANCH  23  24
ENDBRANCH  22  23
ENDBRANCH  21  22
ENDBRANCH  20  21
ENDBRANCH  19  20
ENDBRANCH  18  19
ENDBRANCH  17  18
ENDBRANCH  16  17
ENDBRANCH  15  16
ENDBRANCH   1  15
TORSDOF 22
ENDMDL
MODEL 3
REMARK VINA RESULT:    -2.938      2.576      5.772
REMARK INTER + INTRA:         -11.377
REMARK INTER:                  -7.086
REMARK INTRA:                  -4.291
REMARK UNBOUND:                -4.661
REMARK SMILES CCCCCCCCCCCCCCCCCCCCCCCC(=O)[O-]
REMARK SMILES IDX 13 1 14 2 15 3 16 4 17 5 18 6 19 7 20 8 21 9 22 10 23 11
REMARK SMILES IDX 24 12 25 13 26 14 12 15 11 16 10 17 9 18 8 19 7 20 6 21 5 22
REMARK SMILES IDX 4 23 3 24 2 25 1 26
REMARK H PARENT
REMARK Flexibility Score: inf
ROOT
ATOM      1  C   UNL     1      29.734  29.717  51.509  1.00  0.00     0.000 C 
ENDROOT
BRANCH   1   2
ATOM      2  C   UNL     1      30.632  29.850  52.754  1.00  0.00     0.000 C 
BRANCH   2   3
ATOM      3  C   UNL     1      32.018  30.461  52.469  1.00  0.00     0.000 C 
BRANCH   3   4
ATOM      4  C   UNL     1      32.419  31.557  53.474  1.00  0.00     0.000 C 
BRANCH   4   5
ATOM      5  C   UNL     1      33.101  30.958  54.716  1.00  0.00     0.000 C 
BRANCH   5   6
ATOM      6  C   UNL     1      32.225  31.093  55.981  1.00  0.00     0.000 C 
BRANCH   6   7
ATOM      7  C   UNL     1      31.631  32.502  56.136  1.00  0.00     0.000 C 
BRANCH   7   8
ATOM      8  C   UNL     1      30.091  32.463  56.206  1.00  0.00     0.000 C 
BRANCH   8   9
ATOM      9  C   UNL     1      29.522  31.037  56.092  1.00  0.00     0.000 C 
BRANCH   9  10
ATOM     10  C   UNL     1      28.233  30.915  55.254  1.00  0.00     0.006 C 
BRANCH  10  11
ATOM     11  C   UNL     1      27.696  29.481  55.112  1.00  0.00     0.053 C 
BRANCH  11  12
ATOM     12  C   UNL     1      26.311  29.341  55.666  1.00  0.00     0.041 C 
ATOM     13  O   UNL     1      25.548  28.433  55.242  1.00  0.00    -0.550 OA
ATOM     14  O   UNL     1      25.860  30.222  56.642  1.00  0.00    -0.550 OA
ENDBRANCH  11  12
ENDBRANCH  10  11
ENDBRANCH   9  10
ENDBRANCH   8   9
ENDBRANCH   7   8
ENDBRANCH   6   7
ENDBRANCH   5   6
ENDBRANCH   4   5
ENDBRANCH   3   4
ENDBRANCH   2   3
ENDBRANCH   1   2
BRANCH   1  15
ATOM     15  C   UNL     1      30.009  30.732  50.383  1.00  0.00     0.000 C 
BRANCH  15  16
ATOM     16  C   UNL     1      29.133  32.000  50.415  1.00  0.00     0.000 C 
BRANCH  16  17
ATOM     17  C   UNL     1      29.956  33.289  50.560  1.00  0.00     0.000 C 
BRANCH  17  18
ATOM     18  C   UNL     1      29.879  33.840  51.992  1.00  0.00    -0.000 C 
BRANCH  18  19
ATOM     19  C   UNL     1      28.699  33.260  52.790  1.00  0.00    -0.000 C 
BRANCH  19  20
ATOM     20  C   UNL     1      27.775  34.352  53.355  1.00  0.00    -0.000 C 
BRANCH  20  21
ATOM     21  C   UNL     1      26.283  34.082  53.074  1.00  0.00    -0.000 C 
BRANCH  21  22
ATOM     22  C   UNL     1      25.887  32.596  53.010  1.00  0.00    -0.000 C 
BRANCH  22  23
ATOM     23  C   UNL     1      25.402  32.161  51.616  1.00  0.00    -0.000 C 
BRANCH  23  24
ATOM     24  C   UNL     1      25.648  33.249  50.551  1.00  0.00    -0.000 C 
BRANCH  24  25
ATOM     25  C   UNL     1      25.677  32.705  49.115  1.00  0.00    -0.003 C 
ATOM     26  C   UNL     1      26.520  33.559  48.169  1.00  0.00     0.004 C 
ENDBRANCH  24  25
ENDBRANCH  23  24
ENDBRANCH  22  23
ENDBRANCH  21  22
ENDBRANCH  20  21
ENDBRANCH  19  20
ENDBRANCH  18  19
ENDBRANCH  17  18
ENDBRANCH  16  17
ENDBRANCH  15  16
ENDBRANCH   1  15
TORSDOF 22
ENDMDL
MODEL 4
REMARK VINA RESULT:    -2.877      2.205      4.512
REMARK INTER + INTRA:         -11.239
REMARK INTER:                  -6.829
REMARK INTRA:                  -4.410
REMARK UNBOUND:                -4.661
REMARK SMILES CCCCCCCCCCCCCCCCCCCCCCCC(=O)[O-]
REMARK SMILES IDX 13 1 14 2 15 3 16 4 17 5 18 6 19 7 20 8 21 9 22 10 23 11
REMARK SMILES IDX 24 12 25 13 26 14 12 15 11 16 10 17 9 18 8 19 7 20 6 21 5 22
REMARK SMILES IDX 4 23 3 24 2 25 1 26
REMARK H PARENT
REMARK Flexibility Score: inf
ROOT
ATOM      1  C   UNL     1      27.604  30.010  55.237  1.00  0.00     0.000 C 
ENDROOT
BRANCH   1   2
ATOM      2  C   UNL     1      26.844  29.588  53.965  1.00  0.00     0.000 C 
BRANCH   2   3
ATOM      3  C   UNL     1      26.748  30.692  52.893  1.00  0.00     0.000 C 
BRANCH   3   4
ATOM      4  C   UNL     1      25.405  31.447  52.915  1.00  0.00     0.000 C 
BRANCH   4   5
ATOM      5  C   UNL     1      25.617  32.963  53.066  1.00  0.00     0.000 C 
BRANCH   5   6
ATOM      6  C   UNL     1      26.201  33.598  51.786  1.00  0.00     0.000 C 
BRANCH   6   7
ATOM      7  C   UNL     1      25.388  33.242  50.530  1.00  0.00     0.000 C 
BRANCH   7   8
ATOM      8  C   UNL     1      26.277  33.205  49.271  1.00  0.00     0.000 C 
BRANCH   8   9
ATOM      9  C   UNL     1      27.736  32.816  49.578  1.00  0.00     0.000 C 
BRANCH   9  10
ATOM     10  C   UNL     1      28.712  32.959  48.393  1.00  0.00     0.006 C 
BRANCH  10  11
ATOM     11  C   UNL     1      30.198  32.947  48.783  1.00  0.00     0.053 C 
BRANCH  11  12
ATOM     12  C   UNL     1      30.946  31.832  48.118  1.00  0.00     0.041 C 
ATOM     13  O   UNL     1      31.371  31.968  46.940  1.00  0.00    -0.550 OA
ATOM     14  O   UNL     1      31.162  30.638  48.796  1.00  0.00    -0.550 OA
ENDBRANCH  11  12
ENDBRANCH  10  11
ENDBRANCH   9  10
ENDBRANCH   8   9
ENDBRANCH   7   8
ENDBRANCH   6   7
ENDBRANCH   5   6
ENDBRANCH   4   5
ENDBRANCH   3   4
ENDBRANCH   2   3
ENDBRANCH   1   2
BRANCH   1  15
ATOM     15  C   UNL     1      28.324  31.370  55.157  1.00  0.00     0.000 C 
BRANCH  15  16
ATOM     16  C   UNL     1      29.300  31.666  56.313  1.00  0.00     0.000 C 
BRANCH  16  17
ATOM     17  C   UNL     1      30.747  31.266  55.987  1.00  0.00     0.000 C 
BRANCH  17  18
ATOM     18  C   UNL     1      31.688  32.479  56.054  1.00  0.00    -0.000 C 
BRANCH  18  19
ATOM     19  C   UNL     1      30.937  33.820  55.986  1.00  0.00    -0.000 C 
BRANCH  19  20
ATOM     20  C   UNL     1      31.069  34.501  54.613  1.00  0.00    -0.000 C 
BRANCH  20  21
ATOM     21  C   UNL     1      29.735  34.565  53.842  1.00  0.00    -0.000 C 
BRANCH  21  22
ATOM     22  C   UNL     1      29.719  33.816  52.497  1.00  0.00    -0.000 C 
BRANCH  22  23
ATOM     23  C   UNL     1      30.764  32.688  52.422  1.00  0.00    -0.000 C 
BRANCH  23  24
ATOM     24  C   UNL     1      30.125  31.328  52.075  1.00  0.00    -0.000 C 
BRANCH  24  25
ATOM     25  C   UNL     1      31.007  30.126  52.440  1.00  0.00    -0.003 C 
ATOM     26  C   UNL     1      32.426  30.526  52.844  1.00  0.00     0.004 C 
ENDBRANCH  24  25
ENDBRANCH  23  24
ENDBRANCH  22  23
ENDBRANCH  21  22
ENDBRANCH  20  21
ENDBRANCH  19  20
ENDBRANCH  18  19
ENDBRANCH  17  18
ENDBRANCH  16  17
ENDBRANCH  15  16
ENDBRANCH   1  15
TORSDOF 22
ENDMDL
MODEL 5
REMARK VINA RESULT:    -2.853      3.074      5.049
REMARK INTER + INTRA:         -11.182
REMARK INTER:                  -6.176
REMARK INTRA:                  -5.006
REMARK UNBOUND:                -4.661
REMARK SMILES CCCCCCCCCCCCCCCCCCCCCCCC(=O)[O-]
REMARK SMILES IDX 13 1 14 2 15 3 16 4 17 5 18 6 19 7 20 8 21 9 22 10 23 11
REMARK SMILES IDX 24 12 25 13 26 14 12 15 11 16 10 17 9 18 8 19 7 20 6 21 5 22
REMARK SMILES IDX 4 23 3 24 2 25 1 26
REMARK H PARENT
REMARK Flexibility Score: inf
ROOT
ATOM      1  C   UNL     1      30.925  33.303  53.587  1.00  0.00     0.000 C 
ENDROOT
BRANCH   1   2
ATOM      2  C   UNL     1      29.602  33.360  52.799  1.00  0.00     0.000 C 
BRANCH   2   3
ATOM      3  C   UNL     1      28.603  34.412  53.320  1.00  0.00     0.000 C 
BRANCH   3   4
ATOM      4  C   UNL     1      27.135  33.950  53.241  1.00  0.00     0.000 C 
BRANCH   4   5
ATOM      5  C   UNL     1      26.840  33.247  51.906  1.00  0.00     0.000 C 
BRANCH   5   6
ATOM      6  C   UNL     1      25.770  32.143  52.056  1.00  0.00     0.000 C 
BRANCH   6   7
ATOM      7  C   UNL     1      25.126  32.135  53.452  1.00  0.00     0.000 C 
BRANCH   7   8
ATOM      8  C   UNL     1      24.699  30.714  53.870  1.00  0.00     0.000 C 
BRANCH   8   9
ATOM      9  C   UNL     1      24.327  30.614  55.362  1.00  0.00     0.000 C 
BRANCH   9  10
ATOM     10  C   UNL     1      24.840  29.349  56.079  1.00  0.00     0.006 C 
BRANCH  10  11
ATOM     11  C   UNL     1      25.538  28.333  55.160  1.00  0.00     0.053 C 
BRANCH  11  12
ATOM     12  C   UNL     1      26.627  27.588  55.871  1.00  0.00     0.041 C 
ATOM     13  O   UNL     1      26.893  27.848  57.074  1.00  0.00    -0.550 OA
ATOM     14  O   UNL     1      27.355  26.613  55.198  1.00  0.00    -0.550 OA
ENDBRANCH  11  12
ENDBRANCH  10  11
ENDBRANCH   9  10
ENDBRANCH   8   9
ENDBRANCH   7   8
ENDBRANCH   6   7
ENDBRANCH   5   6
ENDBRANCH   4   5
ENDBRANCH   3   4
ENDBRANCH   2   3
ENDBRANCH   1   2
BRANCH   1  15
ATOM     15  C   UNL     1      30.979  34.179  54.854  1.00  0.00     0.000 C 
BRANCH  15  16
ATOM     16  C   UNL     1      31.013  33.406  56.186  1.00  0.00     0.000 C 
BRANCH  16  17
ATOM     17  C   UNL     1      31.590  31.990  56.038  1.00  0.00     0.000 C 
BRANCH  17  18
ATOM     18  C   UNL     1      30.554  30.924  56.425  1.00  0.00    -0.000 C 
BRANCH  18  19
ATOM     19  C   UNL     1      29.132  31.495  56.556  1.00  0.00    -0.000 C 
BRANCH  19  20
ATOM     20  C   UNL     1      28.223  31.088  55.383  1.00  0.00    -0.000 C 
BRANCH  20  21
ATOM     21  C   UNL     1      28.859  30.020  54.472  1.00  0.00    -0.000 C 
BRANCH  21  22
ATOM     22  C   UNL     1      28.207  29.870  53.085  1.00  0.00    -0.000 C 
BRANCH  22  23
ATOM     23  C   UNL     1      29.233  29.779  51.942  1.00  0.00    -0.000 C 
BRANCH  23  24
ATOM     24  C   UNL     1      30.582  29.203  52.419  1.00  0.00    -0.000 C 
BRANCH  24  25
ATOM     25  C   UNL     1      31.773  30.136  52.156  1.00  0.00    -0.003 C 
ATOM     26  C   UNL     1      32.820  30.096  53.269  1.00  0.00     0.004 C 
ENDBRANCH  24  25
ENDBRANCH  23  24
ENDBRANCH  22  23
ENDBRANCH  21  22
ENDBRANCH  20  21
ENDBRANCH  19  20
ENDBRANCH  18  19
ENDBRANCH  17  18
ENDBRANCH  16  17
ENDBRANCH  15  16
ENDBRANCH   1  15
TORSDOF 22
ENDMDL
MODEL 6
REMARK VINA RESULT:    -2.841      2.296      3.868
REMARK INTER + INTRA:         -11.155
REMARK INTER:                  -6.813
REMARK INTRA:                  -4.342
REMARK UNBOUND:                -4.661
REMARK SMILES CCCCCCCCCCCCCCCCCCCCCCCC(=O)[O-]
REMARK SMILES IDX 13 1 14 2 15 3 16 4 17 5 18 6 19 7 20 8 21 9 22 10 23 11
REMARK SMILES IDX 24 12 25 13 26 14 12 15 11 16 10 17 9 18 8 19 7 20 6 21 5 22
REMARK SMILES IDX 4 23 3 24 2 25 1 26
REMARK H PARENT
REMARK Flexibility Score: inf
ROOT
ATOM      1  C   UNL     1      28.945  33.833  53.763  1.00  0.00     0.000 C 
ENDROOT
BRANCH   1   2
ATOM      2  C   UNL     1      28.972  33.058  52.432  1.00  0.00     0.000 C 
BRANCH   2   3
ATOM      3  C   UNL     1      29.940  33.641  51.382  1.00  0.00     0.000 C 
BRANCH   3   4
ATOM      4  C   UNL     1      29.764  33.024  49.982  1.00  0.00     0.000 C 
BRANCH   4   5
ATOM      5  C   UNL     1      28.427  32.273  49.863  1.00  0.00     0.000 C 
BRANCH   5   6
ATOM      6  C   UNL     1      27.499  32.903  48.802  1.00  0.00     0.000 C 
BRANCH   6   7
ATOM      7  C   UNL     1      26.181  33.417  49.406  1.00  0.00     0.000 C 
BRANCH   7   8
ATOM      8  C   UNL     1      25.741  32.566  50.613  1.00  0.00     0.000 C 
BRANCH   8   9
ATOM      9  C   UNL     1      25.656  33.378  51.920  1.00  0.00     0.000 C 
BRANCH   9  10
ATOM     10  C   UNL     1      25.263  32.562  53.169  1.00  0.00     0.006 C 
BRANCH  10  11
ATOM     11  C   UNL     1      25.048  31.063  52.911  1.00  0.00     0.053 C 
BRANCH  11  12
ATOM     12  C   UNL     1      24.188  30.429  53.962  1.00  0.00     0.041 C 
ATOM     13  O   UNL     1      23.494  29.414  53.686  1.00  0.00    -0.550 OA
ATOM     14  O   UNL     1      24.144  30.967  55.242  1.00  0.00    -0.550 OA
ENDBRANCH  11  12
ENDBRANCH  10  11
ENDBRANCH   9  10
ENDBRANCH   8   9
ENDBRANCH   7   8
ENDBRANCH   6   7
ENDBRANCH   5   6
ENDBRANCH   4   5
ENDBRANCH   3   4
ENDBRANCH   2   3
ENDBRANCH   1   2
BRANCH   1  15
ATOM     15  C   UNL     1      30.260  34.540  54.144  1.00  0.00     0.000 C 
BRANCH  15  16
ATOM     16  C   UNL     1      31.012  33.929  55.343  1.00  0.00     0.000 C 
BRANCH  16  17
ATOM     17  C   UNL     1      30.865  32.403  55.421  1.00  0.00     0.000 C 
BRANCH  17  18
ATOM     18  C   UNL     1      32.161  31.696  54.995  1.00  0.00    -0.000 C 
BRANCH  18  19
ATOM     19  C   UNL     1      32.320  31.615  53.468  1.00  0.00    -0.000 C 
BRANCH  19  20
ATOM     20  C   UNL     1      32.136  30.186  52.931  1.00  0.00    -0.000 C 
BRANCH  20  21
ATOM     21  C   UNL     1      30.916  30.046  51.998  1.00  0.00    -0.000 C 
BRANCH  21  22
ATOM     22  C   UNL     1      29.844  29.045  52.466  1.00  0.00    -0.000 C 
BRANCH  22  23
ATOM     23  C   UNL     1      28.628  29.726  53.119  1.00  0.00    -0.000 C 
BRANCH  23  24
ATOM     24  C   UNL     1      28.631  29.570  54.653  1.00  0.00    -0.000 C 
BRANCH  24  25
ATOM     25  C   UNL     1      27.738  30.590  55.374  1.00  0.00    -0.003 C 
ATOM     26  C   UNL     1      27.973  30.629  56.884  1.00  0.00     0.004 C 
ENDBRANCH  24  25
ENDBRANCH  23  24
ENDBRANCH  22  23
ENDBRANCH  21  22
ENDBRANCH  20  21
ENDBRANCH  19  20
ENDBRANCH  18  19
ENDBRANCH  17  18
ENDBRANCH  16  17
ENDBRANCH  15  16
ENDBRANCH   1  15
TORSDOF 22
ENDMDL
MODEL 7
REMARK VINA RESULT:    -2.836      2.968      6.365
REMARK INTER + INTRA:         -11.143
REMARK INTER:                  -6.823
REMARK INTRA:                  -4.320
REMARK UNBOUND:                -4.661
REMARK SMILES CCCCCCCCCCCCCCCCCCCCCCCC(=O)[O-]
REMARK SMILES IDX 13 1 14 2 15 3 16 4 17 5 18 6 19 7 20 8 21 9 22 10 23 11
REMARK SMILES IDX 24 12 25 13 26 14 12 15 11 16 10 17 9 18 8 19 7 20 6 21 5 22
REMARK SMILES IDX 4 23 3 24 2 25 1 26
REMARK H PARENT
REMARK Flexibility Score: inf
ROOT
ATOM      1  C   UNL     1      28.303  33.421  53.114  1.00  0.00     0.000 C 
ENDROOT
BRANCH   1   2
ATOM      2  C   UNL     1      27.097  34.379  53.150  1.00  0.00     0.000 C 
BRANCH   2   3
ATOM      3  C   UNL     1      25.731  33.678  53.016  1.00  0.00     0.000 C 
BRANCH   3   4
ATOM      4  C   UNL     1      25.845  32.157  52.803  1.00  0.00     0.000 C 
BRANCH   4   5
ATOM      5  C   UNL     1      24.892  31.387  53.733  1.00  0.00     0.000 C 
BRANCH   5   6
ATOM      6  C   UNL     1      25.654  30.475  54.718  1.00  0.00     0.000 C 
BRANCH   6   7
ATOM      7  C   UNL     1      27.111  30.236  54.290  1.00  0.00     0.000 C 
BRANCH   7   8
ATOM      8  C   UNL     1      27.921  29.538  55.401  1.00  0.00     0.000 C 
BRANCH   8   9
ATOM      9  C   UNL     1      28.125  30.427  56.643  1.00  0.00     0.000 C 
BRANCH   9  10
ATOM     10  C   UNL     1      29.009  31.670  56.417  1.00  0.00     0.006 C 
BRANCH  10  11
ATOM     11  C   UNL     1      30.334  31.387  55.691  1.00  0.00     0.053 C 
BRANCH  11  12
ATOM     12  C   UNL     1      31.355  32.454  55.947  1.00  0.00     0.041 C 
ATOM     13  O   UNL     1      32.499  32.147  56.376  1.00  0.00    -0.550 OA
ATOM     14  O   UNL     1      31.037  33.788  55.722  1.00  0.00    -0.550 OA
ENDBRANCH  11  12
ENDBRANCH  10  11
ENDBRANCH   9  10
ENDBRANCH   8   9
ENDBRANCH   7   8
ENDBRANCH   6   7
ENDBRANCH   5   6
ENDBRANCH   4   5
ENDBRANCH   3   4
ENDBRANCH   2   3
ENDBRANCH   1   2
BRANCH   1  15
ATOM     15  C   UNL     1      29.559  33.963  52.405  1.00  0.00     0.000 C 
BRANCH  15  16
ATOM     16  C   UNL     1      29.907  33.278  51.069  1.00  0.00     0.000 C 
BRANCH  16  17
ATOM     17  C   UNL     1      28.706  32.559  50.439  1.00  0.00     0.000 C 
BRANCH  17  18
ATOM     18  C   UNL     1      28.736  32.665  48.906  1.00  0.00    -0.000 C 
BRANCH  18  19
ATOM     19  C   UNL     1      27.373  33.052  48.309  1.00  0.00    -0.000 C 
BRANCH  19  20
ATOM     20  C   UNL     1      26.358  33.479  49.383  1.00  0.00    -0.000 C 
BRANCH  20  21
ATOM     21  C   UNL     1      24.967  32.847  49.182  1.00  0.00    -0.000 C 
BRANCH  21  22
ATOM     22  C   UNL     1      24.975  31.362  48.776  1.00  0.00    -0.000 C 
BRANCH  22  23
ATOM     23  C   UNL     1      24.256  30.455  49.790  1.00  0.00    -0.000 C 
BRANCH  23  24
ATOM     24  C   UNL     1      25.232  29.499  50.506  1.00  0.00    -0.000 C 
BRANCH  24  25
ATOM     25  C   UNL     1      26.681  29.619  50.011  1.00  0.00    -0.003 C 
ATOM     26  C   UNL     1      27.681  28.892  50.909  1.00  0.00     0.004 C 
ENDBRANCH  24  25
ENDBRANCH  23  24
ENDBRANCH  22  23
ENDBRANCH  21  22
ENDBRANCH  20  21
ENDBRANCH  19  20
ENDBRANCH  18  19
ENDBRANCH  17  18
ENDBRANCH  16  17
ENDBRANCH  15  16
ENDBRANCH   1  15
TORSDOF 22
ENDMDL
MODEL 8
REMARK VINA RESULT:    -2.820      2.380      6.377
REMARK INTER + INTRA:         -11.108
REMARK INTER:                  -6.762
REMARK INTRA:                  -4.346
REMARK UNBOUND:                -4.661
REMARK SMILES CCCCCCCCCCCCCCCCCCCCCCCC(=O)[O-]
REMARK SMILES IDX 13 1 14 2 15 3 16 4 17 5 18 6 19 7 20 8 21 9 22 10 23 11
REMARK SMILES IDX 24 12 25 13 26 14 12 15 11 16 10 17 9 18 8 19 7 20 6 21 5 22
REMARK SMILES IDX 4 23 3 24 2 25 1 26
REMARK H PARENT
REMARK Flexibility Score: inf
ROOT
ATOM      1  C   UNL     1      28.434  33.802  52.778  1.00  0.00     0.000 C 
ENDROOT
BRANCH   1   2
ATOM      2  C   UNL     1      29.565  34.247  53.725  1.00  0.00     0.000 C 
BRANCH   2   3
ATOM      3  C   UNL     1      30.924  33.578  53.442  1.00  0.00     0.000 C 
BRANCH   3   4
ATOM      4  C   UNL     1      31.338  32.559  54.520  1.00  0.00     0.000 C 
BRANCH   4   5
ATOM      5  C   UNL     1      30.339  32.542  55.690  1.00  0.00     0.000 C 
BRANCH   5   6
ATOM      6  C   UNL     1      30.220  31.143  56.331  1.00  0.00     0.000 C 
BRANCH   6   7
ATOM      7  C   UNL     1      28.760  30.676  56.453  1.00  0.00     0.000 C 
BRANCH   7   8
ATOM      8  C   UNL     1      27.981  30.902  55.142  1.00  0.00     0.000 C 
BRANCH   8   9
ATOM      9  C   UNL     1      27.239  29.640  54.661  1.00  0.00     0.000 C 
BRANCH   9  10
ATOM     10  C   UNL     1      26.061  29.197  55.552  1.00  0.00     0.006 C 
BRANCH  10  11
ATOM     11  C   UNL     1      25.187  30.348  56.075  1.00  0.00     0.053 C 
BRANCH  11  12
ATOM     12  C   UNL     1      23.731  30.116  55.805  1.00  0.00     0.041 C 
ATOM     13  O   UNL     1      22.902  30.115  56.754  1.00  0.00    -0.550 OA
ATOM     14  O   UNL     1      23.293  29.890  54.506  1.00  0.00    -0.550 OA
ENDBRANCH  11  12
ENDBRANCH  10  11
ENDBRANCH   9  10
ENDBRANCH   8   9
ENDBRANCH   7   8
ENDBRANCH   6   7
ENDBRANCH   5   6
ENDBRANCH   4   5
ENDBRANCH   3   4
ENDBRANCH   2   3
ENDBRANCH   1   2
BRANCH   1  15
ATOM     15  C   UNL     1      27.013  34.221  53.201  1.00  0.00     0.000 C 
BRANCH  15  16
ATOM     16  C   UNL     1      25.873  33.636  52.345  1.00  0.00     0.000 C 
BRANCH  16  17
ATOM     17  C   UNL     1      25.297  32.337  52.928  1.00  0.00     0.000 C 
BRANCH  17  18
ATOM     18  C   UNL     1      25.263  31.220  51.874  1.00  0.00    -0.000 C 
BRANCH  18  19
ATOM     19  C   UNL     1      26.601  31.060  51.133  1.00  0.00    -0.000 C 
BRANCH  19  20
ATOM     20  C   UNL     1      26.416  30.805  49.627  1.00  0.00    -0.000 C 
BRANCH  20  21
ATOM     21  C   UNL     1      26.642  32.067  48.771  1.00  0.00    -0.000 C 
BRANCH  21  22
ATOM     22  C   UNL     1      27.712  33.037  49.305  1.00  0.00    -0.000 C 
BRANCH  22  23
ATOM     23  C   UNL     1      29.124  32.727  48.777  1.00  0.00    -0.000 C 
BRANCH  23  24
ATOM     24  C   UNL     1      30.114  32.417  49.917  1.00  0.00    -0.000 C 
BRANCH  24  25
ATOM     25  C   UNL     1      30.329  30.914  50.149  1.00  0.00    -0.003 C 
ATOM     26  C   UNL     1      30.154  30.504  51.611  1.00  0.00     0.004 C 
ENDBRANCH  24  25
ENDBRANCH  23  24
ENDBRANCH  22  23
ENDBRANCH  21  22
ENDBRANCH  20  21
ENDBRANCH  19  20
ENDBRANCH  18  19
ENDBRANCH  17  18
ENDBRANCH  16  17
ENDBRANCH  15  16
ENDBRANCH   1  15
TORSDOF 22
ENDMDL
MODEL 9
REMARK VINA RESULT:    -2.812      1.980      4.180
REMARK INTER + INTRA:         -11.089
REMARK INTER:                  -6.324
REMARK INTRA:                  -4.766
REMARK UNBOUND:                -4.661
REMARK SMILES CCCCCCCCCCCCCCCCCCCCCCCC(=O)[O-]
REMARK SMILES IDX 13 1 14 2 15 3 16 4 17 5 18 6 19 7 20 8 21 9 22 10 23 11
REMARK SMILES IDX 24 12 25 13 26 14 12 15 11 16 10 17 9 18 8 19 7 20 6 21 5 22
REMARK SMILES IDX 4 23 3 24 2 25 1 26
REMARK H PARENT
REMARK Flexibility Score: inf
ROOT
ATOM      1  C   UNL     1      29.082  29.549  52.179  1.00  0.00     0.000 C 
ENDROOT
BRANCH   1   2
ATOM      2  C   UNL     1      30.620  29.497  52.239  1.00  0.00     0.000 C 
BRANCH   2   3
ATOM      3  C   UNL     1      31.317  29.939  50.937  1.00  0.00     0.000 C 
BRANCH   3   4
ATOM      4  C   UNL     1      30.381  29.936  49.713  1.00  0.00     0.000 C 
BRANCH   4   5
ATOM      5  C   UNL     1      30.611  31.172  48.827  1.00  0.00     0.000 C 
BRANCH   5   6
ATOM      6  C   UNL     1      29.509  31.331  47.757  1.00  0.00     0.000 C 
BRANCH   6   7
ATOM      7  C   UNL     1      28.822  32.705  47.822  1.00  0.00     0.000 C 
BRANCH   7   8
ATOM      8  C   UNL     1      27.314  32.599  47.523  1.00  0.00     0.000 C 
BRANCH   8   9
ATOM      9  C   UNL     1      26.490  33.718  48.188  1.00  0.00     0.000 C 
BRANCH   9  10
ATOM     10  C   UNL     1      25.479  33.241  49.249  1.00  0.00     0.006 C 
BRANCH  10  11
ATOM     11  C   UNL     1      24.723  31.955  48.879  1.00  0.00     0.053 C 
BRANCH  11  12
ATOM     12  C   UNL     1      24.933  30.868  49.889  1.00  0.00     0.041 C 
ATOM     13  O   UNL     1      23.957  30.416  50.546  1.00  0.00    -0.550 OA
ATOM     14  O   UNL     1      26.208  30.363  50.113  1.00  0.00    -0.550 OA
ENDBRANCH  11  12
ENDBRANCH  10  11
ENDBRANCH   9  10
ENDBRANCH   8   9
ENDBRANCH   7   8
ENDBRANCH   6   7
ENDBRANCH   5   6
ENDBRANCH   4   5
ENDBRANCH   3   4
ENDBRANCH   2   3
ENDBRANCH   1   2
BRANCH   1  15
ATOM     15  C   UNL     1      28.382  29.972  53.485  1.00  0.00     0.000 C 
BRANCH  15  16
ATOM     16  C   UNL     1      29.325  30.367  54.638  1.00  0.00     0.000 C 
BRANCH  16  17
ATOM     17  C   UNL     1      28.867  31.634  55.374  1.00  0.00     0.000 C 
BRANCH  17  18
ATOM     18  C   UNL     1      29.900  32.763  55.233  1.00  0.00    -0.000 C 
BRANCH  18  19
ATOM     19  C   UNL     1      31.183  32.310  54.517  1.00  0.00    -0.000 C 
BRANCH  19  20
ATOM     20  C   UNL     1      31.404  33.042  53.182  1.00  0.00    -0.000 C 
BRANCH  20  21
ATOM     21  C   UNL     1      30.163  33.830  52.717  1.00  0.00    -0.000 C 
BRANCH  21  22
ATOM     22  C   UNL     1      29.454  33.260  51.474  1.00  0.00    -0.000 C 
BRANCH  22  23
ATOM     23  C   UNL     1      27.925  33.193  51.630  1.00  0.00    -0.000 C 
BRANCH  23  24
ATOM     24  C   UNL     1      27.430  34.000  52.848  1.00  0.00    -0.000 C 
BRANCH  24  25
ATOM     25  C   UNL     1      25.929  33.834  53.124  1.00  0.00    -0.003 C 
ATOM     26  C   UNL     1      25.486  32.371  53.163  1.00  0.00     0.004 C 
ENDBRANCH  24  25
ENDBRANCH  23  24
ENDBRANCH  22  23
ENDBRANCH  21  22
ENDBRANCH  20  21
ENDBRANCH  19  20
ENDBRANCH  18  19
ENDBRANCH  17  18
ENDBRANCH  16  17
ENDBRANCH  15  16
ENDBRANCH   1  15
TORSDOF 22
ENDMDL
