MODEL 1
REMARK VINA RESULT:    -7.276      0.000      0.000
REMARK INTER + INTRA:          -8.814
REMARK INTER:                  -8.552
REMARK INTRA:                  -0.262
REMARK UNBOUND:                -0.262
REMARK SMILES O=c1cc(-c2ccc(O)c(O)c2)oc2cc(O)cc(O)c12
REMARK SMILES IDX 4 1 3 2 2 3 1 4 21 5 19 6 18 7 16 8 15 9 14 10 13 11 5 12
REMARK SMILES IDX 6 13 7 14 8 15 12 16 10 17 9 18 11 20 20 22 17 24
REMARK H PARENT 9 19 11 21 20 23 17 25
REMARK Flexibility Score: inf
ROOT
ATOM      1  C   UNL     1     -12.461  44.580  30.378  1.00  0.00     0.138 A 
ATOM      2  C   UNL     1     -12.006  44.405  31.692  1.00  0.00     0.100 A 
ATOM      3  C   UNL     1     -12.928  44.248  32.728  1.00  0.00     0.197 A 
ATOM      4  O   UNL     1     -12.491  44.156  33.904  1.00  0.00    -0.289 OA
ATOM      5  C   UNL     1     -14.314  44.236  32.439  1.00  0.00     0.107 A 
ATOM      6  C   UNL     1     -15.344  44.044  33.408  1.00  0.00     0.134 A 
ATOM      7  C   UNL     1     -16.684  44.168  33.024  1.00  0.00     0.093 A 
ATOM      8  C   UNL     1     -17.033  44.418  31.694  1.00  0.00     0.123 A 
ATOM      9  C   UNL     1     -16.036  44.554  30.731  1.00  0.00     0.094 A 
ATOM     10  C   UNL     1     -14.688  44.470  31.089  1.00  0.00     0.146 A 
ATOM     11  O   UNL     1     -13.769  44.620  30.142  1.00  0.00    -0.456 OA
ENDROOT
BRANCH   1  12
ATOM     12  C   UNL     1     -11.523  44.750  29.239  1.00  0.00     0.021 A 
ATOM     13  C   UNL     1     -11.276  43.710  28.323  1.00  0.00     0.016 A 
ATOM     14  C   UNL     1     -10.397  43.902  27.254  1.00  0.00     0.051 A 
ATOM     15  C   UNL     1      -9.755  45.135  27.078  1.00  0.00     0.157 A 
ATOM     16  C   UNL     1     -10.886  45.989  29.047  1.00  0.00     0.062 A 
ATOM     17  C   UNL     1     -10.004  46.184  27.978  1.00  0.00     0.158 A 
BRANCH  15  18
ATOM     18  O   UNL     1      -8.877  45.321  26.011  1.00  0.00    -0.504 OA
ATOM     19  H   UNL     1      -8.832  44.665  25.240  1.00  0.00     0.293 HD
ENDBRANCH  15  18
BRANCH  17  20
ATOM     20  O   UNL     1      -9.384  47.423  27.828  1.00  0.00    -0.504 OA
ATOM     21  H   UNL     1      -9.635  48.065  27.086  1.00  0.00     0.293 HD
ENDBRANCH  17  20
ENDBRANCH   1  12
BRANCH   6  22
ATOM     22  O   UNL     1     -15.106  43.706  34.744  1.00  0.00    -0.507 OA
ATOM     23  H   UNL     1     -14.193  43.587  35.155  1.00  0.00     0.293 HD
ENDBRANCH   6  22
BRANCH   8  24
ATOM     24  O   UNL     1     -18.370  44.525  31.318  1.00  0.00    -0.508 OA
ATOM     25  H   UNL     1     -18.735  45.367  30.889  1.00  0.00     0.293 HD
ENDBRANCH   8  24
TORSDOF 5
ENDMDL
MODEL 2
REMARK VINA RESULT:    -7.247      2.179      4.036
REMARK INTER + INTRA:          -8.780
REMARK INTER:                  -8.469
REMARK INTRA:                  -0.312
REMARK UNBOUND:                -0.262
REMARK SMILES O=c1cc(-c2ccc(O)c(O)c2)oc2cc(O)cc(O)c12
REMARK SMILES IDX 4 1 3 2 2 3 1 4 21 5 19 6 18 7 16 8 15 9 14 10 13 11 5 12
REMARK SMILES IDX 6 13 7 14 8 15 12 16 10 17 9 18 11 20 20 22 17 24
REMARK H PARENT 9 19 11 21 20 23 17 25
REMARK Flexibility Score: inf
ROOT
ATOM      1  C   UNL     1     -14.496  44.038  31.348  1.00  0.00     0.138 A 
ATOM      2  C   UNL     1     -15.434  44.717  30.560  1.00  0.00     0.100 A 
ATOM      3  C   UNL     1     -16.797  44.523  30.786  1.00  0.00     0.197 A 
ATOM      4  O   UNL     1     -17.615  45.098  30.022  1.00  0.00    -0.289 OA
ATOM      5  C   UNL     1     -17.221  43.666  31.830  1.00  0.00     0.107 A 
ATOM      6  C   UNL     1     -18.584  43.423  32.179  1.00  0.00     0.134 A 
ATOM      7  C   UNL     1     -18.886  42.466  33.154  1.00  0.00     0.093 A 
ATOM      8  C   UNL     1     -17.872  41.786  33.835  1.00  0.00     0.123 A 
ATOM      9  C   UNL     1     -16.538  42.055  33.540  1.00  0.00     0.094 A 
ATOM     10  C   UNL     1     -16.205  42.980  32.547  1.00  0.00     0.146 A 
ATOM     11  O   UNL     1     -14.920  43.197  32.286  1.00  0.00    -0.456 OA
ENDROOT
BRANCH   1  12
ATOM     12  C   UNL     1     -13.034  44.209  31.150  1.00  0.00     0.021 A 
ATOM     13  C   UNL     1     -12.505  44.706  29.944  1.00  0.00     0.016 A 
ATOM     14  C   UNL     1     -11.125  44.867  29.789  1.00  0.00     0.051 A 
ATOM     15  C   UNL     1     -10.252  44.542  30.836  1.00  0.00     0.157 A 
ATOM     16  C   UNL     1     -12.152  43.898  32.201  1.00  0.00     0.062 A 
ATOM     17  C   UNL     1     -10.770  44.057  32.048  1.00  0.00     0.158 A 
BRANCH  15  18
ATOM     18  O   UNL     1      -8.877  44.702  30.676  1.00  0.00    -0.504 OA
ATOM     19  H   UNL     1      -8.382  45.484  31.088  1.00  0.00     0.293 HD
ENDBRANCH  15  18
BRANCH  17  20
ATOM     20  O   UNL     1      -9.928  43.727  33.109  1.00  0.00    -0.504 OA
ATOM     21  H   UNL     1     -10.185  43.899  34.073  1.00  0.00     0.293 HD
ENDBRANCH  17  20
ENDBRANCH   1  12
BRANCH   6  22
ATOM     22  O   UNL     1     -19.667  44.109  31.621  1.00  0.00    -0.507 OA
ATOM     23  H   UNL     1     -19.719  45.110  31.507  1.00  0.00     0.293 HD
ENDBRANCH   6  22
BRANCH   8  24
ATOM     24  O   UNL     1     -18.182  40.846  34.815  1.00  0.00    -0.508 OA
ATOM     25  H   UNL     1     -18.883  41.030  35.524  1.00  0.00     0.293 HD
ENDBRANCH   8  24
TORSDOF 5
ENDMDL
MODEL 3
REMARK VINA RESULT:    -7.146      2.023      3.844
REMARK INTER + INTRA:          -8.661
REMARK INTER:                  -8.368
REMARK INTRA:                  -0.293
REMARK UNBOUND:                -0.262
REMARK SMILES O=c1cc(-c2ccc(O)c(O)c2)oc2cc(O)cc(O)c12
REMARK SMILES IDX 4 1 3 2 2 3 1 4 21 5 19 6 18 7 16 8 15 9 14 10 13 11 5 12
REMARK SMILES IDX 6 13 7 14 8 15 12 16 10 17 9 18 11 20 20 22 17 24
REMARK H PARENT 9 19 11 21 20 23 17 25
REMARK Flexibility Score: inf
ROOT
ATOM      1  C   UNL     1     -14.492  44.031  31.459  1.00  0.00     0.138 A 
ATOM      2  C   UNL     1     -15.408  44.673  30.615  1.00  0.00     0.100 A 
ATOM      3  C   UNL     1     -16.777  44.482  30.808  1.00  0.00     0.197 A 
ATOM      4  O   UNL     1     -17.573  45.021  29.996  1.00  0.00    -0.289 OA
ATOM      5  C   UNL     1     -17.229  43.669  31.875  1.00  0.00     0.107 A 
ATOM      6  C   UNL     1     -18.601  43.435  32.192  1.00  0.00     0.134 A 
ATOM      7  C   UNL     1     -18.929  42.518  33.199  1.00  0.00     0.093 A 
ATOM      8  C   UNL     1     -17.934  41.872  33.938  1.00  0.00     0.123 A 
ATOM      9  C   UNL     1     -16.593  42.135  33.671  1.00  0.00     0.094 A 
ATOM     10  C   UNL     1     -16.233  43.018  32.651  1.00  0.00     0.146 A 
ATOM     11  O   UNL     1     -14.942  43.229  32.419  1.00  0.00    -0.456 OA
ENDROOT
BRANCH   1  12
ATOM     12  C   UNL     1     -13.025  44.200  31.298  1.00  0.00     0.021 A 
ATOM     13  C   UNL     1     -12.116  43.742  32.271  1.00  0.00     0.016 A 
ATOM     14  C   UNL     1     -10.741  43.904  32.087  1.00  0.00     0.051 A 
ATOM     15  C   UNL     1     -10.249  44.520  30.929  1.00  0.00     0.157 A 
ATOM     16  C   UNL     1     -12.522  44.805  30.131  1.00  0.00     0.062 A 
ATOM     17  C   UNL     1     -11.145  44.970  29.946  1.00  0.00     0.158 A 
BRANCH  15  18
ATOM     18  O   UNL     1      -8.876  44.682  30.751  1.00  0.00    -0.504 OA
ATOM     19  H   UNL     1      -8.391  44.274  29.961  1.00  0.00     0.293 HD
ENDBRANCH  15  18
BRANCH  17  20
ATOM     20  O   UNL     1     -10.687  45.584  28.781  1.00  0.00    -0.504 OA
ATOM     21  H   UNL     1      -9.736  45.919  28.686  1.00  0.00     0.293 HD
ENDBRANCH  17  20
ENDBRANCH   1  12
BRANCH   6  22
ATOM     22  O   UNL     1     -19.669  44.092  31.574  1.00  0.00    -0.507 OA
ATOM     23  H   UNL     1     -19.940  43.970  30.610  1.00  0.00     0.293 HD
ENDBRANCH   6  22
BRANCH   8  24
ATOM     24  O   UNL     1     -18.271  40.973  34.948  1.00  0.00    -0.508 OA
ATOM     25  H   UNL     1     -18.190  41.221  35.927  1.00  0.00     0.293 HD
ENDBRANCH   8  24
TORSDOF 5
ENDMDL
MODEL 4
REMARK VINA RESULT:    -6.934      2.757      7.202
REMARK INTER + INTRA:          -8.412
REMARK INTER:                  -8.121
REMARK INTRA:                  -0.291
REMARK UNBOUND:                -0.262
REMARK SMILES O=c1cc(-c2ccc(O)c(O)c2)oc2cc(O)cc(O)c12
REMARK SMILES IDX 4 1 3 2 2 3 1 4 21 5 19 6 18 7 16 8 15 9 14 10 13 11 5 12
REMARK SMILES IDX 6 13 7 14 8 15 12 16 10 17 9 18 11 20 20 22 17 24
REMARK H PARENT 9 19 11 21 20 23 17 25
REMARK Flexibility Score: inf
ROOT
ATOM      1  C   UNL     1     -13.833  42.999  30.558  1.00  0.00     0.138 A 
ATOM      2  C   UNL     1     -13.199  43.392  29.371  1.00  0.00     0.100 A 
ATOM      3  C   UNL     1     -11.861  43.059  29.159  1.00  0.00     0.197 A 
ATOM      4  O   UNL     1     -11.302  43.480  28.113  1.00  0.00    -0.289 OA
ATOM      5  C   UNL     1     -11.164  42.299  30.128  1.00  0.00     0.107 A 
ATOM      6  C   UNL     1      -9.810  41.867  30.001  1.00  0.00     0.134 A 
ATOM      7  C   UNL     1      -9.189  41.220  31.076  1.00  0.00     0.093 A 
ATOM      8  C   UNL     1      -9.891  40.937  32.251  1.00  0.00     0.123 A 
ATOM      9  C   UNL     1     -11.229  41.307  32.364  1.00  0.00     0.094 A 
ATOM     10  C   UNL     1     -11.867  41.985  31.322  1.00  0.00     0.146 A 
ATOM     11  O   UNL     1     -13.140  42.333  31.476  1.00  0.00    -0.456 OA
ENDROOT
BRANCH   1  12
ATOM     12  C   UNL     1     -15.255  43.327  30.834  1.00  0.00     0.021 A 
ATOM     13  C   UNL     1     -15.775  44.614  30.601  1.00  0.00     0.016 A 
ATOM     14  C   UNL     1     -17.120  44.891  30.859  1.00  0.00     0.051 A 
ATOM     15  C   UNL     1     -17.969  43.889  31.347  1.00  0.00     0.157 A 
ATOM     16  C   UNL     1     -16.117  42.322  31.310  1.00  0.00     0.062 A 
ATOM     17  C   UNL     1     -17.464  42.598  31.571  1.00  0.00     0.158 A 
BRANCH  15  18
ATOM     18  O   UNL     1     -19.310  44.170  31.605  1.00  0.00    -0.504 OA
ATOM     19  H   UNL     1     -19.902  44.613  30.913  1.00  0.00     0.293 HD
ENDBRANCH  15  18
BRANCH  17  20
ATOM     20  O   UNL     1     -18.283  41.578  32.052  1.00  0.00    -0.504 OA
ATOM     21  H   UNL     1     -19.065  41.760  32.669  1.00  0.00     0.293 HD
ENDBRANCH  17  20
ENDBRANCH   1  12
BRANCH   6  22
ATOM     22  O   UNL     1      -9.045  42.023  28.841  1.00  0.00    -0.507 OA
ATOM     23  H   UNL     1      -8.826  42.908  28.410  1.00  0.00     0.293 HD
ENDBRANCH   6  22
BRANCH   8  24
ATOM     24  O   UNL     1      -9.269  40.279  33.309  1.00  0.00    -0.508 OA
ATOM     25  H   UNL     1      -9.805  39.830  34.044  1.00  0.00     0.293 HD
ENDBRANCH   8  24
TORSDOF 5
ENDMDL
MODEL 5
REMARK VINA RESULT:    -6.865      4.029      5.157
REMARK INTER + INTRA:          -8.331
REMARK INTER:                  -8.065
REMARK INTRA:                  -0.266
REMARK UNBOUND:                -0.262
REMARK SMILES O=c1cc(-c2ccc(O)c(O)c2)oc2cc(O)cc(O)c12
REMARK SMILES IDX 4 1 3 2 2 3 1 4 21 5 19 6 18 7 16 8 15 9 14 10 13 11 5 12
REMARK SMILES IDX 6 13 7 14 8 15 12 16 10 17 9 18 11 20 20 22 17 24
REMARK H PARENT 9 19 11 21 20 23 17 25
REMARK Flexibility Score: inf
ROOT
ATOM      1  C   UNL     1     -15.770  41.931  30.179  1.00  0.00     0.138 A 
ATOM      2  C   UNL     1     -14.630  42.498  30.765  1.00  0.00     0.100 A 
ATOM      3  C   UNL     1     -14.770  43.376  31.840  1.00  0.00     0.197 A 
ATOM      4  O   UNL     1     -13.733  43.918  32.305  1.00  0.00    -0.289 OA
ATOM      5  C   UNL     1     -16.059  43.661  32.351  1.00  0.00     0.107 A 
ATOM      6  C   UNL     1     -16.320  44.509  33.469  1.00  0.00     0.134 A 
ATOM      7  C   UNL     1     -17.643  44.810  33.813  1.00  0.00     0.093 A 
ATOM      8  C   UNL     1     -18.715  44.247  33.114  1.00  0.00     0.123 A 
ATOM      9  C   UNL     1     -18.470  43.375  32.056  1.00  0.00     0.094 A 
ATOM     10  C   UNL     1     -17.161  43.083  31.668  1.00  0.00     0.146 A 
ATOM     11  O   UNL     1     -16.972  42.258  30.643  1.00  0.00    -0.456 OA
ENDROOT
BRANCH   1  12
ATOM     12  C   UNL     1     -15.677  40.991  29.033  1.00  0.00     0.021 A 
ATOM     13  C   UNL     1     -15.898  39.609  29.190  1.00  0.00     0.016 A 
ATOM     14  C   UNL     1     -15.816  38.750  28.092  1.00  0.00     0.051 A 
ATOM     15  C   UNL     1     -15.518  39.253  26.819  1.00  0.00     0.157 A 
ATOM     16  C   UNL     1     -15.393  41.491  27.749  1.00  0.00     0.062 A 
ATOM     17  C   UNL     1     -15.308  40.631  26.647  1.00  0.00     0.158 A 
BRANCH  15  18
ATOM     18  O   UNL     1     -15.434  38.391  25.726  1.00  0.00    -0.504 OA
ATOM     19  H   UNL     1     -14.830  38.590  24.938  1.00  0.00     0.293 HD
ENDBRANCH  15  18
BRANCH  17  20
ATOM     20  O   UNL     1     -15.014  41.164  25.393  1.00  0.00    -0.504 OA
ATOM     21  H   UNL     1     -14.067  41.220  25.040  1.00  0.00     0.293 HD
ENDBRANCH  17  20
ENDBRANCH   1  12
BRANCH   6  22
ATOM     22  O   UNL     1     -15.324  45.055  34.286  1.00  0.00    -0.507 OA
ATOM     23  H   UNL     1     -14.389  44.689  34.376  1.00  0.00     0.293 HD
ENDBRANCH   6  22
BRANCH   8  24
ATOM     24  O   UNL     1     -20.029  44.540  33.473  1.00  0.00    -0.508 OA
ATOM     25  H   UNL     1     -20.291  45.455  33.822  1.00  0.00     0.293 HD
ENDBRANCH   8  24
TORSDOF 5
ENDMDL
MODEL 6
REMARK VINA RESULT:    -6.839      4.312      7.986
REMARK INTER + INTRA:          -8.301
REMARK INTER:                  -8.036
REMARK INTRA:                  -0.265
REMARK UNBOUND:                -0.262
REMARK SMILES O=c1cc(-c2ccc(O)c(O)c2)oc2cc(O)cc(O)c12
REMARK SMILES IDX 4 1 3 2 2 3 1 4 21 5 19 6 18 7 16 8 15 9 14 10 13 11 5 12
REMARK SMILES IDX 6 13 7 14 8 15 12 16 10 17 9 18 11 20 20 22 17 24
REMARK H PARENT 9 19 11 21 20 23 17 25
REMARK Flexibility Score: inf
ROOT
ATOM      1  C   UNL     1     -15.618  41.921  31.786  1.00  0.00     0.138 A 
ATOM      2  C   UNL     1     -15.740  41.026  30.714  1.00  0.00     0.100 A 
ATOM      3  C   UNL     1     -14.613  40.352  30.245  1.00  0.00     0.197 A 
ATOM      4  O   UNL     1     -14.742  39.604  29.241  1.00  0.00    -0.289 OA
ATOM      5  C   UNL     1     -13.361  40.552  30.876  1.00  0.00     0.107 A 
ATOM      6  C   UNL     1     -12.152  39.888  30.509  1.00  0.00     0.134 A 
ATOM      7  C   UNL     1     -10.951  40.252  31.128  1.00  0.00     0.093 A 
ATOM      8  C   UNL     1     -10.925  41.214  32.143  1.00  0.00     0.123 A 
ATOM      9  C   UNL     1     -12.108  41.828  32.545  1.00  0.00     0.094 A 
ATOM     10  C   UNL     1     -13.318  41.511  31.922  1.00  0.00     0.146 A 
ATOM     11  O   UNL     1     -14.422  42.131  32.325  1.00  0.00    -0.456 OA
ENDROOT
BRANCH   1  12
ATOM     12  C   UNL     1     -16.786  42.664  32.325  1.00  0.00     0.021 A 
ATOM     13  C   UNL     1     -16.847  44.070  32.292  1.00  0.00     0.016 A 
ATOM     14  C   UNL     1     -17.963  44.742  32.796  1.00  0.00     0.051 A 
ATOM     15  C   UNL     1     -19.039  44.024  33.335  1.00  0.00     0.157 A 
ATOM     16  C   UNL     1     -17.876  41.950  32.854  1.00  0.00     0.062 A 
ATOM     17  C   UNL     1     -18.995  42.621  33.361  1.00  0.00     0.158 A 
BRANCH  15  18
ATOM     18  O   UNL     1     -20.150  44.700  33.838  1.00  0.00    -0.504 OA
ATOM     19  H   UNL     1     -20.115  45.195  34.721  1.00  0.00     0.293 HD
ENDBRANCH  15  18
BRANCH  17  20
ATOM     20  O   UNL     1     -20.051  41.877  33.887  1.00  0.00    -0.504 OA
ATOM     21  H   UNL     1     -20.083  40.867  33.823  1.00  0.00     0.293 HD
ENDBRANCH  17  20
ENDBRANCH   1  12
BRANCH   6  22
ATOM     22  O   UNL     1     -12.082  38.855  29.570  1.00  0.00    -0.507 OA
ATOM     23  H   UNL     1     -12.526  38.867  28.665  1.00  0.00     0.293 HD
ENDBRANCH   6  22
BRANCH   8  24
ATOM     24  O   UNL     1      -9.726  41.559  32.764  1.00  0.00    -0.508 OA
ATOM     25  H   UNL     1      -8.931  40.930  32.768  1.00  0.00     0.293 HD
ENDBRANCH   8  24
TORSDOF 5
ENDMDL
MODEL 7
REMARK VINA RESULT:    -6.773      2.424      3.303
REMARK INTER + INTRA:          -8.223
REMARK INTER:                  -7.915
REMARK INTRA:                  -0.308
REMARK UNBOUND:                -0.262
REMARK SMILES O=c1cc(-c2ccc(O)c(O)c2)oc2cc(O)cc(O)c12
REMARK SMILES IDX 4 1 3 2 2 3 1 4 21 5 19 6 18 7 16 8 15 9 14 10 13 11 5 12
REMARK SMILES IDX 6 13 7 14 8 15 12 16 10 17 9 18 11 20 20 22 17 24
REMARK H PARENT 9 19 11 21 20 23 17 25
REMARK Flexibility Score: inf
ROOT
ATOM      1  C   UNL     1     -14.733  42.890  30.689  1.00  0.00     0.138 A 
ATOM      2  C   UNL     1     -15.144  41.552  30.745  1.00  0.00     0.100 A 
ATOM      3  C   UNL     1     -16.323  41.219  31.413  1.00  0.00     0.197 A 
ATOM      4  O   UNL     1     -16.634  40.003  31.501  1.00  0.00    -0.289 OA
ATOM      5  C   UNL     1     -17.110  42.239  32.000  1.00  0.00     0.107 A 
ATOM      6  C   UNL     1     -18.350  42.023  32.672  1.00  0.00     0.134 A 
ATOM      7  C   UNL     1     -18.982  43.094  33.315  1.00  0.00     0.093 A 
ATOM      8  C   UNL     1     -18.448  44.384  33.260  1.00  0.00     0.123 A 
ATOM      9  C   UNL     1     -17.266  44.615  32.562  1.00  0.00     0.094 A 
ATOM     10  C   UNL     1     -16.594  43.561  31.939  1.00  0.00     0.146 A 
ATOM     11  O   UNL     1     -15.461  43.822  31.295  1.00  0.00    -0.456 OA
ENDROOT
BRANCH   1  12
ATOM     12  C   UNL     1     -13.487  43.298  29.990  1.00  0.00     0.021 A 
ATOM     13  C   UNL     1     -12.988  42.580  28.887  1.00  0.00     0.016 A 
ATOM     14  C   UNL     1     -11.820  42.994  28.242  1.00  0.00     0.051 A 
ATOM     15  C   UNL     1     -11.134  44.133  28.682  1.00  0.00     0.157 A 
ATOM     16  C   UNL     1     -12.800  44.450  30.417  1.00  0.00     0.062 A 
ATOM     17  C   UNL     1     -11.629  44.865  29.773  1.00  0.00     0.158 A 
BRANCH  15  18
ATOM     18  O   UNL     1      -9.967  44.541  28.037  1.00  0.00    -0.504 OA
ATOM     19  H   UNL     1      -9.176  43.919  27.926  1.00  0.00     0.293 HD
ENDBRANCH  15  18
BRANCH  17  20
ATOM     20  O   UNL     1     -10.972  46.006  30.233  1.00  0.00    -0.504 OA
ATOM     21  H   UNL     1     -10.416  46.003  31.079  1.00  0.00     0.293 HD
ENDBRANCH  17  20
ENDBRANCH   1  12
BRANCH   6  22
ATOM     22  O   UNL     1     -19.012  40.791  32.713  1.00  0.00    -0.507 OA
ATOM     23  H   UNL     1     -19.972  40.663  32.995  1.00  0.00     0.293 HD
ENDBRANCH   6  22
BRANCH   8  24
ATOM     24  O   UNL     1     -19.093  45.446  33.891  1.00  0.00    -0.508 OA
ATOM     25  H   UNL     1     -20.008  45.763  33.593  1.00  0.00     0.293 HD
ENDBRANCH   8  24
TORSDOF 5
ENDMDL
MODEL 8
REMARK VINA RESULT:    -6.742      4.206      6.850
REMARK INTER + INTRA:          -8.187
REMARK INTER:                  -7.922
REMARK INTRA:                  -0.264
REMARK UNBOUND:                -0.262
REMARK SMILES O=c1cc(-c2ccc(O)c(O)c2)oc2cc(O)cc(O)c12
REMARK SMILES IDX 4 1 3 2 2 3 1 4 21 5 19 6 18 7 16 8 15 9 14 10 13 11 5 12
REMARK SMILES IDX 6 13 7 14 8 15 12 16 10 17 9 18 11 20 20 22 17 24
REMARK H PARENT 9 19 11 21 20 23 17 25
REMARK Flexibility Score: inf
ROOT
ATOM      1  C   UNL     1     -15.625  42.173  31.532  1.00  0.00     0.138 A 
ATOM      2  C   UNL     1     -16.127  40.905  31.853  1.00  0.00     0.100 A 
ATOM      3  C   UNL     1     -16.302  39.955  30.846  1.00  0.00     0.197 A 
ATOM      4  O   UNL     1     -16.813  38.848  31.155  1.00  0.00    -0.289 OA
ATOM      5  C   UNL     1     -15.939  40.268  29.514  1.00  0.00     0.107 A 
ATOM      6  C   UNL     1     -16.035  39.366  28.413  1.00  0.00     0.134 A 
ATOM      7  C   UNL     1     -15.757  39.824  27.119  1.00  0.00     0.093 A 
ATOM      8  C   UNL     1     -15.330  41.136  26.896  1.00  0.00     0.123 A 
ATOM      9  C   UNL     1     -15.182  42.009  27.971  1.00  0.00     0.094 A 
ATOM     10  C   UNL     1     -15.484  41.591  29.269  1.00  0.00     0.146 A 
ATOM     11  O   UNL     1     -15.344  42.460  30.265  1.00  0.00    -0.456 OA
ENDROOT
BRANCH   1  12
ATOM     12  C   UNL     1     -15.419  43.220  32.565  1.00  0.00     0.021 A 
ATOM     13  C   UNL     1     -16.462  44.077  32.967  1.00  0.00     0.016 A 
ATOM     14  C   UNL     1     -16.243  45.045  33.949  1.00  0.00     0.051 A 
ATOM     15  C   UNL     1     -14.985  45.172  34.551  1.00  0.00     0.157 A 
ATOM     16  C   UNL     1     -14.163  43.344  33.184  1.00  0.00     0.062 A 
ATOM     17  C   UNL     1     -13.940  44.315  34.168  1.00  0.00     0.158 A 
BRANCH  15  18
ATOM     18  O   UNL     1     -14.770  46.142  35.530  1.00  0.00    -0.504 OA
ATOM     19  H   UNL     1     -13.921  46.693  35.554  1.00  0.00     0.293 HD
ENDBRANCH  15  18
BRANCH  17  20
ATOM     20  O   UNL     1     -12.678  44.413  34.750  1.00  0.00    -0.504 OA
ATOM     21  H   UNL     1     -12.553  44.577  35.741  1.00  0.00     0.293 HD
ENDBRANCH  17  20
ENDBRANCH   1  12
BRANCH   6  22
ATOM     22  O   UNL     1     -16.369  38.014  28.537  1.00  0.00    -0.507 OA
ATOM     23  H   UNL     1     -15.941  37.372  29.186  1.00  0.00     0.293 HD
ENDBRANCH   6  22
BRANCH   8  24
ATOM     24  O   UNL     1     -15.041  41.579  25.607  1.00  0.00    -0.508 OA
ATOM     25  H   UNL     1     -15.513  41.195  24.796  1.00  0.00     0.293 HD
ENDBRANCH   8  24
TORSDOF 5
ENDMDL
MODEL 9
REMARK VINA RESULT:    -6.644      4.629      6.329
REMARK INTER + INTRA:          -8.071
REMARK INTER:                  -7.777
REMARK INTRA:                  -0.294
REMARK UNBOUND:                -0.262
REMARK SMILES O=c1cc(-c2ccc(O)c(O)c2)oc2cc(O)cc(O)c12
REMARK SMILES IDX 4 1 3 2 2 3 1 4 21 5 19 6 18 7 16 8 15 9 14 10 13 11 5 12
REMARK SMILES IDX 6 13 7 14 8 15 12 16 10 17 9 18 11 20 20 22 17 24
REMARK H PARENT 9 19 11 21 20 23 17 25
REMARK Flexibility Score: inf
ROOT
ATOM      1  C   UNL     1     -15.426  40.930  30.943  1.00  0.00     0.138 A 
ATOM      2  C   UNL     1     -16.752  41.381  30.973  1.00  0.00     0.100 A 
ATOM      3  C   UNL     1     -17.102  42.446  31.803  1.00  0.00     0.197 A 
ATOM      4  O   UNL     1     -18.312  42.787  31.856  1.00  0.00    -0.289 OA
ATOM      5  C   UNL     1     -16.108  43.084  32.584  1.00  0.00     0.107 A 
ATOM      6  C   UNL     1     -16.340  44.205  33.436  1.00  0.00     0.134 A 
ATOM      7  C   UNL     1     -15.304  44.679  34.250  1.00  0.00     0.093 A 
ATOM      8  C   UNL     1     -14.029  44.109  34.198  1.00  0.00     0.123 A 
ATOM      9  C   UNL     1     -13.778  43.050  33.330  1.00  0.00     0.094 A 
ATOM     10  C   UNL     1     -14.800  42.532  32.530  1.00  0.00     0.146 A 
ATOM     11  O   UNL     1     -14.523  41.511  31.727  1.00  0.00    -0.456 OA
ENDROOT
BRANCH   1  12
ATOM     12  C   UNL     1     -15.000  39.801  30.077  1.00  0.00     0.021 A 
ATOM     13  C   UNL     1     -13.649  39.420  29.970  1.00  0.00     0.016 A 
ATOM     14  C   UNL     1     -13.279  38.346  29.156  1.00  0.00     0.051 A 
ATOM     15  C   UNL     1     -14.249  37.631  28.442  1.00  0.00     0.157 A 
ATOM     16  C   UNL     1     -15.970  39.069  29.368  1.00  0.00     0.062 A 
ATOM     17  C   UNL     1     -15.601  37.994  28.551  1.00  0.00     0.158 A 
BRANCH  15  18
ATOM     18  O   UNL     1     -13.874  36.562  27.630  1.00  0.00    -0.504 OA
ATOM     19  H   UNL     1     -14.461  36.242  26.869  1.00  0.00     0.293 HD
ENDBRANCH  15  18
BRANCH  17  20
ATOM     20  O   UNL     1     -16.591  37.300  27.856  1.00  0.00    -0.504 OA
ATOM     21  H   UNL     1     -16.407  36.838  26.975  1.00  0.00     0.293 HD
ENDBRANCH  17  20
ENDBRANCH   1  12
BRANCH   6  22
ATOM     22  O   UNL     1     -17.552  44.900  33.501  1.00  0.00    -0.507 OA
ATOM     23  H   UNL     1     -17.909  45.503  32.776  1.00  0.00     0.293 HD
ENDBRANCH   6  22
BRANCH   8  24
ATOM     24  O   UNL     1     -13.000  44.598  35.000  1.00  0.00    -0.508 OA
ATOM     25  H   UNL     1     -12.131  44.090  35.117  1.00  0.00     0.293 HD
ENDBRANCH   8  24
TORSDOF 5
ENDMDL
