MODEL 1
REMARK VINA RESULT:    -5.709      0.000      0.000
REMARK INTER + INTRA:         -16.929
REMARK INTER:                 -14.386
REMARK INTRA:                  -2.543
REMARK UNBOUND:                -2.543
REMARK SMILES CCCCCCCCCCCCCCCCCCCCCCCCCCCC(=O)[O-]
REMARK SMILES IDX 15 1 16 2 17 3 18 4 19 5 20 6 21 7 22 8 23 9 24 10 25 11
REMARK SMILES IDX 26 12 27 13 28 14 29 15 30 16 14 17 13 18 12 19 11 20 10 21
REMARK SMILES IDX 9 22 8 23 7 24 6 25 5 26 4 27 3 28 2 29 1 30
REMARK H PARENT
REMARK Flexibility Score: inf
ROOT
ATOM      1  C   UNL     1      -6.271  28.856 -23.627  1.00  0.00     0.000 C 
ENDROOT
BRANCH   1   2
ATOM      2  C   UNL     1      -6.156  29.416 -22.185  1.00  0.00     0.000 C 
BRANCH   2   3
ATOM      3  C   UNL     1      -4.714  29.799 -21.768  1.00  0.00     0.000 C 
BRANCH   3   4
ATOM      4  C   UNL     1      -3.735  28.608 -21.718  1.00  0.00     0.000 C 
BRANCH   4   5
ATOM      5  C   UNL     1      -3.103  28.330 -20.340  1.00  0.00     0.000 C 
BRANCH   5   6
ATOM      6  C   UNL     1      -3.483  26.983 -19.698  1.00  0.00     0.000 C 
BRANCH   6   7
ATOM      7  C   UNL     1      -4.765  26.376 -20.282  1.00  0.00     0.000 C 
BRANCH   7   8
ATOM      8  C   UNL     1      -6.028  26.781 -19.495  1.00  0.00     0.000 C 
BRANCH   8   9
ATOM      9  C   UNL     1      -5.869  28.081 -18.676  1.00  0.00     0.000 C 
BRANCH   9  10
ATOM     10  C   UNL     1      -7.222  28.687 -18.265  1.00  0.00     0.000 C 
BRANCH  10  11
ATOM     11  C   UNL     1      -7.077  30.118 -17.702  1.00  0.00     0.000 C 
BRANCH  11  12
ATOM     12  C   UNL     1      -6.171  31.025 -18.553  1.00  0.00     0.006 C 
BRANCH  12  13
ATOM     13  C   UNL     1      -6.923  31.875 -19.585  1.00  0.00     0.053 C 
BRANCH  13  14
ATOM     14  C   UNL     1      -6.434  33.291 -19.607  1.00  0.00     0.041 C 
ATOM     15  O   UNL     1      -5.743  33.705 -20.574  1.00  0.00    -0.550 OA
ATOM     16  O   UNL     1      -6.779  34.168 -18.588  1.00  0.00    -0.550 OA
ENDBRANCH  13  14
ENDBRANCH  12  13
ENDBRANCH  11  12
ENDBRANCH  10  11
ENDBRANCH   9  10
ENDBRANCH   8   9
ENDBRANCH   7   8
ENDBRANCH   6   7
ENDBRANCH   5   6
ENDBRANCH   4   5
ENDBRANCH   3   4
ENDBRANCH   2   3
ENDBRANCH   1   2
BRANCH   1  17
ATOM     17  C   UNL     1      -7.593  28.116 -23.893  1.00  0.00     0.000 C 
BRANCH  17  18
ATOM     18  C   UNL     1      -7.815  27.796 -25.389  1.00  0.00     0.000 C 
BRANCH  18  19
ATOM     19  C   UNL     1      -6.493  27.809 -26.175  1.00  0.00     0.000 C 
BRANCH  19  20
ATOM     20  C   UNL     1      -6.670  27.433 -27.654  1.00  0.00     0.000 C 
BRANCH  20  21
ATOM     21  C   UNL     1      -8.120  27.057 -27.998  1.00  0.00     0.000 C 
BRANCH  21  22
ATOM     22  C   UNL     1      -8.291  25.539 -28.119  1.00  0.00    -0.000 C 
BRANCH  22  23
ATOM     23  C   UNL     1      -9.585  25.084 -27.429  1.00  0.00    -0.000 C 
BRANCH  23  24
ATOM     24  C   UNL     1      -9.343  24.045 -26.325  1.00  0.00    -0.000 C 
BRANCH  24  25
ATOM     25  C   UNL     1     -10.625  23.294 -25.924  1.00  0.00    -0.000 C 
BRANCH  25  26
ATOM     26  C   UNL     1     -10.364  22.163 -24.914  1.00  0.00    -0.000 C 
BRANCH  26  27
ATOM     27  C   UNL     1      -9.329  22.519 -23.822  1.00  0.00    -0.000 C 
BRANCH  27  28
ATOM     28  C   UNL     1      -9.931  23.200 -22.578  1.00  0.00    -0.000 C 
BRANCH  28  29
ATOM     29  C   UNL     1      -9.148  22.891 -21.291  1.00  0.00    -0.003 C 
ATOM     30  C   UNL     1     -10.082  22.400 -20.189  1.00  0.00     0.004 C 
ENDBRANCH  28  29
ENDBRANCH  27  28
ENDBRANCH  26  27
ENDBRANCH  25  26
ENDBRANCH  24  25
ENDBRANCH  23  24
ENDBRANCH  22  23
ENDBRANCH  21  22
ENDBRANCH  20  21
ENDBRANCH  19  20
ENDBRANCH  18  19
ENDBRANCH  17  18
ENDBRANCH   1  17
TORSDOF 26
ENDMDL
MODEL 2
REMARK VINA RESULT:    -5.383      3.803      9.965
REMARK INTER + INTRA:         -16.107
REMARK INTER:                 -13.175
REMARK INTRA:                  -2.933
REMARK UNBOUND:                -2.543
REMARK SMILES CCCCCCCCCCCCCCCCCCCCCCCCCCCC(=O)[O-]
REMARK SMILES IDX 15 1 16 2 17 3 18 4 19 5 20 6 21 7 22 8 23 9 24 10 25 11
REMARK SMILES IDX 26 12 27 13 28 14 29 15 30 16 14 17 13 18 12 19 11 20 10 21
REMARK SMILES IDX 9 22 8 23 7 24 6 25 5 26 4 27 3 28 2 29 1 30
REMARK H PARENT
REMARK Flexibility Score: inf
ROOT
ATOM      1  C   UNL     1      -5.505  28.982 -22.635  1.00  0.00     0.000 C 
ENDROOT
BRANCH   1   2
ATOM      2  C   UNL     1      -6.228  28.756 -23.988  1.00  0.00     0.000 C 
BRANCH   2   3
ATOM      3  C   UNL     1      -7.690  28.259 -23.850  1.00  0.00     0.000 C 
BRANCH   3   4
ATOM      4  C   UNL     1      -8.252  27.594 -25.122  1.00  0.00     0.000 C 
BRANCH   4   5
ATOM      5  C   UNL     1      -7.337  27.658 -26.361  1.00  0.00     0.000 C 
BRANCH   5   6
ATOM      6  C   UNL     1      -7.970  27.167 -27.676  1.00  0.00     0.000 C 
BRANCH   6   7
ATOM      7  C   UNL     1      -8.051  25.638 -27.774  1.00  0.00     0.000 C 
BRANCH   7   8
ATOM      8  C   UNL     1      -9.380  25.076 -27.229  1.00  0.00     0.000 C 
BRANCH   8   9
ATOM      9  C   UNL     1      -9.206  24.002 -26.133  1.00  0.00     0.000 C 
BRANCH   9  10
ATOM     10  C   UNL     1     -10.393  23.026 -26.071  1.00  0.00     0.000 C 
BRANCH  10  11
ATOM     11  C   UNL     1     -10.622  22.468 -24.650  1.00  0.00     0.000 C 
BRANCH  11  12
ATOM     12  C   UNL     1     -10.139  23.411 -23.534  1.00  0.00     0.006 C 
BRANCH  12  13
ATOM     13  C   UNL     1      -9.039  22.820 -22.643  1.00  0.00     0.053 C 
BRANCH  13  14
ATOM     14  C   UNL     1      -9.405  22.876 -21.191  1.00  0.00     0.041 C 
ATOM     15  O   UNL     1     -10.527  23.325 -20.840  1.00  0.00    -0.550 OA
ATOM     16  O   UNL     1      -8.532  22.387 -20.228  1.00  0.00    -0.550 OA
ENDBRANCH  13  14
ENDBRANCH  12  13
ENDBRANCH  11  12
ENDBRANCH  10  11
ENDBRANCH   9  10
ENDBRANCH   8   9
ENDBRANCH   7   8
ENDBRANCH   6   7
ENDBRANCH   5   6
ENDBRANCH   4   5
ENDBRANCH   3   4
ENDBRANCH   2   3
ENDBRANCH   1   2
BRANCH   1  17
ATOM     17  C   UNL     1      -6.421  29.552 -21.539  1.00  0.00     0.000 C 
BRANCH  17  18
ATOM     18  C   UNL     1      -6.313  28.783 -20.202  1.00  0.00     0.000 C 
BRANCH  18  19
ATOM     19  C   UNL     1      -5.769  27.359 -20.407  1.00  0.00     0.000 C 
BRANCH  19  20
ATOM     20  C   UNL     1      -4.388  27.146 -19.768  1.00  0.00     0.000 C 
BRANCH  20  21
ATOM     21  C   UNL     1      -3.806  28.438 -19.176  1.00  0.00     0.000 C 
BRANCH  21  22
ATOM     22  C   UNL     1      -2.599  28.930 -19.983  1.00  0.00    -0.000 C 
BRANCH  22  23
ATOM     23  C   UNL     1      -2.345  30.422 -19.720  1.00  0.00    -0.000 C 
BRANCH  23  24
ATOM     24  C   UNL     1      -3.546  31.308 -20.080  1.00  0.00    -0.000 C 
BRANCH  24  25
ATOM     25  C   UNL     1      -3.493  31.822 -21.528  1.00  0.00    -0.000 C 
BRANCH  25  26
ATOM     26  C   UNL     1      -2.211  32.617 -21.834  1.00  0.00    -0.000 C 
BRANCH  26  27
ATOM     27  C   UNL     1      -1.978  33.824 -20.896  1.00  0.00    -0.000 C 
BRANCH  27  28
ATOM     28  C   UNL     1      -0.548  33.915 -20.328  1.00  0.00    -0.000 C 
BRANCH  28  29
ATOM     29  C   UNL     1       0.441  32.988 -21.053  1.00  0.00    -0.003 C 
ATOM     30  C   UNL     1       1.031  31.960 -20.092  1.00  0.00     0.004 C 
ENDBRANCH  28  29
ENDBRANCH  27  28
ENDBRANCH  26  27
ENDBRANCH  25  26
ENDBRANCH  24  25
ENDBRANCH  23  24
ENDBRANCH  22  23
ENDBRANCH  21  22
ENDBRANCH  20  21
ENDBRANCH  19  20
ENDBRANCH  18  19
ENDBRANCH  17  18
ENDBRANCH   1  17
TORSDOF 26
ENDMDL
MODEL 3
REMARK VINA RESULT:    -5.377      3.280      9.271
REMARK INTER + INTRA:         -16.094
REMARK INTER:                 -13.099
REMARK INTRA:                  -2.994
REMARK UNBOUND:                -2.543
REMARK SMILES CCCCCCCCCCCCCCCCCCCCCCCCCCCC(=O)[O-]
REMARK SMILES IDX 15 1 16 2 17 3 18 4 19 5 20 6 21 7 22 8 23 9 24 10 25 11
REMARK SMILES IDX 26 12 27 13 28 14 29 15 30 16 14 17 13 18 12 19 11 20 10 21
REMARK SMILES IDX 9 22 8 23 7 24 6 25 5 26 4 27 3 28 2 29 1 30
REMARK H PARENT
REMARK Flexibility Score: inf
ROOT
ATOM      1  C   UNL     1      -7.330  28.501 -23.363  1.00  0.00     0.000 C 
ENDROOT
BRANCH   1   2
ATOM      2  C   UNL     1      -6.546  28.366 -24.694  1.00  0.00     0.000 C 
BRANCH   2   3
ATOM      3  C   UNL     1      -7.367  27.744 -25.852  1.00  0.00     0.000 C 
BRANCH   3   4
ATOM      4  C   UNL     1      -6.590  27.615 -27.177  1.00  0.00     0.000 C 
BRANCH   4   5
ATOM      5  C   UNL     1      -7.427  27.177 -28.395  1.00  0.00     0.000 C 
BRANCH   5   6
ATOM      6  C   UNL     1      -7.949  25.729 -28.352  1.00  0.00     0.000 C 
BRANCH   6   7
ATOM      7  C   UNL     1      -9.402  25.623 -27.870  1.00  0.00     0.000 C 
BRANCH   7   8
ATOM      8  C   UNL     1      -9.518  25.018 -26.456  1.00  0.00     0.000 C 
BRANCH   8   9
ATOM      9  C   UNL     1      -9.944  23.534 -26.440  1.00  0.00     0.000 C 
BRANCH   9  10
ATOM     10  C   UNL     1     -10.748  23.166 -25.180  1.00  0.00     0.000 C 
BRANCH  10  11
ATOM     11  C   UNL     1     -10.019  22.125 -24.303  1.00  0.00     0.000 C 
BRANCH  11  12
ATOM     12  C   UNL     1      -9.226  22.748 -23.140  1.00  0.00     0.006 C 
BRANCH  12  13
ATOM     13  C   UNL     1     -10.101  23.278 -21.996  1.00  0.00     0.053 C 
BRANCH  13  14
ATOM     14  C   UNL     1      -9.679  22.726 -20.668  1.00  0.00     0.041 C 
ATOM     15  O   UNL     1     -10.514  22.132 -19.938  1.00  0.00    -0.550 OA
ATOM     16  O   UNL     1      -8.356  22.821 -20.258  1.00  0.00    -0.550 OA
ENDBRANCH  13  14
ENDBRANCH  12  13
ENDBRANCH  11  12
ENDBRANCH  10  11
ENDBRANCH   9  10
ENDBRANCH   8   9
ENDBRANCH   7   8
ENDBRANCH   6   7
ENDBRANCH   5   6
ENDBRANCH   4   5
ENDBRANCH   3   4
ENDBRANCH   2   3
ENDBRANCH   1   2
BRANCH   1  17
ATOM     17  C   UNL     1      -6.488  29.079 -22.212  1.00  0.00     0.000 C 
BRANCH  17  18
ATOM     18  C   UNL     1      -5.089  29.555 -22.669  1.00  0.00     0.000 C 
BRANCH  18  19
ATOM     19  C   UNL     1      -3.966  28.840 -21.900  1.00  0.00     0.000 C 
BRANCH  19  20
ATOM     20  C   UNL     1      -4.474  27.664 -21.052  1.00  0.00     0.000 C 
BRANCH  20  21
ATOM     21  C   UNL     1      -3.837  27.625 -19.655  1.00  0.00     0.000 C 
BRANCH  21  22
ATOM     22  C   UNL     1      -4.655  28.433 -18.643  1.00  0.00    -0.000 C 
BRANCH  22  23
ATOM     23  C   UNL     1      -6.158  28.187 -18.843  1.00  0.00    -0.000 C 
BRANCH  23  24
ATOM     24  C   UNL     1      -7.030  29.331 -18.309  1.00  0.00    -0.000 C 
BRANCH  24  25
ATOM     25  C   UNL     1      -6.342  30.703 -18.412  1.00  0.00    -0.000 C 
BRANCH  25  26
ATOM     26  C   UNL     1      -6.815  31.520 -19.626  1.00  0.00    -0.000 C 
BRANCH  26  27
ATOM     27  C   UNL     1      -5.979  32.792 -19.895  1.00  0.00    -0.000 C 
BRANCH  27  28
ATOM     28  C   UNL     1      -4.821  32.589 -20.892  1.00  0.00    -0.000 C 
BRANCH  28  29
ATOM     29  C   UNL     1      -3.517  32.147 -20.208  1.00  0.00    -0.003 C 
ATOM     30  C   UNL     1      -2.357  32.137 -21.199  1.00  0.00     0.004 C 
ENDBRANCH  28  29
ENDBRANCH  27  28
ENDBRANCH  26  27
ENDBRANCH  25  26
ENDBRANCH  24  25
ENDBRANCH  23  24
ENDBRANCH  22  23
ENDBRANCH  21  22
ENDBRANCH  20  21
ENDBRANCH  19  20
ENDBRANCH  18  19
ENDBRANCH  17  18
ENDBRANCH   1  17
TORSDOF 26
ENDMDL
MODEL 4
REMARK VINA RESULT:    -5.366      2.472      3.470
REMARK INTER + INTRA:         -16.065
REMARK INTER:                 -13.709
REMARK INTRA:                  -2.356
REMARK UNBOUND:                -2.543
REMARK SMILES CCCCCCCCCCCCCCCCCCCCCCCCCCCC(=O)[O-]
REMARK SMILES IDX 15 1 16 2 17 3 18 4 19 5 20 6 21 7 22 8 23 9 24 10 25 11
REMARK SMILES IDX 26 12 27 13 28 14 29 15 30 16 14 17 13 18 12 19 11 20 10 21
REMARK SMILES IDX 9 22 8 23 7 24 6 25 5 26 4 27 3 28 2 29 1 30
REMARK H PARENT
REMARK Flexibility Score: inf
ROOT
ATOM      1  C   UNL     1      -6.294  28.926 -22.690  1.00  0.00     0.000 C 
ENDROOT
BRANCH   1   2
ATOM      2  C   UNL     1      -4.762  29.063 -22.490  1.00  0.00     0.000 C 
BRANCH   2   3
ATOM      3  C   UNL     1      -4.203  28.235 -21.304  1.00  0.00     0.000 C 
BRANCH   3   4
ATOM      4  C   UNL     1      -5.283  27.722 -20.330  1.00  0.00     0.000 C 
BRANCH   4   5
ATOM      5  C   UNL     1      -5.438  28.532 -19.029  1.00  0.00     0.000 C 
BRANCH   5   6
ATOM      6  C   UNL     1      -6.816  29.187 -18.818  1.00  0.00     0.000 C 
BRANCH   6   7
ATOM      7  C   UNL     1      -6.749  30.493 -18.016  1.00  0.00     0.000 C 
BRANCH   7   8
ATOM      8  C   UNL     1      -6.777  31.746 -18.915  1.00  0.00     0.000 C 
BRANCH   8   9
ATOM      9  C   UNL     1      -5.922  31.621 -20.195  1.00  0.00     0.000 C 
BRANCH   9  10
ATOM     10  C   UNL     1      -4.622  32.441 -20.117  1.00  0.00     0.000 C 
BRANCH  10  11
ATOM     11  C   UNL     1      -3.362  31.554 -20.217  1.00  0.00     0.000 C 
BRANCH  11  12
ATOM     12  C   UNL     1      -2.172  32.250 -20.900  1.00  0.00     0.006 C 
BRANCH  12  13
ATOM     13  C   UNL     1      -1.515  33.347 -20.051  1.00  0.00     0.053 C 
BRANCH  13  14
ATOM     14  C   UNL     1      -0.072  33.052 -19.775  1.00  0.00     0.041 C 
ATOM     15  O   UNL     1       0.253  31.980 -19.200  1.00  0.00    -0.550 OA
ATOM     16  O   UNL     1       0.916  33.932 -20.194  1.00  0.00    -0.550 OA
ENDBRANCH  13  14
ENDBRANCH  12  13
ENDBRANCH  11  12
ENDBRANCH  10  11
ENDBRANCH   9  10
ENDBRANCH   8   9
ENDBRANCH   7   8
ENDBRANCH   6   7
ENDBRANCH   5   6
ENDBRANCH   4   5
ENDBRANCH   3   4
ENDBRANCH   2   3
ENDBRANCH   1   2
BRANCH   1  17
ATOM     17  C   UNL     1      -6.688  28.475 -24.107  1.00  0.00     0.000 C 
BRANCH  17  18
ATOM     18  C   UNL     1      -8.173  28.058 -24.216  1.00  0.00     0.000 C 
BRANCH  18  19
ATOM     19  C   UNL     1      -8.560  27.705 -25.661  1.00  0.00     0.000 C 
BRANCH  19  20
ATOM     20  C   UNL     1      -7.343  27.517 -26.580  1.00  0.00     0.000 C 
BRANCH  20  21
ATOM     21  C   UNL     1      -7.699  26.800 -27.891  1.00  0.00     0.000 C 
BRANCH  21  22
ATOM     22  C   UNL     1      -9.039  26.064 -27.781  1.00  0.00    -0.000 C 
BRANCH  22  23
ATOM     23  C   UNL     1      -8.827  24.628 -27.280  1.00  0.00    -0.000 C 
BRANCH  23  24
ATOM     24  C   UNL     1      -9.925  24.161 -26.314  1.00  0.00    -0.000 C 
BRANCH  24  25
ATOM     25  C   UNL     1      -9.978  22.631 -26.169  1.00  0.00    -0.000 C 
BRANCH  25  26
ATOM     26  C   UNL     1     -10.102  22.172 -24.706  1.00  0.00    -0.000 C 
BRANCH  26  27
ATOM     27  C   UNL     1      -9.999  23.320 -23.675  1.00  0.00    -0.000 C 
BRANCH  27  28
ATOM     28  C   UNL     1      -9.422  22.894 -22.311  1.00  0.00    -0.000 C 
BRANCH  28  29
ATOM     29  C   UNL     1     -10.362  23.220 -21.138  1.00  0.00    -0.003 C 
ATOM     30  C   UNL     1      -9.892  22.538 -19.856  1.00  0.00     0.004 C 
ENDBRANCH  28  29
ENDBRANCH  27  28
ENDBRANCH  26  27
ENDBRANCH  25  26
ENDBRANCH  24  25
ENDBRANCH  23  24
ENDBRANCH  22  23
ENDBRANCH  21  22
ENDBRANCH  20  21
ENDBRANCH  19  20
ENDBRANCH  18  19
ENDBRANCH  17  18
ENDBRANCH   1  17
TORSDOF 26
ENDMDL
MODEL 5
REMARK VINA RESULT:    -5.345      2.011      3.054
REMARK INTER + INTRA:         -16.013
REMARK INTER:                 -13.480
REMARK INTRA:                  -2.533
REMARK UNBOUND:                -2.543
REMARK SMILES CCCCCCCCCCCCCCCCCCCCCCCCCCCC(=O)[O-]
REMARK SMILES IDX 15 1 16 2 17 3 18 4 19 5 20 6 21 7 22 8 23 9 24 10 25 11
REMARK SMILES IDX 26 12 27 13 28 14 29 15 30 16 14 17 13 18 12 19 11 20 10 21
REMARK SMILES IDX 9 22 8 23 7 24 6 25 5 26 4 27 3 28 2 29 1 30
REMARK H PARENT
REMARK Flexibility Score: inf
ROOT
ATOM      1  C   UNL     1      -6.957  28.967 -22.610  1.00  0.00     0.000 C 
ENDROOT
BRANCH   1   2
ATOM      2  C   UNL     1      -5.413  28.986 -22.760  1.00  0.00     0.000 C 
BRANCH   2   3
ATOM      3  C   UNL     1      -4.660  28.198 -21.659  1.00  0.00     0.000 C 
BRANCH   3   4
ATOM      4  C   UNL     1      -3.296  28.805 -21.272  1.00  0.00     0.000 C 
BRANCH   4   5
ATOM      5  C   UNL     1      -3.267  29.564 -19.931  1.00  0.00     0.000 C 
BRANCH   5   6
ATOM      6  C   UNL     1      -3.037  31.083 -20.036  1.00  0.00     0.000 C 
BRANCH   6   7
ATOM      7  C   UNL     1      -3.647  31.700 -21.302  1.00  0.00     0.000 C 
BRANCH   7   8
ATOM      8  C   UNL     1      -3.984  33.195 -21.132  1.00  0.00     0.000 C 
BRANCH   8   9
ATOM      9  C   UNL     1      -5.364  33.460 -20.492  1.00  0.00     0.000 C 
BRANCH   9  10
ATOM     10  C   UNL     1      -6.064  32.165 -20.043  1.00  0.00     0.000 C 
BRANCH  10  11
ATOM     11  C   UNL     1      -6.634  32.273 -18.612  1.00  0.00     0.000 C 
BRANCH  11  12
ATOM     12  C   UNL     1      -6.913  30.909 -17.957  1.00  0.00     0.006 C 
BRANCH  12  13
ATOM     13  C   UNL     1      -6.812  29.718 -18.919  1.00  0.00     0.053 C 
BRANCH  13  14
ATOM     14  C   UNL     1      -6.649  28.420 -18.187  1.00  0.00     0.041 C 
ATOM     15  O   UNL     1      -6.372  27.369 -18.821  1.00  0.00    -0.550 OA
ATOM     16  O   UNL     1      -6.754  28.378 -16.803  1.00  0.00    -0.550 OA
ENDBRANCH  13  14
ENDBRANCH  12  13
ENDBRANCH  11  12
ENDBRANCH  10  11
ENDBRANCH   9  10
ENDBRANCH   8   9
ENDBRANCH   7   8
ENDBRANCH   6   7
ENDBRANCH   5   6
ENDBRANCH   4   5
ENDBRANCH   3   4
ENDBRANCH   2   3
ENDBRANCH   1   2
BRANCH   1  17
ATOM     17  C   UNL     1      -7.679  28.287 -23.786  1.00  0.00     0.000 C 
BRANCH  17  18
ATOM     18  C   UNL     1      -6.772  28.104 -25.025  1.00  0.00     0.000 C 
BRANCH  18  19
ATOM     19  C   UNL     1      -7.591  27.785 -26.287  1.00  0.00     0.000 C 
BRANCH  19  20
ATOM     20  C   UNL     1      -6.800  26.975 -27.326  1.00  0.00     0.000 C 
BRANCH  20  21
ATOM     21  C   UNL     1      -7.529  25.691 -27.752  1.00  0.00     0.000 C 
BRANCH  21  22
ATOM     22  C   UNL     1      -8.970  25.982 -28.183  1.00  0.00    -0.000 C 
BRANCH  22  23
ATOM     23  C   UNL     1      -9.960  25.148 -27.356  1.00  0.00    -0.000 C 
BRANCH  23  24
ATOM     24  C   UNL     1      -9.268  24.189 -26.377  1.00  0.00    -0.000 C 
BRANCH  24  25
ATOM     25  C   UNL     1     -10.034  22.868 -26.196  1.00  0.00    -0.000 C 
BRANCH  25  26
ATOM     26  C   UNL     1     -10.197  22.469 -24.719  1.00  0.00    -0.000 C 
BRANCH  26  27
ATOM     27  C   UNL     1      -9.642  23.510 -23.720  1.00  0.00    -0.000 C 
BRANCH  27  28
ATOM     28  C   UNL     1      -9.225  22.919 -22.359  1.00  0.00    -0.000 C 
BRANCH  28  29
ATOM     29  C   UNL     1     -10.268  23.168 -21.256  1.00  0.00    -0.003 C 
ATOM     30  C   UNL     1     -10.106  22.167 -20.116  1.00  0.00     0.004 C 
ENDBRANCH  28  29
ENDBRANCH  27  28
ENDBRANCH  26  27
ENDBRANCH  25  26
ENDBRANCH  24  25
ENDBRANCH  23  24
ENDBRANCH  22  23
ENDBRANCH  21  22
ENDBRANCH  20  21
ENDBRANCH  19  20
ENDBRANCH  18  19
ENDBRANCH  17  18
ENDBRANCH   1  17
TORSDOF 26
ENDMDL
MODEL 6
REMARK VINA RESULT:    -5.293      3.239      7.294
REMARK INTER + INTRA:         -15.880
REMARK INTER:                 -12.695
REMARK INTRA:                  -3.184
REMARK UNBOUND:                -2.543
REMARK SMILES CCCCCCCCCCCCCCCCCCCCCCCCCCCC(=O)[O-]
REMARK SMILES IDX 15 1 16 2 17 3 18 4 19 5 20 6 21 7 22 8 23 9 24 10 25 11
REMARK SMILES IDX 26 12 27 13 28 14 29 15 30 16 14 17 13 18 12 19 11 20 10 21
REMARK SMILES IDX 9 22 8 23 7 24 6 25 5 26 4 27 3 28 2 29 1 30
REMARK H PARENT
REMARK Flexibility Score: inf
ROOT
ATOM      1  C   UNL     1      -6.137  27.749 -19.599  1.00  0.00     0.000 C 
ENDROOT
BRANCH   1   2
ATOM      2  C   UNL     1      -6.647  27.906 -18.142  1.00  0.00     0.000 C 
BRANCH   2   3
ATOM      3  C   UNL     1      -6.966  29.368 -17.738  1.00  0.00     0.000 C 
BRANCH   3   4
ATOM      4  C   UNL     1      -6.787  30.390 -18.879  1.00  0.00     0.000 C 
BRANCH   4   5
ATOM      5  C   UNL     1      -6.765  31.869 -18.444  1.00  0.00     0.000 C 
BRANCH   5   6
ATOM      6  C   UNL     1      -6.591  32.890 -19.584  1.00  0.00     0.000 C 
BRANCH   6   7
ATOM      7  C   UNL     1      -6.406  34.329 -19.084  1.00  0.00     0.000 C 
BRANCH   7   8
ATOM      8  C   UNL     1      -5.023  34.910 -19.438  1.00  0.00     0.000 C 
BRANCH   8   9
ATOM      9  C   UNL     1      -4.496  34.479 -20.825  1.00  0.00     0.000 C 
BRANCH   9  10
ATOM     10  C   UNL     1      -4.906  35.457 -21.940  1.00  0.00     0.000 C 
BRANCH  10  11
ATOM     11  C   UNL     1      -4.405  35.005 -23.330  1.00  0.00     0.000 C 
BRANCH  11  12
ATOM     12  C   UNL     1      -5.010  35.811 -24.493  1.00  0.00     0.006 C 
BRANCH  12  13
ATOM     13  C   UNL     1      -4.569  35.334 -25.883  1.00  0.00     0.053 C 
BRANCH  13  14
ATOM     14  C   UNL     1      -5.706  34.740 -26.658  1.00  0.00     0.041 C 
ATOM     15  O   UNL     1      -5.488  33.830 -27.500  1.00  0.00    -0.550 OA
ATOM     16  O   UNL     1      -7.009  35.153 -26.417  1.00  0.00    -0.550 OA
ENDBRANCH  13  14
ENDBRANCH  12  13
ENDBRANCH  11  12
ENDBRANCH  10  11
ENDBRANCH   9  10
ENDBRANCH   8   9
ENDBRANCH   7   8
ENDBRANCH   6   7
ENDBRANCH   5   6
ENDBRANCH   4   5
ENDBRANCH   3   4
ENDBRANCH   2   3
ENDBRANCH   1   2
BRANCH   1  17
ATOM     17  C   UNL     1      -5.200  26.545 -19.793  1.00  0.00     0.000 C 
BRANCH  17  18
ATOM     18  C   UNL     1      -3.726  26.958 -20.014  1.00  0.00     0.000 C 
BRANCH  18  19
ATOM     19  C   UNL     1      -3.261  27.985 -18.968  1.00  0.00     0.000 C 
BRANCH  19  20
ATOM     20  C   UNL     1      -2.497  29.166 -19.586  1.00  0.00     0.000 C 
BRANCH  20  21
ATOM     21  C   UNL     1      -3.397  30.385 -19.836  1.00  0.00     0.000 C 
BRANCH  21  22
ATOM     22  C   UNL     1      -3.594  30.638 -21.334  1.00  0.00    -0.000 C 
BRANCH  22  23
ATOM     23  C   UNL     1      -5.050  30.365 -21.742  1.00  0.00    -0.000 C 
BRANCH  23  24
ATOM     24  C   UNL     1      -5.179  29.270 -22.810  1.00  0.00    -0.000 C 
BRANCH  24  25
ATOM     25  C   UNL     1      -6.638  28.852 -23.059  1.00  0.00    -0.000 C 
BRANCH  25  26
ATOM     26  C   UNL     1      -6.854  28.239 -24.454  1.00  0.00    -0.000 C 
BRANCH  26  27
ATOM     27  C   UNL     1      -8.291  27.727 -24.702  1.00  0.00    -0.000 C 
BRANCH  27  28
ATOM     28  C   UNL     1      -8.706  27.703 -26.186  1.00  0.00    -0.000 C 
BRANCH  28  29
ATOM     29  C   UNL     1      -7.524  27.429 -27.131  1.00  0.00    -0.003 C 
ATOM     30  C   UNL     1      -7.704  26.100 -27.859  1.00  0.00     0.004 C 
ENDBRANCH  28  29
ENDBRANCH  27  28
ENDBRANCH  26  27
ENDBRANCH  25  26
ENDBRANCH  24  25
ENDBRANCH  23  24
ENDBRANCH  22  23
ENDBRANCH  21  22
ENDBRANCH  20  21
ENDBRANCH  19  20
ENDBRANCH  18  19
ENDBRANCH  17  18
ENDBRANCH   1  17
TORSDOF 26
ENDMDL
MODEL 7
REMARK VINA RESULT:    -5.289      3.593      9.567
REMARK INTER + INTRA:         -15.871
REMARK INTER:                 -12.405
REMARK INTRA:                  -3.466
REMARK UNBOUND:                -2.543
REMARK SMILES CCCCCCCCCCCCCCCCCCCCCCCCCCCC(=O)[O-]
REMARK SMILES IDX 15 1 16 2 17 3 18 4 19 5 20 6 21 7 22 8 23 9 24 10 25 11
REMARK SMILES IDX 26 12 27 13 28 14 29 15 30 16 14 17 13 18 12 19 11 20 10 21
REMARK SMILES IDX 9 22 8 23 7 24 6 25 5 26 4 27 3 28 2 29 1 30
REMARK H PARENT
REMARK Flexibility Score: inf
ROOT
ATOM      1  C   UNL     1      -3.547  27.381 -20.409  1.00  0.00     0.000 C 
ENDROOT
BRANCH   1   2
ATOM      2  C   UNL     1      -2.795  28.178 -19.310  1.00  0.00     0.000 C 
BRANCH   2   3
ATOM      3  C   UNL     1      -2.431  29.628 -19.717  1.00  0.00     0.000 C 
BRANCH   3   4
ATOM      4  C   UNL     1      -3.652  30.531 -19.986  1.00  0.00     0.000 C 
BRANCH   4   5
ATOM      5  C   UNL     1      -3.911  30.869 -21.468  1.00  0.00     0.000 C 
BRANCH   5   6
ATOM      6  C   UNL     1      -5.303  30.481 -22.000  1.00  0.00     0.000 C 
BRANCH   6   7
ATOM      7  C   UNL     1      -5.282  29.243 -22.906  1.00  0.00     0.000 C 
BRANCH   7   8
ATOM      8  C   UNL     1      -6.679  28.620 -23.096  1.00  0.00     0.000 C 
BRANCH   8   9
ATOM      9  C   UNL     1      -6.989  28.204 -24.550  1.00  0.00     0.000 C 
BRANCH   9  10
ATOM     10  C   UNL     1      -8.464  27.810 -24.749  1.00  0.00     0.000 C 
BRANCH  10  11
ATOM     11  C   UNL     1      -8.789  27.474 -26.220  1.00  0.00     0.000 C 
BRANCH  11  12
ATOM     12  C   UNL     1      -8.269  26.096 -26.666  1.00  0.00     0.006 C 
BRANCH  12  13
ATOM     13  C   UNL     1      -9.374  25.096 -27.034  1.00  0.00     0.053 C 
BRANCH  13  14
ATOM     14  C   UNL     1      -9.529  24.028 -25.994  1.00  0.00     0.041 C 
ATOM     15  O   UNL     1      -9.577  22.817 -26.337  1.00  0.00    -0.550 OA
ATOM     16  O   UNL     1      -9.571  24.361 -24.647  1.00  0.00    -0.550 OA
ENDBRANCH  13  14
ENDBRANCH  12  13
ENDBRANCH  11  12
ENDBRANCH  10  11
ENDBRANCH   9  10
ENDBRANCH   8   9
ENDBRANCH   7   8
ENDBRANCH   6   7
ENDBRANCH   5   6
ENDBRANCH   4   5
ENDBRANCH   3   4
ENDBRANCH   2   3
ENDBRANCH   1   2
BRANCH   1  17
ATOM     17  C   UNL     1      -4.357  26.195 -19.859  1.00  0.00     0.000 C 
BRANCH  17  18
ATOM     18  C   UNL     1      -5.883  26.443 -19.885  1.00  0.00     0.000 C 
BRANCH  18  19
ATOM     19  C   UNL     1      -6.228  27.900 -19.535  1.00  0.00     0.000 C 
BRANCH  19  20
ATOM     20  C   UNL     1      -6.261  28.163 -18.022  1.00  0.00     0.000 C 
BRANCH  20  21
ATOM     21  C   UNL     1      -7.018  29.451 -17.663  1.00  0.00     0.000 C 
BRANCH  21  22
ATOM     22  C   UNL     1      -7.021  30.443 -18.832  1.00  0.00    -0.000 C 
BRANCH  22  23
ATOM     23  C   UNL     1      -6.742  31.868 -18.331  1.00  0.00    -0.000 C 
BRANCH  23  24
ATOM     24  C   UNL     1      -6.570  32.882 -19.471  1.00  0.00    -0.000 C 
BRANCH  24  25
ATOM     25  C   UNL     1      -6.653  34.340 -18.988  1.00  0.00    -0.000 C 
BRANCH  25  26
ATOM     26  C   UNL     1      -6.110  35.343 -20.020  1.00  0.00    -0.000 C 
BRANCH  26  27
ATOM     27  C   UNL     1      -4.914  34.816 -20.844  1.00  0.00    -0.000 C 
BRANCH  27  28
ATOM     28  C   UNL     1      -4.894  35.297 -22.308  1.00  0.00    -0.000 C 
BRANCH  28  29
ATOM     29  C   UNL     1      -3.854  34.556 -23.165  1.00  0.00    -0.003 C 
ATOM     30  C   UNL     1      -4.288  34.503 -24.627  1.00  0.00     0.004 C 
ENDBRANCH  28  29
ENDBRANCH  27  28
ENDBRANCH  26  27
ENDBRANCH  25  26
ENDBRANCH  24  25
ENDBRANCH  23  24
ENDBRANCH  22  23
ENDBRANCH  21  22
ENDBRANCH  20  21
ENDBRANCH  19  20
ENDBRANCH  18  19
ENDBRANCH  17  18
ENDBRANCH   1  17
TORSDOF 26
ENDMDL
MODEL 8
REMARK VINA RESULT:    -5.256      4.524     10.388
REMARK INTER + INTRA:         -15.789
REMARK INTER:                 -13.003
REMARK INTRA:                  -2.785
REMARK UNBOUND:                -2.543
REMARK SMILES CCCCCCCCCCCCCCCCCCCCCCCCCCCC(=O)[O-]
REMARK SMILES IDX 15 1 16 2 17 3 18 4 19 5 20 6 21 7 22 8 23 9 24 10 25 11
REMARK SMILES IDX 26 12 27 13 28 14 29 15 30 16 14 17 13 18 12 19 11 20 10 21
REMARK SMILES IDX 9 22 8 23 7 24 6 25 5 26 4 27 3 28 2 29 1 30
REMARK H PARENT
REMARK Flexibility Score: inf
ROOT
ATOM      1  C   UNL     1      -6.299  28.015 -19.013  1.00  0.00     0.000 C 
ENDROOT
BRANCH   1   2
ATOM      2  C   UNL     1      -5.855  27.495 -20.406  1.00  0.00     0.000 C 
BRANCH   2   3
ATOM      3  C   UNL     1      -4.662  28.269 -21.020  1.00  0.00     0.000 C 
BRANCH   3   4
ATOM      4  C   UNL     1      -4.990  28.982 -22.347  1.00  0.00     0.000 C 
BRANCH   4   5
ATOM      5  C   UNL     1      -6.479  28.987 -22.745  1.00  0.00     0.000 C 
BRANCH   5   6
ATOM      6  C   UNL     1      -6.786  28.477 -24.165  1.00  0.00     0.000 C 
BRANCH   6   7
ATOM      7  C   UNL     1      -8.153  27.790 -24.280  1.00  0.00     0.000 C 
BRANCH   7   8
ATOM      8  C   UNL     1      -8.661  27.714 -25.733  1.00  0.00     0.000 C 
BRANCH   8   9
ATOM      9  C   UNL     1      -7.545  27.499 -26.779  1.00  0.00     0.000 C 
BRANCH   9  10
ATOM     10  C   UNL     1      -7.881  26.375 -27.776  1.00  0.00     0.000 C 
BRANCH  10  11
ATOM     11  C   UNL     1      -9.282  25.774 -27.533  1.00  0.00     0.000 C 
BRANCH  11  12
ATOM     12  C   UNL     1      -9.251  24.304 -27.079  1.00  0.00     0.006 C 
BRANCH  12  13
ATOM     13  C   UNL     1      -9.641  24.092 -25.610  1.00  0.00     0.053 C 
BRANCH  13  14
ATOM     14  C   UNL     1     -10.631  22.978 -25.450  1.00  0.00     0.041 C 
ATOM     15  O   UNL     1     -10.234  21.818 -25.167  1.00  0.00    -0.550 OA
ATOM     16  O   UNL     1     -11.992  23.228 -25.562  1.00  0.00    -0.550 OA
ENDBRANCH  13  14
ENDBRANCH  12  13
ENDBRANCH  11  12
ENDBRANCH  10  11
ENDBRANCH   9  10
ENDBRANCH   8   9
ENDBRANCH   7   8
ENDBRANCH   6   7
ENDBRANCH   5   6
ENDBRANCH   4   5
ENDBRANCH   3   4
ENDBRANCH   2   3
ENDBRANCH   1   2
BRANCH   1  17
ATOM     17  C   UNL     1      -5.778  29.427 -18.693  1.00  0.00     0.000 C 
BRANCH  17  18
ATOM     18  C   UNL     1      -6.894  30.388 -18.221  1.00  0.00     0.000 C 
BRANCH  18  19
ATOM     19  C   UNL     1      -6.656  31.823 -18.719  1.00  0.00     0.000 C 
BRANCH  19  20
ATOM     20  C   UNL     1      -6.040  31.876 -20.126  1.00  0.00     0.000 C 
BRANCH  20  21
ATOM     21  C   UNL     1      -4.767  32.734 -20.180  1.00  0.00     0.000 C 
BRANCH  21  22
ATOM     22  C   UNL     1      -3.635  32.010 -20.918  1.00  0.00    -0.000 C 
BRANCH  22  23
ATOM     23  C   UNL     1      -3.648  32.368 -22.411  1.00  0.00    -0.000 C 
BRANCH  23  24
ATOM     24  C   UNL     1      -2.921  33.685 -22.720  1.00  0.00    -0.000 C 
BRANCH  24  25
ATOM     25  C   UNL     1      -1.398  33.509 -22.846  1.00  0.00    -0.000 C 
BRANCH  25  26
ATOM     26  C   UNL     1      -0.665  33.667 -21.503  1.00  0.00    -0.000 C 
BRANCH  26  27
ATOM     27  C   UNL     1       0.317  32.517 -21.181  1.00  0.00    -0.000 C 
BRANCH  27  28
ATOM     28  C   UNL     1       0.235  32.003 -19.731  1.00  0.00    -0.000 C 
BRANCH  28  29
ATOM     29  C   UNL     1       1.603  31.975 -19.029  1.00  0.00    -0.003 C 
ATOM     30  C   UNL     1       2.299  33.329 -19.138  1.00  0.00     0.004 C 
ENDBRANCH  28  29
ENDBRANCH  27  28
ENDBRANCH  26  27
ENDBRANCH  25  26
ENDBRANCH  24  25
ENDBRANCH  23  24
ENDBRANCH  22  23
ENDBRANCH  21  22
ENDBRANCH  20  21
ENDBRANCH  19  20
ENDBRANCH  18  19
ENDBRANCH  17  18
ENDBRANCH   1  17
TORSDOF 26
ENDMDL
MODEL 9
REMARK VINA RESULT:    -5.197      3.358      9.207
REMARK INTER + INTRA:         -15.639
REMARK INTER:                 -12.815
REMARK INTRA:                  -2.824
REMARK UNBOUND:                -2.543
REMARK SMILES CCCCCCCCCCCCCCCCCCCCCCCCCCCC(=O)[O-]
REMARK SMILES IDX 15 1 16 2 17 3 18 4 19 5 20 6 21 7 22 8 23 9 24 10 25 11
REMARK SMILES IDX 26 12 27 13 28 14 29 15 30 16 14 17 13 18 12 19 11 20 10 21
REMARK SMILES IDX 9 22 8 23 7 24 6 25 5 26 4 27 3 28 2 29 1 30
REMARK H PARENT
REMARK Flexibility Score: inf
ROOT
ATOM      1  C   UNL     1      -6.236  29.325 -22.464  1.00  0.00     0.000 C 
ENDROOT
BRANCH   1   2
ATOM      2  C   UNL     1      -7.171  28.462 -23.351  1.00  0.00     0.000 C 
BRANCH   2   3
ATOM      3  C   UNL     1      -6.705  28.333 -24.824  1.00  0.00     0.000 C 
BRANCH   3   4
ATOM      4  C   UNL     1      -7.768  27.742 -25.771  1.00  0.00     0.000 C 
BRANCH   4   5
ATOM      5  C   UNL     1      -7.224  26.828 -26.887  1.00  0.00     0.000 C 
BRANCH   5   6
ATOM      6  C   UNL     1      -8.174  26.604 -28.079  1.00  0.00     0.000 C 
BRANCH   6   7
ATOM      7  C   UNL     1      -9.466  25.872 -27.693  1.00  0.00     0.000 C 
BRANCH   7   8
ATOM      8  C   UNL     1      -9.213  24.662 -26.772  1.00  0.00     0.000 C 
BRANCH   8   9
ATOM      9  C   UNL     1     -10.468  23.804 -26.500  1.00  0.00     0.000 C 
BRANCH   9  10
ATOM     10  C   UNL     1     -10.243  22.767 -25.386  1.00  0.00     0.000 C 
BRANCH  10  11
ATOM     11  C   UNL     1      -9.439  23.343 -24.200  1.00  0.00     0.000 C 
BRANCH  11  12
ATOM     12  C   UNL     1      -9.501  22.472 -22.934  1.00  0.00     0.006 C 
BRANCH  12  13
ATOM     13  C   UNL     1      -9.999  23.213 -21.685  1.00  0.00     0.053 C 
BRANCH  13  14
ATOM     14  C   UNL     1      -9.682  22.463 -20.427  1.00  0.00     0.041 C 
ATOM     15  O   UNL     1      -8.484  22.263 -20.097  1.00  0.00    -0.550 OA
ATOM     16  O   UNL     1     -10.703  22.030 -19.592  1.00  0.00    -0.550 OA
ENDBRANCH  13  14
ENDBRANCH  12  13
ENDBRANCH  11  12
ENDBRANCH  10  11
ENDBRANCH   9  10
ENDBRANCH   8   9
ENDBRANCH   7   8
ENDBRANCH   6   7
ENDBRANCH   5   6
ENDBRANCH   4   5
ENDBRANCH   3   4
ENDBRANCH   2   3
ENDBRANCH   1   2
BRANCH   1  17
ATOM     17  C   UNL     1      -6.187  28.865 -20.997  1.00  0.00     0.000 C 
BRANCH  17  18
ATOM     18  C   UNL     1      -5.878  27.357 -20.848  1.00  0.00     0.000 C 
BRANCH  18  19
ATOM     19  C   UNL     1      -4.439  27.117 -20.362  1.00  0.00     0.000 C 
BRANCH  19  20
ATOM     20  C   UNL     1      -3.974  28.153 -19.326  1.00  0.00     0.000 C 
BRANCH  20  21
ATOM     21  C   UNL     1      -2.742  28.942 -19.793  1.00  0.00     0.000 C 
BRANCH  21  22
ATOM     22  C   UNL     1      -3.026  30.448 -19.841  1.00  0.00    -0.000 C 
BRANCH  22  23
ATOM     23  C   UNL     1      -3.199  30.919 -21.292  1.00  0.00    -0.000 C 
BRANCH  23  24
ATOM     24  C   UNL     1      -3.985  32.232 -21.408  1.00  0.00    -0.000 C 
BRANCH  24  25
ATOM     25  C   UNL     1      -4.522  32.725 -20.053  1.00  0.00    -0.000 C 
BRANCH  25  26
ATOM     26  C   UNL     1      -5.988  33.187 -20.124  1.00  0.00    -0.000 C 
BRANCH  26  27
ATOM     27  C   UNL     1      -6.965  32.312 -19.304  1.00  0.00    -0.000 C 
BRANCH  27  28
ATOM     28  C   UNL     1      -6.292  31.144 -18.557  1.00  0.00    -0.000 C 
BRANCH  28  29
ATOM     29  C   UNL     1      -7.276  30.354 -17.678  1.00  0.00    -0.003 C 
ATOM     30  C   UNL     1      -6.715  28.978 -17.331  1.00  0.00     0.004 C 
ENDBRANCH  28  29
ENDBRANCH  27  28
ENDBRANCH  26  27
ENDBRANCH  25  26
ENDBRANCH  24  25
ENDBRANCH  23  24
ENDBRANCH  22  23
ENDBRANCH  21  22
ENDBRANCH  20  21
ENDBRANCH  19  20
ENDBRANCH  18  19
ENDBRANCH  17  18
ENDBRANCH   1  17
TORSDOF 26
ENDMDL
