MODEL 1
REMARK VINA RESULT:    -4.528      0.000      0.000
REMARK INTER + INTRA:          -6.675
REMARK INTER:                  -6.910
REMARK INTRA:                   0.235
REMARK UNBOUND:                 0.235
REMARK SMILES CC1=CCC[C@H](C)C(=O)C[C@H](C(C)C)C(=O)C1
REMARK SMILES IDX 8 1 9 2 6 3 7 4 5 5 4 6 3 7 2 8 1 9 10 11 11 12 15 13 16 14
REMARK SMILES IDX 17 15 12 17 13 18 14 19
REMARK H PARENT
REMARK Flexibility Score: 70.00
ROOT
ATOM      1  C   UNL     1      -4.508 -13.502  28.010  1.00  0.00     0.136 C 
ATOM      2  O   UNL     1      -5.325 -14.319  27.612  1.00  0.00    -0.299 OA
ENDROOT
BRANCH   1   3
ATOM      3  C   UNL     1      -3.177 -13.389  27.288  1.00  0.00     0.053 C 
ATOM      4  C   UNL     1      -2.889 -11.934  26.902  1.00  0.00     0.016 C 
BRANCH   3   5
ATOM      5  C   UNL     1      -2.025 -13.978  28.125  1.00  0.00     0.015 C 
BRANCH   5   6
ATOM      6  C   UNL     1      -0.890 -12.961  28.343  1.00  0.00     0.028 C 
BRANCH   6   7
ATOM      7  C   UNL     1      -0.446 -12.960  29.782  1.00  0.00    -0.028 C 
ATOM      8  C   UNL     1      -0.886 -12.089  30.721  1.00  0.00    -0.070 CG0
ATOM      9  C   UNL     1      -0.290 -12.178  32.103  1.00  0.00     0.039 C 
ATOM     10  G   UNL     1      -1.960 -11.047  30.445  1.00  0.00     0.000 G0
ENDBRANCH   6   7
ENDBRANCH   5   6
ENDBRANCH   3   5
ENDBRANCH   1   3
BRANCH   1  11
ATOM     11  C   UNL     1      -4.874 -12.622  29.185  1.00  0.00     0.087 C 
BRANCH  11  12
ATOM     12  C   UNL     1      -3.923 -12.829  30.395  1.00  0.00     0.066 C 
BRANCH  12  13
ATOM     13  C   UNL     1      -3.342 -11.507  30.879  1.00  0.00     0.140 C 
ATOM     14  O   UNL     1      -3.961 -10.829  31.687  1.00  0.00    -0.299 OA
BRANCH  13  15
ATOM     15  C   UNL     1      -1.976 -11.047  30.429  1.00  0.00     0.106 CG0
ATOM     16  G   UNL     1      -0.898 -12.083  30.712  1.00  0.00     0.000 G0
ENDBRANCH  13  15
ENDBRANCH  12  13
BRANCH  12  17
ATOM     17  C   UNL     1      -4.612 -13.628  31.543  1.00  0.00    -0.006 C 
ATOM     18  C   UNL     1      -3.629 -14.324  32.502  1.00  0.00     0.008 C 
ATOM     19  C   UNL     1      -5.625 -14.646  30.995  1.00  0.00     0.008 C 
ENDBRANCH  12  17
ENDBRANCH  11  12
ENDBRANCH   1  11
TORSDOF 1
ENDMDL
MODEL 2
REMARK VINA RESULT:    -4.459      2.160      4.132
REMARK INTER + INTRA:          -6.570
REMARK INTER:                  -6.892
REMARK INTRA:                   0.322
REMARK UNBOUND:                 0.235
REMARK SMILES CC1=CCC[C@H](C)C(=O)C[C@H](C(C)C)C(=O)C1
REMARK SMILES IDX 8 1 9 2 6 3 7 4 5 5 4 6 3 7 2 8 1 9 10 11 11 12 15 13 16 14
REMARK SMILES IDX 17 15 12 17 13 18 14 19
REMARK H PARENT
REMARK Flexibility Score: 70.00
ROOT
ATOM      1  C   UNL     1      -1.619 -13.526  29.770  1.00  0.00     0.136 C 
ATOM      2  O   UNL     1      -0.508 -14.001  29.958  1.00  0.00    -0.299 OA
ENDROOT
BRANCH   1   3
ATOM      3  C   UNL     1      -2.316 -12.821  30.920  1.00  0.00     0.053 C 
ATOM      4  C   UNL     1      -2.800 -13.832  31.965  1.00  0.00     0.016 C 
BRANCH   3   5
ATOM      5  C   UNL     1      -1.411 -11.752  31.562  1.00  0.00     0.015 C 
BRANCH   5   6
ATOM      6  C   UNL     1      -1.764 -10.333  31.081  1.00  0.00     0.028 C 
BRANCH   6   7
ATOM      7  C   UNL     1      -3.237 -10.224  30.784  1.00  0.00    -0.028 C 
ATOM      8  C   UNL     1      -3.761 -10.092  29.543  1.00  0.00    -0.070 CG0
ATOM      9  C   UNL     1      -5.255  -9.925  29.421  1.00  0.00     0.039 C 
ATOM     10  G   UNL     1      -2.915 -10.123  28.279  1.00  0.00     0.000 G0
ENDBRANCH   6   7
ENDBRANCH   5   6
ENDBRANCH   3   5
ENDBRANCH   1   3
BRANCH   1  11
ATOM     11  C   UNL     1      -2.232 -13.637  28.391  1.00  0.00     0.087 C 
BRANCH  11  12
ATOM     12  C   UNL     1      -3.455 -12.696  28.214  1.00  0.00     0.066 C 
BRANCH  12  13
ATOM     13  C   UNL     1      -3.065 -11.402  27.510  1.00  0.00     0.140 C 
ATOM     14  O   UNL     1      -2.909 -11.393  26.297  1.00  0.00    -0.299 OA
BRANCH  13  15
ATOM     15  C   UNL     1      -2.931 -10.109  28.278  1.00  0.00     0.106 CG0
ATOM     16  G   UNL     1      -3.761 -10.109  29.553  1.00  0.00     0.000 G0
ENDBRANCH  13  15
ENDBRANCH  12  13
BRANCH  12  17
ATOM     17  C   UNL     1      -4.645 -13.417  27.510  1.00  0.00    -0.006 C 
ATOM     18  C   UNL     1      -5.594 -14.151  28.474  1.00  0.00     0.008 C 
ATOM     19  C   UNL     1      -4.155 -14.379  26.416  1.00  0.00     0.008 C 
ENDBRANCH  12  17
ENDBRANCH  11  12
ENDBRANCH   1  11
TORSDOF 1
ENDMDL
MODEL 3
REMARK VINA RESULT:    -4.373      1.847      3.641
REMARK INTER + INTRA:          -6.438
REMARK INTER:                  -6.724
REMARK INTRA:                   0.285
REMARK UNBOUND:                 0.235
REMARK SMILES CC1=CCC[C@H](C)C(=O)C[C@H](C(C)C)C(=O)C1
REMARK SMILES IDX 8 1 9 2 6 3 7 4 5 5 4 6 3 7 2 8 1 9 10 11 11 12 15 13 16 14
REMARK SMILES IDX 17 15 12 17 13 18 14 19
REMARK H PARENT
REMARK Flexibility Score: 70.00
ROOT
ATOM      1  C   UNL     1      -1.317 -13.282  28.746  1.00  0.00     0.136 C 
ATOM      2  O   UNL     1      -0.979 -14.382  28.333  1.00  0.00    -0.299 OA
ENDROOT
BRANCH   1   3
ATOM      3  C   UNL     1      -0.521 -12.651  29.874  1.00  0.00     0.053 C 
ATOM      4  C   UNL     1      -1.025 -11.235  30.170  1.00  0.00     0.016 C 
BRANCH   3   5
ATOM      5  C   UNL     1      -0.547 -13.524  31.144  1.00  0.00     0.015 C 
BRANCH   5   6
ATOM      6  C   UNL     1      -1.649 -13.085  32.124  1.00  0.00     0.028 C 
BRANCH   6   7
ATOM      7  C   UNL     1      -2.866 -13.963  31.983  1.00  0.00    -0.028 C 
ATOM      8  C   UNL     1      -4.083 -13.529  31.580  1.00  0.00    -0.070 CG0
ATOM      9  C   UNL     1      -5.216 -14.523  31.558  1.00  0.00     0.039 C 
ATOM     10  G   UNL     1      -4.346 -12.097  31.136  1.00  0.00     0.000 G0
ENDBRANCH   6   7
ENDBRANCH   5   6
ENDBRANCH   3   5
ENDBRANCH   1   3
BRANCH   1  11
ATOM     11  C   UNL     1      -2.491 -12.589  28.090  1.00  0.00     0.087 C 
BRANCH  11  12
ATOM     12  C   UNL     1      -3.849 -13.023  28.707  1.00  0.00     0.066 C 
BRANCH  12  13
ATOM     13  C   UNL     1      -4.412 -11.946  29.626  1.00  0.00     0.140 C 
ATOM     14  O   UNL     1      -4.991 -10.980  29.148  1.00  0.00    -0.299 OA
BRANCH  13  15
ATOM     15  C   UNL     1      -4.328 -12.082  31.127  1.00  0.00     0.106 CG0
ATOM     16  G   UNL     1      -4.090 -13.521  31.561  1.00  0.00     0.000 G0
ENDBRANCH  13  15
ENDBRANCH  12  13
BRANCH  12  17
ATOM     17  C   UNL     1      -4.870 -13.461  27.613  1.00  0.00    -0.006 C 
ATOM     18  C   UNL     1      -5.940 -14.449  28.111  1.00  0.00     0.008 C 
ATOM     19  C   UNL     1      -4.161 -14.030  26.374  1.00  0.00     0.008 C 
ENDBRANCH  12  17
ENDBRANCH  11  12
ENDBRANCH   1  11
TORSDOF 1
ENDMDL
MODEL 4
REMARK VINA RESULT:    -4.050      1.663      2.448
REMARK INTER + INTRA:          -5.945
REMARK INTER:                  -5.813
REMARK INTRA:                  -0.131
REMARK UNBOUND:                 0.235
REMARK SMILES CC1=CCC[C@H](C)C(=O)C[C@H](C(C)C)C(=O)C1
REMARK SMILES IDX 8 1 9 2 6 3 7 4 5 5 4 6 3 7 2 8 1 9 10 11 11 12 15 13 16 14
REMARK SMILES IDX 17 15 12 17 13 18 14 19
REMARK H PARENT
REMARK Flexibility Score: 70.00
ROOT
ATOM      1  C   UNL     1      -4.785 -12.575  29.417  1.00  0.00     0.136 C 
ATOM      2  O   UNL     1      -5.183 -13.673  29.054  1.00  0.00    -0.299 OA
ENDROOT
BRANCH   1   3
ATOM      3  C   UNL     1      -4.852 -11.415  28.439  1.00  0.00     0.053 C 
ATOM      4  C   UNL     1      -4.827 -10.075  29.181  1.00  0.00     0.016 C 
BRANCH   3   5
ATOM      5  C   UNL     1      -3.724 -11.490  27.392  1.00  0.00     0.015 C 
BRANCH   5   6
ATOM      6  C   UNL     1      -2.337 -11.265  28.021  1.00  0.00     0.028 C 
BRANCH   6   7
ATOM      7  C   UNL     1      -1.560 -12.555  28.069  1.00  0.00    -0.028 C 
ATOM      8  C   UNL     1      -1.069 -13.113  29.200  1.00  0.00    -0.070 CG0
ATOM      9  C   UNL     1      -0.252 -14.374  29.069  1.00  0.00     0.039 C 
ATOM     10  G   UNL     1      -1.321 -12.537  30.585  1.00  0.00     0.000 G0
ENDBRANCH   6   7
ENDBRANCH   5   6
ENDBRANCH   3   5
ENDBRANCH   1   3
BRANCH   1  11
ATOM     11  C   UNL     1      -4.275 -12.418  30.832  1.00  0.00     0.087 C 
BRANCH  11  12
ATOM     12  C   UNL     1      -3.563 -13.699  31.345  1.00  0.00     0.066 C 
BRANCH  12  13
ATOM     13  C   UNL     1      -2.063 -13.478  31.502  1.00  0.00     0.140 C 
ATOM     14  O   UNL     1      -1.438 -14.117  32.336  1.00  0.00    -0.299 OA
BRANCH  13  15
ATOM     15  C   UNL     1      -1.319 -12.528  30.595  1.00  0.00     0.106 CG0
ATOM     16  G   UNL     1      -1.085 -13.118  29.212  1.00  0.00     0.000 G0
ENDBRANCH  13  15
ENDBRANCH  12  13
BRANCH  12  17
ATOM     17  C   UNL     1      -4.219 -14.245  32.650  1.00  0.00    -0.006 C 
ATOM     18  C   UNL     1      -5.231 -15.381  32.417  1.00  0.00     0.008 C 
ATOM     19  C   UNL     1      -4.869 -13.118  33.469  1.00  0.00     0.008 C 
ENDBRANCH  12  17
ENDBRANCH  11  12
ENDBRANCH   1  11
TORSDOF 1
ENDMDL
MODEL 5
REMARK VINA RESULT:    -3.937      1.930      3.646
REMARK INTER + INTRA:          -5.774
REMARK INTER:                  -6.069
REMARK INTRA:                   0.295
REMARK UNBOUND:                 0.235
REMARK SMILES CC1=CCC[C@H](C)C(=O)C[C@H](C(C)C)C(=O)C1
REMARK SMILES IDX 8 1 9 2 6 3 7 4 5 5 4 6 3 7 2 8 1 9 10 11 11 12 15 13 16 14
REMARK SMILES IDX 17 15 12 17 13 18 14 19
REMARK H PARENT
REMARK Flexibility Score: 70.00
ROOT
ATOM      1  C   UNL     1      -4.319 -10.829  29.688  1.00  0.00     0.136 C 
ATOM      2  O   UNL     1      -4.507  -9.947  28.862  1.00  0.00    -0.299 OA
ENDROOT
BRANCH   1   3
ATOM      3  C   UNL     1      -3.589 -10.482  30.973  1.00  0.00     0.053 C 
ATOM      4  C   UNL     1      -4.031 -11.400  32.116  1.00  0.00     0.016 C 
BRANCH   3   5
ATOM      5  C   UNL     1      -2.060 -10.528  30.786  1.00  0.00     0.015 C 
BRANCH   5   6
ATOM      6  C   UNL     1      -1.438 -11.786  31.419  1.00  0.00     0.028 C 
BRANCH   6   7
ATOM      7  C   UNL     1      -0.383 -12.369  30.516  1.00  0.00    -0.028 C 
ATOM      8  C   UNL     1      -0.620 -13.290  29.553  1.00  0.00    -0.070 CG0
ATOM      9  C   UNL     1       0.559 -13.825  28.779  1.00  0.00     0.039 C 
ATOM     10  G   UNL     1      -2.016 -13.788  29.210  1.00  0.00     0.000 G0
ENDBRANCH   6   7
ENDBRANCH   5   6
ENDBRANCH   3   5
ENDBRANCH   1   3
BRANCH   1  11
ATOM     11  C   UNL     1      -4.852 -12.216  29.404  1.00  0.00     0.087 C 
BRANCH  11  12
ATOM     12  C   UNL     1      -4.240 -12.828  28.115  1.00  0.00     0.066 C 
BRANCH  12  13
ATOM     13  C   UNL     1      -2.720 -12.896  28.198  1.00  0.00     0.140 C 
ATOM     14  O   UNL     1      -2.039 -12.188  27.470  1.00  0.00    -0.299 OA
BRANCH  13  15
ATOM     15  C   UNL     1      -2.036 -13.777  29.215  1.00  0.00     0.106 CG0
ATOM     16  G   UNL     1      -0.624 -13.303  29.529  1.00  0.00     0.000 G0
ENDBRANCH  13  15
ENDBRANCH  12  13
BRANCH  12  17
ATOM     17  C   UNL     1      -4.876 -14.210  27.770  1.00  0.00    -0.006 C 
ATOM     18  C   UNL     1      -4.914 -14.527  26.265  1.00  0.00     0.008 C 
ATOM     19  C   UNL     1      -6.281 -14.352  28.376  1.00  0.00     0.008 C 
ENDBRANCH  12  17
ENDBRANCH  11  12
ENDBRANCH   1  11
TORSDOF 1
ENDMDL
MODEL 6
REMARK VINA RESULT:    -3.853      1.466      3.902
REMARK INTER + INTRA:          -5.645
REMARK INTER:                  -6.246
REMARK INTRA:                   0.602
REMARK UNBOUND:                 0.235
REMARK SMILES CC1=CCC[C@H](C)C(=O)C[C@H](C(C)C)C(=O)C1
REMARK SMILES IDX 8 1 9 2 6 3 7 4 5 5 4 6 3 7 2 8 1 9 10 11 11 12 15 13 16 14
REMARK SMILES IDX 17 15 12 17 13 18 14 19
REMARK H PARENT
REMARK Flexibility Score: 70.00
ROOT
ATOM      1  C   UNL     1      -4.309 -12.485  30.768  1.00  0.00     0.136 C 
ATOM      2  O   UNL     1      -4.375 -11.269  30.875  1.00  0.00    -0.299 OA
ENDROOT
BRANCH   1   3
ATOM      3  C   UNL     1      -3.978 -13.309  32.000  1.00  0.00     0.053 C 
ATOM      4  C   UNL     1      -5.012 -14.422  32.204  1.00  0.00     0.016 C 
BRANCH   3   5
ATOM      5  C   UNL     1      -2.551 -13.885  31.930  1.00  0.00     0.015 C 
BRANCH   5   6
ATOM      6  C   UNL     1      -1.485 -12.777  31.853  1.00  0.00     0.028 C 
BRANCH   6   7
ATOM      7  C   UNL     1      -0.298 -13.238  31.046  1.00  0.00    -0.028 C 
ATOM      8  C   UNL     1      -0.148 -13.036  29.717  1.00  0.00    -0.070 CG0
ATOM      9  C   UNL     1       1.068 -13.621  29.044  1.00  0.00     0.039 C 
ATOM     10  G   UNL     1      -1.138 -12.234  28.885  1.00  0.00     0.000 G0
ENDBRANCH   6   7
ENDBRANCH   5   6
ENDBRANCH   3   5
ENDBRANCH   1   3
BRANCH   1  11
ATOM     11  C   UNL     1      -4.591 -13.112  29.420  1.00  0.00     0.087 C 
BRANCH  11  12
ATOM     12  C   UNL     1      -3.683 -12.534  28.301  1.00  0.00     0.066 C 
BRANCH  12  13
ATOM     13  C   UNL     1      -2.269 -13.097  28.386  1.00  0.00     0.140 C 
ATOM     14  O   UNL     1      -2.044 -14.236  28.002  1.00  0.00    -0.299 OA
BRANCH  13  15
ATOM     15  C   UNL     1      -1.122 -12.247  28.876  1.00  0.00     0.106 CG0
ATOM     16  G   UNL     1      -0.141 -13.041  29.725  1.00  0.00     0.000 G0
ENDBRANCH  13  15
ENDBRANCH  12  13
BRANCH  12  17
ATOM     17  C   UNL     1      -4.311 -12.725  26.887  1.00  0.00    -0.006 C 
ATOM     18  C   UNL     1      -4.551 -14.195  26.498  1.00  0.00     0.008 C 
ATOM     19  C   UNL     1      -3.484 -12.019  25.801  1.00  0.00     0.008 C 
ENDBRANCH  12  17
ENDBRANCH  11  12
ENDBRANCH   1  11
TORSDOF 1
ENDMDL
MODEL 7
REMARK VINA RESULT:    -3.756      1.888      4.292
REMARK INTER + INTRA:          -5.496
REMARK INTER:                  -6.883
REMARK INTRA:                   1.387
REMARK UNBOUND:                 0.235
REMARK SMILES CC1=CCC[C@H](C)C(=O)C[C@H](C(C)C)C(=O)C1
REMARK SMILES IDX 8 1 9 2 6 3 7 4 5 5 4 6 3 7 2 8 1 9 10 11 11 12 15 13 16 14
REMARK SMILES IDX 17 15 12 17 13 18 14 19
REMARK H PARENT
REMARK Flexibility Score: 70.00
ROOT
ATOM      1  C   UNL     1      -3.814 -13.030  31.805  1.00  0.00     0.136 C 
ATOM      2  O   UNL     1      -4.485 -12.148  32.321  1.00  0.00    -0.299 OA
ENDROOT
BRANCH   1   3
ATOM      3  C   UNL     1      -4.505 -14.304  31.356  1.00  0.00     0.053 C 
ATOM      4  C   UNL     1      -5.354 -14.892  32.489  1.00  0.00     0.016 C 
BRANCH   3   5
ATOM      5  C   UNL     1      -5.354 -14.074  30.091  1.00  0.00     0.015 C 
BRANCH   5   6
ATOM      6  C   UNL     1      -5.218 -12.636  29.559  1.00  0.00     0.028 C 
BRANCH   6   7
ATOM      7  C   UNL     1      -4.471 -12.622  28.250  1.00  0.00    -0.028 C 
ATOM      8  C   UNL     1      -3.605 -11.654  27.871  1.00  0.00    -0.070 CG0
ATOM      9  C   UNL     1      -2.990 -11.752  26.497  1.00  0.00     0.039 C 
ATOM     10  G   UNL     1      -3.217 -10.491  28.772  1.00  0.00     0.000 G0
ENDBRANCH   6   7
ENDBRANCH   5   6
ENDBRANCH   3   5
ENDBRANCH   1   3
BRANCH   1  11
ATOM     11  C   UNL     1      -2.332 -12.795  31.611  1.00  0.00     0.087 C 
BRANCH  11  12
ATOM     12  C   UNL     1      -1.990 -12.363  30.160  1.00  0.00     0.066 C 
BRANCH  12  13
ATOM     13  C   UNL     1      -2.333 -10.898  29.920  1.00  0.00     0.140 C 
ATOM     14  O   UNL     1      -1.836 -10.033  30.627  1.00  0.00    -0.299 OA
BRANCH  13  15
ATOM     15  C   UNL     1      -3.228 -10.486  28.776  1.00  0.00     0.106 CG0
ATOM     16  G   UNL     1      -3.604 -11.663  27.888  1.00  0.00     0.000 G0
ENDBRANCH  13  15
ENDBRANCH  12  13
BRANCH  12  17
ATOM     17  C   UNL     1      -0.512 -12.693  29.789  1.00  0.00    -0.006 C 
ATOM     18  C   UNL     1      -0.352 -13.915  28.867  1.00  0.00     0.008 C 
ATOM     19  C   UNL     1       0.362 -12.859  31.043  1.00  0.00     0.008 C 
ENDBRANCH  12  17
ENDBRANCH  11  12
ENDBRANCH   1  11
TORSDOF 1
ENDMDL
MODEL 8
REMARK VINA RESULT:    -3.745      1.978      3.283
REMARK INTER + INTRA:          -5.480
REMARK INTER:                  -5.782
REMARK INTRA:                   0.302
REMARK UNBOUND:                 0.235
REMARK SMILES CC1=CCC[C@H](C)C(=O)C[C@H](C(C)C)C(=O)C1
REMARK SMILES IDX 8 1 9 2 6 3 7 4 5 5 4 6 3 7 2 8 1 9 10 11 11 12 15 13 16 14
REMARK SMILES IDX 17 15 12 17 13 18 14 19
REMARK H PARENT
REMARK Flexibility Score: 70.00
ROOT
ATOM      1  C   UNL     1      -1.152 -13.190  31.091  1.00  0.00     0.136 C 
ATOM      2  O   UNL     1      -0.441 -12.791  32.003  1.00  0.00    -0.299 OA
ENDROOT
BRANCH   1   3
ATOM      3  C   UNL     1      -0.666 -13.028  29.662  1.00  0.00     0.053 C 
ATOM      4  C   UNL     1       0.865 -12.992  29.609  1.00  0.00     0.016 C 
BRANCH   3   5
ATOM      5  C   UNL     1      -1.226 -14.132  28.744  1.00  0.00     0.015 C 
BRANCH   5   6
ATOM      6  C   UNL     1      -2.551 -13.715  28.082  1.00  0.00     0.028 C 
BRANCH   6   7
ATOM      7  C   UNL     1      -2.614 -12.219  27.915  1.00  0.00    -0.028 C 
ATOM      8  C   UNL     1      -3.423 -11.400  28.626  1.00  0.00    -0.070 CG0
ATOM      9  C   UNL     1      -3.416  -9.930  28.290  1.00  0.00     0.039 C 
ATOM     10  G   UNL     1      -4.317 -11.896  29.754  1.00  0.00     0.000 G0
ENDBRANCH   6   7
ENDBRANCH   5   6
ENDBRANCH   3   5
ENDBRANCH   1   3
BRANCH   1  11
ATOM     11  C   UNL     1      -2.469 -13.852  31.434  1.00  0.00     0.087 C 
BRANCH  11  12
ATOM     12  C   UNL     1      -3.486 -12.855  32.052  1.00  0.00     0.066 C 
BRANCH  12  13
ATOM     13  C   UNL     1      -3.750 -11.679  31.119  1.00  0.00     0.140 C 
ATOM     14  O   UNL     1      -3.439 -10.548  31.463  1.00  0.00    -0.299 OA
BRANCH  13  15
ATOM     15  C   UNL     1      -4.331 -11.894  29.743  1.00  0.00     0.106 CG0
ATOM     16  G   UNL     1      -3.397 -11.412  28.643  1.00  0.00     0.000 G0
ENDBRANCH  13  15
ENDBRANCH  12  13
BRANCH  12  17
ATOM     17  C   UNL     1      -4.801 -13.566  32.494  1.00  0.00    -0.006 C 
ATOM     18  C   UNL     1      -5.252 -13.223  33.925  1.00  0.00     0.008 C 
ATOM     19  C   UNL     1      -4.704 -15.091  32.322  1.00  0.00     0.008 C 
ENDBRANCH  12  17
ENDBRANCH  11  12
ENDBRANCH   1  11
TORSDOF 1
ENDMDL
MODEL 9
REMARK VINA RESULT:    -3.743      2.105      4.318
REMARK INTER + INTRA:          -5.477
REMARK INTER:                  -5.780
REMARK INTRA:                   0.303
REMARK UNBOUND:                 0.235
REMARK SMILES CC1=CCC[C@H](C)C(=O)C[C@H](C(C)C)C(=O)C1
REMARK SMILES IDX 8 1 9 2 6 3 7 4 5 5 4 6 3 7 2 8 1 9 10 11 11 12 15 13 16 14
REMARK SMILES IDX 17 15 12 17 13 18 14 19
REMARK H PARENT
REMARK Flexibility Score: 70.00
ROOT
ATOM      1  C   UNL     1      -3.194 -14.269  32.090  1.00  0.00     0.136 C 
ATOM      2  O   UNL     1      -3.262 -15.152  32.934  1.00  0.00    -0.299 OA
ENDROOT
BRANCH   1   3
ATOM      3  C   UNL     1      -4.459 -13.517  31.717  1.00  0.00     0.053 C 
ATOM      4  C   UNL     1      -5.594 -14.492  31.385  1.00  0.00     0.016 C 
BRANCH   3   5
ATOM      5  C   UNL     1      -4.882 -12.532  32.824  1.00  0.00     0.015 C 
BRANCH   5   6
ATOM      6  C   UNL     1      -4.404 -11.098  32.534  1.00  0.00     0.028 C 
BRANCH   6   7
ATOM      7  C   UNL     1      -4.491 -10.798  31.060  1.00  0.00    -0.028 C 
ATOM      8  C   UNL     1      -3.455 -10.372  30.301  1.00  0.00    -0.070 CG0
ATOM      9  C   UNL     1      -3.724 -10.049  28.852  1.00  0.00     0.039 C 
ATOM     10  G   UNL     1      -2.040 -10.224  30.840  1.00  0.00     0.000 G0
ENDBRANCH   6   7
ENDBRANCH   5   6
ENDBRANCH   3   5
ENDBRANCH   1   3
BRANCH   1  11
ATOM     11  C   UNL     1      -1.847 -13.948  31.482  1.00  0.00     0.087 C 
BRANCH  11  12
ATOM     12  C   UNL     1      -1.937 -12.829  30.409  1.00  0.00     0.066 C 
BRANCH  12  13
ATOM     13  C   UNL     1      -1.290 -11.539  30.895  1.00  0.00     0.140 C 
ATOM     14  O   UNL     1      -0.141 -11.554  31.313  1.00  0.00    -0.299 OA
BRANCH  13  15
ATOM     15  C   UNL     1      -2.021 -10.221  30.807  1.00  0.00     0.106 CG0
ATOM     16  G   UNL     1      -3.448 -10.388  30.305  1.00  0.00     0.000 G0
ENDBRANCH  13  15
ENDBRANCH  12  13
BRANCH  12  17
ATOM     17  C   UNL     1      -1.368 -13.296  29.035  1.00  0.00    -0.006 C 
ATOM     18  C   UNL     1      -2.419 -13.914  28.096  1.00  0.00     0.008 C 
ATOM     19  C   UNL     1      -0.184 -14.261  29.212  1.00  0.00     0.008 C 
ENDBRANCH  12  17
ENDBRANCH  11  12
ENDBRANCH   1  11
TORSDOF 1
ENDMDL
