MODEL 1
REMARK VINA RESULT:    -5.173      0.000      0.000
REMARK INTER + INTRA:          -6.209
REMARK INTER:                  -6.080
REMARK INTRA:                  -0.129
REMARK UNBOUND:                -0.129
REMARK SMILES O=C([O-])C=Cc1ccc(O)c(O)c1
REMARK SMILES IDX 6 1 13 2 7 3 11 4 8 5 9 6 5 7 4 8 2 9 1 10 3 11 12 12 10 14
REMARK H PARENT 12 13 10 15
REMARK Flexibility Score: inf
ROOT
ATOM      1  C   UNL     1       9.572  -4.512  19.411  1.00  0.00    -0.022 A 
ATOM      2  C   UNL     1       9.963  -5.844  19.633  1.00  0.00     0.058 A 
ATOM      3  C   UNL     1       8.201  -4.191  19.454  1.00  0.00     0.012 A 
ATOM      4  C   UNL     1       9.010  -6.842  19.867  1.00  0.00     0.157 A 
ATOM      5  C   UNL     1       7.248  -5.185  19.688  1.00  0.00     0.051 A 
ATOM      6  C   UNL     1       7.645  -6.512  19.893  1.00  0.00     0.157 A 
ENDROOT
BRANCH   1   7
ATOM      7  C   UNL     1      10.625  -3.493  19.177  1.00  0.00     0.010 C 
ATOM      8  C   UNL     1      10.621  -2.642  18.140  1.00  0.00     0.025 C 
BRANCH   8   9
ATOM      9  C   UNL     1      11.691  -1.651  17.934  1.00  0.00     0.064 C 
ATOM     10  O   UNL     1      12.905  -1.984  17.973  1.00  0.00    -0.545 OA
ATOM     11  O   UNL     1      11.355  -0.325  17.694  1.00  0.00    -0.545 OA
ENDBRANCH   8   9
ENDBRANCH   1   7
BRANCH   4  12
ATOM     12  O   UNL     1       9.438  -8.153  20.072  1.00  0.00    -0.504 OA
ATOM     13  H   UNL     1      10.290  -8.369  20.575  1.00  0.00     0.293 HD
ENDBRANCH   4  12
BRANCH   6  14
ATOM     14  O   UNL     1       6.691  -7.502  20.125  1.00  0.00    -0.504 OA
ATOM     15  H   UNL     1       6.177  -7.932  19.364  1.00  0.00     0.293 HD
ENDBRANCH   6  14
TORSDOF 4
ENDMDL
MODEL 2
REMARK VINA RESULT:    -4.994      1.669      6.092
REMARK INTER + INTRA:          -6.000
REMARK INTER:                  -5.858
REMARK INTRA:                  -0.142
REMARK UNBOUND:                -0.129
REMARK SMILES O=C([O-])C=Cc1ccc(O)c(O)c1
REMARK SMILES IDX 6 1 13 2 7 3 11 4 8 5 9 6 5 7 4 8 2 9 1 10 3 11 12 12 10 14
REMARK H PARENT 12 13 10 15
REMARK Flexibility Score: inf
ROOT
ATOM      1  C   UNL     1       9.085  -3.281  18.596  1.00  0.00    -0.022 A 
ATOM      2  C   UNL     1       8.178  -2.271  18.234  1.00  0.00     0.058 A 
ATOM      3  C   UNL     1      10.463  -2.985  18.607  1.00  0.00     0.012 A 
ATOM      4  C   UNL     1       8.630  -0.999  17.864  1.00  0.00     0.157 A 
ATOM      5  C   UNL     1      10.916  -1.716  18.238  1.00  0.00     0.051 A 
ATOM      6  C   UNL     1      10.006  -0.719  17.864  1.00  0.00     0.157 A 
ENDROOT
BRANCH   1   7
ATOM      7  C   UNL     1       8.550  -4.608  18.989  1.00  0.00     0.010 C 
ATOM      8  C   UNL     1       9.316  -5.625  19.410  1.00  0.00     0.025 C 
BRANCH   8   9
ATOM      9  C   UNL     1       8.751  -6.934  19.781  1.00  0.00     0.064 C 
ATOM     10  O   UNL     1       7.506  -7.126  19.793  1.00  0.00    -0.545 OA
ATOM     11  O   UNL     1       9.604  -7.973  20.125  1.00  0.00    -0.545 OA
ENDBRANCH   8   9
ENDBRANCH   1   7
BRANCH   4  12
ATOM     12  O   UNL     1       7.697  -0.028  17.501  1.00  0.00    -0.504 OA
ATOM     13  H   UNL     1       7.821   0.951  17.730  1.00  0.00     0.293 HD
ENDBRANCH   4  12
BRANCH   6  14
ATOM     14  O   UNL     1      10.462   0.545  17.495  1.00  0.00    -0.504 OA
ATOM     15  H   UNL     1      10.921   0.705  16.605  1.00  0.00     0.293 HD
ENDBRANCH   6  14
TORSDOF 4
ENDMDL
MODEL 3
REMARK VINA RESULT:    -4.977      1.199      5.792
REMARK INTER + INTRA:          -5.979
REMARK INTER:                  -5.846
REMARK INTRA:                  -0.133
REMARK UNBOUND:                -0.129
REMARK SMILES O=C([O-])C=Cc1ccc(O)c(O)c1
REMARK SMILES IDX 6 1 13 2 7 3 11 4 8 5 9 6 5 7 4 8 2 9 1 10 3 11 12 12 10 14
REMARK H PARENT 12 13 10 15
REMARK Flexibility Score: inf
ROOT
ATOM      1  C   UNL     1       9.335  -3.153  18.607  1.00  0.00    -0.022 A 
ATOM      2  C   UNL     1      10.687  -3.100  18.227  1.00  0.00     0.058 A 
ATOM      3  C   UNL     1       8.579  -1.964  18.594  1.00  0.00     0.012 A 
ATOM      4  C   UNL     1      11.284  -1.887  17.866  1.00  0.00     0.157 A 
ATOM      5  C   UNL     1       9.174  -0.752  18.234  1.00  0.00     0.051 A 
ATOM      6  C   UNL     1      10.525  -0.706  17.870  1.00  0.00     0.157 A 
ENDROOT
BRANCH   1   7
ATOM      7  C   UNL     1       8.751  -4.468  18.972  1.00  0.00     0.010 C 
ATOM      8  C   UNL     1       9.473  -5.505  19.421  1.00  0.00     0.025 C 
BRANCH   8   9
ATOM      9  C   UNL     1       8.859  -6.800  19.762  1.00  0.00     0.064 C 
ATOM     10  O   UNL     1       9.567  -7.796  20.069  1.00  0.00    -0.545 OA
ATOM     11  O   UNL     1       7.477  -6.926  19.742  1.00  0.00    -0.545 OA
ENDBRANCH   8   9
ENDBRANCH   1   7
BRANCH   4  12
ATOM     12  O   UNL     1      12.631  -1.876  17.504  1.00  0.00    -0.504 OA
ATOM     13  H   UNL     1      13.323  -1.346  18.020  1.00  0.00     0.293 HD
ENDBRANCH   4  12
BRANCH   6  14
ATOM     14  O   UNL     1      11.114   0.506  17.512  1.00  0.00    -0.504 OA
ATOM     15  H   UNL     1      12.098   0.686  17.676  1.00  0.00     0.293 HD
ENDBRANCH   6  14
TORSDOF 4
ENDMDL
MODEL 4
REMARK VINA RESULT:    -4.967      1.206      2.348
REMARK INTER + INTRA:          -5.968
REMARK INTER:                  -5.841
REMARK INTRA:                  -0.127
REMARK UNBOUND:                -0.129
REMARK SMILES O=C([O-])C=Cc1ccc(O)c(O)c1
REMARK SMILES IDX 6 1 13 2 7 3 11 4 8 5 9 6 5 7 4 8 2 9 1 10 3 11 12 12 10 14
REMARK H PARENT 12 13 10 15
REMARK Flexibility Score: inf
ROOT
ATOM      1  C   UNL     1       9.562  -4.292  19.484  1.00  0.00    -0.022 A 
ATOM      2  C   UNL     1       8.408  -5.069  19.286  1.00  0.00     0.058 A 
ATOM      3  C   UNL     1      10.753  -4.934  19.879  1.00  0.00     0.012 A 
ATOM      4  C   UNL     1       8.428  -6.452  19.501  1.00  0.00     0.157 A 
ATOM      5  C   UNL     1      10.775  -6.314  20.093  1.00  0.00     0.051 A 
ATOM      6  C   UNL     1       9.617  -7.079  19.908  1.00  0.00     0.157 A 
ENDROOT
BRANCH   1   7
ATOM      7  C   UNL     1       9.486  -2.832  19.232  1.00  0.00     0.010 C 
ATOM      8  C   UNL     1       9.982  -2.238  18.137  1.00  0.00     0.025 C 
BRANCH   8   9
ATOM      9  C   UNL     1       9.899  -0.782  17.927  1.00  0.00     0.064 C 
ATOM     10  O   UNL     1       8.786  -0.197  17.853  1.00  0.00    -0.545 OA
ATOM     11  O   UNL     1      11.068  -0.043  17.806  1.00  0.00    -0.545 OA
ENDBRANCH   8   9
ENDBRANCH   1   7
BRANCH   4  12
ATOM     12  O   UNL     1       7.259  -7.186  19.303  1.00  0.00    -0.504 OA
ATOM     13  H   UNL     1       7.129  -8.110  19.695  1.00  0.00     0.293 HD
ENDBRANCH   4  12
BRANCH   6  14
ATOM     14  O   UNL     1       9.643  -8.456  20.125  1.00  0.00    -0.504 OA
ATOM     15  H   UNL     1      10.412  -8.901  20.613  1.00  0.00     0.293 HD
ENDBRANCH   6  14
TORSDOF 4
ENDMDL
MODEL 5
REMARK VINA RESULT:    -4.949     11.627     14.748
REMARK INTER + INTRA:          -5.946
REMARK INTER:                  -5.815
REMARK INTRA:                  -0.132
REMARK UNBOUND:                -0.129
REMARK SMILES O=C([O-])C=Cc1ccc(O)c(O)c1
REMARK SMILES IDX 6 1 13 2 7 3 11 4 8 5 9 6 5 7 4 8 2 9 1 10 3 11 12 12 10 14
REMARK H PARENT 12 13 10 15
REMARK Flexibility Score: inf
ROOT
ATOM      1  C   UNL     1       6.621   5.566  10.386  1.00  0.00    -0.022 A 
ATOM      2  C   UNL     1       7.379   6.477  11.142  1.00  0.00     0.058 A 
ATOM      3  C   UNL     1       5.877   6.048   9.290  1.00  0.00     0.012 A 
ATOM      4  C   UNL     1       7.378   7.842  10.834  1.00  0.00     0.157 A 
ATOM      5  C   UNL     1       5.875   7.410   8.980  1.00  0.00     0.051 A 
ATOM      6  C   UNL     1       6.622   8.313   9.748  1.00  0.00     0.157 A 
ENDROOT
BRANCH   1   7
ATOM      7  C   UNL     1       6.666   4.129  10.751  1.00  0.00     0.010 C 
ATOM      8  C   UNL     1       7.011   3.154   9.898  1.00  0.00     0.025 C 
BRANCH   8   9
ATOM      9  C   UNL     1       7.033   1.735  10.293  1.00  0.00     0.064 C 
ATOM     10  O   UNL     1       6.341   0.877   9.684  1.00  0.00    -0.545 OA
ATOM     11  O   UNL     1       7.830   1.336  11.359  1.00  0.00    -0.545 OA
ENDBRANCH   8   9
ENDBRANCH   1   7
BRANCH   4  12
ATOM     12  O   UNL     1       8.135   8.713  11.615  1.00  0.00    -0.504 OA
ATOM     13  H   UNL     1       8.370   9.649  11.307  1.00  0.00     0.293 HD
ENDBRANCH   4  12
BRANCH   6  14
ATOM     14  O   UNL     1       6.616   9.671   9.437  1.00  0.00    -0.504 OA
ATOM     15  H   UNL     1       6.190  10.019   8.585  1.00  0.00     0.293 HD
ENDBRANCH   6  14
TORSDOF 4
ENDMDL
MODEL 6
REMARK VINA RESULT:    -4.826      2.115      5.689
REMARK INTER + INTRA:          -5.802
REMARK INTER:                  -5.661
REMARK INTRA:                  -0.140
REMARK UNBOUND:                -0.129
REMARK SMILES O=C([O-])C=Cc1ccc(O)c(O)c1
REMARK SMILES IDX 6 1 13 2 7 3 11 4 8 5 9 6 5 7 4 8 2 9 1 10 3 11 12 12 10 14
REMARK H PARENT 12 13 10 15
REMARK Flexibility Score: inf
ROOT
ATOM      1  C   UNL     1       8.990  -3.032  18.597  1.00  0.00    -0.022 A 
ATOM      2  C   UNL     1       9.847  -1.999  18.181  1.00  0.00     0.058 A 
ATOM      3  C   UNL     1       7.599  -2.804  18.590  1.00  0.00     0.012 A 
ATOM      4  C   UNL     1       9.336  -0.755  17.791  1.00  0.00     0.157 A 
ATOM      5  C   UNL     1       7.087  -1.564  18.201  1.00  0.00     0.051 A 
ATOM      6  C   UNL     1       7.950  -0.535  17.802  1.00  0.00     0.157 A 
ENDROOT
BRANCH   1   7
ATOM      7  C   UNL     1       9.585  -4.333  18.991  1.00  0.00     0.010 C 
ATOM      8  C   UNL     1       8.862  -5.412  19.326  1.00  0.00     0.025 C 
BRANCH   8   9
ATOM      9  C   UNL     1       9.488  -6.685  19.723  1.00  0.00     0.064 C 
ATOM     10  O   UNL     1       8.826  -7.756  19.752  1.00  0.00    -0.545 OA
ATOM     11  O   UNL     1      10.831  -6.704  20.073  1.00  0.00    -0.545 OA
ENDBRANCH   8   9
ENDBRANCH   1   7
BRANCH   4  12
ATOM     12  O   UNL     1      10.221   0.247  17.395  1.00  0.00    -0.504 OA
ATOM     13  H   UNL     1      11.180   0.279  17.721  1.00  0.00     0.293 HD
ENDBRANCH   4  12
BRANCH   6  14
ATOM     14  O   UNL     1       7.434   0.701  17.416  1.00  0.00    -0.504 OA
ATOM     15  H   UNL     1       7.071   1.360  18.096  1.00  0.00     0.293 HD
ENDBRANCH   6  14
TORSDOF 4
ENDMDL
MODEL 7
REMARK VINA RESULT:    -4.824      0.844      1.913
REMARK INTER + INTRA:          -5.799
REMARK INTER:                  -5.673
REMARK INTRA:                  -0.126
REMARK UNBOUND:                -0.129
REMARK SMILES O=C([O-])C=Cc1ccc(O)c(O)c1
REMARK SMILES IDX 6 1 13 2 7 3 11 4 8 5 9 6 5 7 4 8 2 9 1 10 3 11 12 12 10 14
REMARK H PARENT 12 13 10 15
REMARK Flexibility Score: inf
ROOT
ATOM      1  C   UNL     1       9.760  -4.644  19.616  1.00  0.00    -0.022 A 
ATOM      2  C   UNL     1       8.410  -4.258  19.670  1.00  0.00     0.058 A 
ATOM      3  C   UNL     1      10.079  -6.013  19.712  1.00  0.00     0.012 A 
ATOM      4  C   UNL     1       7.398  -5.208  19.842  1.00  0.00     0.157 A 
ATOM      5  C   UNL     1       9.070  -6.964  19.884  1.00  0.00     0.051 A 
ATOM      6  C   UNL     1       7.728  -6.568  19.952  1.00  0.00     0.157 A 
ENDROOT
BRANCH   1   7
ATOM      7  C   UNL     1      10.792  -3.595  19.422  1.00  0.00     0.010 C 
ATOM      8  C   UNL     1      11.017  -2.979  18.252  1.00  0.00     0.025 C 
BRANCH   8   9
ATOM      9  C   UNL     1      12.059  -1.950  18.095  1.00  0.00     0.064 C 
ATOM     10  O   UNL     1      13.281  -2.239  18.191  1.00  0.00    -0.545 OA
ATOM     11  O   UNL     1      11.688  -0.637  17.839  1.00  0.00    -0.545 OA
ENDBRANCH   8   9
ENDBRANCH   1   7
BRANCH   4  12
ATOM     12  O   UNL     1       6.071  -4.782  19.901  1.00  0.00    -0.504 OA
ATOM     13  H   UNL     1       5.348  -5.190  19.321  1.00  0.00     0.293 HD
ENDBRANCH   4  12
BRANCH   6  14
ATOM     14  O   UNL     1       6.724  -7.520  20.125  1.00  0.00    -0.504 OA
ATOM     15  H   UNL     1       5.941  -7.358  20.748  1.00  0.00     0.293 HD
ENDBRANCH   6  14
TORSDOF 4
ENDMDL
MODEL 8
REMARK VINA RESULT:    -4.550     11.593     13.935
REMARK INTER + INTRA:          -5.477
REMARK INTER:                  -5.342
REMARK INTRA:                  -0.135
REMARK UNBOUND:                -0.129
REMARK SMILES O=C([O-])C=Cc1ccc(O)c(O)c1
REMARK SMILES IDX 6 1 13 2 7 3 11 4 8 5 9 6 5 7 4 8 2 9 1 10 3 11 12 12 10 14
REMARK H PARENT 12 13 10 15
REMARK Flexibility Score: inf
ROOT
ATOM      1  C   UNL     1       6.685   5.447  10.478  1.00  0.00    -0.022 A 
ATOM      2  C   UNL     1       6.223   4.251   9.902  1.00  0.00     0.058 A 
ATOM      3  C   UNL     1       7.707   5.383  11.446  1.00  0.00     0.012 A 
ATOM      4  C   UNL     1       6.746   3.014  10.297  1.00  0.00     0.157 A 
ATOM      5  C   UNL     1       8.231   4.149  11.841  1.00  0.00     0.051 A 
ATOM      6  C   UNL     1       7.754   2.962  11.272  1.00  0.00     0.157 A 
ENDROOT
BRANCH   1   7
ATOM      7  C   UNL     1       6.101   6.730  10.016  1.00  0.00     0.010 C 
ATOM      8  C   UNL     1       6.784   7.883   9.963  1.00  0.00     0.025 C 
BRANCH   8   9
ATOM      9  C   UNL     1       6.168   9.141   9.509  1.00  0.00     0.064 C 
ATOM     10  O   UNL     1       5.896  10.065  10.321  1.00  0.00    -0.545 OA
ATOM     11  O   UNL     1       5.879   9.311   8.162  1.00  0.00    -0.545 OA
ENDBRANCH   8   9
ENDBRANCH   1   7
BRANCH   4  12
ATOM     12  O   UNL     1       6.253   1.851   9.707  1.00  0.00    -0.504 OA
ATOM     13  H   UNL     1       5.635   1.873   8.905  1.00  0.00     0.293 HD
ENDBRANCH   4  12
BRANCH   6  14
ATOM     14  O   UNL     1       8.279   1.733  11.670  1.00  0.00    -0.504 OA
ATOM     15  H   UNL     1       8.963   1.240  11.107  1.00  0.00     0.293 HD
ENDBRANCH   6  14
TORSDOF 4
ENDMDL
MODEL 9
REMARK VINA RESULT:    -4.469      3.189      4.468
REMARK INTER + INTRA:          -5.382
REMARK INTER:                  -5.243
REMARK INTRA:                  -0.139
REMARK UNBOUND:                -0.129
REMARK SMILES O=C([O-])C=Cc1ccc(O)c(O)c1
REMARK SMILES IDX 6 1 13 2 7 3 11 4 8 5 9 6 5 7 4 8 2 9 1 10 3 11 12 12 10 14
REMARK H PARENT 12 13 10 15
REMARK Flexibility Score: inf
ROOT
ATOM      1  C   UNL     1      10.148  -2.513  18.205  1.00  0.00    -0.022 A 
ATOM      2  C   UNL     1       9.618  -1.285  17.772  1.00  0.00     0.058 A 
ATOM      3  C   UNL     1       9.263  -3.569  18.497  1.00  0.00     0.012 A 
ATOM      4  C   UNL     1       8.235  -1.101  17.657  1.00  0.00     0.157 A 
ATOM      5  C   UNL     1       7.882  -3.387  18.382  1.00  0.00     0.051 A 
ATOM      6  C   UNL     1       7.362  -2.156  17.964  1.00  0.00     0.157 A 
ENDROOT
BRANCH   1   7
ATOM      7  C   UNL     1      11.622  -2.656  18.300  1.00  0.00     0.010 C 
ATOM      8  C   UNL     1      12.233  -3.654  18.956  1.00  0.00     0.025 C 
BRANCH   8   9
ATOM      9  C   UNL     1      13.700  -3.757  19.039  1.00  0.00     0.064 C 
ATOM     10  O   UNL     1      14.262  -4.853  19.303  1.00  0.00    -0.545 OA
ATOM     11  O   UNL     1      14.476  -2.626  18.825  1.00  0.00    -0.545 OA
ENDBRANCH   8   9
ENDBRANCH   1   7
BRANCH   4  12
ATOM     12  O   UNL     1       7.750   0.136  17.234  1.00  0.00    -0.504 OA
ATOM     13  H   UNL     1       8.095   0.594  16.399  1.00  0.00     0.293 HD
ENDBRANCH   4  12
BRANCH   6  14
ATOM     14  O   UNL     1       5.984  -1.979  17.853  1.00  0.00    -0.504 OA
ATOM     15  H   UNL     1       5.398  -2.656  17.377  1.00  0.00     0.293 HD
ENDBRANCH   6  14
TORSDOF 4
ENDMDL
