MODEL 1
REMARK VINA RESULT:    -4.149      0.000      0.000
REMARK INTER + INTRA:          -4.577
REMARK INTER:                  -4.513
REMARK INTRA:                  -0.064
REMARK UNBOUND:                -0.064
REMARK SMILES COc1cc2ccc(=O)oc2cc1O
REMARK SMILES IDX 3 1 13 2 12 3 11 4 5 5 4 6 6 7 7 8 8 9 9 10 10 11 2 12 1 13
REMARK SMILES IDX 14 14
REMARK H PARENT 14 15
REMARK Flexibility Score: inf
ROOT
ATOM      1  C   UNL     1      14.875 -17.080  19.732  1.00  0.00     0.161 A 
ATOM      2  C   UNL     1      14.630 -17.369  21.083  1.00  0.00     0.161 A 
ATOM      3  C   UNL     1      13.379 -17.859  21.486  1.00  0.00     0.098 A 
ATOM      4  C   UNL     1      12.367 -18.064  20.545  1.00  0.00     0.142 A 
ATOM      5  C   UNL     1      12.605 -17.775  19.186  1.00  0.00     0.022 A 
ATOM      6  C   UNL     1      13.855 -17.285  18.782  1.00  0.00     0.062 A 
ATOM      7  C   UNL     1      11.572 -17.991  18.268  1.00  0.00     0.019 A 
ATOM      8  C   UNL     1      10.346 -18.479  18.718  1.00  0.00     0.094 A 
ATOM      9  C   UNL     1      10.182 -18.743  20.083  1.00  0.00     0.336 A 
ATOM     10  O   UNL     1       9.084 -19.185  20.510  1.00  0.00    -0.246 OA
ATOM     11  O   UNL     1      11.182 -18.529  20.934  1.00  0.00    -0.423 OA
ENDROOT
BRANCH   1  12
ATOM     12  O   UNL     1      16.142 -16.591  19.374  1.00  0.00    -0.493 OA
ATOM     13  C   UNL     1      16.406 -15.251  18.971  1.00  0.00     0.278 C 
ENDBRANCH   1  12
BRANCH   2  14
ATOM     14  O   UNL     1      15.638 -17.166  22.024  1.00  0.00    -0.504 OA
ATOM     15  H   UNL     1      15.491 -16.589  22.845  1.00  0.00     0.293 HD
ENDBRANCH   2  14
TORSDOF 2
ENDMDL
MODEL 2
REMARK VINA RESULT:    -4.086      1.432      2.471
REMARK INTER + INTRA:          -4.508
REMARK INTER:                  -4.455
REMARK INTRA:                  -0.054
REMARK UNBOUND:                -0.064
REMARK SMILES COc1cc2ccc(=O)oc2cc1O
REMARK SMILES IDX 3 1 13 2 12 3 11 4 5 5 4 6 6 7 7 8 8 9 9 10 10 11 2 12 1 13
REMARK SMILES IDX 14 14
REMARK H PARENT 14 15
REMARK Flexibility Score: inf
ROOT
ATOM      1  C   UNL     1      15.431 -16.845  20.317  1.00  0.00     0.161 A 
ATOM      2  C   UNL     1      15.286 -16.720  18.927  1.00  0.00     0.161 A 
ATOM      3  C   UNL     1      14.073 -17.059  18.308  1.00  0.00     0.098 A 
ATOM      4  C   UNL     1      13.000 -17.524  19.072  1.00  0.00     0.142 A 
ATOM      5  C   UNL     1      13.138 -17.653  20.469  1.00  0.00     0.022 A 
ATOM      6  C   UNL     1      14.349 -17.314  21.088  1.00  0.00     0.062 A 
ATOM      7  C   UNL     1      12.045 -18.121  21.206  1.00  0.00     0.019 A 
ATOM      8  C   UNL     1      10.861 -18.445  20.545  1.00  0.00     0.094 A 
ATOM      9  C   UNL     1      10.797 -18.293  19.155  1.00  0.00     0.336 A 
ATOM     10  O   UNL     1       9.738 -18.579  18.540  1.00  0.00    -0.246 OA
ATOM     11  O   UNL     1      11.852 -17.844  18.479  1.00  0.00    -0.423 OA
ENDROOT
BRANCH   1  12
ATOM     12  O   UNL     1      16.662 -16.494  20.893  1.00  0.00    -0.493 OA
ATOM     13  C   UNL     1      17.364 -17.288  21.844  1.00  0.00     0.278 C 
ENDBRANCH   1  12
BRANCH   2  14
ATOM     14  O   UNL     1      16.355 -16.256  18.162  1.00  0.00    -0.504 OA
ATOM     15  H   UNL     1      16.232 -15.958  17.201  1.00  0.00     0.293 HD
ENDBRANCH   2  14
TORSDOF 2
ENDMDL
MODEL 3
REMARK VINA RESULT:    -4.062      1.581      4.677
REMARK INTER + INTRA:          -4.482
REMARK INTER:                  -4.418
REMARK INTRA:                  -0.065
REMARK UNBOUND:                -0.064
REMARK SMILES COc1cc2ccc(=O)oc2cc1O
REMARK SMILES IDX 3 1 13 2 12 3 11 4 5 5 4 6 6 7 7 8 8 9 9 10 10 11 2 12 1 13
REMARK SMILES IDX 14 14
REMARK H PARENT 14 15
REMARK Flexibility Score: inf
ROOT
ATOM      1  C   UNL     1      11.721 -17.997  18.830  1.00  0.00     0.161 A 
ATOM      2  C   UNL     1      11.305 -18.068  20.168  1.00  0.00     0.161 A 
ATOM      3  C   UNL     1      12.251 -18.092  21.203  1.00  0.00     0.098 A 
ATOM      4  C   UNL     1      13.616 -18.046  20.911  1.00  0.00     0.142 A 
ATOM      5  C   UNL     1      14.043 -17.976  19.568  1.00  0.00     0.022 A 
ATOM      6  C   UNL     1      13.098 -17.951  18.533  1.00  0.00     0.062 A 
ATOM      7  C   UNL     1      15.416 -17.930  19.307  1.00  0.00     0.019 A 
ATOM      8  C   UNL     1      16.317 -17.957  20.371  1.00  0.00     0.094 A 
ATOM      9  C   UNL     1      15.821 -18.028  21.678  1.00  0.00     0.336 A 
ATOM     10  O   UNL     1      16.616 -18.052  22.652  1.00  0.00    -0.246 OA
ATOM     11  O   UNL     1      14.509 -18.069  21.898  1.00  0.00    -0.423 OA
ENDROOT
BRANCH   1  12
ATOM     12  O   UNL     1      10.740 -17.975  17.826  1.00  0.00    -0.493 OA
ATOM     13  C   UNL     1      10.386 -16.823  17.068  1.00  0.00     0.278 C 
ENDBRANCH   1  12
BRANCH   2  14
ATOM     14  O   UNL     1       9.943 -18.114  20.463  1.00  0.00    -0.504 OA
ATOM     15  H   UNL     1       9.476 -18.986  20.686  1.00  0.00     0.293 HD
ENDBRANCH   2  14
TORSDOF 2
ENDMDL
MODEL 4
REMARK VINA RESULT:    -3.980      1.522      5.302
REMARK INTER + INTRA:          -4.393
REMARK INTER:                  -4.344
REMARK INTRA:                  -0.049
REMARK UNBOUND:                -0.064
REMARK SMILES COc1cc2ccc(=O)oc2cc1O
REMARK SMILES IDX 3 1 13 2 12 3 11 4 5 5 4 6 6 7 7 8 8 9 9 10 10 11 2 12 1 13
REMARK SMILES IDX 14 14
REMARK H PARENT 14 15
REMARK Flexibility Score: inf
ROOT
ATOM      1  C   UNL     1      11.583 -18.099  19.764  1.00  0.00     0.161 A 
ATOM      2  C   UNL     1      12.414 -17.920  18.648  1.00  0.00     0.161 A 
ATOM      3  C   UNL     1      13.783 -17.669  18.818  1.00  0.00     0.098 A 
ATOM      4  C   UNL     1      14.332 -17.593  20.101  1.00  0.00     0.142 A 
ATOM      5  C   UNL     1      13.503 -17.771  21.228  1.00  0.00     0.022 A 
ATOM      6  C   UNL     1      12.134 -18.023  21.059  1.00  0.00     0.062 A 
ATOM      7  C   UNL     1      14.081 -17.690  22.499  1.00  0.00     0.019 A 
ATOM      8  C   UNL     1      15.447 -17.437  22.616  1.00  0.00     0.094 A 
ATOM      9  C   UNL     1      16.207 -17.271  21.453  1.00  0.00     0.336 A 
ATOM     10  O   UNL     1      17.442 -17.043  21.536  1.00  0.00    -0.246 OA
ATOM     11  O   UNL     1      15.631 -17.354  20.255  1.00  0.00    -0.423 OA
ENDROOT
BRANCH   1  12
ATOM     12  O   UNL     1      10.219 -18.349  19.547  1.00  0.00    -0.493 OA
ATOM     13  C   UNL     1       9.418 -19.211  20.350  1.00  0.00     0.278 C 
ENDBRANCH   1  12
BRANCH   2  14
ATOM     14  O   UNL     1      11.871 -17.995  17.367  1.00  0.00    -0.504 OA
ATOM     15  H   UNL     1      10.869 -18.030  17.215  1.00  0.00     0.293 HD
ENDBRANCH   2  14
TORSDOF 2
ENDMDL
MODEL 5
REMARK VINA RESULT:    -3.974     16.398     18.540
REMARK INTER + INTRA:          -4.387
REMARK INTER:                  -4.330
REMARK INTRA:                  -0.057
REMARK UNBOUND:                -0.064
REMARK SMILES COc1cc2ccc(=O)oc2cc1O
REMARK SMILES IDX 3 1 13 2 12 3 11 4 5 5 4 6 6 7 7 8 8 9 9 10 10 11 2 12 1 13
REMARK SMILES IDX 14 14
REMARK H PARENT 14 15
REMARK Flexibility Score: inf
ROOT
ATOM      1  C   UNL     1      17.873  -4.773   5.228  1.00  0.00     0.161 A 
ATOM      2  C   UNL     1      18.443  -5.219   6.429  1.00  0.00     0.161 A 
ATOM      3  C   UNL     1      17.703  -6.021   7.309  1.00  0.00     0.098 A 
ATOM      4  C   UNL     1      16.389  -6.382   6.997  1.00  0.00     0.142 A 
ATOM      5  C   UNL     1      15.808  -5.936   5.792  1.00  0.00     0.022 A 
ATOM      6  C   UNL     1      16.549  -5.135   4.911  1.00  0.00     0.062 A 
ATOM      7  C   UNL     1      14.492  -6.315   5.507  1.00  0.00     0.019 A 
ATOM      8  C   UNL     1      13.797  -7.112   6.415  1.00  0.00     0.094 A 
ATOM      9  C   UNL     1      14.438  -7.516   7.591  1.00  0.00     0.336 A 
ATOM     10  O   UNL     1      13.828  -8.237   8.423  1.00  0.00    -0.246 OA
ATOM     11  O   UNL     1      15.691  -7.143   7.837  1.00  0.00    -0.423 OA
ENDROOT
BRANCH   1  12
ATOM     12  O   UNL     1      18.652  -3.972   4.376  1.00  0.00    -0.493 OA
ATOM     13  C   UNL     1      18.253  -2.701   3.875  1.00  0.00     0.278 C 
ENDBRANCH   1  12
BRANCH   2  14
ATOM     14  O   UNL     1      19.754  -4.861   6.744  1.00  0.00    -0.504 OA
ATOM     15  H   UNL     1      20.044  -3.891   6.785  1.00  0.00     0.293 HD
ENDBRANCH   2  14
TORSDOF 2
ENDMDL
MODEL 6
REMARK VINA RESULT:    -3.946     13.693     15.336
REMARK INTER + INTRA:          -4.356
REMARK INTER:                  -4.298
REMARK INTRA:                  -0.058
REMARK UNBOUND:                -0.064
REMARK SMILES COc1cc2ccc(=O)oc2cc1O
REMARK SMILES IDX 3 1 13 2 12 3 11 4 5 5 4 6 6 7 7 8 8 9 9 10 10 11 2 12 1 13
REMARK SMILES IDX 14 14
REMARK H PARENT 14 15
REMARK Flexibility Score: inf
ROOT
ATOM      1  C   UNL     1      14.827  -6.097  11.629  1.00  0.00     0.161 A 
ATOM      2  C   UNL     1      15.735  -6.519  12.612  1.00  0.00     0.161 A 
ATOM      3  C   UNL     1      15.991  -5.715  13.732  1.00  0.00     0.098 A 
ATOM      4  C   UNL     1      15.344  -4.486  13.878  1.00  0.00     0.142 A 
ATOM      5  C   UNL     1      14.430  -4.054  12.895  1.00  0.00     0.022 A 
ATOM      6  C   UNL     1      14.173  -4.858  11.775  1.00  0.00     0.062 A 
ATOM      7  C   UNL     1      13.797  -2.819  13.070  1.00  0.00     0.019 A 
ATOM      8  C   UNL     1      14.086  -2.055  14.200  1.00  0.00     0.094 A 
ATOM      9  C   UNL     1      15.004  -2.548  15.135  1.00  0.00     0.336 A 
ATOM     10  O   UNL     1      15.278  -1.875  16.162  1.00  0.00    -0.246 OA
ATOM     11  O   UNL     1      15.591  -3.727  14.943  1.00  0.00    -0.423 OA
ENDROOT
BRANCH   1  12
ATOM     12  O   UNL     1      14.601  -6.935  10.525  1.00  0.00    -0.493 OA
ATOM     13  C   UNL     1      15.261  -6.811   9.270  1.00  0.00     0.278 C 
ENDBRANCH   1  12
BRANCH   2  14
ATOM     14  O   UNL     1      16.383  -7.746  12.469  1.00  0.00    -0.504 OA
ATOM     15  H   UNL     1      15.876  -8.590  12.227  1.00  0.00     0.293 HD
ENDBRANCH   2  14
TORSDOF 2
ENDMDL
MODEL 7
REMARK VINA RESULT:    -3.934     10.886     13.550
REMARK INTER + INTRA:          -4.344
REMARK INTER:                  -4.294
REMARK INTRA:                  -0.049
REMARK UNBOUND:                -0.064
REMARK SMILES COc1cc2ccc(=O)oc2cc1O
REMARK SMILES IDX 3 1 13 2 12 3 11 4 5 5 4 6 6 7 7 8 8 9 9 10 10 11 2 12 1 13
REMARK SMILES IDX 14 14
REMARK H PARENT 14 15
REMARK Flexibility Score: inf
ROOT
ATOM      1  C   UNL     1      14.780  -9.505  11.429  1.00  0.00     0.161 A 
ATOM      2  C   UNL     1      15.110  -8.558  10.448  1.00  0.00     0.161 A 
ATOM      3  C   UNL     1      15.399  -7.235  10.810  1.00  0.00     0.098 A 
ATOM      4  C   UNL     1      15.360  -6.848  12.152  1.00  0.00     0.142 A 
ATOM      5  C   UNL     1      15.029  -7.794  13.144  1.00  0.00     0.022 A 
ATOM      6  C   UNL     1      14.741  -9.117  12.783  1.00  0.00     0.062 A 
ATOM      7  C   UNL     1      14.999  -7.377  14.479  1.00  0.00     0.019 A 
ATOM      8  C   UNL     1      15.293  -6.049  14.789  1.00  0.00     0.094 A 
ATOM      9  C   UNL     1      15.613  -5.166  13.752  1.00  0.00     0.336 A 
ATOM     10  O   UNL     1      15.883  -3.965  14.010  1.00  0.00    -0.246 OA
ATOM     11  O   UNL     1      15.635  -5.590  12.490  1.00  0.00    -0.423 OA
ENDROOT
BRANCH   1  12
ATOM     12  O   UNL     1      14.499 -10.819  11.020  1.00  0.00    -0.493 OA
ATOM     13  C   UNL     1      14.860 -11.987  11.751  1.00  0.00     0.278 C 
ENDBRANCH   1  12
BRANCH   2  14
ATOM     14  O   UNL     1      15.149  -8.940   9.107  1.00  0.00    -0.504 OA
ATOM     15  H   UNL     1      14.398  -8.711   8.467  1.00  0.00     0.293 HD
ENDBRANCH   2  14
TORSDOF 2
ENDMDL
MODEL 8
REMARK VINA RESULT:    -3.844     11.766     13.480
REMARK INTER + INTRA:          -4.246
REMARK INTER:                  -4.199
REMARK INTRA:                  -0.046
REMARK UNBOUND:                -0.064
REMARK SMILES COc1cc2ccc(=O)oc2cc1O
REMARK SMILES IDX 3 1 13 2 12 3 11 4 5 5 4 6 6 7 7 8 8 9 9 10 10 11 2 12 1 13
REMARK SMILES IDX 14 14
REMARK H PARENT 14 15
REMARK Flexibility Score: inf
ROOT
ATOM      1  C   UNL     1      15.457  -6.116  13.561  1.00  0.00     0.161 A 
ATOM      2  C   UNL     1      15.204  -7.396  14.078  1.00  0.00     0.161 A 
ATOM      3  C   UNL     1      14.972  -8.475  13.213  1.00  0.00     0.098 A 
ATOM      4  C   UNL     1      14.990  -8.286  11.829  1.00  0.00     0.142 A 
ATOM      5  C   UNL     1      15.242  -7.003  11.301  1.00  0.00     0.022 A 
ATOM      6  C   UNL     1      15.476  -5.923  12.165  1.00  0.00     0.062 A 
ATOM      7  C   UNL     1      15.255  -6.845   9.912  1.00  0.00     0.019 A 
ATOM      8  C   UNL     1      15.017  -7.949   9.095  1.00  0.00     0.094 A 
ATOM      9  C   UNL     1      14.773  -9.192   9.689  1.00  0.00     0.336 A 
ATOM     10  O   UNL     1      14.558 -10.202   8.970  1.00  0.00    -0.246 OA
ATOM     11  O   UNL     1      14.769  -9.315  11.014  1.00  0.00    -0.423 OA
ENDROOT
BRANCH   1  12
ATOM     12  O   UNL     1      15.684  -5.065  14.463  1.00  0.00    -0.493 OA
ATOM     13  C   UNL     1      16.378  -3.863  14.144  1.00  0.00     0.278 C 
ENDBRANCH   1  12
BRANCH   2  14
ATOM     14  O   UNL     1      15.185  -7.589  15.458  1.00  0.00    -0.504 OA
ATOM     15  H   UNL     1      14.846  -6.872  16.091  1.00  0.00     0.293 HD
ENDBRANCH   2  14
TORSDOF 2
ENDMDL
MODEL 9
REMARK VINA RESULT:    -3.745      1.993      3.320
REMARK INTER + INTRA:          -4.137
REMARK INTER:                  -4.073
REMARK INTRA:                  -0.065
REMARK UNBOUND:                -0.064
REMARK SMILES COc1cc2ccc(=O)oc2cc1O
REMARK SMILES IDX 3 1 13 2 12 3 11 4 5 5 4 6 6 7 7 8 8 9 9 10 10 11 2 12 1 13
REMARK SMILES IDX 14 14
REMARK H PARENT 14 15
REMARK Flexibility Score: inf
ROOT
ATOM      1  C   UNL     1      17.485 -15.004  19.759  1.00  0.00     0.161 A 
ATOM      2  C   UNL     1      17.451 -15.461  21.085  1.00  0.00     0.161 A 
ATOM      3  C   UNL     1      16.378 -16.242  21.537  1.00  0.00     0.098 A 
ATOM      4  C   UNL     1      15.332 -16.572  20.671  1.00  0.00     0.142 A 
ATOM      5  C   UNL     1      15.359 -16.116  19.336  1.00  0.00     0.022 A 
ATOM      6  C   UNL     1      16.432 -15.336  18.883  1.00  0.00     0.062 A 
ATOM      7  C   UNL     1      14.298 -16.463  18.493  1.00  0.00     0.019 A 
ATOM      8  C   UNL     1      13.254 -17.241  18.990  1.00  0.00     0.094 A 
ATOM      9  C   UNL     1      13.294 -17.657  20.326  1.00  0.00     0.336 A 
ATOM     10  O   UNL     1      12.362 -18.360  20.794  1.00  0.00    -0.246 OA
ATOM     11  O   UNL     1      14.317 -17.313  21.106  1.00  0.00    -0.423 OA
ENDROOT
BRANCH   1  12
ATOM     12  O   UNL     1      18.580 -14.226  19.349  1.00  0.00    -0.493 OA
ATOM     13  C   UNL     1      18.564 -12.806  19.239  1.00  0.00     0.278 C 
ENDBRANCH   1  12
BRANCH   2  14
ATOM     14  O   UNL     1      18.492 -15.134  21.952  1.00  0.00    -0.504 OA
ATOM     15  H   UNL     1      19.406 -14.862  21.608  1.00  0.00     0.293 HD
ENDBRANCH   2  14
TORSDOF 2
ENDMDL
