MODEL 1
REMARK VINA RESULT:    -3.915      0.000      0.000
REMARK INTER + INTRA:          -7.016
REMARK INTER:                  -5.288
REMARK INTRA:                  -1.728
REMARK UNBOUND:                -1.728
REMARK SMILES CC(=O)CCC=C(C)CCC=C(C)C
REMARK SMILES IDX 7 1 6 2 8 3 9 4 10 5 11 6 13 7 12 8 14 9 5 10 4 11 2 12 3 13
REMARK SMILES IDX 1 14
REMARK H PARENT
REMARK Flexibility Score: inf
ROOT
ATOM      1  C   UNL     1      17.501  28.069  43.079  1.00  0.00    -0.077 C 
ATOM      2  C   UNL     1      18.550  28.769  43.570  1.00  0.00    -0.028 C 
ATOM      3  C   UNL     1      16.278  28.839  42.646  1.00  0.00     0.039 C 
ENDROOT
BRANCH   1   4
ATOM      4  C   UNL     1      17.497  26.555  42.933  1.00  0.00     0.034 C 
BRANCH   4   5
ATOM      5  C   UNL     1      17.539  26.104  41.464  1.00  0.00     0.032 C 
BRANCH   5   6
ATOM      6  C   UNL     1      18.944  25.778  41.015  1.00  0.00    -0.028 C 
ATOM      7  C   UNL     1      21.065  26.075  39.813  1.00  0.00     0.039 C 
ATOM      8  C   UNL     1      19.697  26.564  40.215  1.00  0.00    -0.080 C 
ATOM      9  C   UNL     1      19.219  27.914  39.738  1.00  0.00     0.039 C 
ENDBRANCH   5   6
ENDBRANCH   4   5
ENDBRANCH   1   4
BRANCH   2  10
ATOM     10  C   UNL     1      19.848  28.181  44.075  1.00  0.00     0.035 C 
BRANCH  10  11
ATOM     11  C   UNL     1      20.995  28.434  43.088  1.00  0.00     0.079 C 
BRANCH  11  12
ATOM     12  C   UNL     1      22.023  27.333  43.126  1.00  0.00     0.130 C 
ATOM     13  O   UNL     1      23.161  27.555  42.744  1.00  0.00    -0.300 OA
ATOM     14  C   UNL     1      21.660  25.956  43.596  1.00  0.00     0.087 C 
ENDBRANCH  11  12
ENDBRANCH  10  11
ENDBRANCH   2  10
TORSDOF 6
ENDMDL
MODEL 2
REMARK VINA RESULT:    -3.752      2.049      4.015
REMARK INTER + INTRA:          -6.796
REMARK INTER:                  -5.314
REMARK INTRA:                  -1.482
REMARK UNBOUND:                -1.728
REMARK SMILES CC(=O)CCC=C(C)CCC=C(C)C
REMARK SMILES IDX 7 1 6 2 8 3 9 4 10 5 11 6 13 7 12 8 14 9 5 10 4 11 2 12 3 13
REMARK SMILES IDX 1 14
REMARK H PARENT
REMARK Flexibility Score: inf
ROOT
ATOM      1  C   UNL     1      21.935  27.372  43.184  1.00  0.00    -0.077 C 
ATOM      2  C   UNL     1      21.078  28.382  43.460  1.00  0.00    -0.028 C 
ATOM      3  C   UNL     1      23.298  27.730  42.645  1.00  0.00     0.039 C 
ENDROOT
BRANCH   1   4
ATOM      4  C   UNL     1      21.599  25.905  43.398  1.00  0.00     0.034 C 
BRANCH   4   5
ATOM      5  C   UNL     1      21.446  25.136  42.076  1.00  0.00     0.032 C 
BRANCH   5   6
ATOM      6  C   UNL     1      20.201  25.548  41.325  1.00  0.00    -0.028 C 
ATOM      7  C   UNL     1      18.867  26.646  39.580  1.00  0.00     0.039 C 
ATOM      8  C   UNL     1      20.195  26.270  40.184  1.00  0.00    -0.080 C 
ATOM      9  C   UNL     1      21.472  26.687  39.493  1.00  0.00     0.039 C 
ENDBRANCH   5   6
ENDBRANCH   4   5
ENDBRANCH   1   4
BRANCH   2  10
ATOM     10  C   UNL     1      19.667  28.228  43.982  1.00  0.00     0.035 C 
BRANCH  10  11
ATOM     11  C   UNL     1      18.652  28.905  43.050  1.00  0.00     0.079 C 
BRANCH  11  12
ATOM     12  C   UNL     1      17.288  28.272  43.152  1.00  0.00     0.130 C 
ATOM     13  O   UNL     1      16.345  28.933  43.559  1.00  0.00    -0.300 OA
ATOM     14  C   UNL     1      17.077  26.832  42.795  1.00  0.00     0.087 C 
ENDBRANCH  11  12
ENDBRANCH  10  11
ENDBRANCH   2  10
TORSDOF 6
ENDMDL
MODEL 3
REMARK VINA RESULT:    -3.646      1.088      3.159
REMARK INTER + INTRA:          -6.653
REMARK INTER:                  -5.013
REMARK INTRA:                  -1.640
REMARK UNBOUND:                -1.728
REMARK SMILES CC(=O)CCC=C(C)CCC=C(C)C
REMARK SMILES IDX 7 1 6 2 8 3 9 4 10 5 11 6 13 7 12 8 14 9 5 10 4 11 2 12 3 13
REMARK SMILES IDX 1 14
REMARK H PARENT
REMARK Flexibility Score: inf
ROOT
ATOM      1  C   UNL     1      18.465  26.303  39.910  1.00  0.00    -0.077 C 
ATOM      2  C   UNL     1      19.806  26.470  39.834  1.00  0.00    -0.028 C 
ATOM      3  C   UNL     1      17.614  26.923  38.830  1.00  0.00     0.039 C 
ENDROOT
BRANCH   1   4
ATOM      4  C   UNL     1      17.779  25.515  41.015  1.00  0.00     0.034 C 
BRANCH   4   5
ATOM      5  C   UNL     1      17.040  26.421  42.013  1.00  0.00     0.032 C 
BRANCH   5   6
ATOM      6  C   UNL     1      17.957  26.924  43.103  1.00  0.00    -0.028 C 
ATOM      7  C   UNL     1      19.427  28.502  44.278  1.00  0.00     0.039 C 
ATOM      8  C   UNL     1      18.487  28.165  43.150  1.00  0.00    -0.080 C 
ATOM      9  C   UNL     1      18.147  29.221  42.123  1.00  0.00     0.039 C 
ENDBRANCH   5   6
ENDBRANCH   4   5
ENDBRANCH   1   4
BRANCH   2  10
ATOM     10  C   UNL     1      20.820  25.948  40.826  1.00  0.00     0.035 C 
BRANCH  10  11
ATOM     11  C   UNL     1      21.755  27.066  41.307  1.00  0.00     0.079 C 
BRANCH  11  12
ATOM     12  C   UNL     1      22.261  26.813  42.704  1.00  0.00     0.130 C 
ATOM     13  O   UNL     1      23.107  27.552  43.183  1.00  0.00    -0.300 OA
ATOM     14  C   UNL     1      21.765  25.646  43.504  1.00  0.00     0.087 C 
ENDBRANCH  11  12
ENDBRANCH  10  11
ENDBRANCH   2  10
TORSDOF 6
ENDMDL
MODEL 4
REMARK VINA RESULT:    -3.618      2.026      4.070
REMARK INTER + INTRA:          -6.615
REMARK INTER:                  -5.087
REMARK INTRA:                  -1.528
REMARK UNBOUND:                -1.728
REMARK SMILES CC(=O)CCC=C(C)CCC=C(C)C
REMARK SMILES IDX 7 1 6 2 8 3 9 4 10 5 11 6 13 7 12 8 14 9 5 10 4 11 2 12 3 13
REMARK SMILES IDX 1 14
REMARK H PARENT
REMARK Flexibility Score: inf
ROOT
ATOM      1  C   UNL     1      18.887  27.078  40.010  1.00  0.00    -0.077 C 
ATOM      2  C   UNL     1      18.042  26.510  40.902  1.00  0.00    -0.028 C 
ATOM      3  C   UNL     1      18.708  26.737  38.552  1.00  0.00     0.039 C 
ENDROOT
BRANCH   1   4
ATOM      4  C   UNL     1      19.994  28.045  40.402  1.00  0.00     0.034 C 
BRANCH   4   5
ATOM      5  C   UNL     1      21.380  27.382  40.415  1.00  0.00     0.032 C 
BRANCH   5   6
ATOM      6  C   UNL     1      21.806  26.995  41.812  1.00  0.00    -0.028 C 
ATOM      7  C   UNL     1      22.118  25.537  43.763  1.00  0.00     0.039 C 
ATOM      8  C   UNL     1      21.694  25.754  42.334  1.00  0.00    -0.080 C 
ATOM      9  C   UNL     1      21.181  24.587  41.524  1.00  0.00     0.039 C 
ENDBRANCH   5   6
ENDBRANCH   4   5
ENDBRANCH   1   4
BRANCH   2  10
ATOM     10  C   UNL     1      18.074  26.707  42.401  1.00  0.00     0.035 C 
BRANCH  10  11
ATOM     11  C   UNL     1      17.213  27.905  42.823  1.00  0.00     0.079 C 
BRANCH  11  12
ATOM     12  C   UNL     1      17.994  28.896  43.647  1.00  0.00     0.130 C 
ATOM     13  O   UNL     1      17.531  30.007  43.855  1.00  0.00    -0.300 OA
ATOM     14  C   UNL     1      19.349  28.550  44.188  1.00  0.00     0.087 C 
ENDBRANCH  11  12
ENDBRANCH  10  11
ENDBRANCH   2  10
TORSDOF 6
ENDMDL
MODEL 5
REMARK VINA RESULT:    -3.617      2.252      4.713
REMARK INTER + INTRA:          -6.614
REMARK INTER:                  -5.535
REMARK INTRA:                  -1.079
REMARK UNBOUND:                -1.728
REMARK SMILES CC(=O)CCC=C(C)CCC=C(C)C
REMARK SMILES IDX 7 1 6 2 8 3 9 4 10 5 11 6 13 7 12 8 14 9 5 10 4 11 2 12 3 13
REMARK SMILES IDX 1 14
REMARK H PARENT
REMARK Flexibility Score: inf
ROOT
ATOM      1  C   UNL     1      20.718  26.157  41.386  1.00  0.00    -0.077 C 
ATOM      2  C   UNL     1      19.641  26.931  41.653  1.00  0.00    -0.028 C 
ATOM      3  C   UNL     1      21.313  26.227  40.002  1.00  0.00     0.039 C 
ENDROOT
BRANCH   1   4
ATOM      4  C   UNL     1      21.363  25.235  42.409  1.00  0.00     0.034 C 
BRANCH   4   5
ATOM      5  C   UNL     1      22.095  26.005  43.519  1.00  0.00     0.032 C 
BRANCH   5   6
ATOM      6  C   UNL     1      23.408  26.577  43.037  1.00  0.00    -0.028 C 
ATOM      7  C   UNL     1      24.988  28.299  42.284  1.00  0.00     0.039 C 
ATOM      8  C   UNL     1      23.639  27.889  42.814  1.00  0.00    -0.080 C 
ATOM      9  C   UNL     1      22.599  28.946  43.100  1.00  0.00     0.039 C 
ENDBRANCH   5   6
ENDBRANCH   4   5
ENDBRANCH   1   4
BRANCH   2  10
ATOM     10  C   UNL     1      18.893  26.984  42.966  1.00  0.00     0.035 C 
BRANCH  10  11
ATOM     11  C   UNL     1      18.938  28.392  43.576  1.00  0.00     0.079 C 
BRANCH  11  12
ATOM     12  C   UNL     1      17.576  29.037  43.600  1.00  0.00     0.130 C 
ATOM     13  O   UNL     1      17.453  30.171  44.036  1.00  0.00    -0.300 OA
ATOM     14  C   UNL     1      16.363  28.294  43.128  1.00  0.00     0.087 C 
ENDBRANCH  11  12
ENDBRANCH  10  11
ENDBRANCH   2  10
TORSDOF 6
ENDMDL
MODEL 6
REMARK VINA RESULT:    -3.611      1.536      3.444
REMARK INTER + INTRA:          -6.606
REMARK INTER:                  -5.446
REMARK INTRA:                  -1.160
REMARK UNBOUND:                -1.728
REMARK SMILES CC(=O)CCC=C(C)CCC=C(C)C
REMARK SMILES IDX 7 1 6 2 8 3 9 4 10 5 11 6 13 7 12 8 14 9 5 10 4 11 2 12 3 13
REMARK SMILES IDX 1 14
REMARK H PARENT
REMARK Flexibility Score: inf
ROOT
ATOM      1  C   UNL     1      19.871  28.463  41.333  1.00  0.00    -0.077 C 
ATOM      2  C   UNL     1      20.915  29.114  41.896  1.00  0.00    -0.028 C 
ATOM      3  C   UNL     1      19.106  29.168  40.241  1.00  0.00     0.039 C 
ENDROOT
BRANCH   1   4
ATOM      4  C   UNL     1      19.443  27.060  41.733  1.00  0.00     0.034 C 
BRANCH   4   5
ATOM      5  C   UNL     1      18.738  27.026  43.099  1.00  0.00     0.032 C 
BRANCH   5   6
ATOM      6  C   UNL     1      17.267  27.347  42.982  1.00  0.00    -0.028 C 
ATOM      7  C   UNL     1      15.211  28.671  43.211  1.00  0.00     0.039 C 
ATOM      8  C   UNL     1      16.705  28.521  43.341  1.00  0.00    -0.080 C 
ATOM      9  C   UNL     1      17.529  29.684  43.843  1.00  0.00     0.039 C 
ENDBRANCH   5   6
ENDBRANCH   4   5
ENDBRANCH   1   4
BRANCH   2  10
ATOM     10  C   UNL     1      21.787  28.589  43.014  1.00  0.00     0.035 C 
BRANCH  10  11
ATOM     11  C   UNL     1      23.070  27.950  42.466  1.00  0.00     0.079 C 
BRANCH  11  12
ATOM     12  C   UNL     1      22.997  26.445  42.474  1.00  0.00     0.130 C 
ATOM     13  O   UNL     1      23.436  25.813  41.525  1.00  0.00    -0.300 OA
ATOM     14  C   UNL     1      22.361  25.711  43.616  1.00  0.00     0.087 C 
ENDBRANCH  11  12
ENDBRANCH  10  11
ENDBRANCH   2  10
TORSDOF 6
ENDMDL
MODEL 7
REMARK VINA RESULT:    -3.554      2.216      4.980
REMARK INTER + INTRA:          -6.528
REMARK INTER:                  -4.869
REMARK INTRA:                  -1.659
REMARK UNBOUND:                -1.728
REMARK SMILES CC(=O)CCC=C(C)CCC=C(C)C
REMARK SMILES IDX 7 1 6 2 8 3 9 4 10 5 11 6 13 7 12 8 14 9 5 10 4 11 2 12 3 13
REMARK SMILES IDX 1 14
REMARK H PARENT
REMARK Flexibility Score: inf
ROOT
ATOM      1  C   UNL     1      21.298  25.699  40.454  1.00  0.00    -0.077 C 
ATOM      2  C   UNL     1      20.222  26.281  39.876  1.00  0.00    -0.028 C 
ATOM      3  C   UNL     1      22.638  25.866  39.782  1.00  0.00     0.039 C 
ENDROOT
BRANCH   1   4
ATOM      4  C   UNL     1      21.226  24.899  41.745  1.00  0.00     0.034 C 
BRANCH   4   5
ATOM      5  C   UNL     1      21.725  25.696  42.961  1.00  0.00     0.032 C 
BRANCH   5   6
ATOM      6  C   UNL     1      20.624  26.522  43.583  1.00  0.00    -0.028 C 
ATOM      7  C   UNL     1      19.374  28.550  44.181  1.00  0.00     0.039 C 
ATOM      8  C   UNL     1      20.501  27.861  43.457  1.00  0.00    -0.080 C 
ATOM      9  C   UNL     1      21.442  28.674  42.599  1.00  0.00     0.039 C 
ENDBRANCH   5   6
ENDBRANCH   4   5
ENDBRANCH   1   4
BRANCH   2  10
ATOM     10  C   UNL     1      18.799  26.209  40.381  1.00  0.00     0.035 C 
BRANCH  10  11
ATOM     11  C   UNL     1      18.209  27.612  40.584  1.00  0.00     0.079 C 
BRANCH  11  12
ATOM     12  C   UNL     1      17.004  27.588  41.489  1.00  0.00     0.130 C 
ATOM     13  O   UNL     1      16.179  28.486  41.420  1.00  0.00    -0.300 OA
ATOM     14  C   UNL     1      16.819  26.495  42.498  1.00  0.00     0.087 C 
ENDBRANCH  11  12
ENDBRANCH  10  11
ENDBRANCH   2  10
TORSDOF 6
ENDMDL
MODEL 8
REMARK VINA RESULT:    -3.509      2.013      4.858
REMARK INTER + INTRA:          -6.468
REMARK INTER:                  -4.818
REMARK INTRA:                  -1.650
REMARK UNBOUND:                -1.728
REMARK SMILES CC(=O)CCC=C(C)CCC=C(C)C
REMARK SMILES IDX 7 1 6 2 8 3 9 4 10 5 11 6 13 7 12 8 14 9 5 10 4 11 2 12 3 13
REMARK SMILES IDX 1 14
REMARK H PARENT
REMARK Flexibility Score: inf
ROOT
ATOM      1  C   UNL     1      21.212  26.838  42.562  1.00  0.00    -0.077 C 
ATOM      2  C   UNL     1      21.174  26.436  41.270  1.00  0.00    -0.028 C 
ATOM      3  C   UNL     1      21.696  25.851  43.595  1.00  0.00     0.039 C 
ENDROOT
BRANCH   1   4
ATOM      4  C   UNL     1      20.807  28.231  43.019  1.00  0.00     0.034 C 
BRANCH   4   5
ATOM      5  C   UNL     1      19.800  28.200  44.180  1.00  0.00     0.032 C 
BRANCH   5   6
ATOM      6  C   UNL     1      18.477  28.819  43.795  1.00  0.00    -0.028 C 
ATOM      7  C   UNL     1      16.210  28.920  42.855  1.00  0.00     0.039 C 
ATOM      8  C   UNL     1      17.450  28.149  43.229  1.00  0.00    -0.080 C 
ATOM      9  C   UNL     1      17.503  26.660  42.983  1.00  0.00     0.039 C 
ENDBRANCH   5   6
ENDBRANCH   4   5
ENDBRANCH   1   4
BRANCH   2  10
ATOM     10  C   UNL     1      20.701  27.266  40.098  1.00  0.00     0.035 C 
BRANCH  10  11
ATOM     11  C   UNL     1      19.225  26.990  39.780  1.00  0.00     0.079 C 
BRANCH  11  12
ATOM     12  C   UNL     1      18.408  28.257  39.760  1.00  0.00     0.130 C 
ATOM     13  O   UNL     1      17.231  28.212  39.436  1.00  0.00    -0.300 OA
ATOM     14  C   UNL     1      19.028  29.579  40.100  1.00  0.00     0.087 C 
ENDBRANCH  11  12
ENDBRANCH  10  11
ENDBRANCH   2  10
TORSDOF 6
ENDMDL
MODEL 9
REMARK VINA RESULT:    -3.503      2.286      4.548
REMARK INTER + INTRA:          -6.460
REMARK INTER:                  -4.874
REMARK INTRA:                  -1.587
REMARK UNBOUND:                -1.728
REMARK SMILES CC(=O)CCC=C(C)CCC=C(C)C
REMARK SMILES IDX 7 1 6 2 8 3 9 4 10 5 11 6 13 7 12 8 14 9 5 10 4 11 2 12 3 13
REMARK SMILES IDX 1 14
REMARK H PARENT
REMARK Flexibility Score: inf
ROOT
ATOM      1  C   UNL     1      21.961  27.269  43.171  1.00  0.00    -0.077 C 
ATOM      2  C   UNL     1      20.792  26.760  43.625  1.00  0.00    -0.028 C 
ATOM      3  C   UNL     1      23.083  26.305  42.875  1.00  0.00     0.039 C 
ENDROOT
BRANCH   1   4
ATOM      4  C   UNL     1      22.193  28.753  42.934  1.00  0.00     0.034 C 
BRANCH   4   5
ATOM      5  C   UNL     1      22.145  29.127  41.444  1.00  0.00     0.032 C 
BRANCH   5   6
ATOM      6  C   UNL     1      20.733  29.384  40.973  1.00  0.00    -0.028 C 
ATOM      7  C   UNL     1      18.635  28.966  39.767  1.00  0.00     0.039 C 
ATOM      8  C   UNL     1      20.016  28.544  40.196  1.00  0.00    -0.080 C 
ATOM      9  C   UNL     1      20.549  27.197  39.769  1.00  0.00     0.039 C 
ENDBRANCH   5   6
ENDBRANCH   4   5
ENDBRANCH   1   4
BRANCH   2  10
ATOM     10  C   UNL     1      19.564  27.559  43.998  1.00  0.00     0.035 C 
BRANCH  10  11
ATOM     11  C   UNL     1      18.379  27.219  43.083  1.00  0.00     0.079 C 
BRANCH  11  12
ATOM     12  C   UNL     1      17.245  28.197  43.247  1.00  0.00     0.130 C 
ATOM     13  O   UNL     1      16.098  27.832  43.040  1.00  0.00    -0.300 OA
ATOM     14  C   UNL     1      17.505  29.624  43.626  1.00  0.00     0.087 C 
ENDBRANCH  11  12
ENDBRANCH  10  11
ENDBRANCH   2  10
TORSDOF 6
ENDMDL
