MODEL 1
REMARK VINA RESULT:    -4.709      0.000      0.000
REMARK INTER + INTRA:         -10.224
REMARK INTER:                  -9.114
REMARK INTRA:                  -1.110
REMARK UNBOUND:                -1.110
REMARK SMILES CCCCCCCCCCCCCCCCCC(=O)[O-]
REMARK SMILES IDX 10 1 11 2 12 3 13 4 14 5 15 6 16 7 17 8 18 9 19 10 20 11
REMARK SMILES IDX 9 12 8 13 7 14 6 15 5 16 4 17 3 18 2 19 1 20
REMARK H PARENT
REMARK Flexibility Score: inf
ROOT
ATOM      1  C   UNL     1      -9.544   5.113 -10.683  1.00  0.00     0.000 C 
ENDROOT
BRANCH   1   2
ATOM      2  C   UNL     1      -9.387   4.487  -9.292  1.00  0.00     0.000 C 
BRANCH   2   3
ATOM      3  C   UNL     1      -9.058   5.555  -8.242  1.00  0.00     0.000 C 
BRANCH   3   4
ATOM      4  C   UNL     1      -7.577   5.494  -7.842  1.00  0.00     0.000 C 
BRANCH   4   5
ATOM      5  C   UNL     1      -7.220   6.474  -6.709  1.00  0.00     0.000 C 
BRANCH   5   6
ATOM      6  C   UNL     1      -7.220   5.867  -5.293  1.00  0.00     0.000 C 
BRANCH   6   7
ATOM      7  C   UNL     1      -8.608   5.717  -4.639  1.00  0.00     0.006 C 
BRANCH   7   8
ATOM      8  C   UNL     1      -9.536   6.926  -4.856  1.00  0.00     0.053 C 
BRANCH   8   9
ATOM      9  C   UNL     1      -9.580   7.841  -3.670  1.00  0.00     0.041 C 
ATOM     10  O   UNL     1      -8.532   8.080  -3.014  1.00  0.00    -0.550 OA
ATOM     11  O   UNL     1     -10.770   8.460  -3.311  1.00  0.00    -0.550 OA
ENDBRANCH   8   9
ENDBRANCH   7   8
ENDBRANCH   6   7
ENDBRANCH   5   6
ENDBRANCH   4   5
ENDBRANCH   3   4
ENDBRANCH   2   3
ENDBRANCH   1   2
BRANCH   1  12
ATOM     12  C   UNL     1      -8.259   4.960 -11.505  1.00  0.00     0.000 C 
BRANCH  12  13
ATOM     13  C   UNL     1      -8.579   4.599 -12.963  1.00  0.00    -0.000 C 
BRANCH  13  14
ATOM     14  C   UNL     1      -7.317   4.440 -13.827  1.00  0.00    -0.000 C 
BRANCH  14  15
ATOM     15  C   UNL     1      -6.149   5.309 -13.330  1.00  0.00    -0.000 C 
BRANCH  15  16
ATOM     16  C   UNL     1      -5.116   5.593 -14.433  1.00  0.00    -0.000 C 
BRANCH  16  17
ATOM     17  C   UNL     1      -5.746   5.646 -15.837  1.00  0.00    -0.000 C 
BRANCH  17  18
ATOM     18  C   UNL     1      -5.505   6.991 -16.547  1.00  0.00    -0.000 C 
BRANCH  18  19
ATOM     19  C   UNL     1      -6.771   7.652 -17.120  1.00  0.00    -0.003 C 
ATOM     20  C   UNL     1      -8.058   7.139 -16.474  1.00  0.00     0.004 C 
ENDBRANCH  18  19
ENDBRANCH  17  18
ENDBRANCH  16  17
ENDBRANCH  15  16
ENDBRANCH  14  15
ENDBRANCH  13  14
ENDBRANCH  12  13
ENDBRANCH   1  12
TORSDOF 16
ENDMDL
MODEL 2
REMARK VINA RESULT:    -4.611      1.666      2.693
REMARK INTER + INTRA:         -10.035
REMARK INTER:                  -8.960
REMARK INTRA:                  -1.075
REMARK UNBOUND:                -1.110
REMARK SMILES CCCCCCCCCCCCCCCCCC(=O)[O-]
REMARK SMILES IDX 10 1 11 2 12 3 13 4 14 5 15 6 16 7 17 8 18 9 19 10 20 11
REMARK SMILES IDX 9 12 8 13 7 14 6 15 5 16 4 17 3 18 2 19 1 20
REMARK H PARENT
REMARK Flexibility Score: inf
ROOT
ATOM      1  C   UNL     1      -9.012   5.495  -8.142  1.00  0.00     0.000 C 
ENDROOT
BRANCH   1   2
ATOM      2  C   UNL     1      -7.533   5.586  -7.749  1.00  0.00     0.000 C 
BRANCH   2   3
ATOM      3  C   UNL     1      -7.220   6.935  -7.090  1.00  0.00     0.000 C 
BRANCH   3   4
ATOM      4  C   UNL     1      -5.715   7.081  -6.824  1.00  0.00     0.000 C 
BRANCH   4   5
ATOM      5  C   UNL     1      -5.401   7.518  -5.381  1.00  0.00     0.000 C 
BRANCH   5   6
ATOM      6  C   UNL     1      -4.482   6.564  -4.593  1.00  0.00     0.000 C 
BRANCH   6   7
ATOM      7  C   UNL     1      -5.162   5.786  -3.449  1.00  0.00     0.006 C 
BRANCH   7   8
ATOM      8  C   UNL     1      -6.328   4.890  -3.909  1.00  0.00     0.053 C 
BRANCH   8   9
ATOM      9  C   UNL     1      -7.655   5.359  -3.394  1.00  0.00     0.041 C 
ATOM     10  O   UNL     1      -7.822   5.563  -2.162  1.00  0.00    -0.550 OA
ATOM     11  O   UNL     1      -8.697   5.608  -4.277  1.00  0.00    -0.550 OA
ENDBRANCH   8   9
ENDBRANCH   7   8
ENDBRANCH   6   7
ENDBRANCH   5   6
ENDBRANCH   4   5
ENDBRANCH   3   4
ENDBRANCH   2   3
ENDBRANCH   1   2
BRANCH   1  12
ATOM     12  C   UNL     1      -9.220   4.488  -9.279  1.00  0.00     0.000 C 
BRANCH  12  13
ATOM     13  C   UNL     1      -9.499   5.208 -10.606  1.00  0.00    -0.000 C 
BRANCH  13  14
ATOM     14  C   UNL     1      -8.782   4.555 -11.799  1.00  0.00    -0.000 C 
BRANCH  14  15
ATOM     15  C   UNL     1      -7.561   5.364 -12.269  1.00  0.00    -0.000 C 
BRANCH  15  16
ATOM     16  C   UNL     1      -6.727   4.614 -13.320  1.00  0.00    -0.000 C 
BRANCH  16  17
ATOM     17  C   UNL     1      -6.567   5.408 -14.628  1.00  0.00    -0.000 C 
BRANCH  17  18
ATOM     18  C   UNL     1      -7.911   5.917 -15.184  1.00  0.00    -0.000 C 
BRANCH  18  19
ATOM     19  C   UNL     1      -7.844   6.479 -16.615  1.00  0.00    -0.003 C 
ATOM     20  C   UNL     1      -6.546   7.233 -16.901  1.00  0.00     0.004 C 
ENDBRANCH  18  19
ENDBRANCH  17  18
ENDBRANCH  16  17
ENDBRANCH  15  16
ENDBRANCH  14  15
ENDBRANCH  13  14
ENDBRANCH  12  13
ENDBRANCH   1  12
TORSDOF 16
ENDMDL
MODEL 3
REMARK VINA RESULT:    -4.570      4.020      9.450
REMARK INTER + INTRA:          -9.955
REMARK INTER:                  -8.309
REMARK INTRA:                  -1.646
REMARK UNBOUND:                -1.110
REMARK SMILES CCCCCCCCCCCCCCCCCC(=O)[O-]
REMARK SMILES IDX 10 1 11 2 12 3 13 4 14 5 15 6 16 7 17 8 18 9 19 10 20 11
REMARK SMILES IDX 9 12 8 13 7 14 6 15 5 16 4 17 3 18 2 19 1 20
REMARK H PARENT
REMARK Flexibility Score: inf
ROOT
ATOM      1  C   UNL     1      -5.838   7.099  -7.531  1.00  0.00     0.000 C 
ENDROOT
BRANCH   1   2
ATOM      2  C   UNL     1      -7.147   6.706  -6.836  1.00  0.00     0.000 C 
BRANCH   2   3
ATOM      3  C   UNL     1      -7.678   5.373  -7.378  1.00  0.00     0.000 C 
BRANCH   3   4
ATOM      4  C   UNL     1      -9.070   5.549  -8.001  1.00  0.00     0.000 C 
BRANCH   4   5
ATOM      5  C   UNL     1      -9.350   4.549  -9.138  1.00  0.00     0.000 C 
BRANCH   5   6
ATOM      6  C   UNL     1      -9.484   5.174 -10.541  1.00  0.00     0.000 C 
BRANCH   6   7
ATOM      7  C   UNL     1      -8.297   4.923 -11.492  1.00  0.00     0.006 C 
BRANCH   7   8
ATOM      8  C   UNL     1      -8.706   4.710 -12.961  1.00  0.00     0.053 C 
BRANCH   8   9
ATOM      9  C   UNL     1      -7.761   5.363 -13.924  1.00  0.00     0.041 C 
ATOM     10  O   UNL     1      -8.182   5.804 -15.026  1.00  0.00    -0.550 OA
ATOM     11  O   UNL     1      -6.423   5.519 -13.590  1.00  0.00    -0.550 OA
ENDBRANCH   8   9
ENDBRANCH   7   8
ENDBRANCH   6   7
ENDBRANCH   5   6
ENDBRANCH   4   5
ENDBRANCH   3   4
ENDBRANCH   2   3
ENDBRANCH   1   2
BRANCH   1  12
ATOM     12  C   UNL     1      -4.768   7.498  -6.507  1.00  0.00     0.000 C 
BRANCH  12  13
ATOM     13  C   UNL     1      -5.394   7.745  -5.127  1.00  0.00    -0.000 C 
BRANCH  13  14
ATOM     14  C   UNL     1      -4.598   7.089  -3.987  1.00  0.00    -0.000 C 
BRANCH  14  15
ATOM     15  C   UNL     1      -5.104   5.676  -3.651  1.00  0.00    -0.000 C 
BRANCH  15  16
ATOM     16  C   UNL     1      -6.411   5.695  -2.842  1.00  0.00    -0.000 C 
BRANCH  16  17
ATOM     17  C   UNL     1      -7.606   5.131  -3.632  1.00  0.00    -0.000 C 
BRANCH  17  18
ATOM     18  C   UNL     1      -8.932   5.834  -3.289  1.00  0.00    -0.000 C 
BRANCH  18  19
ATOM     19  C   UNL     1      -9.099   7.234  -3.908  1.00  0.00    -0.003 C 
ATOM     20  C   UNL     1      -9.950   8.169  -3.051  1.00  0.00     0.004 C 
ENDBRANCH  18  19
ENDBRANCH  17  18
ENDBRANCH  16  17
ENDBRANCH  15  16
ENDBRANCH  14  15
ENDBRANCH  13  14
ENDBRANCH  12  13
ENDBRANCH   1  12
TORSDOF 16
ENDMDL
MODEL 4
REMARK VINA RESULT:    -4.567      5.073      9.707
REMARK INTER + INTRA:          -9.949
REMARK INTER:                  -8.835
REMARK INTRA:                  -1.114
REMARK UNBOUND:                -1.110
REMARK SMILES CCCCCCCCCCCCCCCCCC(=O)[O-]
REMARK SMILES IDX 10 1 11 2 12 3 13 4 14 5 15 6 16 7 17 8 18 9 19 10 20 11
REMARK SMILES IDX 9 12 8 13 7 14 6 15 5 16 4 17 3 18 2 19 1 20
REMARK H PARENT
REMARK Flexibility Score: inf
ROOT
ATOM      1  C   UNL     1      -8.720   4.475 -12.828  1.00  0.00     0.000 C 
ENDROOT
BRANCH   1   2
ATOM      2  C   UNL     1      -7.526   4.410 -13.788  1.00  0.00     0.000 C 
BRANCH   2   3
ATOM      3  C   UNL     1      -6.261   4.977 -13.133  1.00  0.00     0.000 C 
BRANCH   3   4
ATOM      4  C   UNL     1      -5.327   5.594 -14.184  1.00  0.00     0.000 C 
BRANCH   4   5
ATOM      5  C   UNL     1      -5.731   5.241 -15.627  1.00  0.00     0.000 C 
BRANCH   5   6
ATOM      6  C   UNL     1      -5.446   6.336 -16.674  1.00  0.00     0.000 C 
BRANCH   6   7
ATOM      7  C   UNL     1      -6.520   7.435 -16.790  1.00  0.00     0.006 C 
BRANCH   7   8
ATOM      8  C   UNL     1      -7.965   6.904 -16.743  1.00  0.00     0.053 C 
BRANCH   8   9
ATOM      9  C   UNL     1      -8.552   6.706 -18.108  1.00  0.00     0.041 C 
ATOM     10  O   UNL     1      -8.192   5.729 -18.818  1.00  0.00    -0.550 OA
ATOM     11  O   UNL     1      -9.523   7.577 -18.583  1.00  0.00    -0.550 OA
ENDBRANCH   8   9
ENDBRANCH   7   8
ENDBRANCH   6   7
ENDBRANCH   5   6
ENDBRANCH   4   5
ENDBRANCH   3   4
ENDBRANCH   2   3
ENDBRANCH   1   2
BRANCH   1  12
ATOM     12  C   UNL     1      -8.345   5.197 -11.529  1.00  0.00     0.000 C 
BRANCH  12  13
ATOM     13  C   UNL     1      -9.511   5.171 -10.530  1.00  0.00    -0.000 C 
BRANCH  13  14
ATOM     14  C   UNL     1      -9.122   4.548  -9.179  1.00  0.00    -0.000 C 
BRANCH  14  15
ATOM     15  C   UNL     1      -9.117   5.576  -8.034  1.00  0.00    -0.000 C 
BRANCH  15  16
ATOM     16  C   UNL     1      -7.887   5.437  -7.123  1.00  0.00    -0.000 C 
BRANCH  16  17
ATOM     17  C   UNL     1      -7.317   6.798  -6.684  1.00  0.00    -0.000 C 
BRANCH  17  18
ATOM     18  C   UNL     1      -5.985   7.138  -7.378  1.00  0.00    -0.000 C 
BRANCH  18  19
ATOM     19  C   UNL     1      -4.828   7.475  -6.420  1.00  0.00    -0.003 C 
ATOM     20  C   UNL     1      -5.047   6.938  -5.006  1.00  0.00     0.004 C 
ENDBRANCH  18  19
ENDBRANCH  17  18
ENDBRANCH  16  17
ENDBRANCH  15  16
ENDBRANCH  14  15
ENDBRANCH  13  14
ENDBRANCH  12  13
ENDBRANCH   1  12
TORSDOF 16
ENDMDL
MODEL 5
REMARK VINA RESULT:    -4.567      4.236     10.324
REMARK INTER + INTRA:          -9.948
REMARK INTER:                  -8.396
REMARK INTRA:                  -1.552
REMARK UNBOUND:                -1.110
REMARK SMILES CCCCCCCCCCCCCCCCCC(=O)[O-]
REMARK SMILES IDX 10 1 11 2 12 3 13 4 14 5 15 6 16 7 17 8 18 9 19 10 20 11
REMARK SMILES IDX 9 12 8 13 7 14 6 15 5 16 4 17 3 18 2 19 1 20
REMARK H PARENT
REMARK Flexibility Score: inf
ROOT
ATOM      1  C   UNL     1      -8.164   5.254  -4.848  1.00  0.00     0.000 C 
ENDROOT
BRANCH   1   2
ATOM      2  C   UNL     1      -8.855   6.117  -5.910  1.00  0.00     0.000 C 
BRANCH   2   3
ATOM      3  C   UNL     1      -7.927   6.371  -7.104  1.00  0.00     0.000 C 
BRANCH   3   4
ATOM      4  C   UNL     1      -8.122   5.303  -8.189  1.00  0.00     0.000 C 
BRANCH   4   5
ATOM      5  C   UNL     1      -9.472   5.426  -8.918  1.00  0.00     0.000 C 
BRANCH   5   6
ATOM      6  C   UNL     1      -9.526   4.774 -10.314  1.00  0.00     0.000 C 
BRANCH   6   7
ATOM      7  C   UNL     1      -8.448   5.250 -11.307  1.00  0.00     0.006 C 
BRANCH   7   8
ATOM      8  C   UNL     1      -8.332   4.377 -12.570  1.00  0.00     0.053 C 
BRANCH   8   9
ATOM      9  C   UNL     1      -6.986   4.479 -13.221  1.00  0.00     0.041 C 
ATOM     10  O   UNL     1      -6.779   3.939 -14.340  1.00  0.00    -0.550 OA
ATOM     11  O   UNL     1      -5.970   5.203 -12.611  1.00  0.00    -0.550 OA
ENDBRANCH   8   9
ENDBRANCH   7   8
ENDBRANCH   6   7
ENDBRANCH   5   6
ENDBRANCH   4   5
ENDBRANCH   3   4
ENDBRANCH   2   3
ENDBRANCH   1   2
BRANCH   1  12
ATOM     12  C   UNL     1      -6.699   5.668  -4.669  1.00  0.00     0.000 C 
BRANCH  12  13
ATOM     13  C   UNL     1      -6.059   4.929  -3.485  1.00  0.00    -0.000 C 
BRANCH  13  14
ATOM     14  C   UNL     1      -6.419   3.434  -3.453  1.00  0.00    -0.000 C 
BRANCH  14  15
ATOM     15  C   UNL     1      -6.740   2.934  -2.034  1.00  0.00    -0.000 C 
BRANCH  15  16
ATOM     16  C   UNL     1      -6.738   4.068  -0.995  1.00  0.00    -0.000 C 
BRANCH  16  17
ATOM     17  C   UNL     1      -8.116   4.279  -0.345  1.00  0.00    -0.000 C 
BRANCH  17  18
ATOM     18  C   UNL     1      -9.154   4.859  -1.323  1.00  0.00    -0.000 C 
BRANCH  18  19
ATOM     19  C   UNL     1      -9.582   6.307  -1.023  1.00  0.00    -0.003 C 
ATOM     20  C   UNL     1      -9.505   7.219  -2.248  1.00  0.00     0.004 C 
ENDBRANCH  18  19
ENDBRANCH  17  18
ENDBRANCH  16  17
ENDBRANCH  15  16
ENDBRANCH  14  15
ENDBRANCH  13  14
ENDBRANCH  12  13
ENDBRANCH   1  12
TORSDOF 16
ENDMDL
MODEL 6
REMARK VINA RESULT:    -4.556      1.197      2.176
REMARK INTER + INTRA:          -9.927
REMARK INTER:                  -8.465
REMARK INTRA:                  -1.463
REMARK UNBOUND:                -1.110
REMARK SMILES CCCCCCCCCCCCCCCCCC(=O)[O-]
REMARK SMILES IDX 10 1 11 2 12 3 13 4 14 5 15 6 16 7 17 8 18 9 19 10 20 11
REMARK SMILES IDX 9 12 8 13 7 14 6 15 5 16 4 17 3 18 2 19 1 20
REMARK H PARENT
REMARK Flexibility Score: inf
ROOT
ATOM      1  C   UNL     1      -8.098   5.419 -12.732  1.00  0.00     0.000 C 
ENDROOT
BRANCH   1   2
ATOM      2  C   UNL     1      -8.816   4.460 -11.774  1.00  0.00     0.000 C 
BRANCH   2   3
ATOM      3  C   UNL     1      -9.484   5.226 -10.626  1.00  0.00     0.000 C 
BRANCH   3   4
ATOM      4  C   UNL     1      -9.174   4.568  -9.273  1.00  0.00     0.000 C 
BRANCH   4   5
ATOM      5  C   UNL     1      -9.188   5.567  -8.102  1.00  0.00     0.000 C 
BRANCH   5   6
ATOM      6  C   UNL     1      -7.829   5.779  -7.406  1.00  0.00     0.000 C 
BRANCH   6   7
ATOM      7  C   UNL     1      -7.727   5.220  -5.973  1.00  0.00     0.006 C 
BRANCH   7   8
ATOM      8  C   UNL     1      -8.933   5.566  -5.079  1.00  0.00     0.053 C 
BRANCH   8   9
ATOM      9  C   UNL     1      -8.934   6.999  -4.640  1.00  0.00     0.041 C 
ATOM     10  O   UNL     1     -10.020   7.580  -4.377  1.00  0.00    -0.550 OA
ATOM     11  O   UNL     1      -7.735   7.682  -4.486  1.00  0.00    -0.550 OA
ENDBRANCH   8   9
ENDBRANCH   7   8
ENDBRANCH   6   7
ENDBRANCH   5   6
ENDBRANCH   4   5
ENDBRANCH   3   4
ENDBRANCH   2   3
ENDBRANCH   1   2
BRANCH   1  12
ATOM     12  C   UNL     1      -6.610   5.536 -12.382  1.00  0.00     0.000 C 
BRANCH  12  13
ATOM     13  C   UNL     1      -5.733   5.228 -13.604  1.00  0.00    -0.000 C 
BRANCH  13  14
ATOM     14  C   UNL     1      -6.172   3.955 -14.345  1.00  0.00    -0.000 C 
BRANCH  14  15
ATOM     15  C   UNL     1      -5.234   3.596 -15.510  1.00  0.00    -0.000 C 
BRANCH  15  16
ATOM     16  C   UNL     1      -4.589   4.837 -16.150  1.00  0.00    -0.000 C 
BRANCH  16  17
ATOM     17  C   UNL     1      -4.939   4.985 -17.642  1.00  0.00    -0.000 C 
BRANCH  17  18
ATOM     18  C   UNL     1      -6.304   5.662 -17.869  1.00  0.00    -0.000 C 
BRANCH  18  19
ATOM     19  C   UNL     1      -6.595   6.852 -16.937  1.00  0.00    -0.003 C 
ATOM     20  C   UNL     1      -7.940   6.736 -16.222  1.00  0.00     0.004 C 
ENDBRANCH  18  19
ENDBRANCH  17  18
ENDBRANCH  16  17
ENDBRANCH  15  16
ENDBRANCH  14  15
ENDBRANCH  13  14
ENDBRANCH  12  13
ENDBRANCH   1  12
TORSDOF 16
ENDMDL
MODEL 7
REMARK VINA RESULT:    -4.541      4.792      9.751
REMARK INTER + INTRA:          -9.898
REMARK INTER:                  -8.622
REMARK INTRA:                  -1.276
REMARK UNBOUND:                -1.110
REMARK SMILES CCCCCCCCCCCCCCCCCC(=O)[O-]
REMARK SMILES IDX 10 1 11 2 12 3 13 4 14 5 15 6 16 7 17 8 18 9 19 10 20 11
REMARK SMILES IDX 9 12 8 13 7 14 6 15 5 16 4 17 3 18 2 19 1 20
REMARK H PARENT
REMARK Flexibility Score: inf
ROOT
ATOM      1  C   UNL     1      -9.164   4.539  -9.292  1.00  0.00     0.000 C 
ENDROOT
BRANCH   1   2
ATOM      2  C   UNL     1      -9.528   5.210 -10.622  1.00  0.00     0.000 C 
BRANCH   2   3
ATOM      3  C   UNL     1      -8.699   4.631 -11.776  1.00  0.00     0.000 C 
BRANCH   3   4
ATOM      4  C   UNL     1      -7.491   5.526 -12.087  1.00  0.00     0.000 C 
BRANCH   4   5
ATOM      5  C   UNL     1      -6.430   4.823 -12.953  1.00  0.00     0.000 C 
BRANCH   5   6
ATOM      6  C   UNL     1      -6.835   4.587 -14.422  1.00  0.00     0.000 C 
BRANCH   6   7
ATOM      7  C   UNL     1      -6.530   5.749 -15.386  1.00  0.00     0.006 C 
BRANCH   7   8
ATOM      8  C   UNL     1      -7.785   6.399 -15.999  1.00  0.00     0.053 C 
BRANCH   8   9
ATOM      9  C   UNL     1      -7.462   7.316 -17.140  1.00  0.00     0.041 C 
ATOM     10  O   UNL     1      -8.109   7.241 -18.217  1.00  0.00    -0.550 OA
ATOM     11  O   UNL     1      -6.471   8.279 -17.000  1.00  0.00    -0.550 OA
ENDBRANCH   8   9
ENDBRANCH   7   8
ENDBRANCH   6   7
ENDBRANCH   5   6
ENDBRANCH   4   5
ENDBRANCH   3   4
ENDBRANCH   2   3
ENDBRANCH   1   2
BRANCH   1  12
ATOM     12  C   UNL     1      -8.990   5.578  -8.179  1.00  0.00     0.000 C 
BRANCH  12  13
ATOM     13  C   UNL     1      -7.683   5.343  -7.407  1.00  0.00    -0.000 C 
BRANCH  13  14
ATOM     14  C   UNL     1      -6.615   6.407  -7.708  1.00  0.00    -0.000 C 
BRANCH  14  15
ATOM     15  C   UNL     1      -6.459   7.427  -6.567  1.00  0.00    -0.000 C 
BRANCH  15  16
ATOM     16  C   UNL     1      -5.235   7.138  -5.683  1.00  0.00    -0.000 C 
BRANCH  16  17
ATOM     17  C   UNL     1      -5.605   6.943  -4.202  1.00  0.00    -0.000 C 
BRANCH  17  18
ATOM     18  C   UNL     1      -5.514   5.472  -3.754  1.00  0.00    -0.000 C 
BRANCH  18  19
ATOM     19  C   UNL     1      -6.806   4.658  -3.952  1.00  0.00    -0.003 C 
ATOM     20  C   UNL     1      -8.072   5.478  -3.708  1.00  0.00     0.004 C 
ENDBRANCH  18  19
ENDBRANCH  17  18
ENDBRANCH  16  17
ENDBRANCH  15  16
ENDBRANCH  14  15
ENDBRANCH  13  14
ENDBRANCH  12  13
ENDBRANCH   1  12
TORSDOF 16
ENDMDL
MODEL 8
REMARK VINA RESULT:    -4.524      2.313      3.774
REMARK INTER + INTRA:          -9.867
REMARK INTER:                  -8.795
REMARK INTRA:                  -1.072
REMARK UNBOUND:                -1.110
REMARK SMILES CCCCCCCCCCCCCCCCCC(=O)[O-]
REMARK SMILES IDX 10 1 11 2 12 3 13 4 14 5 15 6 16 7 17 8 18 9 19 10 20 11
REMARK SMILES IDX 9 12 8 13 7 14 6 15 5 16 4 17 3 18 2 19 1 20
REMARK H PARENT
REMARK Flexibility Score: inf
ROOT
ATOM      1  C   UNL     1      -7.885   5.720  -7.081  1.00  0.00     0.000 C 
ENDROOT
BRANCH   1   2
ATOM      2  C   UNL     1      -6.705   6.025  -8.011  1.00  0.00     0.000 C 
BRANCH   2   3
ATOM      3  C   UNL     1      -5.807   7.119  -7.421  1.00  0.00     0.000 C 
BRANCH   3   4
ATOM      4  C   UNL     1      -6.068   7.293  -5.918  1.00  0.00     0.000 C 
BRANCH   4   5
ATOM      5  C   UNL     1      -4.854   6.912  -5.050  1.00  0.00     0.000 C 
BRANCH   5   6
ATOM      6  C   UNL     1      -5.171   6.010  -3.841  1.00  0.00     0.000 C 
BRANCH   6   7
ATOM      7  C   UNL     1      -6.531   5.287  -3.895  1.00  0.00     0.006 C 
BRANCH   7   8
ATOM      8  C   UNL     1      -6.469   3.805  -3.481  1.00  0.00     0.053 C 
BRANCH   8   9
ATOM      9  C   UNL     1      -6.646   3.609  -2.006  1.00  0.00     0.041 C 
ATOM     10  O   UNL     1      -5.776   2.989  -1.339  1.00  0.00    -0.550 OA
ATOM     11  O   UNL     1      -7.753   4.144  -1.360  1.00  0.00    -0.550 OA
ENDBRANCH   8   9
ENDBRANCH   7   8
ENDBRANCH   6   7
ENDBRANCH   5   6
ENDBRANCH   4   5
ENDBRANCH   3   4
ENDBRANCH   2   3
ENDBRANCH   1   2
BRANCH   1  12
ATOM     12  C   UNL     1      -9.197   5.621  -7.868  1.00  0.00     0.000 C 
BRANCH  12  13
ATOM     13  C   UNL     1      -9.051   4.666  -9.061  1.00  0.00    -0.000 C 
BRANCH  13  14
ATOM     14  C   UNL     1      -9.615   5.252 -10.365  1.00  0.00    -0.000 C 
BRANCH  14  15
ATOM     15  C   UNL     1      -9.083   4.532 -11.616  1.00  0.00    -0.000 C 
BRANCH  15  16
ATOM     16  C   UNL     1      -7.896   5.267 -12.258  1.00  0.00    -0.000 C 
BRANCH  16  17
ATOM     17  C   UNL     1      -7.870   5.127 -13.791  1.00  0.00    -0.000 C 
BRANCH  17  18
ATOM     18  C   UNL     1      -6.443   5.160 -14.368  1.00  0.00    -0.000 C 
BRANCH  18  19
ATOM     19  C   UNL     1      -6.286   6.002 -15.648  1.00  0.00    -0.003 C 
ATOM     20  C   UNL     1      -7.624   6.392 -16.275  1.00  0.00     0.004 C 
ENDBRANCH  18  19
ENDBRANCH  17  18
ENDBRANCH  16  17
ENDBRANCH  15  16
ENDBRANCH  14  15
ENDBRANCH  13  14
ENDBRANCH  12  13
ENDBRANCH   1  12
TORSDOF 16
ENDMDL
MODEL 9
REMARK VINA RESULT:    -4.463      4.267      9.384
REMARK INTER + INTRA:          -9.748
REMARK INTER:                  -7.900
REMARK INTRA:                  -1.849
REMARK UNBOUND:                -1.110
REMARK SMILES CCCCCCCCCCCCCCCCCC(=O)[O-]
REMARK SMILES IDX 10 1 11 2 12 3 13 4 14 5 15 6 16 7 17 8 18 9 19 10 20 11
REMARK SMILES IDX 9 12 8 13 7 14 6 15 5 16 4 17 3 18 2 19 1 20
REMARK H PARENT
REMARK Flexibility Score: inf
ROOT
ATOM      1  C   UNL     1      -9.127   7.098  -4.767  1.00  0.00     0.000 C 
ENDROOT
BRANCH   1   2
ATOM      2  C   UNL     1      -9.191   5.638  -5.231  1.00  0.00     0.000 C 
BRANCH   2   3
ATOM      3  C   UNL     1      -8.344   5.423  -6.491  1.00  0.00     0.000 C 
BRANCH   3   4
ATOM      4  C   UNL     1      -9.126   5.816  -7.753  1.00  0.00     0.000 C 
BRANCH   4   5
ATOM      5  C   UNL     1      -8.849   4.883  -8.946  1.00  0.00     0.000 C 
BRANCH   5   6
ATOM      6  C   UNL     1      -9.559   5.269 -10.259  1.00  0.00     0.000 C 
BRANCH   6   7
ATOM      7  C   UNL     1      -9.031   4.569 -11.526  1.00  0.00     0.006 C 
BRANCH   7   8
ATOM      8  C   UNL     1      -7.835   5.283 -12.183  1.00  0.00     0.053 C 
BRANCH   8   9
ATOM      9  C   UNL     1      -7.685   4.942 -13.635  1.00  0.00     0.041 C 
ATOM     10  O   UNL     1      -7.041   3.918 -13.983  1.00  0.00    -0.550 OA
ATOM     11  O   UNL     1      -8.289   5.734 -14.602  1.00  0.00    -0.550 OA
ENDBRANCH   8   9
ENDBRANCH   7   8
ENDBRANCH   6   7
ENDBRANCH   5   6
ENDBRANCH   4   5
ENDBRANCH   3   4
ENDBRANCH   2   3
ENDBRANCH   1   2
BRANCH   1  12
ATOM     12  C   UNL     1      -9.119   7.191  -3.237  1.00  0.00     0.000 C 
BRANCH  12  13
ATOM     13  C   UNL     1      -8.163   8.293  -2.758  1.00  0.00    -0.000 C 
BRANCH  13  14
ATOM     14  C   UNL     1      -7.516   9.064  -3.920  1.00  0.00    -0.000 C 
BRANCH  14  15
ATOM     15  C   UNL     1      -5.988   8.890  -3.966  1.00  0.00    -0.000 C 
BRANCH  15  16
ATOM     16  C   UNL     1      -5.497   8.365  -5.325  1.00  0.00    -0.000 C 
BRANCH  16  17
ATOM     17  C   UNL     1      -5.266   6.844  -5.326  1.00  0.00    -0.000 C 
BRANCH  17  18
ATOM     18  C   UNL     1      -5.024   6.277  -3.915  1.00  0.00    -0.000 C 
BRANCH  18  19
ATOM     19  C   UNL     1      -6.054   5.230  -3.455  1.00  0.00    -0.003 C 
ATOM     20  C   UNL     1      -5.482   3.814  -3.399  1.00  0.00     0.004 C 
ENDBRANCH  18  19
ENDBRANCH  17  18
ENDBRANCH  16  17
ENDBRANCH  15  16
ENDBRANCH  14  15
ENDBRANCH  13  14
ENDBRANCH  12  13
ENDBRANCH   1  12
TORSDOF 16
ENDMDL
