MODEL 1
REMARK VINA RESULT:    -6.092      0.000      0.000
REMARK INTER + INTRA:          -6.699
REMARK INTER:                  -6.449
REMARK INTRA:                  -0.250
REMARK UNBOUND:                -0.250
REMARK SMILES CC1=CC[C@@H]2[C@H]3[C@H](C(C)C)CC[C@]2(C)[C@@H]13
REMARK SMILES IDX 1 1 2 2 3 3 4 4 5 5 6 6 15 7 13 8 12 9 11 10 7 11 14 12 8 13
REMARK SMILES IDX 9 14 10 15
REMARK H PARENT
REMARK Flexibility Score: inf
ROOT
ATOM      1  C   UNL     1     140.089 148.161 165.260  1.00  0.00     0.039 C 
ATOM      2  C   UNL     1     140.998 147.237 164.506  1.00  0.00    -0.073 C 
ATOM      3  C   UNL     1     141.216 145.954 164.902  1.00  0.00    -0.027 C 
ATOM      4  C   UNL     1     142.169 145.078 164.078  1.00  0.00     0.031 C 
ATOM      5  C   UNL     1     142.777 145.900 162.894  1.00  0.00     0.003 C 
ATOM      6  C   UNL     1     143.236 147.263 163.461  1.00  0.00     0.004 C 
ATOM      7  C   UNL     1     141.772 147.729 163.282  1.00  0.00     0.024 C 
ATOM      8  C   UNL     1     141.684 146.689 162.136  1.00  0.00    -0.022 C 
ATOM      9  C   UNL     1     142.299 147.251 160.823  1.00  0.00     0.008 C 
ATOM     10  C   UNL     1     143.480 148.218 161.092  1.00  0.00     0.005 C 
ATOM     11  C   UNL     1     144.204 147.966 162.456  1.00  0.00    -0.005 C 
ATOM     12  C   UNL     1     140.328 145.998 161.856  1.00  0.00     0.012 C 
ENDROOT
BRANCH  11  13
ATOM     13  C   UNL     1     144.813 149.287 163.030  1.00  0.00    -0.014 C 
ATOM     14  C   UNL     1     145.425 149.092 164.430  1.00  0.00     0.007 C 
ATOM     15  C   UNL     1     145.899 149.852 162.093  1.00  0.00     0.007 C 
ENDBRANCH  11  13
TORSDOF 1
ENDMDL
MODEL 2
REMARK VINA RESULT:    -6.081      3.748      5.749
REMARK INTER + INTRA:          -6.687
REMARK INTER:                  -6.438
REMARK INTRA:                  -0.250
REMARK UNBOUND:                -0.250
REMARK SMILES CC1=CC[C@@H]2[C@H]3[C@H](C(C)C)CC[C@]2(C)[C@@H]13
REMARK SMILES IDX 1 1 2 2 3 3 4 4 5 5 6 6 15 7 13 8 12 9 11 10 7 11 14 12 8 13
REMARK SMILES IDX 9 14 10 15
REMARK H PARENT
REMARK Flexibility Score: inf
ROOT
ATOM      1  C   UNL     1     142.612 140.127 165.220  1.00  0.00     0.039 C 
ATOM      2  C   UNL     1     143.521 141.023 164.432  1.00  0.00    -0.073 C 
ATOM      3  C   UNL     1     144.798 141.283 164.824  1.00  0.00    -0.027 C 
ATOM      4  C   UNL     1     145.659 142.217 163.964  1.00  0.00     0.031 C 
ATOM      5  C   UNL     1     144.832 142.758 162.752  1.00  0.00     0.003 C 
ATOM      6  C   UNL     1     143.457 143.213 163.293  1.00  0.00     0.004 C 
ATOM      7  C   UNL     1     143.021 141.734 163.173  1.00  0.00     0.024 C 
ATOM      8  C   UNL     1     144.069 141.619 162.037  1.00  0.00    -0.022 C 
ATOM      9  C   UNL     1     143.501 142.166 160.697  1.00  0.00     0.008 C 
ATOM     10  C   UNL     1     142.510 143.338 160.912  1.00  0.00     0.005 C 
ATOM     11  C   UNL     1     142.740 144.124 162.244  1.00  0.00    -0.005 C 
ATOM     12  C   UNL     1     144.787 140.266 161.818  1.00  0.00     0.012 C 
ENDROOT
BRANCH  11  13
ATOM     13  C   UNL     1     141.405 144.730 162.786  1.00  0.00    -0.014 C 
ATOM     14  C   UNL     1     141.581 145.407 164.158  1.00  0.00     0.007 C 
ATOM     15  C   UNL     1     140.821 145.761 161.800  1.00  0.00     0.007 C 
ENDBRANCH  11  13
TORSDOF 1
ENDMDL
MODEL 3
REMARK VINA RESULT:    -6.065      3.646      5.651
REMARK INTER + INTRA:          -6.670
REMARK INTER:                  -6.422
REMARK INTRA:                  -0.248
REMARK UNBOUND:                -0.250
REMARK SMILES CC1=CC[C@@H]2[C@H]3[C@H](C(C)C)CC[C@]2(C)[C@@H]13
REMARK SMILES IDX 1 1 2 2 3 3 4 4 5 5 6 6 15 7 13 8 12 9 11 10 7 11 14 12 8 13
REMARK SMILES IDX 9 14 10 15
REMARK H PARENT
REMARK Flexibility Score: inf
ROOT
ATOM      1  C   UNL     1     148.081 150.617 165.251  1.00  0.00     0.039 C 
ATOM      2  C   UNL     1     147.179 149.707 164.471  1.00  0.00    -0.073 C 
ATOM      3  C   UNL     1     145.914 149.417 164.879  1.00  0.00    -0.027 C 
ATOM      4  C   UNL     1     145.061 148.471 164.026  1.00  0.00     0.031 C 
ATOM      5  C   UNL     1     145.882 147.956 162.797  1.00  0.00     0.003 C 
ATOM      6  C   UNL     1     147.274 147.526 163.315  1.00  0.00     0.004 C 
ATOM      7  C   UNL     1     147.676 149.015 163.200  1.00  0.00     0.024 C 
ATOM      8  C   UNL     1     146.609 149.116 162.080  1.00  0.00    -0.022 C 
ATOM      9  C   UNL     1     147.168 148.590 160.728  1.00  0.00     0.008 C 
ATOM     10  C   UNL     1     148.188 147.438 160.919  1.00  0.00     0.005 C 
ATOM     11  C   UNL     1     147.994 146.639 162.249  1.00  0.00    -0.005 C 
ATOM     12  C   UNL     1     145.858 150.454 161.881  1.00  0.00     0.012 C 
ENDROOT
BRANCH  11  13
ATOM     13  C   UNL     1     149.350 146.058 162.767  1.00  0.00    -0.014 C 
ATOM     14  C   UNL     1     149.203 145.342 164.123  1.00  0.00     0.007 C 
ATOM     15  C   UNL     1     149.956 145.069 161.752  1.00  0.00     0.007 C 
ENDBRANCH  11  13
TORSDOF 1
ENDMDL
MODEL 4
REMARK VINA RESULT:    -6.055      6.107      8.131
REMARK INTER + INTRA:          -6.659
REMARK INTER:                  -6.404
REMARK INTRA:                  -0.254
REMARK UNBOUND:                -0.250
REMARK SMILES CC1=CC[C@@H]2[C@H]3[C@H](C(C)C)CC[C@]2(C)[C@@H]13
REMARK SMILES IDX 1 1 2 2 3 3 4 4 5 5 6 6 15 7 13 8 12 9 11 10 7 11 14 12 8 13
REMARK SMILES IDX 9 14 10 15
REMARK H PARENT
REMARK Flexibility Score: inf
ROOT
ATOM      1  C   UNL     1     150.639 142.638 165.232  1.00  0.00     0.039 C 
ATOM      2  C   UNL     1     149.779 143.556 164.415  1.00  0.00    -0.073 C 
ATOM      3  C   UNL     1     149.519 144.835 164.797  1.00  0.00    -0.027 C 
ATOM      4  C   UNL     1     148.623 145.705 163.907  1.00  0.00     0.031 C 
ATOM      5  C   UNL     1     148.114 144.882 162.677  1.00  0.00     0.003 C 
ATOM      6  C   UNL     1     147.627 143.512 163.204  1.00  0.00     0.004 C 
ATOM      7  C   UNL     1     149.104 143.061 163.133  1.00  0.00     0.024 C 
ATOM      8  C   UNL     1     149.268 144.107 162.001  1.00  0.00    -0.022 C 
ATOM      9  C   UNL     1     148.759 143.544 160.644  1.00  0.00     0.008 C 
ATOM     10  C   UNL     1     147.571 142.564 160.820  1.00  0.00     0.005 C 
ATOM     11  C   UNL     1     146.744 142.804 162.126  1.00  0.00    -0.005 C 
ATOM     12  C   UNL     1     150.635 144.812 161.827  1.00  0.00     0.012 C 
ENDROOT
BRANCH  11  13
ATOM     13  C   UNL     1     146.107 141.475 162.648  1.00  0.00    -0.014 C 
ATOM     14  C   UNL     1     145.428 141.648 164.020  1.00  0.00     0.007 C 
ATOM     15  C   UNL     1     145.068 140.926 161.651  1.00  0.00     0.007 C 
ENDBRANCH  11  13
TORSDOF 1
ENDMDL
MODEL 5
REMARK VINA RESULT:    -6.029      1.935      4.187
REMARK INTER + INTRA:          -6.632
REMARK INTER:                  -6.327
REMARK INTRA:                  -0.305
REMARK UNBOUND:                -0.250
REMARK SMILES CC1=CC[C@@H]2[C@H]3[C@H](C(C)C)CC[C@]2(C)[C@@H]13
REMARK SMILES IDX 1 1 2 2 3 3 4 4 5 5 6 6 15 7 13 8 12 9 11 10 7 11 14 12 8 13
REMARK SMILES IDX 9 14 10 15
REMARK H PARENT
REMARK Flexibility Score: inf
ROOT
ATOM      1  C   UNL     1     143.709 147.885 164.847  1.00  0.00     0.039 C 
ATOM      2  C   UNL     1     142.538 147.104 164.328  1.00  0.00    -0.073 C 
ATOM      3  C   UNL     1     141.277 147.290 164.802  1.00  0.00    -0.027 C 
ATOM      4  C   UNL     1     140.137 146.443 164.222  1.00  0.00     0.031 C 
ATOM      5  C   UNL     1     140.693 145.435 163.162  1.00  0.00     0.003 C 
ATOM      6  C   UNL     1     141.952 144.771 163.767  1.00  0.00     0.004 C 
ATOM      7  C   UNL     1     142.732 146.012 163.274  1.00  0.00     0.024 C 
ATOM      8  C   UNL     1     141.651 146.132 162.170  1.00  0.00    -0.022 C 
ATOM      9  C   UNL     1     141.944 145.157 160.994  1.00  0.00     0.008 C 
ATOM     10  C   UNL     1     142.626 143.848 161.469  1.00  0.00     0.005 C 
ATOM     11  C   UNL     1     142.323 143.485 162.960  1.00  0.00    -0.005 C 
ATOM     12  C   UNL     1     141.278 147.537 161.639  1.00  0.00     0.012 C 
ENDROOT
BRANCH  11  13
ATOM     13  C   UNL     1     143.507 142.691 163.604  1.00  0.00    -0.014 C 
ATOM     14  C   UNL     1     143.575 142.875 165.132  1.00  0.00     0.007 C 
ATOM     15  C   UNL     1     143.401 141.186 163.293  1.00  0.00     0.007 C 
ENDBRANCH  11  13
TORSDOF 1
ENDMDL
MODEL 6
REMARK VINA RESULT:    -6.013      5.036      7.493
REMARK INTER + INTRA:          -6.615
REMARK INTER:                  -6.307
REMARK INTRA:                  -0.307
REMARK UNBOUND:                -0.250
REMARK SMILES CC1=CC[C@@H]2[C@H]3[C@H](C(C)C)CC[C@]2(C)[C@@H]13
REMARK SMILES IDX 1 1 2 2 3 3 4 4 5 5 6 6 15 7 13 8 12 9 11 10 7 11 14 12 8 13
REMARK SMILES IDX 9 14 10 15
REMARK H PARENT
REMARK Flexibility Score: inf
ROOT
ATOM      1  C   UNL     1     148.097 143.347 161.083  1.00  0.00     0.039 C 
ATOM      2  C   UNL     1     147.944 143.358 162.575  1.00  0.00    -0.073 C 
ATOM      3  C   UNL     1     148.999 143.162 163.412  1.00  0.00    -0.027 C 
ATOM      4  C   UNL     1     148.754 143.181 164.926  1.00  0.00     0.031 C 
ATOM      5  C   UNL     1     147.234 143.389 165.229  1.00  0.00     0.003 C 
ATOM      6  C   UNL     1     146.440 142.438 164.304  1.00  0.00     0.004 C 
ATOM      7  C   UNL     1     146.567 143.533 163.219  1.00  0.00     0.024 C 
ATOM      8  C   UNL     1     146.645 144.546 164.389  1.00  0.00    -0.022 C 
ATOM      9  C   UNL     1     145.228 144.882 164.932  1.00  0.00     0.008 C 
ATOM     10  C   UNL     1     144.256 143.679 164.827  1.00  0.00     0.005 C 
ATOM     11  C   UNL     1     144.972 142.288 164.818  1.00  0.00    -0.005 C 
ATOM     12  C   UNL     1     147.484 145.834 164.207  1.00  0.00     0.012 C 
ENDROOT
BRANCH  11  13
ATOM     13  C   UNL     1     144.154 141.232 164.006  1.00  0.00    -0.014 C 
ATOM     14  C   UNL     1     145.054 140.159 163.364  1.00  0.00     0.007 C 
ATOM     15  C   UNL     1     143.111 140.530 164.898  1.00  0.00     0.007 C 
ENDBRANCH  11  13
TORSDOF 1
ENDMDL
MODEL 7
REMARK VINA RESULT:    -6.008      1.614      3.367
REMARK INTER + INTRA:          -6.609
REMARK INTER:                  -6.303
REMARK INTRA:                  -0.307
REMARK UNBOUND:                -0.250
REMARK SMILES CC1=CC[C@@H]2[C@H]3[C@H](C(C)C)CC[C@]2(C)[C@@H]13
REMARK SMILES IDX 1 1 2 2 3 3 4 4 5 5 6 6 15 7 13 8 12 9 11 10 7 11 14 12 8 13
REMARK SMILES IDX 9 14 10 15
REMARK H PARENT
REMARK Flexibility Score: inf
ROOT
ATOM      1  C   UNL     1     142.690 147.405 161.092  1.00  0.00     0.039 C 
ATOM      2  C   UNL     1     142.842 147.392 162.584  1.00  0.00    -0.073 C 
ATOM      3  C   UNL     1     141.786 147.581 163.421  1.00  0.00    -0.027 C 
ATOM      4  C   UNL     1     142.031 147.561 164.935  1.00  0.00     0.031 C 
ATOM      5  C   UNL     1     143.553 147.359 165.238  1.00  0.00     0.003 C 
ATOM      6  C   UNL     1     144.341 148.317 164.315  1.00  0.00     0.004 C 
ATOM      7  C   UNL     1     144.220 147.223 163.228  1.00  0.00     0.024 C 
ATOM      8  C   UNL     1     144.147 146.207 164.396  1.00  0.00    -0.022 C 
ATOM      9  C   UNL     1     145.566 145.878 164.938  1.00  0.00     0.008 C 
ATOM     10  C   UNL     1     146.532 147.086 164.835  1.00  0.00     0.005 C 
ATOM     11  C   UNL     1     145.809 148.473 164.830  1.00  0.00    -0.005 C 
ATOM     12  C   UNL     1     143.315 144.915 164.212  1.00  0.00     0.012 C 
ENDROOT
BRANCH  11  13
ATOM     13  C   UNL     1     146.621 149.535 164.019  1.00  0.00    -0.014 C 
ATOM     14  C   UNL     1     145.715 150.603 163.378  1.00  0.00     0.007 C 
ATOM     15  C   UNL     1     147.659 150.242 164.913  1.00  0.00     0.007 C 
ENDBRANCH  11  13
TORSDOF 1
ENDMDL
MODEL 8
REMARK VINA RESULT:    -5.982      3.952      6.333
REMARK INTER + INTRA:          -6.582
REMARK INTER:                  -6.283
REMARK INTRA:                  -0.299
REMARK UNBOUND:                -0.250
REMARK SMILES CC1=CC[C@@H]2[C@H]3[C@H](C(C)C)CC[C@]2(C)[C@@H]13
REMARK SMILES IDX 1 1 2 2 3 3 4 4 5 5 6 6 15 7 13 8 12 9 11 10 7 11 14 12 8 13
REMARK SMILES IDX 9 14 10 15
REMARK H PARENT
REMARK Flexibility Score: inf
ROOT
ATOM      1  C   UNL     1     147.308 148.626 161.093  1.00  0.00     0.039 C 
ATOM      2  C   UNL     1     147.334 148.439 162.581  1.00  0.00    -0.073 C 
ATOM      3  C   UNL     1     147.621 149.460 163.434  1.00  0.00    -0.027 C 
ATOM      4  C   UNL     1     147.634 149.181 164.941  1.00  0.00     0.031 C 
ATOM      5  C   UNL     1     147.341 147.669 165.218  1.00  0.00     0.003 C 
ATOM      6  C   UNL     1     148.213 146.841 164.246  1.00  0.00     0.004 C 
ATOM      7  C   UNL     1     147.095 147.061 163.200  1.00  0.00     0.024 C 
ATOM      8  C   UNL     1     146.125 147.173 164.404  1.00  0.00    -0.022 C 
ATOM      9  C   UNL     1     145.719 145.765 164.926  1.00  0.00     0.008 C 
ATOM     10  C   UNL     1     146.856 144.724 164.760  1.00  0.00     0.005 C 
ATOM     11  C   UNL     1     148.287 145.354 164.722  1.00  0.00    -0.005 C 
ATOM     12  C   UNL     1     144.886 148.093 164.282  1.00  0.00     0.012 C 
ENDROOT
BRANCH  11  13
ATOM     13  C   UNL     1     149.265 144.493 163.858  1.00  0.00    -0.014 C 
ATOM     14  C   UNL     1     150.274 145.356 163.077  1.00  0.00     0.007 C 
ATOM     15  C   UNL     1     150.046 143.493 164.733  1.00  0.00     0.007 C 
ENDBRANCH  11  13
TORSDOF 1
ENDMDL
MODEL 9
REMARK VINA RESULT:    -5.979      2.837      5.332
REMARK INTER + INTRA:          -6.578
REMARK INTER:                  -6.275
REMARK INTRA:                  -0.304
REMARK UNBOUND:                -0.250
REMARK SMILES CC1=CC[C@@H]2[C@H]3[C@H](C(C)C)CC[C@]2(C)[C@@H]13
REMARK SMILES IDX 1 1 2 2 3 3 4 4 5 5 6 6 15 7 13 8 12 9 11 10 7 11 14 12 8 13
REMARK SMILES IDX 9 14 10 15
REMARK H PARENT
REMARK Flexibility Score: inf
ROOT
ATOM      1  C   UNL     1     143.474 142.137 161.097  1.00  0.00     0.039 C 
ATOM      2  C   UNL     1     143.450 142.295 162.588  1.00  0.00    -0.073 C 
ATOM      3  C   UNL     1     143.149 141.262 163.421  1.00  0.00    -0.027 C 
ATOM      4  C   UNL     1     143.139 141.512 164.934  1.00  0.00     0.031 C 
ATOM      5  C   UNL     1     143.453 143.014 165.240  1.00  0.00     0.003 C 
ATOM      6  C   UNL     1     142.592 143.872 164.284  1.00  0.00     0.004 C 
ATOM      7  C   UNL     1     143.708 143.658 163.234  1.00  0.00     0.024 C 
ATOM      8  C   UNL     1     144.676 143.509 164.436  1.00  0.00    -0.022 C 
ATOM      9  C   UNL     1     145.100 144.900 164.985  1.00  0.00     0.008 C 
ATOM     10  C   UNL     1     143.978 145.960 164.840  1.00  0.00     0.005 C 
ATOM     11  C   UNL     1     142.538 145.350 164.790  1.00  0.00    -0.005 C 
ATOM     12  C   UNL     1     145.902 142.575 164.296  1.00  0.00     0.012 C 
ENDROOT
BRANCH  11  13
ATOM     13  C   UNL     1     141.572 146.241 163.944  1.00  0.00    -0.014 C 
ATOM     14  C   UNL     1     140.521 145.410 163.184  1.00  0.00     0.007 C 
ATOM     15  C   UNL     1     140.841 147.268 164.831  1.00  0.00     0.007 C 
ENDBRANCH  11  13
TORSDOF 1
ENDMDL
