MODEL 1
REMARK VINA RESULT:    -4.807      0.000      0.000
REMARK INTER + INTRA:          -9.855
REMARK INTER:                  -8.741
REMARK INTRA:                  -1.113
REMARK UNBOUND:                -1.113
REMARK SMILES CCCCCC=CCC=CCCCCCCCC(=O)[O-]
REMARK SMILES IDX 11 1 12 2 13 3 14 4 15 5 16 6 17 7 18 8 19 9 20 10 10 11
REMARK SMILES IDX 9 12 8 13 7 14 6 15 5 16 4 17 3 18 2 19 1 20
REMARK H PARENT
REMARK Flexibility Score: inf
ROOT
ATOM      1  C   UNL     1      41.017  -4.483  -2.917  1.00  0.00     0.027 C 
ENDROOT
BRANCH   1   2
ATOM      2  C   UNL     1      41.900  -5.365  -2.020  1.00  0.00     0.004 C 
BRANCH   2   3
ATOM      3  C   UNL     1      41.704  -6.861  -2.306  1.00  0.00     0.000 C 
BRANCH   3   4
ATOM      4  C   UNL     1      41.735  -7.678  -1.009  1.00  0.00     0.000 C 
BRANCH   4   5
ATOM      5  C   UNL     1      40.493  -8.572  -0.891  1.00  0.00     0.000 C 
BRANCH   5   6
ATOM      6  C   UNL     1      39.651  -8.262   0.360  1.00  0.00     0.006 C 
BRANCH   6   7
ATOM      7  C   UNL     1      40.339  -7.330   1.370  1.00  0.00     0.053 C 
BRANCH   7   8
ATOM      8  C   UNL     1      39.631  -6.017   1.496  1.00  0.00     0.041 C 
ATOM      9  O   UNL     1      40.286  -4.941   1.483  1.00  0.00    -0.550 OA
ATOM     10  O   UNL     1      38.253  -5.982   1.670  1.00  0.00    -0.550 OA
ENDBRANCH   7   8
ENDBRANCH   6   7
ENDBRANCH   5   6
ENDBRANCH   4   5
ENDBRANCH   3   4
ENDBRANCH   2   3
ENDBRANCH   1   2
BRANCH   1  11
ATOM     11  C   UNL     1      41.756  -3.993  -4.138  1.00  0.00    -0.031 C 
ATOM     12  C   UNL     1      41.656  -4.532  -5.368  1.00  0.00    -0.027 C 
BRANCH  12  13
ATOM     13  C   UNL     1      40.825  -5.741  -5.722  1.00  0.00     0.054 C 
BRANCH  13  14
ATOM     14  C   UNL     1      39.868  -5.404  -6.828  1.00  0.00    -0.027 C 
ATOM     15  C   UNL     1      38.546  -5.572  -6.682  1.00  0.00    -0.031 C 
BRANCH  15  16
ATOM     16  C   UNL     1      37.601  -5.235  -7.804  1.00  0.00     0.027 C 
BRANCH  16  17
ATOM     17  C   UNL     1      36.164  -5.649  -7.463  1.00  0.00     0.004 C 
BRANCH  17  18
ATOM     18  C   UNL     1      35.149  -4.751  -8.178  1.00  0.00     0.000 C 
BRANCH  18  19
ATOM     19  C   UNL     1      35.846  -3.576  -8.875  1.00  0.00    -0.003 C 
ATOM     20  C   UNL     1      34.925  -2.363  -8.965  1.00  0.00     0.004 C 
ENDBRANCH  18  19
ENDBRANCH  17  18
ENDBRANCH  16  17
ENDBRANCH  15  16
ENDBRANCH  13  14
ENDBRANCH  12  13
ENDBRANCH   1  11
TORSDOF 14
ENDMDL
MODEL 2
REMARK VINA RESULT:    -4.729      3.561      8.273
REMARK INTER + INTRA:          -9.714
REMARK INTER:                  -8.505
REMARK INTRA:                  -1.209
REMARK UNBOUND:                -1.113
REMARK SMILES CCCCCC=CCC=CCCCCCCCC(=O)[O-]
REMARK SMILES IDX 11 1 12 2 13 3 14 4 15 5 16 6 17 7 18 8 19 9 20 10 10 11
REMARK SMILES IDX 9 12 8 13 7 14 6 15 5 16 4 17 3 18 2 19 1 20
REMARK H PARENT
REMARK Flexibility Score: inf
ROOT
ATOM      1  C   UNL     1      41.500  -4.594  -5.378  1.00  0.00     0.027 C 
ENDROOT
BRANCH   1   2
ATOM      2  C   UNL     1      40.184  -5.009  -6.056  1.00  0.00     0.004 C 
BRANCH   2   3
ATOM      3  C   UNL     1      39.920  -6.517  -5.933  1.00  0.00     0.000 C 
BRANCH   3   4
ATOM      4  C   UNL     1      38.678  -6.924  -6.734  1.00  0.00     0.000 C 
BRANCH   4   5
ATOM      5  C   UNL     1      37.911  -5.689  -7.227  1.00  0.00     0.000 C 
BRANCH   5   6
ATOM      6  C   UNL     1      36.385  -5.887  -7.205  1.00  0.00     0.006 C 
BRANCH   6   7
ATOM      7  C   UNL     1      35.665  -5.397  -8.471  1.00  0.00     0.053 C 
BRANCH   7   8
ATOM      8  C   UNL     1      35.255  -3.960  -8.365  1.00  0.00     0.041 C 
ATOM      9  O   UNL     1      34.145  -3.655  -7.855  1.00  0.00    -0.550 OA
ATOM     10  O   UNL     1      36.081  -2.962  -8.867  1.00  0.00    -0.550 OA
ENDBRANCH   7   8
ENDBRANCH   6   7
ENDBRANCH   5   6
ENDBRANCH   4   5
ENDBRANCH   3   4
ENDBRANCH   2   3
ENDBRANCH   1   2
BRANCH   1  11
ATOM     11  C   UNL     1      41.278  -4.052  -3.987  1.00  0.00    -0.031 C 
ATOM     12  C   UNL     1      41.462  -4.748  -2.849  1.00  0.00    -0.027 C 
BRANCH  12  13
ATOM     13  C   UNL     1      41.876  -6.197  -2.774  1.00  0.00     0.054 C 
BRANCH  13  14
ATOM     14  C   UNL     1      41.646  -6.729  -1.390  1.00  0.00    -0.027 C 
ATOM     15  C   UNL     1      41.061  -7.919  -1.187  1.00  0.00    -0.031 C 
BRANCH  15  16
ATOM     16  C   UNL     1      40.833  -8.434   0.209  1.00  0.00     0.027 C 
BRANCH  16  17
ATOM     17  C   UNL     1      39.359  -8.311   0.611  1.00  0.00     0.004 C 
BRANCH  17  18
ATOM     18  C   UNL     1      39.207  -7.502   1.904  1.00  0.00     0.000 C 
BRANCH  18  19
ATOM     19  C   UNL     1      38.882  -6.034   1.600  1.00  0.00    -0.003 C 
ATOM     20  C   UNL     1      40.118  -5.153   1.754  1.00  0.00     0.004 C 
ENDBRANCH  18  19
ENDBRANCH  17  18
ENDBRANCH  16  17
ENDBRANCH  15  16
ENDBRANCH  13  14
ENDBRANCH  12  13
ENDBRANCH   1  11
TORSDOF 14
ENDMDL
MODEL 3
REMARK VINA RESULT:    -4.343     14.267     16.676
REMARK INTER + INTRA:          -9.010
REMARK INTER:                  -7.342
REMARK INTRA:                  -1.668
REMARK UNBOUND:                -1.113
REMARK SMILES CCCCCC=CCC=CCCCCCCCC(=O)[O-]
REMARK SMILES IDX 11 1 12 2 13 3 14 4 15 5 16 6 17 7 18 8 19 9 20 10 10 11
REMARK SMILES IDX 9 12 8 13 7 14 6 15 5 16 4 17 3 18 2 19 1 20
REMARK H PARENT
REMARK Flexibility Score: inf
ROOT
ATOM      1  C   UNL     1      40.234   6.168   5.435  1.00  0.00     0.027 C 
ENDROOT
BRANCH   1   2
ATOM      2  C   UNL     1      41.168   5.139   6.091  1.00  0.00     0.004 C 
BRANCH   2   3
ATOM      3  C   UNL     1      40.557   3.730   6.104  1.00  0.00     0.000 C 
BRANCH   3   4
ATOM      4  C   UNL     1      39.172   3.736   6.762  1.00  0.00     0.000 C 
BRANCH   4   5
ATOM      5  C   UNL     1      39.289   3.852   8.289  1.00  0.00     0.000 C 
BRANCH   5   6
ATOM      6  C   UNL     1      38.258   2.984   9.033  1.00  0.00     0.006 C 
BRANCH   6   7
ATOM      7  C   UNL     1      37.015   2.627   8.203  1.00  0.00     0.053 C 
BRANCH   7   8
ATOM      8  C   UNL     1      36.265   1.468   8.784  1.00  0.00     0.041 C 
ATOM      9  O   UNL     1      36.825   0.346   8.902  1.00  0.00    -0.550 OA
ATOM     10  O   UNL     1      34.935   1.616   9.157  1.00  0.00    -0.550 OA
ENDBRANCH   7   8
ENDBRANCH   6   7
ENDBRANCH   5   6
ENDBRANCH   4   5
ENDBRANCH   3   4
ENDBRANCH   2   3
ENDBRANCH   1   2
BRANCH   1  11
ATOM     11  C   UNL     1      39.922   7.322   6.355  1.00  0.00    -0.031 C 
ATOM     12  C   UNL     1      38.740   7.523   6.968  1.00  0.00    -0.027 C 
BRANCH  12  13
ATOM     13  C   UNL     1      37.517   6.655   6.802  1.00  0.00     0.054 C 
BRANCH  13  14
ATOM     14  C   UNL     1      36.462   7.053   7.792  1.00  0.00    -0.027 C 
ATOM     15  C   UNL     1      36.304   6.393   8.948  1.00  0.00    -0.031 C 
BRANCH  15  16
ATOM     16  C   UNL     1      35.236   6.803   9.926  1.00  0.00     0.027 C 
BRANCH  16  17
ATOM     17  C   UNL     1      33.895   6.139   9.595  1.00  0.00     0.004 C 
BRANCH  17  18
ATOM     18  C   UNL     1      32.857   7.181   9.164  1.00  0.00     0.000 C 
BRANCH  18  19
ATOM     19  C   UNL     1      31.469   6.839   9.722  1.00  0.00    -0.003 C 
ATOM     20  C   UNL     1      31.139   5.364   9.512  1.00  0.00     0.004 C 
ENDBRANCH  18  19
ENDBRANCH  17  18
ENDBRANCH  16  17
ENDBRANCH  15  16
ENDBRANCH  13  14
ENDBRANCH  12  13
ENDBRANCH   1  11
TORSDOF 14
ENDMDL
MODEL 4
REMARK VINA RESULT:    -4.337     14.758     16.724
REMARK INTER + INTRA:          -9.000
REMARK INTER:                  -6.943
REMARK INTRA:                  -2.056
REMARK UNBOUND:                -1.113
REMARK SMILES CCCCCC=CCC=CCCCCCCCC(=O)[O-]
REMARK SMILES IDX 11 1 12 2 13 3 14 4 15 5 16 6 17 7 18 8 19 9 20 10 10 11
REMARK SMILES IDX 9 12 8 13 7 14 6 15 5 16 4 17 3 18 2 19 1 20
REMARK H PARENT
REMARK Flexibility Score: inf
ROOT
ATOM      1  C   UNL     1      40.208   5.944   5.543  1.00  0.00     0.027 C 
ENDROOT
BRANCH   1   2
ATOM      2  C   UNL     1      41.253   4.963   6.099  1.00  0.00     0.004 C 
BRANCH   2   3
ATOM      3  C   UNL     1      40.619   3.891   6.998  1.00  0.00     0.000 C 
BRANCH   3   4
ATOM      4  C   UNL     1      39.098   3.844   6.806  1.00  0.00     0.000 C 
BRANCH   4   5
ATOM      5  C   UNL     1      38.376   3.736   8.157  1.00  0.00     0.000 C 
BRANCH   5   6
ATOM      6  C   UNL     1      36.845   3.679   8.012  1.00  0.00     0.006 C 
BRANCH   6   7
ATOM      7  C   UNL     1      36.105   3.230   9.282  1.00  0.00     0.053 C 
BRANCH   7   8
ATOM      8  C   UNL     1      35.485   1.876   9.122  1.00  0.00     0.041 C 
ATOM      9  O   UNL     1      34.287   1.684   9.462  1.00  0.00    -0.550 OA
ATOM     10  O   UNL     1      36.241   0.816   8.635  1.00  0.00    -0.550 OA
ENDBRANCH   7   8
ENDBRANCH   6   7
ENDBRANCH   5   6
ENDBRANCH   4   5
ENDBRANCH   3   4
ENDBRANCH   2   3
ENDBRANCH   1   2
BRANCH   1  11
ATOM     11  C   UNL     1      40.501   7.371   5.937  1.00  0.00    -0.031 C 
ATOM     12  C   UNL     1      40.101   7.952   7.084  1.00  0.00    -0.027 C 
BRANCH  12  13
ATOM     13  C   UNL     1      39.257   7.290   8.145  1.00  0.00     0.054 C 
BRANCH  13  14
ATOM     14  C   UNL     1      37.830   7.738   8.022  1.00  0.00    -0.027 C 
ATOM     15  C   UNL     1      36.991   7.166   7.146  1.00  0.00    -0.031 C 
BRANCH  15  16
ATOM     16  C   UNL     1      35.565   7.631   7.032  1.00  0.00     0.027 C 
BRANCH  16  17
ATOM     17  C   UNL     1      35.089   8.286   8.333  1.00  0.00     0.004 C 
BRANCH  17  18
ATOM     18  C   UNL     1      34.192   7.333   9.132  1.00  0.00     0.000 C 
BRANCH  18  19
ATOM     19  C   UNL     1      32.709   7.614   8.860  1.00  0.00    -0.003 C 
ATOM     20  C   UNL     1      31.833   6.460   9.337  1.00  0.00     0.004 C 
ENDBRANCH  18  19
ENDBRANCH  17  18
ENDBRANCH  16  17
ENDBRANCH  15  16
ENDBRANCH  13  14
ENDBRANCH  12  13
ENDBRANCH   1  11
TORSDOF 14
ENDMDL
MODEL 5
REMARK VINA RESULT:    -4.333     14.590     16.429
REMARK INTER + INTRA:          -8.994
REMARK INTER:                  -6.724
REMARK INTRA:                  -2.270
REMARK UNBOUND:                -1.113
REMARK SMILES CCCCCC=CCC=CCCCCCCCC(=O)[O-]
REMARK SMILES IDX 11 1 12 2 13 3 14 4 15 5 16 6 17 7 18 8 19 9 20 10 10 11
REMARK SMILES IDX 9 12 8 13 7 14 6 15 5 16 4 17 3 18 2 19 1 20
REMARK H PARENT
REMARK Flexibility Score: inf
ROOT
ATOM      1  C   UNL     1      39.147   3.667   7.716  1.00  0.00     0.027 C 
ENDROOT
BRANCH   1   2
ATOM      2  C   UNL     1      38.921   3.929   9.214  1.00  0.00     0.004 C 
BRANCH   2   3
ATOM      3  C   UNL     1      37.962   5.103   9.458  1.00  0.00     0.000 C 
BRANCH   3   4
ATOM      4  C   UNL     1      36.578   4.814   8.864  1.00  0.00     0.000 C 
BRANCH   4   5
ATOM      5  C   UNL     1      35.568   4.464   9.966  1.00  0.00     0.000 C 
BRANCH   5   6
ATOM      6  C   UNL     1      34.973   3.054   9.804  1.00  0.00     0.006 C 
BRANCH   6   7
ATOM      7  C   UNL     1      35.953   1.914  10.125  1.00  0.00     0.053 C 
BRANCH   7   8
ATOM      8  C   UNL     1      36.333   1.138   8.902  1.00  0.00     0.041 C 
ATOM      9  O   UNL     1      36.869   0.003   9.013  1.00  0.00    -0.550 OA
ATOM     10  O   UNL     1      36.132   1.684   7.640  1.00  0.00    -0.550 OA
ENDBRANCH   7   8
ENDBRANCH   6   7
ENDBRANCH   5   6
ENDBRANCH   4   5
ENDBRANCH   3   4
ENDBRANCH   2   3
ENDBRANCH   1   2
BRANCH   1  11
ATOM     11  C   UNL     1      40.599   3.801   7.327  1.00  0.00    -0.031 C 
ATOM     12  C   UNL     1      41.061   4.570   6.324  1.00  0.00    -0.027 C 
BRANCH  12  13
ATOM     13  C   UNL     1      40.203   5.391   5.393  1.00  0.00     0.054 C 
BRANCH  13  14
ATOM     14  C   UNL     1      40.082   6.796   5.906  1.00  0.00    -0.027 C 
ATOM     15  C   UNL     1      39.048   7.173   6.671  1.00  0.00    -0.031 C 
BRANCH  15  16
ATOM     16  C   UNL     1      38.939   8.588   7.172  1.00  0.00     0.027 C 
BRANCH  16  17
ATOM     17  C   UNL     1      37.497   8.927   7.567  1.00  0.00     0.004 C 
BRANCH  17  18
ATOM     18  C   UNL     1      36.522   7.858   7.062  1.00  0.00     0.000 C 
BRANCH  18  19
ATOM     19  C   UNL     1      35.068   8.322   7.215  1.00  0.00    -0.003 C 
ATOM     20  C   UNL     1      34.491   7.892   8.560  1.00  0.00     0.004 C 
ENDBRANCH  18  19
ENDBRANCH  17  18
ENDBRANCH  16  17
ENDBRANCH  15  16
ENDBRANCH  13  14
ENDBRANCH  12  13
ENDBRANCH   1  11
TORSDOF 14
ENDMDL
MODEL 6
REMARK VINA RESULT:    -4.315      1.550      2.003
REMARK INTER + INTRA:          -8.960
REMARK INTER:                  -7.997
REMARK INTRA:                  -0.963
REMARK UNBOUND:                -1.113
REMARK SMILES CCCCCC=CCC=CCCCCCCCC(=O)[O-]
REMARK SMILES IDX 11 1 12 2 13 3 14 4 15 5 16 6 17 7 18 8 19 9 20 10 10 11
REMARK SMILES IDX 9 12 8 13 7 14 6 15 5 16 4 17 3 18 2 19 1 20
REMARK H PARENT
REMARK Flexibility Score: inf
ROOT
ATOM      1  C   UNL     1      41.402  -5.092  -3.744  1.00  0.00     0.027 C 
ENDROOT
BRANCH   1   2
ATOM      2  C   UNL     1      41.854  -5.264  -2.284  1.00  0.00     0.004 C 
BRANCH   2   3
ATOM      3  C   UNL     1      42.112  -6.735  -1.928  1.00  0.00     0.000 C 
BRANCH   3   4
ATOM      4  C   UNL     1      41.849  -6.995  -0.440  1.00  0.00     0.000 C 
BRANCH   4   5
ATOM      5  C   UNL     1      41.013  -5.864   0.177  1.00  0.00     0.000 C 
BRANCH   5   6
ATOM      6  C   UNL     1      40.449  -6.227   1.563  1.00  0.00     0.006 C 
BRANCH   6   7
ATOM      7  C   UNL     1      39.005  -6.750   1.540  1.00  0.00     0.053 C 
BRANCH   7   8
ATOM      8  C   UNL     1      38.949  -8.243   1.430  1.00  0.00     0.041 C 
ATOM      9  O   UNL     1      39.099  -8.959   2.455  1.00  0.00    -0.550 OA
ATOM     10  O   UNL     1      38.773  -8.843   0.189  1.00  0.00    -0.550 OA
ENDBRANCH   7   8
ENDBRANCH   6   7
ENDBRANCH   5   6
ENDBRANCH   4   5
ENDBRANCH   3   4
ENDBRANCH   2   3
ENDBRANCH   1   2
BRANCH   1  11
ATOM     11  C   UNL     1      41.292  -6.413  -4.464  1.00  0.00    -0.031 C 
ATOM     12  C   UNL     1      40.560  -6.629  -5.574  1.00  0.00    -0.027 C 
BRANCH  12  13
ATOM     13  C   UNL     1      39.693  -5.599  -6.256  1.00  0.00     0.054 C 
BRANCH  13  14
ATOM     14  C   UNL     1      38.508  -6.262  -6.894  1.00  0.00    -0.027 C 
ATOM     15  C   UNL     1      37.362  -5.598  -7.097  1.00  0.00    -0.031 C 
BRANCH  15  16
ATOM     16  C   UNL     1      36.181  -6.281  -7.733  1.00  0.00     0.027 C 
BRANCH  16  17
ATOM     17  C   UNL     1      35.176  -5.260  -8.277  1.00  0.00     0.004 C 
BRANCH  17  18
ATOM     18  C   UNL     1      35.863  -4.253  -9.206  1.00  0.00     0.000 C 
BRANCH  18  19
ATOM     19  C   UNL     1      35.433  -2.818  -8.878  1.00  0.00    -0.003 C 
ATOM     20  C   UNL     1      33.931  -2.635  -9.070  1.00  0.00     0.004 C 
ENDBRANCH  18  19
ENDBRANCH  17  18
ENDBRANCH  16  17
ENDBRANCH  15  16
ENDBRANCH  13  14
ENDBRANCH  12  13
ENDBRANCH   1  11
TORSDOF 14
ENDMDL
MODEL 7
REMARK VINA RESULT:    -4.251      2.289      3.455
REMARK INTER + INTRA:          -8.844
REMARK INTER:                  -7.468
REMARK INTRA:                  -1.376
REMARK UNBOUND:                -1.113
REMARK SMILES CCCCCC=CCC=CCCCCCCCC(=O)[O-]
REMARK SMILES IDX 11 1 12 2 13 3 14 4 15 5 16 6 17 7 18 8 19 9 20 10 10 11
REMARK SMILES IDX 9 12 8 13 7 14 6 15 5 16 4 17 3 18 2 19 1 20
REMARK H PARENT
REMARK Flexibility Score: inf
ROOT
ATOM      1  C   UNL     1      41.409  -4.844  -3.923  1.00  0.00     0.027 C 
ENDROOT
BRANCH   1   2
ATOM      2  C   UNL     1      41.684  -5.017  -2.421  1.00  0.00     0.004 C 
BRANCH   2   3
ATOM      3  C   UNL     1      41.828  -6.494  -2.026  1.00  0.00     0.000 C 
BRANCH   3   4
ATOM      4  C   UNL     1      41.886  -6.652  -0.501  1.00  0.00     0.000 C 
BRANCH   4   5
ATOM      5  C   UNL     1      40.977  -5.627   0.193  1.00  0.00     0.000 C 
BRANCH   5   6
ATOM      6  C   UNL     1      40.469  -6.113   1.563  1.00  0.00     0.006 C 
BRANCH   6   7
ATOM      7  C   UNL     1      39.033  -6.660   1.546  1.00  0.00     0.053 C 
BRANCH   7   8
ATOM      8  C   UNL     1      39.000  -8.146   1.359  1.00  0.00     0.041 C 
ATOM      9  O   UNL     1      39.020  -8.638   0.199  1.00  0.00    -0.550 OA
ATOM     10  O   UNL     1      38.905  -8.985   2.462  1.00  0.00    -0.550 OA
ENDBRANCH   7   8
ENDBRANCH   6   7
ENDBRANCH   5   6
ENDBRANCH   4   5
ENDBRANCH   3   4
ENDBRANCH   2   3
ENDBRANCH   1   2
BRANCH   1  11
ATOM     11  C   UNL     1      41.123  -6.160  -4.605  1.00  0.00    -0.031 C 
ATOM     12  C   UNL     1      40.410  -6.303  -5.738  1.00  0.00    -0.027 C 
BRANCH  12  13
ATOM     13  C   UNL     1      39.740  -5.180  -6.490  1.00  0.00     0.054 C 
BRANCH  13  14
ATOM     14  C   UNL     1      38.513  -5.687  -7.190  1.00  0.00    -0.027 C 
ATOM     15  C   UNL     1      37.659  -6.524  -6.583  1.00  0.00    -0.031 C 
BRANCH  15  16
ATOM     16  C   UNL     1      36.436  -7.028  -7.302  1.00  0.00     0.027 C 
BRANCH  16  17
ATOM     17  C   UNL     1      36.201  -8.516  -7.020  1.00  0.00     0.004 C 
BRANCH  17  18
ATOM     18  C   UNL     1      37.468  -9.180  -6.470  1.00  0.00     0.000 C 
BRANCH  18  19
ATOM     19  C   UNL     1      37.161  -9.992  -5.206  1.00  0.00    -0.003 C 
ATOM     20  C   UNL     1      36.400  -9.153  -4.183  1.00  0.00     0.004 C 
ENDBRANCH  18  19
ENDBRANCH  17  18
ENDBRANCH  16  17
ENDBRANCH  15  16
ENDBRANCH  13  14
ENDBRANCH  12  13
ENDBRANCH   1  11
TORSDOF 14
ENDMDL
MODEL 8
REMARK VINA RESULT:    -4.137     13.675     16.596
REMARK INTER + INTRA:          -8.636
REMARK INTER:                  -6.523
REMARK INTRA:                  -2.112
REMARK UNBOUND:                -1.113
REMARK SMILES CCCCCC=CCC=CCCCCCCCC(=O)[O-]
REMARK SMILES IDX 11 1 12 2 13 3 14 4 15 5 16 6 17 7 18 8 19 9 20 10 10 11
REMARK SMILES IDX 9 12 8 13 7 14 6 15 5 16 4 17 3 18 2 19 1 20
REMARK H PARENT
REMARK Flexibility Score: inf
ROOT
ATOM      1  C   UNL     1      38.101   1.793   9.602  1.00  0.00     0.027 C 
ENDROOT
BRANCH   1   2
ATOM      2  C   UNL     1      39.231   2.646   9.003  1.00  0.00     0.004 C 
BRANCH   2   3
ATOM      3  C   UNL     1      39.379   3.996   9.720  1.00  0.00     0.000 C 
BRANCH   3   4
ATOM      4  C   UNL     1      40.851   4.416   9.802  1.00  0.00     0.000 C 
BRANCH   4   5
ATOM      5  C   UNL     1      41.256   5.248   8.576  1.00  0.00     0.000 C 
BRANCH   5   6
ATOM      6  C   UNL     1      42.014   4.424   7.520  1.00  0.00     0.006 C 
BRANCH   6   7
ATOM      7  C   UNL     1      41.601   4.723   6.070  1.00  0.00     0.053 C 
BRANCH   7   8
ATOM      8  C   UNL     1      41.083   3.504   5.370  1.00  0.00     0.041 C 
ATOM      9  O   UNL     1      39.865   3.195   5.456  1.00  0.00    -0.550 OA
ATOM     10  O   UNL     1      41.953   2.687   4.659  1.00  0.00    -0.550 OA
ENDBRANCH   7   8
ENDBRANCH   6   7
ENDBRANCH   5   6
ENDBRANCH   4   5
ENDBRANCH   3   4
ENDBRANCH   2   3
ENDBRANCH   1   2
BRANCH   1  11
ATOM     11  C   UNL     1      37.030   1.475   8.588  1.00  0.00    -0.031 C 
ATOM     12  C   UNL     1      35.705   1.564   8.811  1.00  0.00    -0.027 C 
BRANCH  12  13
ATOM     13  C   UNL     1      35.070   1.952  10.124  1.00  0.00     0.054 C 
BRANCH  13  14
ATOM     14  C   UNL     1      34.534   3.352  10.044  1.00  0.00    -0.027 C 
ATOM     15  C   UNL     1      35.349   4.403   9.878  1.00  0.00    -0.031 C 
BRANCH  15  16
ATOM     16  C   UNL     1      34.795   5.801   9.807  1.00  0.00     0.027 C 
BRANCH  16  17
ATOM     17  C   UNL     1      35.606   6.671   8.841  1.00  0.00     0.004 C 
BRANCH  17  18
ATOM     18  C   UNL     1      37.102   6.612   9.171  1.00  0.00     0.000 C 
BRANCH  18  19
ATOM     19  C   UNL     1      37.952   6.935   7.936  1.00  0.00    -0.003 C 
ATOM     20  C   UNL     1      38.019   5.743   6.986  1.00  0.00     0.004 C 
ENDBRANCH  18  19
ENDBRANCH  17  18
ENDBRANCH  16  17
ENDBRANCH  15  16
ENDBRANCH  13  14
ENDBRANCH  12  13
ENDBRANCH   1  11
TORSDOF 14
ENDMDL
MODEL 9
REMARK VINA RESULT:    -4.116     14.374     16.705
REMARK INTER + INTRA:          -8.598
REMARK INTER:                  -6.801
REMARK INTRA:                  -1.797
REMARK UNBOUND:                -1.113
REMARK SMILES CCCCCC=CCC=CCCCCCCCC(=O)[O-]
REMARK SMILES IDX 11 1 12 2 13 3 14 4 15 5 16 6 17 7 18 8 19 9 20 10 10 11
REMARK SMILES IDX 9 12 8 13 7 14 6 15 5 16 4 17 3 18 2 19 1 20
REMARK H PARENT
REMARK Flexibility Score: inf
ROOT
ATOM      1  C   UNL     1      40.133   5.526   5.309  1.00  0.00     0.027 C 
ENDROOT
BRANCH   1   2
ATOM      2  C   UNL     1      41.337   6.430   5.621  1.00  0.00     0.004 C 
BRANCH   2   3
ATOM      3  C   UNL     1      40.914   7.743   6.296  1.00  0.00     0.000 C 
BRANCH   3   4
ATOM      4  C   UNL     1      39.392   7.804   6.475  1.00  0.00     0.000 C 
BRANCH   4   5
ATOM      5  C   UNL     1      39.006   7.676   7.955  1.00  0.00     0.000 C 
BRANCH   5   6
ATOM      6  C   UNL     1      37.751   6.812   8.172  1.00  0.00     0.006 C 
BRANCH   6   7
ATOM      7  C   UNL     1      36.788   6.785   6.975  1.00  0.00     0.053 C 
BRANCH   7   8
ATOM      8  C   UNL     1      35.672   7.772   7.128  1.00  0.00     0.041 C 
ATOM      9  O   UNL     1      35.318   8.154   8.276  1.00  0.00    -0.550 OA
ATOM     10  O   UNL     1      34.996   8.239   6.008  1.00  0.00    -0.550 OA
ENDBRANCH   7   8
ENDBRANCH   6   7
ENDBRANCH   5   6
ENDBRANCH   4   5
ENDBRANCH   3   4
ENDBRANCH   2   3
ENDBRANCH   1   2
BRANCH   1  11
ATOM     11  C   UNL     1      40.513   4.066   5.266  1.00  0.00    -0.031 C 
ATOM     12  C   UNL     1      41.088   3.388   6.277  1.00  0.00    -0.027 C 
BRANCH  12  13
ATOM     13  C   UNL     1      41.489   3.983   7.604  1.00  0.00     0.054 C 
BRANCH  13  14
ATOM     14  C   UNL     1      40.604   3.456   8.696  1.00  0.00    -0.027 C 
ATOM     15  C   UNL     1      39.272   3.593   8.642  1.00  0.00    -0.031 C 
BRANCH  15  16
ATOM     16  C   UNL     1      38.400   3.064   9.748  1.00  0.00     0.027 C 
BRANCH  16  17
ATOM     17  C   UNL     1      36.915   3.279   9.436  1.00  0.00     0.004 C 
BRANCH  17  18
ATOM     18  C   UNL     1      36.490   2.474   8.202  1.00  0.00     0.000 C 
BRANCH  18  19
ATOM     19  C   UNL     1      35.472   1.389   8.575  1.00  0.00    -0.003 C 
ATOM     20  C   UNL     1      34.886   1.637   9.962  1.00  0.00     0.004 C 
ENDBRANCH  18  19
ENDBRANCH  17  18
ENDBRANCH  16  17
ENDBRANCH  15  16
ENDBRANCH  13  14
ENDBRANCH  12  13
ENDBRANCH   1  11
TORSDOF 14
ENDMDL
