MODEL 1
REMARK VINA RESULT:    -9.688      0.000      0.000
REMARK INTER + INTRA:          -9.913
REMARK INTER:                 -10.537
REMARK INTRA:                   0.624
REMARK UNBOUND:                 0.624
REMARK SMILES C[C@@H]1[C@H](C)CC[C@@]2(C(=O)[O-])CC[C@@]3(C)C(=CC[C@@H]4[C@]5(C)CC[C@@H](O)C(C)(C)[C@@H]5CC[C@@]43C)[C@H]12
REMARK SMILES IDX 7 1 6 2 11 3 33 4 5 5 12 6 15 7 2 8 3 9 13 10 16 11 1 12
REMARK SMILES IDX 4 13 14 14 31 15 17 16 18 17 30 18 32 19 19 20 29 21 28 22
REMARK SMILES IDX 21 23 20 24 25 25 22 26 23 27 26 28 27 29 8 30 9 31 10 32
REMARK SMILES IDX 24 33
REMARK H PARENT 24 34
REMARK Flexibility Score: inf
ROOT
ATOM      1  C   UNL     1      15.789  16.982   1.588  1.00  0.00     0.017 C 
ATOM      2  C   UNL     1      17.083  17.841   1.683  1.00  0.00     0.014 C 
ATOM      3  C   UNL     1      16.162  15.530   1.947  1.00  0.00     0.014 C 
ATOM      4  C   UNL     1      14.765  17.505   2.649  1.00  0.00     0.030 C 
ATOM      5  C   UNL     1      16.812  19.338   1.492  1.00  0.00     0.004 C 
ATOM      6  C   UNL     1      14.943  14.600   1.951  1.00  0.00     0.013 C 
ATOM      7  C   UNL     1      13.564  16.554   2.876  1.00  0.00    -0.063 C 
ATOM      8  C   UNL     1      14.469  19.042   2.502  1.00  0.00    -0.003 C 
ATOM      9  C   UNL     1      15.800  19.850   2.532  1.00  0.00    -0.011 C 
ATOM     10  C   UNL     1      13.789  15.021   2.944  1.00  0.00    -0.006 C 
ATOM     11  C   UNL     1      12.394  17.046   3.340  1.00  0.00    -0.027 C 
ATOM     12  C   UNL     1      13.572  19.408   1.297  1.00  0.00     0.008 C 
ATOM     13  C   UNL     1      15.586  21.364   2.384  1.00  0.00     0.008 C 
ATOM     14  C   UNL     1      14.304  14.663   4.366  1.00  0.00     0.017 C 
ATOM     15  C   UNL     1      12.392  14.260   2.614  1.00  0.00    -0.020 C 
ATOM     16  C   UNL     1      11.439  16.208   4.127  1.00  0.00     0.032 C 
ATOM     17  C   UNL     1      11.160  14.810   3.507  1.00  0.00     0.006 C 
ATOM     18  C   UNL     1      12.548  12.709   2.693  1.00  0.00     0.008 C 
ATOM     19  C   UNL     1      12.006  14.543   1.115  1.00  0.00     0.012 C 
ATOM     20  C   UNL     1      10.325  13.833   4.501  1.00  0.00    -0.025 C 
ATOM     21  C   UNL     1      12.079  12.080   3.987  1.00  0.00     0.005 C 
ATOM     22  C   UNL     1      10.560  12.303   4.173  1.00  0.00     0.003 C 
ATOM     23  C   UNL     1      10.670  14.084   6.010  1.00  0.00     0.010 C 
ATOM     24  C   UNL     1       8.818  14.204   4.297  1.00  0.00     0.012 C 
ATOM     25  C   UNL     1       9.922  11.265   5.210  1.00  0.00    -0.006 C 
ATOM     26  C   UNL     1      10.034  13.103   7.005  1.00  0.00     0.033 C 
ATOM     27  C   UNL     1      10.340  11.639   6.661  1.00  0.00     0.120 C 
ATOM     28  C   UNL     1      10.418   9.813   4.932  1.00  0.00     0.014 C 
ATOM     29  C   UNL     1       8.367  11.199   5.069  1.00  0.00     0.014 C 
ENDROOT
BRANCH   1  30
ATOM     30  C   UNL     1      15.260  17.011   0.156  1.00  0.00     0.048 C 
ATOM     31  O   UNL     1      14.041  16.810  -0.088  1.00  0.00    -0.550 OA
ATOM     32  O   UNL     1      16.134  17.159  -0.915  1.00  0.00    -0.550 OA
ENDBRANCH   1  30
BRANCH  27  33
ATOM     33  O   UNL     1       9.691  10.796   7.582  1.00  0.00    -0.393 OA
ATOM     34  H   UNL     1      10.328  10.634   8.327  1.00  0.00     0.210 HD
ENDBRANCH  27  33
TORSDOF 2
ENDMDL
MODEL 2
REMARK VINA RESULT:    -9.013      2.436      8.861
REMARK INTER + INTRA:          -9.179
REMARK INTER:                 -10.582
REMARK INTRA:                   1.404
REMARK UNBOUND:                 0.624
REMARK SMILES C[C@@H]1[C@H](C)CC[C@@]2(C(=O)[O-])CC[C@@]3(C)C(=CC[C@@H]4[C@]5(C)CC[C@@H](O)C(C)(C)[C@@H]5CC[C@@]43C)[C@H]12
REMARK SMILES IDX 7 1 6 2 11 3 33 4 5 5 12 6 15 7 2 8 3 9 13 10 16 11 1 12
REMARK SMILES IDX 4 13 14 14 31 15 17 16 18 17 30 18 32 19 19 20 29 21 28 22
REMARK SMILES IDX 21 23 20 24 25 25 22 26 23 27 26 28 27 29 8 30 9 31 10 32
REMARK SMILES IDX 24 33
REMARK H PARENT 24 34
REMARK Flexibility Score: inf
ROOT
ATOM      1  C   UNL     1       7.398  13.405   8.256  1.00  0.00     0.017 C 
ATOM      2  C   UNL     1       6.736  13.832   9.597  1.00  0.00     0.014 C 
ATOM      3  C   UNL     1       7.110  14.509   7.218  1.00  0.00     0.014 C 
ATOM      4  C   UNL     1       8.946  13.320   8.468  1.00  0.00     0.030 C 
ATOM      5  C   UNL     1       7.079  12.883  10.752  1.00  0.00     0.004 C 
ATOM      6  C   UNL     1       7.776  14.224   5.867  1.00  0.00     0.013 C 
ATOM      7  C   UNL     1       9.750  13.209   7.150  1.00  0.00    -0.063 C 
ATOM      8  C   UNL     1       9.344  12.368   9.656  1.00  0.00    -0.003 C 
ATOM      9  C   UNL     1       8.600  12.794  10.957  1.00  0.00    -0.011 C 
ATOM     10  C   UNL     1       9.346  14.062   5.920  1.00  0.00    -0.006 C 
ATOM     11  C   UNL     1      10.977  12.640   7.156  1.00  0.00    -0.027 C 
ATOM     12  C   UNL     1       9.194  10.862   9.346  1.00  0.00     0.008 C 
ATOM     13  C   UNL     1       8.937  11.900  12.160  1.00  0.00     0.008 C 
ATOM     14  C   UNL     1       9.913  15.497   6.111  1.00  0.00     0.017 C 
ATOM     15  C   UNL     1       9.935  13.370   4.573  1.00  0.00    -0.020 C 
ATOM     16  C   UNL     1      12.023  13.007   6.154  1.00  0.00     0.032 C 
ATOM     17  C   UNL     1      11.514  13.037   4.685  1.00  0.00     0.006 C 
ATOM     18  C   UNL     1       9.583  14.200   3.298  1.00  0.00     0.008 C 
ATOM     19  C   UNL     1       9.211  11.990   4.358  1.00  0.00     0.012 C 
ATOM     20  C   UNL     1      12.596  13.678   3.655  1.00  0.00    -0.025 C 
ATOM     21  C   UNL     1      10.687  15.103   2.793  1.00  0.00     0.005 C 
ATOM     22  C   UNL     1      11.910  14.263   2.355  1.00  0.00     0.003 C 
ATOM     23  C   UNL     1      13.458  14.806   4.322  1.00  0.00     0.010 C 
ATOM     24  C   UNL     1      13.566  12.509   3.276  1.00  0.00     0.012 C 
ATOM     25  C   UNL     1      12.873  15.071   1.366  1.00  0.00    -0.006 C 
ATOM     26  C   UNL     1      14.401  15.562   3.375  1.00  0.00     0.033 C 
ATOM     27  C   UNL     1      13.668  16.147   2.161  1.00  0.00     0.120 C 
ATOM     28  C   UNL     1      12.057  15.806   0.258  1.00  0.00     0.014 C 
ATOM     29  C   UNL     1      13.836  14.113   0.594  1.00  0.00     0.014 C 
ENDROOT
BRANCH   1  30
ATOM     30  C   UNL     1       6.771  12.100   7.768  1.00  0.00     0.048 C 
ATOM     31  O   UNL     1       6.463  11.943   6.557  1.00  0.00    -0.550 OA
ATOM     32  O   UNL     1       6.436  11.099   8.672  1.00  0.00    -0.550 OA
ENDBRANCH   1  30
BRANCH  27  33
ATOM     33  O   UNL     1      14.595  16.783   1.316  1.00  0.00    -0.393 OA
ATOM     34  H   UNL     1      14.170  16.859   0.421  1.00  0.00     0.210 HD
ENDBRANCH  27  33
TORSDOF 2
ENDMDL
MODEL 3
REMARK VINA RESULT:    -8.943      2.042      8.369
REMARK INTER + INTRA:          -9.103
REMARK INTER:                  -9.726
REMARK INTRA:                   0.623
REMARK UNBOUND:                 0.624
REMARK SMILES C[C@@H]1[C@H](C)CC[C@@]2(C(=O)[O-])CC[C@@]3(C)C(=CC[C@@H]4[C@]5(C)CC[C@@H](O)C(C)(C)[C@@H]5CC[C@@]43C)[C@H]12
REMARK SMILES IDX 7 1 6 2 11 3 33 4 5 5 12 6 15 7 2 8 3 9 13 10 16 11 1 12
REMARK SMILES IDX 4 13 14 14 31 15 17 16 18 17 30 18 32 19 19 20 29 21 28 22
REMARK SMILES IDX 21 23 20 24 25 25 22 26 23 27 26 28 27 29 8 30 9 31 10 32
REMARK SMILES IDX 24 33
REMARK H PARENT 24 34
REMARK Flexibility Score: inf
ROOT
ATOM      1  C   UNL     1       8.604  14.393   7.379  1.00  0.00     0.017 C 
ATOM      2  C   UNL     1       8.249  14.293   8.891  1.00  0.00     0.014 C 
ATOM      3  C   UNL     1       8.977  15.859   7.081  1.00  0.00     0.014 C 
ATOM      4  C   UNL     1       9.858  13.499   7.102  1.00  0.00     0.030 C 
ATOM      5  C   UNL     1       8.002  12.849   9.344  1.00  0.00     0.004 C 
ATOM      6  C   UNL     1       9.413  16.063   5.625  1.00  0.00     0.013 C 
ATOM      7  C   UNL     1      10.503  13.744   5.716  1.00  0.00    -0.063 C 
ATOM      8  C   UNL     1       9.656  12.010   7.567  1.00  0.00    -0.003 C 
ATOM      9  C   UNL     1       9.232  11.969   9.065  1.00  0.00    -0.011 C 
ATOM     10  C   UNL     1      10.647  15.189   5.171  1.00  0.00    -0.006 C 
ATOM     11  C   UNL     1      11.230  12.767   5.129  1.00  0.00    -0.027 C 
ATOM     12  C   UNL     1       8.725  11.177   6.657  1.00  0.00     0.008 C 
ATOM     13  C   UNL     1       9.010  10.540   9.586  1.00  0.00     0.008 C 
ATOM     14  C   UNL     1      11.893  15.840   5.834  1.00  0.00     0.017 C 
ATOM     15  C   UNL     1      10.799  15.139   3.554  1.00  0.00    -0.020 C 
ATOM     16  C   UNL     1      12.330  13.070   4.163  1.00  0.00     0.032 C 
ATOM     17  C   UNL     1      11.947  14.107   3.070  1.00  0.00     0.006 C 
ATOM     18  C   UNL     1      10.975  16.566   2.948  1.00  0.00     0.008 C 
ATOM     19  C   UNL     1       9.450  14.611   2.939  1.00  0.00     0.012 C 
ATOM     20  C   UNL     1      13.225  14.603   2.196  1.00  0.00    -0.025 C 
ATOM     21  C   UNL     1      12.402  16.959   2.632  1.00  0.00     0.005 C 
ATOM     22  C   UNL     1      12.989  16.026   1.546  1.00  0.00     0.003 C 
ATOM     23  C   UNL     1      14.544  14.647   3.042  1.00  0.00     0.010 C 
ATOM     24  C   UNL     1      13.420  13.524   1.079  1.00  0.00     0.012 C 
ATOM     25  C   UNL     1      14.256  16.675   0.816  1.00  0.00    -0.006 C 
ATOM     26  C   UNL     1      15.765  15.245   2.330  1.00  0.00     0.033 C 
ATOM     27  C   UNL     1      15.488  16.645   1.765  1.00  0.00     0.120 C 
ATOM     28  C   UNL     1      13.987  18.162   0.433  1.00  0.00     0.014 C 
ATOM     29  C   UNL     1      14.567  15.955  -0.536  1.00  0.00     0.014 C 
ENDROOT
BRANCH   1  30
ATOM     30  C   UNL     1       7.383  14.020   6.540  1.00  0.00     0.048 C 
ATOM     31  O   UNL     1       7.514  13.575   5.369  1.00  0.00    -0.550 OA
ATOM     32  O   UNL     1       6.101  14.259   7.019  1.00  0.00    -0.550 OA
ENDBRANCH   1  30
BRANCH  27  33
ATOM     33  O   UNL     1      16.630  17.112   1.088  1.00  0.00    -0.393 OA
ATOM     34  H   UNL     1      16.751  16.532   0.290  1.00  0.00     0.210 HD
ENDBRANCH  27  33
TORSDOF 2
ENDMDL
MODEL 4
REMARK VINA RESULT:    -8.929      2.742      8.860
REMARK INTER + INTRA:          -9.087
REMARK INTER:                  -9.712
REMARK INTRA:                   0.624
REMARK UNBOUND:                 0.624
REMARK SMILES C[C@@H]1[C@H](C)CC[C@@]2(C(=O)[O-])CC[C@@]3(C)C(=CC[C@@H]4[C@]5(C)CC[C@@H](O)C(C)(C)[C@@H]5CC[C@@]43C)[C@H]12
REMARK SMILES IDX 7 1 6 2 11 3 33 4 5 5 12 6 15 7 2 8 3 9 13 10 16 11 1 12
REMARK SMILES IDX 4 13 14 14 31 15 17 16 18 17 30 18 32 19 19 20 29 21 28 22
REMARK SMILES IDX 21 23 20 24 25 25 22 26 23 27 26 28 27 29 8 30 9 31 10 32
REMARK SMILES IDX 24 33
REMARK H PARENT 24 34
REMARK Flexibility Score: inf
ROOT
ATOM      1  C   UNL     1      12.640  15.868   2.531  1.00  0.00     0.017 C 
ATOM      2  C   UNL     1      11.407  15.243   3.246  1.00  0.00     0.014 C 
ATOM      3  C   UNL     1      12.586  17.393   2.749  1.00  0.00     0.014 C 
ATOM      4  C   UNL     1      13.940  15.319   3.209  1.00  0.00     0.030 C 
ATOM      5  C   UNL     1      11.429  13.710   3.227  1.00  0.00     0.004 C 
ATOM      6  C   UNL     1      13.797  18.111   2.141  1.00  0.00     0.013 C 
ATOM      7  C   UNL     1      15.223  16.087   2.808  1.00  0.00    -0.063 C 
ATOM      8  C   UNL     1      13.998  13.748   3.228  1.00  0.00    -0.003 C 
ATOM      9  C   UNL     1      12.710  13.172   3.887  1.00  0.00    -0.011 C 
ATOM     10  C   UNL     1      15.198  17.633   2.690  1.00  0.00    -0.006 C 
ATOM     11  C   UNL     1      16.425  15.474   2.880  1.00  0.00    -0.027 C 
ATOM     12  C   UNL     1      14.310  13.103   1.858  1.00  0.00     0.008 C 
ATOM     13  C   UNL     1      12.695  11.636   3.932  1.00  0.00     0.008 C 
ATOM     14  C   UNL     1      15.319  18.235   4.118  1.00  0.00     0.017 C 
ATOM     15  C   UNL     1      16.424  18.118   1.740  1.00  0.00    -0.020 C 
ATOM     16  C   UNL     1      17.691  16.237   3.100  1.00  0.00     0.032 C 
ATOM     17  C   UNL     1      17.845  17.489   2.192  1.00  0.00     0.006 C 
ATOM     18  C   UNL     1      16.468  19.672   1.605  1.00  0.00     0.008 C 
ATOM     19  C   UNL     1      16.162  17.600   0.278  1.00  0.00     0.012 C 
ATOM     20  C   UNL     1      19.096  18.433   2.622  1.00  0.00    -0.025 C 
ATOM     21  C   UNL     1      17.467  20.368   2.504  1.00  0.00     0.005 C 
ATOM     22  C   UNL     1      18.907  19.930   2.148  1.00  0.00     0.003 C 
ATOM     23  C   UNL     1      19.345  18.421   4.171  1.00  0.00     0.010 C 
ATOM     24  C   UNL     1      20.357  17.805   1.940  1.00  0.00     0.012 C 
ATOM     25  C   UNL     1      20.001  20.970   2.680  1.00  0.00    -0.006 C 
ATOM     26  C   UNL     1      20.415  19.400   4.674  1.00  0.00     0.033 C 
ATOM     27  C   UNL     1      20.148  20.843   4.223  1.00  0.00     0.120 C 
ATOM     28  C   UNL     1      19.585  22.439   2.362  1.00  0.00     0.014 C 
ATOM     29  C   UNL     1      21.375  20.770   1.963  1.00  0.00     0.014 C 
ENDROOT
BRANCH   1  30
ATOM     30  C   UNL     1      12.561  15.585   1.032  1.00  0.00     0.048 C 
ATOM     31  O   UNL     1      13.601  15.565   0.322  1.00  0.00    -0.550 OA
ATOM     32  O   UNL     1      11.328  15.444   0.407  1.00  0.00    -0.550 OA
ENDBRANCH   1  30
BRANCH  27  33
ATOM     33  O   UNL     1      21.187  21.675   4.678  1.00  0.00    -0.393 OA
ATOM     34  H   UNL     1      20.792  22.573   4.835  1.00  0.00     0.210 HD
ENDBRANCH  27  33
TORSDOF 2
ENDMDL
MODEL 5
REMARK VINA RESULT:    -8.906      2.248      3.334
REMARK INTER + INTRA:          -9.063
REMARK INTER:                 -10.440
REMARK INTRA:                   1.378
REMARK UNBOUND:                 0.624
REMARK SMILES C[C@@H]1[C@H](C)CC[C@@]2(C(=O)[O-])CC[C@@]3(C)C(=CC[C@@H]4[C@]5(C)CC[C@@H](O)C(C)(C)[C@@H]5CC[C@@]43C)[C@H]12
REMARK SMILES IDX 7 1 6 2 11 3 33 4 5 5 12 6 15 7 2 8 3 9 13 10 16 11 1 12
REMARK SMILES IDX 4 13 14 14 31 15 17 16 18 17 30 18 32 19 19 20 29 21 28 22
REMARK SMILES IDX 21 23 20 24 25 25 22 26 23 27 26 28 27 29 8 30 9 31 10 32
REMARK SMILES IDX 24 33
REMARK H PARENT 24 34
REMARK Flexibility Score: inf
ROOT
ATOM      1  C   UNL     1      14.813  15.259   2.516  1.00  0.00     0.017 C 
ATOM      2  C   UNL     1      15.824  16.324   2.002  1.00  0.00     0.014 C 
ATOM      3  C   UNL     1      15.042  15.088   4.032  1.00  0.00     0.014 C 
ATOM      4  C   UNL     1      13.362  15.802   2.295  1.00  0.00     0.030 C 
ATOM      5  C   UNL     1      15.595  16.691   0.531  1.00  0.00     0.004 C 
ATOM      6  C   UNL     1      14.048  14.105   4.662  1.00  0.00     0.013 C 
ATOM      7  C   UNL     1      12.273  14.989   3.037  1.00  0.00    -0.063 C 
ATOM      8  C   UNL     1      13.087  16.208   0.801  1.00  0.00    -0.003 C 
ATOM      9  C   UNL     1      14.167  17.219   0.312  1.00  0.00    -0.011 C 
ATOM     10  C   UNL     1      12.527  14.489   4.483  1.00  0.00    -0.006 C 
ATOM     11  C   UNL     1      11.001  14.992   2.579  1.00  0.00    -0.027 C 
ATOM     12  C   UNL     1      12.904  15.014  -0.163  1.00  0.00     0.008 C 
ATOM     13  C   UNL     1      13.964  17.654  -1.147  1.00  0.00     0.008 C 
ATOM     14  C   UNL     1      12.271  15.669   5.461  1.00  0.00     0.017 C 
ATOM     15  C   UNL     1      11.540  13.238   4.798  1.00  0.00    -0.020 C 
ATOM     16  C   UNL     1       9.833  14.773   3.485  1.00  0.00     0.032 C 
ATOM     17  C   UNL     1       9.994  13.564   4.449  1.00  0.00     0.006 C 
ATOM     18  C   UNL     1      11.730  12.706   6.253  1.00  0.00     0.008 C 
ATOM     19  C   UNL     1      11.951  12.029   3.878  1.00  0.00     0.012 C 
ATOM     20  C   UNL     1       8.832  13.502   5.584  1.00  0.00    -0.025 C 
ATOM     21  C   UNL     1      10.710  13.199   7.257  1.00  0.00     0.005 C 
ATOM     22  C   UNL     1       9.295  12.707   6.871  1.00  0.00     0.003 C 
ATOM     23  C   UNL     1       8.349  14.929   6.019  1.00  0.00     0.010 C 
ATOM     24  C   UNL     1       7.618  12.780   4.911  1.00  0.00     0.012 C 
ATOM     25  C   UNL     1       8.286  12.745   8.111  1.00  0.00    -0.006 C 
ATOM     26  C   UNL     1       7.359  14.960   7.192  1.00  0.00     0.033 C 
ATOM     27  C   UNL     1       7.887  14.215   8.426  1.00  0.00     0.120 C 
ATOM     28  C   UNL     1       8.943  12.147   9.393  1.00  0.00     0.014 C 
ATOM     29  C   UNL     1       7.024  11.861   7.849  1.00  0.00     0.014 C 
ENDROOT
BRANCH   1  30
ATOM     30  C   UNL     1      15.082  13.922   1.828  1.00  0.00     0.048 C 
ATOM     31  O   UNL     1      14.272  13.453   0.986  1.00  0.00    -0.550 OA
ATOM     32  O   UNL     1      16.178  13.150   2.194  1.00  0.00    -0.550 OA
ENDBRANCH   1  30
BRANCH  27  33
ATOM     33  O   UNL     1       6.914  14.244   9.442  1.00  0.00    -0.393 OA
ATOM     34  H   UNL     1       6.840  13.320   9.799  1.00  0.00     0.210 HD
ENDBRANCH  27  33
TORSDOF 2
ENDMDL
MODEL 6
REMARK VINA RESULT:    -8.762      1.536      8.154
REMARK INTER + INTRA:          -8.906
REMARK INTER:                  -9.529
REMARK INTRA:                   0.622
REMARK UNBOUND:                 0.624
REMARK SMILES C[C@@H]1[C@H](C)CC[C@@]2(C(=O)[O-])CC[C@@]3(C)C(=CC[C@@H]4[C@]5(C)CC[C@@H](O)C(C)(C)[C@@H]5CC[C@@]43C)[C@H]12
REMARK SMILES IDX 7 1 6 2 11 3 33 4 5 5 12 6 15 7 2 8 3 9 13 10 16 11 1 12
REMARK SMILES IDX 4 13 14 14 31 15 17 16 18 17 30 18 32 19 19 20 29 21 28 22
REMARK SMILES IDX 21 23 20 24 25 25 22 26 23 27 26 28 27 29 8 30 9 31 10 32
REMARK SMILES IDX 24 33
REMARK H PARENT 24 34
REMARK Flexibility Score: inf
ROOT
ATOM      1  C   UNL     1       8.958  12.248   5.157  1.00  0.00     0.017 C 
ATOM      2  C   UNL     1       7.501  11.980   5.633  1.00  0.00     0.014 C 
ATOM      3  C   UNL     1       8.958  12.237   3.615  1.00  0.00     0.014 C 
ATOM      4  C   UNL     1       9.386  13.673   5.640  1.00  0.00     0.030 C 
ATOM      5  C   UNL     1       7.343  12.114   7.152  1.00  0.00     0.004 C 
ATOM      6  C   UNL     1      10.339  12.559   3.032  1.00  0.00     0.013 C 
ATOM      7  C   UNL     1      10.686  14.191   4.978  1.00  0.00    -0.063 C 
ATOM      8  C   UNL     1       9.224  13.863   7.193  1.00  0.00    -0.003 C 
ATOM      9  C   UNL     1       7.770  13.513   7.627  1.00  0.00    -0.011 C 
ATOM     10  C   UNL     1      10.936  13.955   3.466  1.00  0.00    -0.006 C 
ATOM     11  C   UNL     1      11.442  15.116   5.612  1.00  0.00    -0.027 C 
ATOM     12  C   UNL     1      10.293  13.136   8.040  1.00  0.00     0.008 C 
ATOM     13  C   UNL     1       7.542  13.668   9.139  1.00  0.00     0.008 C 
ATOM     14  C   UNL     1      10.139  15.023   2.666  1.00  0.00     0.017 C 
ATOM     15  C   UNL     1      12.528  14.059   3.164  1.00  0.00    -0.020 C 
ATOM     16  C   UNL     1      12.312  16.073   4.863  1.00  0.00     0.032 C 
ATOM     17  C   UNL     1      13.187  15.410   3.763  1.00  0.00     0.006 C 
ATOM     18  C   UNL     1      12.841  13.857   1.648  1.00  0.00     0.008 C 
ATOM     19  C   UNL     1      13.256  12.862   3.881  1.00  0.00     0.012 C 
ATOM     20  C   UNL     1      13.928  16.495   2.805  1.00  0.00    -0.025 C 
ATOM     21  C   UNL     1      13.052  15.130   0.859  1.00  0.00     0.005 C 
ATOM     22  C   UNL     1      14.290  15.892   1.388  1.00  0.00     0.003 C 
ATOM     23  C   UNL     1      13.069  17.790   2.598  1.00  0.00     0.010 C 
ATOM     24  C   UNL     1      15.231  16.913   3.564  1.00  0.00     0.012 C 
ATOM     25  C   UNL     1      14.859  16.934   0.316  1.00  0.00    -0.006 C 
ATOM     26  C   UNL     1      13.631  18.801   1.589  1.00  0.00     0.033 C 
ATOM     27  C   UNL     1      13.915  18.167   0.220  1.00  0.00     0.120 C 
ATOM     28  C   UNL     1      14.948  16.293  -1.103  1.00  0.00     0.014 C 
ATOM     29  C   UNL     1      16.321  17.367   0.659  1.00  0.00     0.014 C 
ENDROOT
BRANCH   1  30
ATOM     30  C   UNL     1       9.873  11.130   5.653  1.00  0.00     0.048 C 
ATOM     31  O   UNL     1      11.092  11.344   5.881  1.00  0.00    -0.550 OA
ATOM     32  O   UNL     1       9.396   9.829   5.766  1.00  0.00    -0.550 OA
ENDBRANCH   1  30
BRANCH  27  33
ATOM     33  O   UNL     1      14.470  19.134  -0.638  1.00  0.00    -0.393 OA
ATOM     34  H   UNL     1      15.333  19.418  -0.235  1.00  0.00     0.210 HD
ENDBRANCH  27  33
TORSDOF 2
ENDMDL
MODEL 7
REMARK VINA RESULT:    -8.638      1.763      8.302
REMARK INTER + INTRA:          -8.771
REMARK INTER:                  -9.421
REMARK INTRA:                   0.650
REMARK UNBOUND:                 0.624
REMARK SMILES C[C@@H]1[C@H](C)CC[C@@]2(C(=O)[O-])CC[C@@]3(C)C(=CC[C@@H]4[C@]5(C)CC[C@@H](O)C(C)(C)[C@@H]5CC[C@@]43C)[C@H]12
REMARK SMILES IDX 7 1 6 2 11 3 33 4 5 5 12 6 15 7 2 8 3 9 13 10 16 11 1 12
REMARK SMILES IDX 4 13 14 14 31 15 17 16 18 17 30 18 32 19 19 20 29 21 28 22
REMARK SMILES IDX 21 23 20 24 25 25 22 26 23 27 26 28 27 29 8 30 9 31 10 32
REMARK SMILES IDX 24 33
REMARK H PARENT 24 34
REMARK Flexibility Score: inf
ROOT
ATOM      1  C   UNL     1       9.801  13.565   5.920  1.00  0.00     0.017 C 
ATOM      2  C   UNL     1       9.590  12.651   7.161  1.00  0.00     0.014 C 
ATOM      3  C   UNL     1      10.275  14.942   6.427  1.00  0.00     0.014 C 
ATOM      4  C   UNL     1      10.933  12.949   5.034  1.00  0.00     0.030 C 
ATOM      5  C   UNL     1       9.258  11.204   6.777  1.00  0.00     0.004 C 
ATOM      6  C   UNL     1      10.581  15.911   5.279  1.00  0.00     0.013 C 
ATOM      7  C   UNL     1      11.457  13.909   3.938  1.00  0.00    -0.063 C 
ATOM      8  C   UNL     1      10.644  11.457   4.629  1.00  0.00    -0.003 C 
ATOM      9  C   UNL     1      10.369  10.601   5.901  1.00  0.00    -0.011 C 
ATOM     10  C   UNL     1      11.679  15.410   4.260  1.00  0.00    -0.006 C 
ATOM     11  C   UNL     1      12.030  13.407   2.821  1.00  0.00    -0.027 C 
ATOM     12  C   UNL     1       9.555  11.289   3.546  1.00  0.00     0.008 C 
ATOM     13  C   UNL     1      10.070   9.128   5.578  1.00  0.00     0.008 C 
ATOM     14  C   UNL     1      13.039  15.557   4.998  1.00  0.00     0.017 C 
ATOM     15  C   UNL     1      11.663  16.262   2.877  1.00  0.00    -0.020 C 
ATOM     16  C   UNL     1      13.051  14.172   2.043  1.00  0.00     0.032 C 
ATOM     17  C   UNL     1      12.659  15.649   1.759  1.00  0.00     0.006 C 
ATOM     18  C   UNL     1      11.909  17.782   3.134  1.00  0.00     0.008 C 
ATOM     19  C   UNL     1      10.218  16.194   2.260  1.00  0.00     0.012 C 
ATOM     20  C   UNL     1      13.883  16.520   1.138  1.00  0.00    -0.025 C 
ATOM     21  C   UNL     1      13.327  18.254   2.898  1.00  0.00     0.005 C 
ATOM     22  C   UNL     1      13.715  18.068   1.412  1.00  0.00     0.003 C 
ATOM     23  C   UNL     1      15.279  16.059   1.685  1.00  0.00     0.010 C 
ATOM     24  C   UNL     1      13.867  16.238  -0.401  1.00  0.00     0.012 C 
ATOM     25  C   UNL     1      14.957  18.986   0.996  1.00  0.00    -0.006 C 
ATOM     26  C   UNL     1      16.472  16.925   1.261  1.00  0.00     0.033 C 
ATOM     27  C   UNL     1      16.270  18.409   1.599  1.00  0.00     0.120 C 
ATOM     28  C   UNL     1      14.789  20.442   1.531  1.00  0.00     0.014 C 
ATOM     29  C   UNL     1      15.065  19.132  -0.556  1.00  0.00     0.014 C 
ENDROOT
BRANCH   1  30
ATOM     30  C   UNL     1       8.474  13.746   5.186  1.00  0.00     0.048 C 
ATOM     31  O   UNL     1       8.445  14.114   3.982  1.00  0.00    -0.550 OA
ATOM     32  O   UNL     1       7.269  13.605   5.865  1.00  0.00    -0.550 OA
ENDBRANCH   1  30
BRANCH  27  33
ATOM     33  O   UNL     1      17.376  19.148   1.143  1.00  0.00    -0.393 OA
ATOM     34  H   UNL     1      17.171  20.107   1.303  1.00  0.00     0.210 HD
ENDBRANCH  27  33
TORSDOF 2
ENDMDL
MODEL 8
REMARK VINA RESULT:    -8.624      3.602      6.847
REMARK INTER + INTRA:          -8.756
REMARK INTER:                  -9.377
REMARK INTRA:                   0.622
REMARK UNBOUND:                 0.624
REMARK SMILES C[C@@H]1[C@H](C)CC[C@@]2(C(=O)[O-])CC[C@@]3(C)C(=CC[C@@H]4[C@]5(C)CC[C@@H](O)C(C)(C)[C@@H]5CC[C@@]43C)[C@H]12
REMARK SMILES IDX 7 1 6 2 11 3 33 4 5 5 12 6 15 7 2 8 3 9 13 10 16 11 1 12
REMARK SMILES IDX 4 13 14 14 31 15 17 16 18 17 30 18 32 19 19 20 29 21 28 22
REMARK SMILES IDX 21 23 20 24 25 25 22 26 23 27 26 28 27 29 8 30 9 31 10 32
REMARK SMILES IDX 24 33
REMARK H PARENT 24 34
REMARK Flexibility Score: inf
ROOT
ATOM      1  C   UNL     1      20.368  20.232   2.444  1.00  0.00     0.017 C 
ATOM      2  C   UNL     1      21.692  20.699   1.773  1.00  0.00     0.014 C 
ATOM      3  C   UNL     1      19.203  20.943   1.726  1.00  0.00     0.014 C 
ATOM      4  C   UNL     1      20.215  18.690   2.225  1.00  0.00     0.030 C 
ATOM      5  C   UNL     1      22.918  19.946   2.303  1.00  0.00     0.004 C 
ATOM      6  C   UNL     1      17.835  20.504   2.264  1.00  0.00     0.013 C 
ATOM      7  C   UNL     1      18.805  18.150   2.567  1.00  0.00    -0.063 C 
ATOM      8  C   UNL     1      21.459  17.877   2.739  1.00  0.00    -0.003 C 
ATOM      9  C   UNL     1      22.765  18.430   2.094  1.00  0.00    -0.011 C 
ATOM     10  C   UNL     1      17.544  18.956   2.158  1.00  0.00    -0.006 C 
ATOM     11  C   UNL     1      18.646  16.853   2.913  1.00  0.00    -0.027 C 
ATOM     12  C   UNL     1      21.554  17.760   4.277  1.00  0.00     0.008 C 
ATOM     13  C   UNL     1      24.025  17.685   2.559  1.00  0.00     0.008 C 
ATOM     14  C   UNL     1      17.253  18.682   0.656  1.00  0.00     0.017 C 
ATOM     15  C   UNL     1      16.294  18.504   3.092  1.00  0.00    -0.020 C 
ATOM     16  C   UNL     1      17.364  16.122   2.678  1.00  0.00     0.032 C 
ATOM     17  C   UNL     1      16.097  16.899   3.131  1.00  0.00     0.006 C 
ATOM     18  C   UNL     1      14.985  19.264   2.710  1.00  0.00     0.008 C 
ATOM     19  C   UNL     1      16.588  18.945   4.574  1.00  0.00     0.012 C 
ATOM     20  C   UNL     1      14.715  16.198   2.638  1.00  0.00    -0.025 C 
ATOM     21  C   UNL     1      14.032  18.496   1.820  1.00  0.00     0.005 C 
ATOM     22  C   UNL     1      13.520  17.230   2.547  1.00  0.00     0.003 C 
ATOM     23  C   UNL     1      14.873  15.484   1.251  1.00  0.00     0.010 C 
ATOM     24  C   UNL     1      14.397  15.093   3.700  1.00  0.00     0.012 C 
ATOM     25  C   UNL     1      12.168  16.670   1.901  1.00  0.00    -0.006 C 
ATOM     26  C   UNL     1      13.578  14.924   0.646  1.00  0.00     0.033 C 
ATOM     27  C   UNL     1      12.474  15.985   0.538  1.00  0.00     0.120 C 
ATOM     28  C   UNL     1      11.150  17.822   1.635  1.00  0.00     0.014 C 
ATOM     29  C   UNL     1      11.432  15.692   2.872  1.00  0.00     0.014 C 
ENDROOT
BRANCH   1  30
ATOM     30  C   UNL     1      20.364  20.649   3.913  1.00  0.00     0.048 C 
ATOM     31  O   UNL     1      19.716  19.992   4.770  1.00  0.00    -0.550 OA
ATOM     32  O   UNL     1      20.994  21.821   4.314  1.00  0.00    -0.550 OA
ENDBRANCH   1  30
BRANCH  27  33
ATOM     33  O   UNL     1      11.306  15.395   0.022  1.00  0.00    -0.393 OA
ATOM     34  H   UNL     1      11.520  15.083  -0.897  1.00  0.00     0.210 HD
ENDBRANCH  27  33
TORSDOF 2
ENDMDL
MODEL 9
REMARK VINA RESULT:    -8.617      1.781      3.042
REMARK INTER + INTRA:          -8.748
REMARK INTER:                  -9.372
REMARK INTRA:                   0.624
REMARK UNBOUND:                 0.624
REMARK SMILES C[C@@H]1[C@H](C)CC[C@@]2(C(=O)[O-])CC[C@@]3(C)C(=CC[C@@H]4[C@]5(C)CC[C@@H](O)C(C)(C)[C@@H]5CC[C@@]43C)[C@H]12
REMARK SMILES IDX 7 1 6 2 11 3 33 4 5 5 12 6 15 7 2 8 3 9 13 10 16 11 1 12
REMARK SMILES IDX 4 13 14 14 31 15 17 16 18 17 30 18 32 19 19 20 29 21 28 22
REMARK SMILES IDX 21 23 20 24 25 25 22 26 23 27 26 28 27 29 8 30 9 31 10 32
REMARK SMILES IDX 24 33
REMARK H PARENT 24 34
REMARK Flexibility Score: inf
ROOT
ATOM      1  C   UNL     1      14.561  18.495   3.118  1.00  0.00     0.017 C 
ATOM      2  C   UNL     1      14.759  19.945   2.587  1.00  0.00     0.014 C 
ATOM      3  C   UNL     1      13.932  18.592   4.522  1.00  0.00     0.014 C 
ATOM      4  C   UNL     1      13.555  17.753   2.177  1.00  0.00     0.030 C 
ATOM      5  C   UNL     1      15.243  19.979   1.133  1.00  0.00     0.004 C 
ATOM      6  C   UNL     1      13.629  17.212   5.119  1.00  0.00     0.013 C 
ATOM      7  C   UNL     1      13.032  16.416   2.756  1.00  0.00    -0.063 C 
ATOM      8  C   UNL     1      14.003  17.778   0.669  1.00  0.00    -0.003 C 
ATOM      9  C   UNL     1      14.257  19.244   0.209  1.00  0.00    -0.011 C 
ATOM     10  C   UNL     1      12.657  16.314   4.257  1.00  0.00    -0.006 C 
ATOM     11  C   UNL     1      12.589  15.449   1.921  1.00  0.00    -0.027 C 
ATOM     12  C   UNL     1      15.180  16.833   0.337  1.00  0.00     0.008 C 
ATOM     13  C   UNL     1      14.707  19.342  -1.257  1.00  0.00     0.008 C 
ATOM     14  C   UNL     1      11.239  16.919   4.450  1.00  0.00     0.017 C 
ATOM     15  C   UNL     1      12.700  14.755   4.714  1.00  0.00    -0.020 C 
ATOM     16  C   UNL     1      11.565  14.446   2.346  1.00  0.00     0.032 C 
ATOM     17  C   UNL     1      11.847  13.796   3.729  1.00  0.00     0.006 C 
ATOM     18  C   UNL     1      12.304  14.584   6.214  1.00  0.00     0.008 C 
ATOM     19  C   UNL     1      14.188  14.249   4.637  1.00  0.00     0.012 C 
ATOM     20  C   UNL     1      10.601  12.906   4.275  1.00  0.00    -0.025 C 
ATOM     21  C   UNL     1      10.872  14.162   6.458  1.00  0.00     0.005 C 
ATOM     22  C   UNL     1      10.612  12.763   5.850  1.00  0.00     0.003 C 
ATOM     23  C   UNL     1       9.214  13.489   3.831  1.00  0.00     0.010 C 
ATOM     24  C   UNL     1      10.755  11.501   3.603  1.00  0.00     0.012 C 
ATOM     25  C   UNL     1       9.329  12.057   6.492  1.00  0.00    -0.006 C 
ATOM     26  C   UNL     1       7.984  12.792   4.428  1.00  0.00     0.033 C 
ATOM     27  C   UNL     1       8.031  12.729   5.960  1.00  0.00     0.120 C 
ATOM     28  C   UNL     1       9.330  12.189   8.047  1.00  0.00     0.014 C 
ATOM     29  C   UNL     1       9.323  10.519   6.214  1.00  0.00     0.014 C 
ENDROOT
BRANCH   1  30
ATOM     30  C   UNL     1      15.918  17.804   3.236  1.00  0.00     0.048 C 
ATOM     31  O   UNL     1      16.016  16.552   3.148  1.00  0.00    -0.550 OA
ATOM     32  O   UNL     1      17.057  18.538   3.545  1.00  0.00    -0.550 OA
ENDBRANCH   1  30
BRANCH  27  33
ATOM     33  O   UNL     1       6.901  12.039   6.436  1.00  0.00    -0.393 OA
ATOM     34  H   UNL     1       6.115  12.628   6.283  1.00  0.00     0.210 HD
ENDBRANCH  27  33
TORSDOF 2
ENDMDL
