MODEL 1
REMARK VINA RESULT:    -7.653      0.000      0.000
REMARK INTER + INTRA:         -13.186
REMARK INTER:                 -11.232
REMARK INTRA:                  -1.955
REMARK UNBOUND:                -1.955
REMARK SMILES O=c1c(O[C@@H]2O[C@H](CO)[C@@H](O)[C@H](O)[C@@H]2O)c(-c2ccc(O)c(O)c2)oc2cc(O)cc(O)c12
REMARK SMILES IDX 4 1 3 2 16 3 25 4 2 5 26 6 1 7 33 8 27 9 31 10 28 11 30 12
REMARK SMILES IDX 17 13 18 14 19 15 20 16 24 17 22 18 21 19 23 21 32 23 29 25
REMARK SMILES IDX 5 27 14 28 6 29 12 30 7 31 10 32 15 33 13 35 8 37 9 38 11 40
REMARK H PARENT 21 20 23 22 32 24 29 26 15 34 13 36 9 39 11 41
REMARK Flexibility Score: inf
ROOT
ATOM      1  O   UNL     1      -0.348 -20.256  27.187  1.00  0.00    -0.454 OA
ENDROOT
BRANCH   1   2
ATOM      2  C   UNL     1      -0.370 -21.325  28.100  1.00  0.00     0.214 A 
ATOM      3  C   UNL     1       0.124 -22.618  27.781  1.00  0.00     0.180 A 
ATOM      4  O   UNL     1      -0.214 -23.636  28.575  1.00  0.00    -0.452 OA
ATOM      5  C   UNL     1      -0.913 -21.134  29.382  1.00  0.00     0.239 A 
ATOM      6  C   UNL     1      -0.895 -23.513  29.700  1.00  0.00     0.146 A 
ATOM      7  O   UNL     1      -1.064 -19.967  29.817  1.00  0.00    -0.285 OA
ATOM      8  C   UNL     1      -1.230 -22.238  30.187  1.00  0.00     0.111 A 
ATOM      9  C   UNL     1      -1.235 -24.662  30.422  1.00  0.00     0.094 A 
ATOM     10  C   UNL     1      -1.888 -22.129  31.422  1.00  0.00     0.134 A 
ATOM     11  C   UNL     1      -1.927 -24.552  31.629  1.00  0.00     0.123 A 
ATOM     12  C   UNL     1      -2.252 -23.288  32.129  1.00  0.00     0.093 A 
BRANCH   3  13
ATOM     13  C   UNL     1       1.110 -22.926  26.693  1.00  0.00     0.025 A 
ATOM     14  C   UNL     1       2.483 -22.740  26.976  1.00  0.00     0.016 A 
ATOM     15  C   UNL     1       3.422 -22.642  25.950  1.00  0.00     0.051 A 
ATOM     16  C   UNL     1       3.034 -22.776  24.617  1.00  0.00     0.157 A 
ATOM     17  C   UNL     1       0.746 -23.145  25.345  1.00  0.00     0.062 A 
ATOM     18  C   UNL     1       1.699 -23.068  24.313  1.00  0.00     0.158 A 
BRANCH  16  19
ATOM     19  O   UNL     1       3.975 -22.573  23.610  1.00  0.00    -0.504 OA
ATOM     20  H   UNL     1       4.962 -22.760  23.753  1.00  0.00     0.293 HD
ENDBRANCH  16  19
BRANCH  18  21
ATOM     21  O   UNL     1       1.332 -23.281  22.984  1.00  0.00    -0.504 OA
ATOM     22  H   UNL     1       0.994 -22.523  22.403  1.00  0.00     0.293 HD
ENDBRANCH  18  21
ENDBRANCH   3  13
BRANCH  10  23
ATOM     23  O   UNL     1      -2.215 -20.880  31.949  1.00  0.00    -0.507 OA
ATOM     24  H   UNL     1      -1.776 -20.530  32.788  1.00  0.00     0.293 HD
ENDBRANCH  10  23
BRANCH  11  25
ATOM     25  O   UNL     1      -2.298 -25.693  32.331  1.00  0.00    -0.508 OA
ATOM     26  H   UNL     1      -2.010 -26.624  32.045  1.00  0.00     0.293 HD
ENDBRANCH  11  25
ENDBRANCH   1   2
BRANCH   1  27
ATOM     27  C   UNL     1      -1.433 -19.970  26.292  1.00  0.00     0.339 C 
ATOM     28  C   UNL     1      -2.089 -18.601  26.547  1.00  0.00     0.214 C 
ATOM     29  O   UNL     1      -1.029 -20.110  24.931  1.00  0.00    -0.332 OA
ATOM     30  C   UNL     1      -1.103 -17.473  26.221  1.00  0.00     0.180 C 
ATOM     31  C   UNL     1      -0.152 -19.088  24.447  1.00  0.00     0.179 C 
ATOM     32  C   UNL     1      -0.561 -17.631  24.790  1.00  0.00     0.177 C 
BRANCH  28  33
ATOM     33  O   UNL     1      -2.564 -18.465  27.862  1.00  0.00    -0.384 OA
ATOM     34  H   UNL     1      -1.940 -17.832  28.320  1.00  0.00     0.211 HD
ENDBRANCH  28  33
BRANCH  30  35
ATOM     35  O   UNL     1      -0.021 -17.495  27.116  1.00  0.00    -0.387 OA
ATOM     36  H   UNL     1       0.431 -16.612  27.044  1.00  0.00     0.211 HD
ENDBRANCH  30  35
BRANCH  31  37
ATOM     37  C   UNL     1       1.304 -19.409  24.775  1.00  0.00     0.191 C 
BRANCH  37  38
ATOM     38  O   UNL     1       2.110 -19.440  23.626  1.00  0.00    -0.394 OA
ATOM     39  H   UNL     1       2.408 -20.378  23.499  1.00  0.00     0.210 HD
ENDBRANCH  37  38
ENDBRANCH  31  37
BRANCH  32  40
ATOM     40  O   UNL     1      -1.473 -17.143  23.846  1.00  0.00    -0.387 OA
ATOM     41  H   UNL     1      -2.139 -17.850  23.658  1.00  0.00     0.211 HD
ENDBRANCH  32  40
ENDBRANCH   1  27
TORSDOF 12
ENDMDL
MODEL 2
REMARK VINA RESULT:    -7.484      8.982     12.451
REMARK INTER + INTRA:         -12.938
REMARK INTER:                 -11.635
REMARK INTRA:                  -1.303
REMARK UNBOUND:                -1.955
REMARK SMILES O=c1c(O[C@@H]2O[C@H](CO)[C@@H](O)[C@H](O)[C@@H]2O)c(-c2ccc(O)c(O)c2)oc2cc(O)cc(O)c12
REMARK SMILES IDX 4 1 3 2 16 3 25 4 2 5 26 6 1 7 33 8 27 9 31 10 28 11 30 12
REMARK SMILES IDX 17 13 18 14 19 15 20 16 24 17 22 18 21 19 23 21 32 23 29 25
REMARK SMILES IDX 5 27 14 28 6 29 12 30 7 31 10 32 15 33 13 35 8 37 9 38 11 40
REMARK H PARENT 21 20 23 22 32 24 29 26 15 34 13 36 9 39 11 41
REMARK Flexibility Score: inf
ROOT
ATOM      1  O   UNL     1      -9.992 -16.017  29.270  1.00  0.00    -0.454 OA
ENDROOT
BRANCH   1   2
ATOM      2  C   UNL     1      -8.763 -15.365  29.066  1.00  0.00     0.214 A 
ATOM      3  C   UNL     1      -8.320 -14.944  27.784  1.00  0.00     0.180 A 
ATOM      4  O   UNL     1      -7.032 -14.623  27.635  1.00  0.00    -0.452 OA
ATOM      5  C   UNL     1      -7.914 -15.122  30.160  1.00  0.00     0.239 A 
ATOM      6  C   UNL     1      -6.156 -14.570  28.622  1.00  0.00     0.146 A 
ATOM      7  O   UNL     1      -8.380 -15.179  31.323  1.00  0.00    -0.285 OA
ATOM      8  C   UNL     1      -6.574 -14.766  29.949  1.00  0.00     0.111 A 
ATOM      9  C   UNL     1      -4.820 -14.272  28.334  1.00  0.00     0.094 A 
ATOM     10  C   UNL     1      -5.639 -14.631  30.988  1.00  0.00     0.134 A 
ATOM     11  C   UNL     1      -3.884 -14.179  29.365  1.00  0.00     0.123 A 
ATOM     12  C   UNL     1      -4.293 -14.358  30.690  1.00  0.00     0.093 A 
BRANCH   3  13
ATOM     13  C   UNL     1      -9.204 -14.698  26.597  1.00  0.00     0.025 A 
ATOM     14  C   UNL     1      -8.783 -13.738  25.649  1.00  0.00     0.016 A 
ATOM     15  C   UNL     1      -9.681 -13.186  24.738  1.00  0.00     0.051 A 
ATOM     16  C   UNL     1     -11.011 -13.604  24.708  1.00  0.00     0.157 A 
ATOM     17  C   UNL     1     -10.531 -15.175  26.499  1.00  0.00     0.062 A 
ATOM     18  C   UNL     1     -11.431 -14.631  25.563  1.00  0.00     0.158 A 
BRANCH  16  19
ATOM     19  O   UNL     1     -11.909 -12.963  23.857  1.00  0.00    -0.504 OA
ATOM     20  H   UNL     1     -11.596 -12.362  23.102  1.00  0.00     0.293 HD
ENDBRANCH  16  19
BRANCH  18  21
ATOM     21  O   UNL     1     -12.740 -15.103  25.473  1.00  0.00    -0.504 OA
ATOM     22  H   UNL     1     -13.532 -14.470  25.501  1.00  0.00     0.293 HD
ENDBRANCH  18  21
ENDBRANCH   3  13
BRANCH  10  23
ATOM     23  O   UNL     1      -6.022 -14.793  32.319  1.00  0.00    -0.507 OA
ATOM     24  H   UNL     1      -6.757 -14.235  32.727  1.00  0.00     0.293 HD
ENDBRANCH  10  23
BRANCH  11  25
ATOM     25  O   UNL     1      -2.549 -13.919  29.079  1.00  0.00    -0.508 OA
ATOM     26  H   UNL     1      -2.258 -13.116  28.530  1.00  0.00     0.293 HD
ENDBRANCH  11  25
ENDBRANCH   1   2
BRANCH   1  27
ATOM     27  C   UNL     1     -10.152 -17.438  29.141  1.00  0.00     0.339 C 
ATOM     28  C   UNL     1     -10.194 -18.171  30.495  1.00  0.00     0.214 C 
ATOM     29  O   UNL     1     -11.287 -17.757  28.339  1.00  0.00    -0.332 OA
ATOM     30  C   UNL     1     -11.457 -17.777  31.270  1.00  0.00     0.180 C 
ATOM     31  C   UNL     1     -12.557 -17.510  28.951  1.00  0.00     0.179 C 
ATOM     32  C   UNL     1     -12.711 -18.014  30.410  1.00  0.00     0.177 C 
BRANCH  28  33
ATOM     33  O   UNL     1      -9.052 -17.932  31.275  1.00  0.00    -0.384 OA
ATOM     34  H   UNL     1      -8.638 -18.825  31.446  1.00  0.00     0.211 HD
ENDBRANCH  28  33
BRANCH  30  35
ATOM     35  O   UNL     1     -11.407 -16.420  31.629  1.00  0.00    -0.387 OA
ATOM     36  H   UNL     1     -11.881 -16.335  32.499  1.00  0.00     0.211 HD
ENDBRANCH  30  35
BRANCH  31  37
ATOM     37  C   UNL     1     -12.991 -16.060  28.754  1.00  0.00     0.191 C 
BRANCH  37  38
ATOM     38  O   UNL     1     -14.124 -15.954  27.932  1.00  0.00    -0.394 OA
ATOM     39  H   UNL     1     -14.875 -16.399  28.405  1.00  0.00     0.210 HD
ENDBRANCH  37  38
ENDBRANCH  31  37
BRANCH  32  40
ATOM     40  O   UNL     1     -13.088 -19.362  30.426  1.00  0.00    -0.387 OA
ATOM     41  H   UNL     1     -12.829 -19.751  31.297  1.00  0.00     0.211 HD
ENDBRANCH  32  40
ENDBRANCH   1  27
TORSDOF 12
ENDMDL
MODEL 3
REMARK VINA RESULT:    -6.936      6.766      9.726
REMARK INTER + INTRA:         -12.134
REMARK INTER:                 -10.236
REMARK INTRA:                  -1.898
REMARK UNBOUND:                -1.955
REMARK SMILES O=c1c(O[C@@H]2O[C@H](CO)[C@@H](O)[C@H](O)[C@@H]2O)c(-c2ccc(O)c(O)c2)oc2cc(O)cc(O)c12
REMARK SMILES IDX 4 1 3 2 16 3 25 4 2 5 26 6 1 7 33 8 27 9 31 10 28 11 30 12
REMARK SMILES IDX 17 13 18 14 19 15 20 16 24 17 22 18 21 19 23 21 32 23 29 25
REMARK SMILES IDX 5 27 14 28 6 29 12 30 7 31 10 32 15 33 13 35 8 37 9 38 11 40
REMARK H PARENT 21 20 23 22 32 24 29 26 15 34 13 36 9 39 11 41
REMARK Flexibility Score: inf
ROOT
ATOM      1  O   UNL     1      -3.289 -13.368  30.063  1.00  0.00    -0.454 OA
ENDROOT
BRANCH   1   2
ATOM      2  C   UNL     1      -4.243 -13.960  29.216  1.00  0.00     0.214 A 
ATOM      3  C   UNL     1      -4.002 -14.200  27.837  1.00  0.00     0.180 A 
ATOM      4  O   UNL     1      -5.048 -14.469  27.051  1.00  0.00    -0.452 OA
ATOM      5  C   UNL     1      -5.499 -14.326  29.730  1.00  0.00     0.239 A 
ATOM      6  C   UNL     1      -6.285 -14.632  27.483  1.00  0.00     0.146 A 
ATOM      7  O   UNL     1      -5.647 -14.432  30.971  1.00  0.00    -0.285 OA
ATOM      8  C   UNL     1      -6.559 -14.621  28.862  1.00  0.00     0.111 A 
ATOM      9  C   UNL     1      -7.308 -14.859  26.557  1.00  0.00     0.094 A 
ATOM     10  C   UNL     1      -7.870 -14.871  29.300  1.00  0.00     0.134 A 
ATOM     11  C   UNL     1      -8.617 -15.065  26.994  1.00  0.00     0.123 A 
ATOM     12  C   UNL     1      -8.898 -15.072  28.363  1.00  0.00     0.093 A 
BRANCH   3  13
ATOM     13  C   UNL     1      -2.649 -14.306  27.198  1.00  0.00     0.025 A 
ATOM     14  C   UNL     1      -2.068 -13.123  26.685  1.00  0.00     0.016 A 
ATOM     15  C   UNL     1      -1.018 -13.177  25.770  1.00  0.00     0.051 A 
ATOM     16  C   UNL     1      -0.481 -14.402  25.375  1.00  0.00     0.157 A 
ATOM     17  C   UNL     1      -2.040 -15.534  26.855  1.00  0.00     0.062 A 
ATOM     18  C   UNL     1      -0.966 -15.584  25.948  1.00  0.00     0.158 A 
BRANCH  16  19
ATOM     19  O   UNL     1       0.498 -14.430  24.384  1.00  0.00    -0.504 OA
ATOM     20  H   UNL     1       0.824 -13.583  23.930  1.00  0.00     0.293 HD
ENDBRANCH  16  19
BRANCH  18  21
ATOM     21  O   UNL     1      -0.371 -16.800  25.611  1.00  0.00    -0.504 OA
ATOM     22  H   UNL     1      -0.119 -17.016  24.652  1.00  0.00     0.293 HD
ENDBRANCH  18  21
ENDBRANCH   3  13
BRANCH  10  23
ATOM     23  O   UNL     1      -8.175 -14.893  30.660  1.00  0.00    -0.507 OA
ATOM     24  H   UNL     1      -9.119 -15.040  30.986  1.00  0.00     0.293 HD
ENDBRANCH  10  23
BRANCH  11  25
ATOM     25  O   UNL     1      -9.642 -15.256  26.074  1.00  0.00    -0.508 OA
ATOM     26  H   UNL     1      -9.825 -14.598  25.322  1.00  0.00     0.293 HD
ENDBRANCH  11  25
ENDBRANCH   1   2
BRANCH   1  27
ATOM     27  C   UNL     1      -3.032 -11.956  30.082  1.00  0.00     0.339 C 
ATOM     28  C   UNL     1      -3.806 -11.211  31.185  1.00  0.00     0.214 C 
ATOM     29  O   UNL     1      -1.633 -11.689  30.154  1.00  0.00    -0.332 OA
ATOM     30  C   UNL     1      -3.304 -11.644  32.568  1.00  0.00     0.180 C 
ATOM     31  C   UNL     1      -1.020 -11.978  31.415  1.00  0.00     0.179 C 
ATOM     32  C   UNL     1      -1.779 -11.465  32.666  1.00  0.00     0.177 C 
BRANCH  28  33
ATOM     33  O   UNL     1      -5.194 -11.397  31.093  1.00  0.00    -0.384 OA
ATOM     34  H   UNL     1      -5.453 -11.966  31.873  1.00  0.00     0.211 HD
ENDBRANCH  28  33
BRANCH  30  35
ATOM     35  O   UNL     1      -3.614 -12.994  32.799  1.00  0.00    -0.387 OA
ATOM     36  H   UNL     1      -4.244 -13.018  33.568  1.00  0.00     0.211 HD
ENDBRANCH  30  35
BRANCH  31  37
ATOM     37  C   UNL     1      -0.610 -13.446  31.505  1.00  0.00     0.191 C 
BRANCH  37  38
ATOM     38  O   UNL     1      -0.669 -13.931  32.821  1.00  0.00    -0.394 OA
ATOM     39  H   UNL     1      -1.614 -14.171  33.005  1.00  0.00     0.210 HD
ENDBRANCH  37  38
ENDBRANCH  31  37
BRANCH  32  40
ATOM     40  O   UNL     1      -1.442 -10.132  32.932  1.00  0.00    -0.387 OA
ATOM     41  H   UNL     1      -2.222  -9.687  33.346  1.00  0.00     0.211 HD
ENDBRANCH  32  40
ENDBRANCH   1  27
TORSDOF 12
ENDMDL
MODEL 4
REMARK VINA RESULT:    -6.927      2.091      6.822
REMARK INTER + INTRA:         -12.120
REMARK INTER:                 -10.255
REMARK INTRA:                  -1.866
REMARK UNBOUND:                -1.955
REMARK SMILES O=c1c(O[C@@H]2O[C@H](CO)[C@@H](O)[C@H](O)[C@@H]2O)c(-c2ccc(O)c(O)c2)oc2cc(O)cc(O)c12
REMARK SMILES IDX 4 1 3 2 16 3 25 4 2 5 26 6 1 7 33 8 27 9 31 10 28 11 30 12
REMARK SMILES IDX 17 13 18 14 19 15 20 16 24 17 22 18 21 19 23 21 32 23 29 25
REMARK SMILES IDX 5 27 14 28 6 29 12 30 7 31 10 32 15 33 13 35 8 37 9 38 11 40
REMARK H PARENT 21 20 23 22 32 24 29 26 15 34 13 36 9 39 11 41
REMARK Flexibility Score: inf
ROOT
ATOM      1  O   UNL     1       0.395 -20.291  26.949  1.00  0.00    -0.454 OA
ENDROOT
BRANCH   1   2
ATOM      2  C   UNL     1      -0.196 -19.048  27.242  1.00  0.00     0.214 A 
ATOM      3  C   UNL     1      -0.845 -18.779  28.476  1.00  0.00     0.180 A 
ATOM      4  O   UNL     1      -1.636 -17.706  28.552  1.00  0.00    -0.452 OA
ATOM      5  C   UNL     1      -0.167 -18.021  26.284  1.00  0.00     0.239 A 
ATOM      6  C   UNL     1      -1.780 -16.813  27.588  1.00  0.00     0.146 A 
ATOM      7  O   UNL     1       0.648 -18.091  25.332  1.00  0.00    -0.285 OA
ATOM      8  C   UNL     1      -1.002 -16.903  26.421  1.00  0.00     0.111 A 
ATOM      9  C   UNL     1      -2.679 -15.757  27.764  1.00  0.00     0.094 A 
ATOM     10  C   UNL     1      -1.119 -15.902  25.444  1.00  0.00     0.134 A 
ATOM     11  C   UNL     1      -2.824 -14.786  26.772  1.00  0.00     0.123 A 
ATOM     12  C   UNL     1      -2.044 -14.857  25.614  1.00  0.00     0.093 A 
BRANCH   3  13
ATOM     13  C   UNL     1      -0.619 -19.526  29.757  1.00  0.00     0.025 A 
ATOM     14  C   UNL     1       0.677 -19.485  30.323  1.00  0.00     0.016 A 
ATOM     15  C   UNL     1       1.073 -20.420  31.278  1.00  0.00     0.051 A 
ATOM     16  C   UNL     1       0.181 -21.391  31.735  1.00  0.00     0.157 A 
ATOM     17  C   UNL     1      -1.536 -20.459  30.291  1.00  0.00     0.062 A 
ATOM     18  C   UNL     1      -1.140 -21.387  31.272  1.00  0.00     0.158 A 
BRANCH  16  19
ATOM     19  O   UNL     1       0.635 -22.373  32.613  1.00  0.00    -0.504 OA
ATOM     20  H   UNL     1       1.623 -22.569  32.735  1.00  0.00     0.293 HD
ENDBRANCH  16  19
BRANCH  18  21
ATOM     21  O   UNL     1      -2.049 -22.308  31.792  1.00  0.00    -0.504 OA
ATOM     22  H   UNL     1      -1.893 -23.307  31.711  1.00  0.00     0.293 HD
ENDBRANCH  18  21
ENDBRANCH   3  13
BRANCH  10  23
ATOM     23  O   UNL     1      -0.346 -15.943  24.284  1.00  0.00    -0.507 OA
ATOM     24  H   UNL     1      -0.502 -15.298  23.523  1.00  0.00     0.293 HD
ENDBRANCH  10  23
BRANCH  11  25
ATOM     25  O   UNL     1      -3.743 -13.755  26.929  1.00  0.00    -0.508 OA
ATOM     26  H   UNL     1      -4.627 -13.885  27.410  1.00  0.00     0.293 HD
ENDBRANCH  11  25
ENDBRANCH   1   2
BRANCH   1  27
ATOM     27  C   UNL     1      -0.371 -21.475  26.682  1.00  0.00     0.339 C 
ATOM     28  C   UNL     1      -0.687 -21.673  25.187  1.00  0.00     0.214 C 
ATOM     29  O   UNL     1       0.254 -22.629  27.240  1.00  0.00    -0.332 OA
ATOM     30  C   UNL     1       0.604 -21.945  24.406  1.00  0.00     0.180 C 
ATOM     31  C   UNL     1       1.447 -23.059  26.576  1.00  0.00     0.179 C 
ATOM     32  C   UNL     1       1.369 -23.127  25.028  1.00  0.00     0.177 C 
BRANCH  28  33
ATOM     33  O   UNL     1      -1.369 -20.580  24.630  1.00  0.00    -0.384 OA
ATOM     34  H   UNL     1      -1.591 -20.838  23.690  1.00  0.00     0.211 HD
ENDBRANCH  28  33
BRANCH  30  35
ATOM     35  O   UNL     1       1.435 -20.813  24.423  1.00  0.00    -0.387 OA
ATOM     36  H   UNL     1       1.429 -20.437  23.503  1.00  0.00     0.211 HD
ENDBRANCH  30  35
BRANCH  31  37
ATOM     37  C   UNL     1       2.669 -22.307  27.097  1.00  0.00     0.191 C 
BRANCH  37  38
ATOM     38  O   UNL     1       2.503 -21.885  28.426  1.00  0.00    -0.394 OA
ATOM     39  H   UNL     1       1.653 -21.375  28.470  1.00  0.00     0.210 HD
ENDBRANCH  37  38
ENDBRANCH  31  37
BRANCH  32  40
ATOM     40  O   UNL     1       0.829 -24.352  24.618  1.00  0.00    -0.387 OA
ATOM     41  H   UNL     1       0.885 -24.988  25.372  1.00  0.00     0.211 HD
ENDBRANCH  32  40
ENDBRANCH   1  27
TORSDOF 12
ENDMDL
MODEL 5
REMARK VINA RESULT:    -6.708      1.783      6.358
REMARK INTER + INTRA:         -11.800
REMARK INTER:                  -9.882
REMARK INTRA:                  -1.918
REMARK UNBOUND:                -1.955
REMARK SMILES O=c1c(O[C@@H]2O[C@H](CO)[C@@H](O)[C@H](O)[C@@H]2O)c(-c2ccc(O)c(O)c2)oc2cc(O)cc(O)c12
REMARK SMILES IDX 4 1 3 2 16 3 25 4 2 5 26 6 1 7 33 8 27 9 31 10 28 11 30 12
REMARK SMILES IDX 17 13 18 14 19 15 20 16 24 17 22 18 21 19 23 21 32 23 29 25
REMARK SMILES IDX 5 27 14 28 6 29 12 30 7 31 10 32 15 33 13 35 8 37 9 38 11 40
REMARK H PARENT 21 20 23 22 32 24 29 26 15 34 13 36 9 39 11 41
REMARK Flexibility Score: inf
ROOT
ATOM      1  O   UNL     1      -0.723 -20.786  28.421  1.00  0.00    -0.454 OA
ENDROOT
BRANCH   1   2
ATOM      2  C   UNL     1      -0.667 -19.753  27.468  1.00  0.00     0.214 A 
ATOM      3  C   UNL     1       0.218 -19.779  26.358  1.00  0.00     0.180 A 
ATOM      4  O   UNL     1       0.428 -18.642  25.691  1.00  0.00    -0.452 OA
ATOM      5  C   UNL     1      -1.502 -18.632  27.608  1.00  0.00     0.239 A 
ATOM      6  C   UNL     1      -0.210 -17.509  25.926  1.00  0.00     0.146 A 
ATOM      7  O   UNL     1      -2.501 -18.700  28.364  1.00  0.00    -0.285 OA
ATOM      8  C   UNL     1      -1.253 -17.468  26.867  1.00  0.00     0.111 A 
ATOM      9  C   UNL     1       0.134 -16.368  25.195  1.00  0.00     0.094 A 
ATOM     10  C   UNL     1      -1.965 -16.271  27.046  1.00  0.00     0.134 A 
ATOM     11  C   UNL     1      -0.549 -15.168  25.404  1.00  0.00     0.123 A 
ATOM     12  C   UNL     1      -1.597 -15.120  26.328  1.00  0.00     0.093 A 
BRANCH   3  13
ATOM     13  C   UNL     1       0.848 -21.012  25.779  1.00  0.00     0.025 A 
ATOM     14  C   UNL     1       0.048 -21.831  24.949  1.00  0.00     0.016 A 
ATOM     15  C   UNL     1       0.413 -23.149  24.675  1.00  0.00     0.051 A 
ATOM     16  C   UNL     1       1.604 -23.675  25.174  1.00  0.00     0.157 A 
ATOM     17  C   UNL     1       2.091 -21.530  26.206  1.00  0.00     0.062 A 
ATOM     18  C   UNL     1       2.467 -22.853  25.909  1.00  0.00     0.158 A 
BRANCH  16  19
ATOM     19  O   UNL     1       1.892 -25.023  24.969  1.00  0.00    -0.504 OA
ATOM     20  H   UNL     1       1.623 -25.505  24.119  1.00  0.00     0.293 HD
ENDBRANCH  16  19
BRANCH  18  21
ATOM     21  O   UNL     1       3.694 -23.360  26.337  1.00  0.00    -0.504 OA
ATOM     22  H   UNL     1       4.401 -23.657  25.674  1.00  0.00     0.293 HD
ENDBRANCH  18  21
ENDBRANCH   3  13
BRANCH  10  23
ATOM     23  O   UNL     1      -3.022 -16.198  27.953  1.00  0.00    -0.507 OA
ATOM     24  H   UNL     1      -3.872 -16.725  27.814  1.00  0.00     0.293 HD
ENDBRANCH  10  23
BRANCH  11  25
ATOM     25  O   UNL     1      -0.185 -14.023  24.706  1.00  0.00    -0.508 OA
ATOM     26  H   UNL     1      -0.868 -13.428  24.246  1.00  0.00     0.293 HD
ENDBRANCH  11  25
ENDBRANCH   1   2
BRANCH   1  27
ATOM     27  C   UNL     1       0.184 -20.875  29.530  1.00  0.00     0.339 C 
ATOM     28  C   UNL     1      -0.363 -20.233  30.818  1.00  0.00     0.214 C 
ATOM     29  O   UNL     1       0.596 -22.222  29.752  1.00  0.00    -0.332 OA
ATOM     30  C   UNL     1      -1.572 -21.025  31.331  1.00  0.00     0.180 C 
ATOM     31  C   UNL     1      -0.407 -23.085  30.299  1.00  0.00     0.179 C 
ATOM     32  C   UNL     1      -1.207 -22.511  31.498  1.00  0.00     0.177 C 
BRANCH  28  33
ATOM     33  O   UNL     1      -0.707 -18.882  30.646  1.00  0.00    -0.384 OA
ATOM     34  H   UNL     1       0.150 -18.371  30.669  1.00  0.00     0.211 HD
ENDBRANCH  28  33
BRANCH  30  35
ATOM     35  O   UNL     1      -2.642 -20.924  30.428  1.00  0.00    -0.387 OA
ATOM     36  H   UNL     1      -3.100 -21.807  30.424  1.00  0.00     0.211 HD
ENDBRANCH  30  35
BRANCH  31  37
ATOM     37  C   UNL     1      -1.287 -23.673  29.200  1.00  0.00     0.191 C 
BRANCH  37  38
ATOM     38  O   UNL     1      -2.621 -23.822  29.613  1.00  0.00    -0.394 OA
ATOM     39  H   UNL     1      -2.633 -23.750  30.603  1.00  0.00     0.210 HD
ENDBRANCH  37  38
ENDBRANCH  31  37
BRANCH  32  40
ATOM     40  O   UNL     1      -0.519 -22.732  32.697  1.00  0.00    -0.387 OA
ATOM     41  H   UNL     1      -0.244 -21.857  33.067  1.00  0.00     0.211 HD
ENDBRANCH  32  40
ENDBRANCH   1  27
TORSDOF 12
ENDMDL
MODEL 6
REMARK VINA RESULT:    -6.675      6.083     10.267
REMARK INTER + INTRA:         -11.751
REMARK INTER:                 -10.205
REMARK INTRA:                  -1.547
REMARK UNBOUND:                -1.955
REMARK SMILES O=c1c(O[C@@H]2O[C@H](CO)[C@@H](O)[C@H](O)[C@@H]2O)c(-c2ccc(O)c(O)c2)oc2cc(O)cc(O)c12
REMARK SMILES IDX 4 1 3 2 16 3 25 4 2 5 26 6 1 7 33 8 27 9 31 10 28 11 30 12
REMARK SMILES IDX 17 13 18 14 19 15 20 16 24 17 22 18 21 19 23 21 32 23 29 25
REMARK SMILES IDX 5 27 14 28 6 29 12 30 7 31 10 32 15 33 13 35 8 37 9 38 11 40
REMARK H PARENT 21 20 23 22 32 24 29 26 15 34 13 36 9 39 11 41
REMARK Flexibility Score: inf
ROOT
ATOM      1  O   UNL     1      -2.445 -12.359  28.241  1.00  0.00    -0.454 OA
ENDROOT
BRANCH   1   2
ATOM      2  C   UNL     1      -2.402 -13.656  27.699  1.00  0.00     0.214 A 
ATOM      3  C   UNL     1      -3.342 -14.663  28.044  1.00  0.00     0.180 A 
ATOM      4  O   UNL     1      -3.051 -15.929  27.735  1.00  0.00    -0.452 OA
ATOM      5  C   UNL     1      -1.389 -13.996  26.787  1.00  0.00     0.239 A 
ATOM      6  C   UNL     1      -1.996 -16.305  27.035  1.00  0.00     0.146 A 
ATOM      7  O   UNL     1      -0.745 -13.083  26.216  1.00  0.00    -0.285 OA
ATOM      8  C   UNL     1      -1.138 -15.340  26.478  1.00  0.00     0.111 A 
ATOM      9  C   UNL     1      -1.770 -17.668  26.818  1.00  0.00     0.094 A 
ATOM     10  C   UNL     1      -0.065 -15.762  25.676  1.00  0.00     0.134 A 
ATOM     11  C   UNL     1      -0.678 -18.085  26.055  1.00  0.00     0.123 A 
ATOM     12  C   UNL     1       0.173 -17.133  25.484  1.00  0.00     0.093 A 
BRANCH   3  13
ATOM     13  C   UNL     1      -4.707 -14.418  28.617  1.00  0.00     0.025 A 
ATOM     14  C   UNL     1      -4.880 -14.604  30.008  1.00  0.00     0.016 A 
ATOM     15  C   UNL     1      -6.151 -14.760  30.559  1.00  0.00     0.051 A 
ATOM     16  C   UNL     1      -7.288 -14.689  29.754  1.00  0.00     0.157 A 
ATOM     17  C   UNL     1      -5.869 -14.262  27.829  1.00  0.00     0.062 A 
ATOM     18  C   UNL     1      -7.152 -14.398  28.391  1.00  0.00     0.158 A 
BRANCH  16  19
ATOM     19  O   UNL     1      -8.537 -14.949  30.314  1.00  0.00    -0.504 OA
ATOM     20  H   UNL     1      -8.814 -14.562  31.210  1.00  0.00     0.293 HD
ENDBRANCH  16  19
BRANCH  18  21
ATOM     21  O   UNL     1      -8.295 -14.247  27.607  1.00  0.00    -0.504 OA
ATOM     22  H   UNL     1      -8.873 -15.042  27.358  1.00  0.00     0.293 HD
ENDBRANCH  18  21
ENDBRANCH   3  13
BRANCH  10  23
ATOM     23  O   UNL     1       0.792 -14.833  25.086  1.00  0.00    -0.507 OA
ATOM     24  H   UNL     1       0.447 -14.123  24.457  1.00  0.00     0.293 HD
ENDBRANCH  10  23
BRANCH  11  25
ATOM     25  O   UNL     1      -0.430 -19.440  25.868  1.00  0.00    -0.508 OA
ATOM     26  H   UNL     1       0.281 -19.778  25.226  1.00  0.00     0.293 HD
ENDBRANCH  11  25
ENDBRANCH   1   2
BRANCH   1  27
ATOM     27  C   UNL     1      -1.785 -12.002  29.465  1.00  0.00     0.339 C 
ATOM     28  C   UNL     1      -0.956 -10.709  29.356  1.00  0.00     0.214 C 
ATOM     29  O   UNL     1      -2.709 -11.941  30.549  1.00  0.00    -0.332 OA
ATOM     30  C   UNL     1      -1.880  -9.507  29.131  1.00  0.00     0.180 C 
ATOM     31  C   UNL     1      -3.607 -10.826  30.524  1.00  0.00     0.179 C 
ATOM     32  C   UNL     1      -2.960  -9.447  30.226  1.00  0.00     0.177 C 
BRANCH  28  33
ATOM     33  O   UNL     1       0.014 -10.771  28.343  1.00  0.00    -0.384 OA
ATOM     34  H   UNL     1      -0.421 -10.415  27.517  1.00  0.00     0.211 HD
ENDBRANCH  28  33
BRANCH  30  35
ATOM     35  O   UNL     1      -2.512  -9.602  27.881  1.00  0.00    -0.387 OA
ATOM     36  H   UNL     1      -1.808  -9.467  27.191  1.00  0.00     0.211 HD
ENDBRANCH  30  35
BRANCH  31  37
ATOM     37  C   UNL     1      -4.834 -11.126  29.667  1.00  0.00     0.191 C 
BRANCH  37  38
ATOM     38  O   UNL     1      -5.893 -10.243  29.932  1.00  0.00    -0.394 OA
ATOM     39  H   UNL     1      -6.498 -10.263  29.146  1.00  0.00     0.210 HD
ENDBRANCH  37  38
ENDBRANCH  31  37
BRANCH  32  40
ATOM     40  O   UNL     1      -2.459  -8.877  31.402  1.00  0.00    -0.387 OA
ATOM     41  H   UNL     1      -1.476  -8.810  31.324  1.00  0.00     0.211 HD
ENDBRANCH  32  40
ENDBRANCH   1  27
TORSDOF 12
ENDMDL
MODEL 7
REMARK VINA RESULT:    -6.657      2.234      6.861
REMARK INTER + INTRA:         -11.725
REMARK INTER:                  -9.845
REMARK INTRA:                  -1.881
REMARK UNBOUND:                -1.955
REMARK SMILES O=c1c(O[C@@H]2O[C@H](CO)[C@@H](O)[C@H](O)[C@@H]2O)c(-c2ccc(O)c(O)c2)oc2cc(O)cc(O)c12
REMARK SMILES IDX 4 1 3 2 16 3 25 4 2 5 26 6 1 7 33 8 27 9 31 10 28 11 30 12
REMARK SMILES IDX 17 13 18 14 19 15 20 16 24 17 22 18 21 19 23 21 32 23 29 25
REMARK SMILES IDX 5 27 14 28 6 29 12 30 7 31 10 32 15 33 13 35 8 37 9 38 11 40
REMARK H PARENT 21 20 23 22 32 24 29 26 15 34 13 36 9 39 11 41
REMARK Flexibility Score: inf
ROOT
ATOM      1  O   UNL     1      -0.118 -19.379  25.761  1.00  0.00    -0.454 OA
ENDROOT
BRANCH   1   2
ATOM      2  C   UNL     1      -0.658 -18.308  26.494  1.00  0.00     0.214 A 
ATOM      3  C   UNL     1      -1.205 -18.467  27.795  1.00  0.00     0.180 A 
ATOM      4  O   UNL     1      -1.966 -17.484  28.284  1.00  0.00    -0.452 OA
ATOM      5  C   UNL     1      -0.682 -17.021  25.931  1.00  0.00     0.239 A 
ATOM      6  C   UNL     1      -2.165 -16.324  27.685  1.00  0.00     0.146 A 
ATOM      7  O   UNL     1       0.056 -16.767  24.948  1.00  0.00    -0.285 OA
ATOM      8  C   UNL     1      -1.481 -16.017  26.496  1.00  0.00     0.111 A 
ATOM      9  C   UNL     1      -3.026 -15.391  28.271  1.00  0.00     0.094 A 
ATOM     10  C   UNL     1      -1.652 -14.749  25.917  1.00  0.00     0.134 A 
ATOM     11  C   UNL     1      -3.226 -14.147  27.671  1.00  0.00     0.123 A 
ATOM     12  C   UNL     1      -2.540 -13.826  26.496  1.00  0.00     0.093 A 
BRANCH   3  13
ATOM     13  C   UNL     1      -0.897 -19.595  28.735  1.00  0.00     0.025 A 
ATOM     14  C   UNL     1      -1.661 -20.779  28.616  1.00  0.00     0.016 A 
ATOM     15  C   UNL     1      -1.705 -21.712  29.650  1.00  0.00     0.051 A 
ATOM     16  C   UNL     1      -0.954 -21.524  30.810  1.00  0.00     0.157 A 
ATOM     17  C   UNL     1      -0.076 -19.459  29.877  1.00  0.00     0.062 A 
ATOM     18  C   UNL     1      -0.105 -20.415  30.910  1.00  0.00     0.158 A 
BRANCH  16  19
ATOM     19  O   UNL     1      -1.096 -22.421  31.867  1.00  0.00    -0.504 OA
ATOM     20  H   UNL     1      -0.664 -23.338  31.852  1.00  0.00     0.293 HD
ENDBRANCH  16  19
BRANCH  18  21
ATOM     21  O   UNL     1       0.705 -20.273  32.037  1.00  0.00    -0.504 OA
ATOM     22  H   UNL     1       0.796 -21.020  32.717  1.00  0.00     0.293 HD
ENDBRANCH  18  21
ENDBRANCH   3  13
BRANCH  10  23
ATOM     23  O   UNL     1      -0.971 -14.399  24.752  1.00  0.00    -0.507 OA
ATOM     24  H   UNL     1      -0.681 -15.096  24.081  1.00  0.00     0.293 HD
ENDBRANCH  10  23
BRANCH  11  25
ATOM     25  O   UNL     1      -4.110 -13.232  28.232  1.00  0.00    -0.508 OA
ATOM     26  H   UNL     1      -5.082 -13.459  28.415  1.00  0.00     0.293 HD
ENDBRANCH  11  25
ENDBRANCH   1   2
BRANCH   1  27
ATOM     27  C   UNL     1      -0.856 -20.087  24.754  1.00  0.00     0.339 C 
ATOM     28  C   UNL     1      -0.202 -20.025  23.361  1.00  0.00     0.214 C 
ATOM     29  O   UNL     1      -1.109 -21.433  25.152  1.00  0.00    -0.332 OA
ATOM     30  C   UNL     1       1.131 -20.782  23.369  1.00  0.00     0.180 C 
ATOM     31  C   UNL     1       0.032 -22.297  25.146  1.00  0.00     0.179 C 
ATOM     32  C   UNL     1       0.930 -22.218  23.883  1.00  0.00     0.177 C 
BRANCH  28  33
ATOM     33  O   UNL     1      -0.009 -18.709  22.912  1.00  0.00    -0.384 OA
ATOM     34  H   UNL     1       0.976 -18.547  22.935  1.00  0.00     0.211 HD
ENDBRANCH  28  33
BRANCH  30  35
ATOM     35  O   UNL     1       2.058 -20.133  24.201  1.00  0.00    -0.387 OA
ATOM     36  H   UNL     1       1.533 -19.596  24.853  1.00  0.00     0.211 HD
ENDBRANCH  30  35
BRANCH  31  37
ATOM     37  C   UNL     1       0.807 -22.194  26.457  1.00  0.00     0.191 C 
BRANCH  37  38
ATOM     38  O   UNL     1       2.196 -22.236  26.255  1.00  0.00    -0.394 OA
ATOM     39  H   UNL     1       2.484 -21.325  25.988  1.00  0.00     0.210 HD
ENDBRANCH  37  38
ENDBRANCH  31  37
BRANCH  32  40
ATOM     40  O   UNL     1       0.431 -23.052  22.875  1.00  0.00    -0.387 OA
ATOM     41  H   UNL     1       1.178 -23.588  22.512  1.00  0.00     0.211 HD
ENDBRANCH  32  40
ENDBRANCH   1  27
TORSDOF 12
ENDMDL
MODEL 8
REMARK VINA RESULT:    -6.622      6.820      9.861
REMARK INTER + INTRA:         -11.674
REMARK INTER:                  -9.726
REMARK INTRA:                  -1.948
REMARK UNBOUND:                -1.955
REMARK SMILES O=c1c(O[C@@H]2O[C@H](CO)[C@@H](O)[C@H](O)[C@@H]2O)c(-c2ccc(O)c(O)c2)oc2cc(O)cc(O)c12
REMARK SMILES IDX 4 1 3 2 16 3 25 4 2 5 26 6 1 7 33 8 27 9 31 10 28 11 30 12
REMARK SMILES IDX 17 13 18 14 19 15 20 16 24 17 22 18 21 19 23 21 32 23 29 25
REMARK SMILES IDX 5 27 14 28 6 29 12 30 7 31 10 32 15 33 13 35 8 37 9 38 11 40
REMARK H PARENT 21 20 23 22 32 24 29 26 15 34 13 36 9 39 11 41
REMARK Flexibility Score: inf
ROOT
ATOM      1  O   UNL     1      -3.678 -12.910  30.540  1.00  0.00    -0.454 OA
ENDROOT
BRANCH   1   2
ATOM      2  C   UNL     1      -2.281 -12.871  30.694  1.00  0.00     0.214 A 
ATOM      3  C   UNL     1      -1.411 -13.791  30.049  1.00  0.00     0.180 A 
ATOM      4  O   UNL     1      -0.153 -13.881  30.487  1.00  0.00    -0.452 OA
ATOM      5  C   UNL     1      -1.699 -11.899  31.526  1.00  0.00     0.239 A 
ATOM      6  C   UNL     1       0.375 -13.101  31.412  1.00  0.00     0.146 A 
ATOM      7  O   UNL     1      -2.370 -10.891  31.855  1.00  0.00    -0.285 OA
ATOM      8  C   UNL     1      -0.366 -12.029  31.939  1.00  0.00     0.111 A 
ATOM      9  C   UNL     1       1.692 -13.327  31.826  1.00  0.00     0.094 A 
ATOM     10  C   UNL     1       0.242 -11.169  32.868  1.00  0.00     0.134 A 
ATOM     11  C   UNL     1       2.280 -12.495  32.780  1.00  0.00     0.123 A 
ATOM     12  C   UNL     1       1.557 -11.417  33.300  1.00  0.00     0.093 A 
BRANCH   3  13
ATOM     13  C   UNL     1      -1.745 -14.587  28.822  1.00  0.00     0.025 A 
ATOM     14  C   UNL     1      -1.856 -15.990  28.958  1.00  0.00     0.016 A 
ATOM     15  C   UNL     1      -1.794 -16.826  27.845  1.00  0.00     0.051 A 
ATOM     16  C   UNL     1      -1.671 -16.294  26.562  1.00  0.00     0.157 A 
ATOM     17  C   UNL     1      -1.707 -14.058  27.513  1.00  0.00     0.062 A 
ATOM     18  C   UNL     1      -1.668 -14.904  26.389  1.00  0.00     0.158 A 
BRANCH  16  19
ATOM     19  O   UNL     1      -1.510 -17.155  25.478  1.00  0.00    -0.504 OA
ATOM     20  H   UNL     1      -1.461 -18.161  25.597  1.00  0.00     0.293 HD
ENDBRANCH  16  19
BRANCH  18  21
ATOM     21  O   UNL     1      -1.626 -14.376  25.098  1.00  0.00    -0.504 OA
ATOM     22  H   UNL     1      -0.779 -13.964  24.725  1.00  0.00     0.293 HD
ENDBRANCH  18  21
ENDBRANCH   3  13
BRANCH  10  23
ATOM     23  O   UNL     1      -0.452 -10.081  33.394  1.00  0.00    -0.507 OA
ATOM     24  H   UNL     1      -0.882  -9.391  32.795  1.00  0.00     0.293 HD
ENDBRANCH  10  23
BRANCH  11  25
ATOM     25  O   UNL     1       3.576 -12.738  33.219  1.00  0.00    -0.508 OA
ATOM     26  H   UNL     1       3.772 -13.164  34.120  1.00  0.00     0.293 HD
ENDBRANCH  11  25
ENDBRANCH   1   2
BRANCH   1  27
ATOM     27  C   UNL     1      -4.533 -13.708  31.372  1.00  0.00     0.339 C 
ATOM     28  C   UNL     1      -5.670 -12.903  32.028  1.00  0.00     0.214 C 
ATOM     29  O   UNL     1      -5.036 -14.837  30.660  1.00  0.00    -0.332 OA
ATOM     30  C   UNL     1      -6.647 -12.400  30.958  1.00  0.00     0.180 C 
ATOM     31  C   UNL     1      -6.019 -14.542  29.662  1.00  0.00     0.179 C 
ATOM     32  C   UNL     1      -7.149 -13.572  30.096  1.00  0.00     0.177 C 
BRANCH  28  33
ATOM     33  O   UNL     1      -5.198 -11.828  32.797  1.00  0.00    -0.384 OA
ATOM     34  H   UNL     1      -4.206 -11.937  32.851  1.00  0.00     0.211 HD
ENDBRANCH  28  33
BRANCH  30  35
ATOM     35  O   UNL     1      -6.017 -11.465  30.122  1.00  0.00    -0.387 OA
ATOM     36  H   UNL     1      -5.272 -11.065  30.646  1.00  0.00     0.211 HD
ENDBRANCH  30  35
BRANCH  31  37
ATOM     37  C   UNL     1      -5.362 -14.164  28.337  1.00  0.00     0.191 C 
BRANCH  37  38
ATOM     38  O   UNL     1      -6.003 -13.078  27.720  1.00  0.00    -0.394 OA
ATOM     39  H   UNL     1      -5.845 -12.280  28.288  1.00  0.00     0.210 HD
ENDBRANCH  37  38
ENDBRANCH  31  37
BRANCH  32  40
ATOM     40  O   UNL     1      -8.174 -14.273  30.742  1.00  0.00    -0.387 OA
ATOM     41  H   UNL     1      -8.715 -13.630  31.263  1.00  0.00     0.211 HD
ENDBRANCH  32  40
ENDBRANCH   1  27
TORSDOF 12
ENDMDL
MODEL 9
REMARK VINA RESULT:    -6.566      5.670      8.609
REMARK INTER + INTRA:         -11.591
REMARK INTER:                  -9.494
REMARK INTRA:                  -2.098
REMARK UNBOUND:                -1.955
REMARK SMILES O=c1c(O[C@@H]2O[C@H](CO)[C@@H](O)[C@H](O)[C@@H]2O)c(-c2ccc(O)c(O)c2)oc2cc(O)cc(O)c12
REMARK SMILES IDX 4 1 3 2 16 3 25 4 2 5 26 6 1 7 33 8 27 9 31 10 28 11 30 12
REMARK SMILES IDX 17 13 18 14 19 15 20 16 24 17 22 18 21 19 23 21 32 23 29 25
REMARK SMILES IDX 5 27 14 28 6 29 12 30 7 31 10 32 15 33 13 35 8 37 9 38 11 40
REMARK H PARENT 21 20 23 22 32 24 29 26 15 34 13 36 9 39 11 41
REMARK Flexibility Score: inf
ROOT
ATOM      1  O   UNL     1      -1.054 -12.738  27.248  1.00  0.00    -0.454 OA
ENDROOT
BRANCH   1   2
ATOM      2  C   UNL     1      -2.185 -13.293  27.870  1.00  0.00     0.214 A 
ATOM      3  C   UNL     1      -2.758 -14.528  27.463  1.00  0.00     0.180 A 
ATOM      4  O   UNL     1      -3.989 -14.823  27.888  1.00  0.00    -0.452 OA
ATOM      5  C   UNL     1      -2.802 -12.610  28.933  1.00  0.00     0.239 A 
ATOM      6  C   UNL     1      -4.678 -14.095  28.749  1.00  0.00     0.146 A 
ATOM      7  O   UNL     1      -2.170 -11.704  29.528  1.00  0.00    -0.285 OA
ATOM      8  C   UNL     1      -4.087 -12.974  29.357  1.00  0.00     0.111 A 
ATOM      9  C   UNL     1      -5.981 -14.480  29.079  1.00  0.00     0.094 A 
ATOM     10  C   UNL     1      -4.813 -12.259  30.323  1.00  0.00     0.134 A 
ATOM     11  C   UNL     1      -6.715 -13.743  30.009  1.00  0.00     0.123 A 
ATOM     12  C   UNL     1      -6.132 -12.634  30.631  1.00  0.00     0.093 A 
BRANCH   3  13
ATOM     13  C   UNL     1      -2.047 -15.602  26.695  1.00  0.00     0.025 A 
ATOM     14  C   UNL     1      -1.298 -16.551  27.429  1.00  0.00     0.016 A 
ATOM     15  C   UNL     1      -0.330 -17.338  26.807  1.00  0.00     0.051 A 
ATOM     16  C   UNL     1      -0.111 -17.243  25.434  1.00  0.00     0.157 A 
ATOM     17  C   UNL     1      -1.875 -15.578  25.293  1.00  0.00     0.062 A 
ATOM     18  C   UNL     1      -0.912 -16.390  24.665  1.00  0.00     0.158 A 
BRANCH  16  19
ATOM     19  O   UNL     1       0.931 -17.967  24.857  1.00  0.00    -0.504 OA
ATOM     20  H   UNL     1       1.682 -17.513  24.350  1.00  0.00     0.293 HD
ENDBRANCH  16  19
BRANCH  18  21
ATOM     21  O   UNL     1      -0.744 -16.358  23.280  1.00  0.00    -0.504 OA
ATOM     22  H   UNL     1      -0.345 -15.550  22.816  1.00  0.00     0.293 HD
ENDBRANCH  18  21
ENDBRANCH   3  13
BRANCH  10  23
ATOM     23  O   UNL     1      -4.252 -11.156  30.966  1.00  0.00    -0.507 OA
ATOM     24  H   UNL     1      -3.484 -11.258  31.613  1.00  0.00     0.293 HD
ENDBRANCH  10  23
BRANCH  11  25
ATOM     25  O   UNL     1      -8.024 -14.101  30.313  1.00  0.00    -0.508 OA
ATOM     26  H   UNL     1      -8.680 -14.409  29.603  1.00  0.00     0.293 HD
ENDBRANCH  11  25
ENDBRANCH   1   2
BRANCH   1  27
ATOM     27  C   UNL     1      -1.122 -12.005  26.015  1.00  0.00     0.339 C 
ATOM     28  C   UNL     1      -1.180 -10.480  26.215  1.00  0.00     0.214 C 
ATOM     29  O   UNL     1      -0.061 -12.377  25.137  1.00  0.00    -0.332 OA
ATOM     30  C   UNL     1       0.138  -9.974  26.813  1.00  0.00     0.180 C 
ATOM     31  C   UNL     1       1.239 -11.918  25.521  1.00  0.00     0.179 C 
ATOM     32  C   UNL     1       1.329 -10.430  25.952  1.00  0.00     0.177 C 
BRANCH  28  33
ATOM     33  O   UNL     1      -2.261 -10.080  27.017  1.00  0.00    -0.384 OA
ATOM     34  H   UNL     1      -2.903  -9.615  26.409  1.00  0.00     0.211 HD
ENDBRANCH  28  33
BRANCH  30  35
ATOM     35  O   UNL     1       0.308 -10.474  28.115  1.00  0.00    -0.387 OA
ATOM     36  H   UNL     1       1.287 -10.575  28.259  1.00  0.00     0.211 HD
ENDBRANCH  30  35
BRANCH  31  37
ATOM     37  C   UNL     1       1.895 -12.882  26.507  1.00  0.00     0.191 C 
BRANCH  37  38
ATOM     38  O   UNL     1       1.429 -14.197  26.348  1.00  0.00    -0.394 OA
ATOM     39  H   UNL     1       2.210 -14.801  26.450  1.00  0.00     0.210 HD
ENDBRANCH  37  38
ENDBRANCH  31  37
BRANCH  32  40
ATOM     40  O   UNL     1       1.488  -9.605  24.832  1.00  0.00    -0.387 OA
ATOM     41  H   UNL     1       1.742 -10.168  24.060  1.00  0.00     0.211 HD
ENDBRANCH  32  40
ENDBRANCH   1  27
TORSDOF 12
ENDMDL
