MODEL 1
REMARK VINA RESULT:    -5.228      0.000      0.000
REMARK INTER + INTRA:          -6.572
REMARK INTER:                  -6.298
REMARK INTRA:                  -0.274
REMARK UNBOUND:                -0.274
REMARK SMILES NC(=O)C[C@@H]([NH3+])C(=O)[O-]
REMARK SMILES IDX 4 1 5 2 6 3 7 7 8 8 9 9 2 10 3 11 1 12
REMARK H PARENT 6 4 6 5 6 6 1 13 1 14
REMARK Flexibility Score: inf
ROOT
ATOM      1  C   UNL     1     -19.472  24.675 -19.738  1.00  0.00     0.171 C 
ENDROOT
BRANCH   1   2
ATOM      2  C   UNL     1     -19.702  23.373 -20.536  1.00  0.00     0.237 C 
BRANCH   2   3
ATOM      3  N   UNL     1     -18.847  23.307 -21.729  1.00  0.00    -0.350 N 
ATOM      4  H   UNL     1     -19.419  23.260 -22.602  1.00  0.00     0.345 HD
ATOM      5  H   UNL     1     -18.232  22.463 -21.676  1.00  0.00     0.345 HD
ATOM      6  H   UNL     1     -18.236  24.155 -21.769  1.00  0.00     0.345 HD
ENDBRANCH   2   3
BRANCH   2   7
ATOM      7  C   UNL     1     -19.519  22.154 -19.666  1.00  0.00     0.100 C 
ATOM      8  O   UNL     1     -18.444  21.501 -19.718  1.00  0.00    -0.544 OA
ATOM      9  O   UNL     1     -20.548  21.710 -18.844  1.00  0.00    -0.544 OA
ENDBRANCH   2   7
ENDBRANCH   1   2
BRANCH   1  10
ATOM     10  C   UNL     1     -19.407  25.901 -20.606  1.00  0.00     0.223 C 
ATOM     11  O   UNL     1     -20.281  26.087 -21.494  1.00  0.00    -0.275 OA
ATOM     12  N   UNL     1     -18.350  26.848 -20.445  1.00  0.00    -0.369 N 
ATOM     13  H   UNL     1     -18.302  27.692 -21.059  1.00  0.00     0.159 HD
ATOM     14  H   UNL     1     -17.616  26.709 -19.717  1.00  0.00     0.159 HD
ENDBRANCH   1  10
TORSDOF 4
ENDMDL
MODEL 2
REMARK VINA RESULT:    -5.199      0.226      1.098
REMARK INTER + INTRA:          -6.536
REMARK INTER:                  -6.257
REMARK INTRA:                  -0.279
REMARK UNBOUND:                -0.274
REMARK SMILES NC(=O)C[C@@H]([NH3+])C(=O)[O-]
REMARK SMILES IDX 4 1 5 2 6 3 7 7 8 8 9 9 2 10 3 11 1 12
REMARK H PARENT 6 4 6 5 6 6 1 13 1 14
REMARK Flexibility Score: inf
ROOT
ATOM      1  C   UNL     1     -19.460  24.610 -19.620  1.00  0.00     0.171 C 
ENDROOT
BRANCH   1   2
ATOM      2  C   UNL     1     -19.678  23.378 -20.525  1.00  0.00     0.237 C 
BRANCH   2   3
ATOM      3  N   UNL     1     -18.847  23.436 -21.735  1.00  0.00    -0.350 N 
ATOM      4  H   UNL     1     -18.283  24.316 -21.765  1.00  0.00     0.345 HD
ATOM      5  H   UNL     1     -19.455  23.389 -22.585  1.00  0.00     0.345 HD
ATOM      6  H   UNL     1     -18.197  22.617 -21.753  1.00  0.00     0.345 HD
ENDBRANCH   2   3
BRANCH   2   7
ATOM      7  C   UNL     1     -19.451  22.092 -19.770  1.00  0.00     0.100 C 
ATOM      8  O   UNL     1     -20.392  21.578 -19.110  1.00  0.00    -0.544 OA
ATOM      9  O   UNL     1     -18.197  21.494 -19.751  1.00  0.00    -0.544 OA
ENDBRANCH   2   7
ENDBRANCH   1   2
BRANCH   1  10
ATOM     10  C   UNL     1     -19.408  25.905 -20.381  1.00  0.00     0.223 C 
ATOM     11  O   UNL     1     -20.236  26.122 -21.306  1.00  0.00    -0.275 OA
ATOM     12  N   UNL     1     -18.415  26.886 -20.077  1.00  0.00    -0.369 N 
ATOM     13  H   UNL     1     -18.375  27.779 -20.616  1.00  0.00     0.159 HD
ATOM     14  H   UNL     1     -17.720  26.722 -19.316  1.00  0.00     0.159 HD
ENDBRANCH   1  10
TORSDOF 4
ENDMDL
MODEL 3
REMARK VINA RESULT:    -4.727      1.407      1.654
REMARK INTER + INTRA:          -5.967
REMARK INTER:                  -5.741
REMARK INTRA:                  -0.226
REMARK UNBOUND:                -0.274
REMARK SMILES NC(=O)C[C@@H]([NH3+])C(=O)[O-]
REMARK SMILES IDX 4 1 5 2 6 3 7 7 8 8 9 9 2 10 3 11 1 12
REMARK H PARENT 6 4 6 5 6 6 1 13 1 14
REMARK Flexibility Score: inf
ROOT
ATOM      1  C   UNL     1     -19.673  24.368 -19.363  1.00  0.00     0.171 C 
ENDROOT
BRANCH   1   2
ATOM      2  C   UNL     1     -19.949  22.978 -19.976  1.00  0.00     0.237 C 
BRANCH   2   3
ATOM      3  N   UNL     1     -21.097  23.005 -20.894  1.00  0.00    -0.350 N 
ATOM      4  H   UNL     1     -21.881  23.575 -20.502  1.00  0.00     0.345 HD
ATOM      5  H   UNL     1     -21.434  22.031 -21.066  1.00  0.00     0.345 HD
ATOM      6  H   UNL     1     -20.803  23.417 -21.810  1.00  0.00     0.345 HD
ENDBRANCH   2   3
BRANCH   2   7
ATOM      7  C   UNL     1     -18.722  22.422 -20.655  1.00  0.00     0.100 C 
ATOM      8  O   UNL     1     -17.818  21.878 -19.969  1.00  0.00    -0.544 OA
ATOM      9  O   UNL     1     -18.552  22.552 -22.029  1.00  0.00    -0.544 OA
ENDBRANCH   2   7
ENDBRANCH   1   2
BRANCH   1  10
ATOM     10  C   UNL     1     -19.537  25.455 -20.392  1.00  0.00     0.223 C 
ATOM     11  O   UNL     1     -20.431  25.606 -21.267  1.00  0.00    -0.275 OA
ATOM     12  N   UNL     1     -18.392  26.309 -20.398  1.00  0.00    -0.369 N 
ATOM     13  H   UNL     1     -18.295  27.055 -21.122  1.00  0.00     0.159 HD
ATOM     14  H   UNL     1     -17.640  26.197 -19.683  1.00  0.00     0.159 HD
ENDBRANCH   1  10
TORSDOF 4
ENDMDL
MODEL 4
REMARK VINA RESULT:    -4.566      2.130      3.825
REMARK INTER + INTRA:          -5.774
REMARK INTER:                  -5.650
REMARK INTRA:                  -0.124
REMARK UNBOUND:                -0.274
REMARK SMILES NC(=O)C[C@@H]([NH3+])C(=O)[O-]
REMARK SMILES IDX 4 1 5 2 6 3 7 7 8 8 9 9 2 10 3 11 1 12
REMARK H PARENT 6 4 6 5 6 6 1 13 1 14
REMARK Flexibility Score: inf
ROOT
ATOM      1  C   UNL     1     -20.765  22.638 -20.519  1.00  0.00     0.171 C 
ENDROOT
BRANCH   1   2
ATOM      2  C   UNL     1     -19.433  23.418 -20.583  1.00  0.00     0.237 C 
BRANCH   2   3
ATOM      3  N   UNL     1     -18.686  23.121 -21.813  1.00  0.00    -0.350 N 
ATOM      4  H   UNL     1     -18.613  22.090 -21.971  1.00  0.00     0.345 HD
ATOM      5  H   UNL     1     -17.725  23.527 -21.750  1.00  0.00     0.345 HD
ATOM      6  H   UNL     1     -19.172  23.555 -22.631  1.00  0.00     0.345 HD
ENDBRANCH   2   3
BRANCH   2   7
ATOM      7  C   UNL     1     -19.655  24.902 -20.425  1.00  0.00     0.100 C 
ATOM      8  O   UNL     1     -20.449  25.503 -21.195  1.00  0.00    -0.544 OA
ATOM      9  O   UNL     1     -18.949  25.626 -19.471  1.00  0.00    -0.544 OA
ENDBRANCH   2   7
ENDBRANCH   1   2
BRANCH   1  10
ATOM     10  C   UNL     1     -21.182  22.290 -19.117  1.00  0.00     0.223 C 
ATOM     11  O   UNL     1     -22.396  22.075 -18.859  1.00  0.00    -0.275 OA
ATOM     12  N   UNL     1     -20.213  22.217 -18.070  1.00  0.00    -0.369 N 
ATOM     13  H   UNL     1     -20.508  21.987 -17.095  1.00  0.00     0.159 HD
ATOM     14  H   UNL     1     -19.203  22.394 -18.264  1.00  0.00     0.159 HD
ENDBRANCH   1  10
TORSDOF 4
ENDMDL
MODEL 5
REMARK VINA RESULT:    -4.503      2.279      3.537
REMARK INTER + INTRA:          -5.699
REMARK INTER:                  -5.571
REMARK INTRA:                  -0.127
REMARK UNBOUND:                -0.274
REMARK SMILES NC(=O)C[C@@H]([NH3+])C(=O)[O-]
REMARK SMILES IDX 4 1 5 2 6 3 7 7 8 8 9 9 2 10 3 11 1 12
REMARK H PARENT 6 4 6 5 6 6 1 13 1 14
REMARK Flexibility Score: inf
ROOT
ATOM      1  C   UNL     1     -20.124  23.175 -19.094  1.00  0.00     0.171 C 
ENDROOT
BRANCH   1   2
ATOM      2  C   UNL     1     -19.643  23.477 -20.530  1.00  0.00     0.237 C 
BRANCH   2   3
ATOM      3  N   UNL     1     -19.050  24.816 -20.636  1.00  0.00    -0.350 N 
ATOM      4  H   UNL     1     -18.803  25.197 -19.695  1.00  0.00     0.345 HD
ATOM      5  H   UNL     1     -19.724  25.466 -21.102  1.00  0.00     0.345 HD
ATOM      6  H   UNL     1     -18.184  24.770 -21.221  1.00  0.00     0.345 HD
ENDBRANCH   2   3
BRANCH   2   7
ATOM      7  C   UNL     1     -18.690  22.418 -21.027  1.00  0.00     0.100 C 
ATOM      8  O   UNL     1     -18.669  22.116 -22.249  1.00  0.00    -0.544 OA
ATOM      9  O   UNL     1     -17.871  21.730 -20.139  1.00  0.00    -0.544 OA
ENDBRANCH   2   7
ENDBRANCH   1   2
BRANCH   1  10
ATOM     10  C   UNL     1     -21.227  22.155 -19.038  1.00  0.00     0.223 C 
ATOM     11  O   UNL     1     -22.063  22.083 -19.978  1.00  0.00    -0.275 OA
ATOM     12  N   UNL     1     -21.346  21.276 -17.918  1.00  0.00    -0.369 N 
ATOM     13  H   UNL     1     -22.120  20.577 -17.878  1.00  0.00     0.159 HD
ATOM     14  H   UNL     1     -20.664  21.323 -17.129  1.00  0.00     0.159 HD
ENDBRANCH   1  10
TORSDOF 4
ENDMDL
MODEL 6
REMARK VINA RESULT:    -4.139      2.127      3.707
REMARK INTER + INTRA:          -5.260
REMARK INTER:                  -5.008
REMARK INTRA:                  -0.252
REMARK UNBOUND:                -0.274
REMARK SMILES NC(=O)C[C@@H]([NH3+])C(=O)[O-]
REMARK SMILES IDX 4 1 5 2 6 3 7 7 8 8 9 9 2 10 3 11 1 12
REMARK H PARENT 6 4 6 5 6 6 1 13 1 14
REMARK Flexibility Score: inf
ROOT
ATOM      1  C   UNL     1     -20.106  21.932 -20.784  1.00  0.00     0.171 C 
ENDROOT
BRANCH   1   2
ATOM      2  C   UNL     1     -20.565  22.983 -19.750  1.00  0.00     0.237 C 
BRANCH   2   3
ATOM      3  N   UNL     1     -20.206  22.592 -18.380  1.00  0.00    -0.350 N 
ATOM      4  H   UNL     1     -20.574  23.278 -17.682  1.00  0.00     0.345 HD
ATOM      5  H   UNL     1     -19.166  22.535 -18.290  1.00  0.00     0.345 HD
ATOM      6  H   UNL     1     -20.605  21.648 -18.169  1.00  0.00     0.345 HD
ENDBRANCH   2   3
BRANCH   2   7
ATOM      7  C   UNL     1     -20.032  24.354 -20.083  1.00  0.00     0.100 C 
ATOM      8  O   UNL     1     -20.466  24.968 -21.093  1.00  0.00    -0.544 OA
ATOM      9  O   UNL     1     -19.024  24.927 -19.317  1.00  0.00    -0.544 OA
ENDBRANCH   2   7
ENDBRANCH   1   2
BRANCH   1  10
ATOM     10  C   UNL     1     -18.664  22.080 -21.181  1.00  0.00     0.223 C 
ATOM     11  O   UNL     1     -17.759  21.607 -20.444  1.00  0.00    -0.275 OA
ATOM     12  N   UNL     1     -18.310  22.770 -22.381  1.00  0.00    -0.369 N 
ATOM     13  H   UNL     1     -17.306  22.882 -22.647  1.00  0.00     0.159 HD
ATOM     14  H   UNL     1     -19.046  23.171 -23.002  1.00  0.00     0.159 HD
ENDBRANCH   1  10
TORSDOF 4
ENDMDL
MODEL 7
REMARK VINA RESULT:    -4.126      2.147      2.443
REMARK INTER + INTRA:          -5.244
REMARK INTER:                  -4.890
REMARK INTRA:                  -0.354
REMARK UNBOUND:                -0.274
REMARK SMILES NC(=O)C[C@@H]([NH3+])C(=O)[O-]
REMARK SMILES IDX 4 1 5 2 6 3 7 7 8 8 9 9 2 10 3 11 1 12
REMARK H PARENT 6 4 6 5 6 6 1 13 1 14
REMARK Flexibility Score: inf
ROOT
ATOM      1  C   UNL     1     -18.741  23.048 -19.709  1.00  0.00     0.171 C 
ENDROOT
BRANCH   1   2
ATOM      2  C   UNL     1     -19.841  22.035 -19.324  1.00  0.00     0.237 C 
BRANCH   2   3
ATOM      3  N   UNL     1     -20.530  22.422 -18.085  1.00  0.00    -0.350 N 
ATOM      4  H   UNL     1     -20.473  23.454 -17.927  1.00  0.00     0.345 HD
ATOM      5  H   UNL     1     -20.099  21.927 -17.271  1.00  0.00     0.345 HD
ATOM      6  H   UNL     1     -21.537  22.144 -18.142  1.00  0.00     0.345 HD
ENDBRANCH   2   3
BRANCH   2   7
ATOM      7  C   UNL     1     -20.822  21.831 -20.451  1.00  0.00     0.100 C 
ATOM      8  O   UNL     1     -20.411  21.463 -21.583  1.00  0.00    -0.544 OA
ATOM      9  O   UNL     1     -22.175  22.098 -20.270  1.00  0.00    -0.544 OA
ENDBRANCH   2   7
ENDBRANCH   1   2
BRANCH   1  10
ATOM     10  C   UNL     1     -19.287  24.371 -20.169  1.00  0.00     0.223 C 
ATOM     11  O   UNL     1     -19.611  25.245 -19.320  1.00  0.00    -0.275 OA
ATOM     12  N   UNL     1     -19.459  24.640 -21.561  1.00  0.00    -0.369 N 
ATOM     13  H   UNL     1     -19.850  25.556 -21.875  1.00  0.00     0.159 HD
ATOM     14  H   UNL     1     -19.199  23.928 -22.278  1.00  0.00     0.159 HD
ENDBRANCH   1  10
TORSDOF 4
ENDMDL
MODEL 8
REMARK VINA RESULT:    -3.877     13.285     15.204
REMARK INTER + INTRA:          -4.944
REMARK INTER:                  -4.684
REMARK INTRA:                  -0.259
REMARK UNBOUND:                -0.274
REMARK SMILES NC(=O)C[C@@H]([NH3+])C(=O)[O-]
REMARK SMILES IDX 4 1 5 2 6 3 7 7 8 8 9 9 2 10 3 11 1 12
REMARK H PARENT 6 4 6 5 6 6 1 13 1 14
REMARK Flexibility Score: inf
ROOT
ATOM      1  C   UNL     1     -18.733  36.365 -27.259  1.00  0.00     0.171 C 
ENDROOT
BRANCH   1   2
ATOM      2  C   UNL     1     -17.381  36.727 -27.913  1.00  0.00     0.237 C 
BRANCH   2   3
ATOM      3  N   UNL     1     -16.577  35.531 -28.201  1.00  0.00    -0.350 N 
ATOM      4  H   UNL     1     -16.511  34.909 -27.363  1.00  0.00     0.345 HD
ATOM      5  H   UNL     1     -15.615  35.814 -28.495  1.00  0.00     0.345 HD
ATOM      6  H   UNL     1     -17.015  34.995 -28.986  1.00  0.00     0.345 HD
ENDBRANCH   2   3
BRANCH   2   7
ATOM      7  C   UNL     1     -17.576  37.563 -29.154  1.00  0.00     0.100 C 
ATOM      8  O   UNL     1     -18.692  37.570 -29.737  1.00  0.00    -0.544 OA
ATOM      9  O   UNL     1     -16.519  38.287 -29.693  1.00  0.00    -0.544 OA
ENDBRANCH   2   7
ENDBRANCH   1   2
BRANCH   1  10
ATOM     10  C   UNL     1     -18.619  36.060 -25.791  1.00  0.00     0.223 C 
ATOM     11  O   UNL     1     -17.684  35.324 -25.374  1.00  0.00    -0.275 OA
ATOM     12  N   UNL     1     -19.573  36.583 -24.866  1.00  0.00    -0.369 N 
ATOM     13  H   UNL     1     -19.498  36.358 -23.849  1.00  0.00     0.159 HD
ATOM     14  H   UNL     1     -20.355  37.191 -25.193  1.00  0.00     0.159 HD
ENDBRANCH   1  10
TORSDOF 4
ENDMDL
MODEL 9
REMARK VINA RESULT:    -3.844      2.323      3.188
REMARK INTER + INTRA:          -4.904
REMARK INTER:                  -4.626
REMARK INTRA:                  -0.278
REMARK UNBOUND:                -0.274
REMARK SMILES NC(=O)C[C@@H]([NH3+])C(=O)[O-]
REMARK SMILES IDX 4 1 5 2 6 3 7 7 8 8 9 9 2 10 3 11 1 12
REMARK H PARENT 6 4 6 5 6 6 1 13 1 14
REMARK Flexibility Score: inf
ROOT
ATOM      1  C   UNL     1     -21.013  22.754 -20.286  1.00  0.00     0.171 C 
ENDROOT
BRANCH   1   2
ATOM      2  C   UNL     1     -20.897  21.930 -18.985  1.00  0.00     0.237 C 
BRANCH   2   3
ATOM      3  N   UNL     1     -19.903  22.500 -18.065  1.00  0.00    -0.350 N 
ATOM      4  H   UNL     1     -19.147  21.812 -17.851  1.00  0.00     0.345 HD
ATOM      5  H   UNL     1     -20.370  22.786 -17.174  1.00  0.00     0.345 HD
ATOM      6  H   UNL     1     -19.474  23.351 -18.498  1.00  0.00     0.345 HD
ENDBRANCH   2   3
BRANCH   2   7
ATOM      7  C   UNL     1     -22.237  21.773 -18.311  1.00  0.00     0.100 C 
ATOM      8  O   UNL     1     -23.286  22.126 -18.910  1.00  0.00    -0.544 OA
ATOM      9  O   UNL     1     -22.323  21.292 -17.009  1.00  0.00    -0.544 OA
ENDBRANCH   2   7
ENDBRANCH   1   2
BRANCH   1  10
ATOM     10  C   UNL     1     -19.848  23.677 -20.510  1.00  0.00     0.223 C 
ATOM     11  O   UNL     1     -19.745  24.734 -19.832  1.00  0.00    -0.275 OA
ATOM     12  N   UNL     1     -18.863  23.375 -21.500  1.00  0.00    -0.369 N 
ATOM     13  H   UNL     1     -18.062  24.025 -21.661  1.00  0.00     0.159 HD
ATOM     14  H   UNL     1     -18.933  22.506 -22.073  1.00  0.00     0.159 HD
ENDBRANCH   1  10
TORSDOF 4
ENDMDL
