MODEL 1
REMARK VINA RESULT:    -5.984      0.000      0.000
REMARK INTER + INTRA:         -17.948
REMARK INTER:                 -13.681
REMARK INTRA:                  -4.267
REMARK UNBOUND:                -4.267
REMARK SMILES CCCCCCCCCCCCCCCCCCCCCCCC(=O)[O-]
REMARK SMILES IDX 13 1 14 2 15 3 16 4 17 5 18 6 19 7 20 8 21 9 22 10 23 11
REMARK SMILES IDX 24 12 25 13 26 14 12 15 11 16 10 17 9 18 8 19 7 20 6 21 5 22
REMARK SMILES IDX 4 23 3 24 2 25 1 26
REMARK H PARENT
REMARK Flexibility Score: inf
ROOT
ATOM      1  C   UNL     1      13.391   7.995 -16.003  1.00  0.00     0.000 C 
ENDROOT
BRANCH   1   2
ATOM      2  C   UNL     1      12.650   7.180 -14.921  1.00  0.00     0.000 C 
BRANCH   2   3
ATOM      3  C   UNL     1      12.243   5.751 -15.334  1.00  0.00     0.000 C 
BRANCH   3   4
ATOM      4  C   UNL     1      11.118   5.139 -14.470  1.00  0.00     0.000 C 
BRANCH   4   5
ATOM      5  C   UNL     1      10.809   5.943 -13.198  1.00  0.00     0.000 C 
BRANCH   5   6
ATOM      6  C   UNL     1       9.924   5.173 -12.208  1.00  0.00     0.000 C 
BRANCH   6   7
ATOM      7  C   UNL     1       9.798   5.930 -10.879  1.00  0.00     0.000 C 
BRANCH   7   8
ATOM      8  C   UNL     1      11.054   6.771 -10.605  1.00  0.00     0.000 C 
BRANCH   8   9
ATOM      9  C   UNL     1      11.939   6.170  -9.501  1.00  0.00     0.000 C 
BRANCH   9  10
ATOM     10  C   UNL     1      13.441   6.306  -9.808  1.00  0.00     0.006 C 
BRANCH  10  11
ATOM     11  C   UNL     1      13.701   6.708 -11.267  1.00  0.00     0.053 C 
BRANCH  11  12
ATOM     12  C   UNL     1      14.790   7.729 -11.378  1.00  0.00     0.041 C 
ATOM     13  O   UNL     1      15.627   7.868 -10.448  1.00  0.00    -0.550 OA
ATOM     14  O   UNL     1      14.860   8.551 -12.496  1.00  0.00    -0.550 OA
ENDBRANCH  11  12
ENDBRANCH  10  11
ENDBRANCH   9  10
ENDBRANCH   8   9
ENDBRANCH   7   8
ENDBRANCH   6   7
ENDBRANCH   5   6
ENDBRANCH   4   5
ENDBRANCH   3   4
ENDBRANCH   2   3
ENDBRANCH   1   2
BRANCH   1  15
ATOM     15  C   UNL     1      12.497   8.616 -17.095  1.00  0.00     0.000 C 
BRANCH  15  16
ATOM     16  C   UNL     1      11.095   9.037 -16.622  1.00  0.00     0.000 C 
BRANCH  16  17
ATOM     17  C   UNL     1      10.050   8.985 -17.749  1.00  0.00     0.000 C 
BRANCH  17  18
ATOM     18  C   UNL     1       8.752   8.273 -17.329  1.00  0.00    -0.000 C 
BRANCH  18  19
ATOM     19  C   UNL     1       8.760   7.676 -15.907  1.00  0.00    -0.000 C 
BRANCH  19  20
ATOM     20  C   UNL     1       7.499   8.008 -15.080  1.00  0.00    -0.000 C 
BRANCH  20  21
ATOM     21  C   UNL     1       7.640   7.583 -13.607  1.00  0.00    -0.000 C 
BRANCH  21  22
ATOM     22  C   UNL     1       7.772   8.780 -12.653  1.00  0.00    -0.000 C 
BRANCH  22  23
ATOM     23  C   UNL     1       8.111  10.103 -13.373  1.00  0.00    -0.000 C 
BRANCH  23  24
ATOM     24  C   UNL     1       9.454  10.685 -12.909  1.00  0.00    -0.000 C 
BRANCH  24  25
ATOM     25  C   UNL     1      10.599   9.694 -13.156  1.00  0.00    -0.003 C 
ATOM     26  C   UNL     1      11.812  10.025 -12.292  1.00  0.00     0.004 C 
ENDBRANCH  24  25
ENDBRANCH  23  24
ENDBRANCH  22  23
ENDBRANCH  21  22
ENDBRANCH  20  21
ENDBRANCH  19  20
ENDBRANCH  18  19
ENDBRANCH  17  18
ENDBRANCH  16  17
ENDBRANCH  15  16
ENDBRANCH   1  15
TORSDOF 22
ENDMDL
MODEL 2
REMARK VINA RESULT:    -5.973      1.276      2.989
REMARK INTER + INTRA:         -17.921
REMARK INTER:                 -13.714
REMARK INTRA:                  -4.207
REMARK UNBOUND:                -4.267
REMARK SMILES CCCCCCCCCCCCCCCCCCCCCCCC(=O)[O-]
REMARK SMILES IDX 13 1 14 2 15 3 16 4 17 5 18 6 19 7 20 8 21 9 22 10 23 11
REMARK SMILES IDX 24 12 25 13 26 14 12 15 11 16 10 17 9 18 8 19 7 20 6 21 5 22
REMARK SMILES IDX 4 23 3 24 2 25 1 26
REMARK H PARENT
REMARK Flexibility Score: inf
ROOT
ATOM      1  C   UNL     1      12.088   4.895 -14.522  1.00  0.00     0.000 C 
ENDROOT
BRANCH   1   2
ATOM      2  C   UNL     1      11.053   4.744 -13.387  1.00  0.00     0.000 C 
BRANCH   2   3
ATOM      3  C   UNL     1      10.365   6.051 -12.942  1.00  0.00     0.000 C 
BRANCH   3   4
ATOM      4  C   UNL     1       9.492   5.907 -11.676  1.00  0.00     0.000 C 
BRANCH   4   5
ATOM      5  C   UNL     1      10.285   6.003 -10.363  1.00  0.00     0.000 C 
BRANCH   5   6
ATOM      6  C   UNL     1      11.476   6.967 -10.458  1.00  0.00     0.000 C 
BRANCH   6   7
ATOM      7  C   UNL     1      12.761   6.306  -9.942  1.00  0.00     0.000 C 
BRANCH   7   8
ATOM      8  C   UNL     1      14.001   6.925 -10.605  1.00  0.00     0.000 C 
BRANCH   8   9
ATOM      9  C   UNL     1      13.879   7.000 -12.135  1.00  0.00     0.000 C 
BRANCH   9  10
ATOM     10  C   UNL     1      14.325   8.362 -12.697  1.00  0.00     0.006 C 
BRANCH  10  11
ATOM     11  C   UNL     1      13.167   9.368 -12.767  1.00  0.00     0.053 C 
BRANCH  11  12
ATOM     12  C   UNL     1      13.361  10.507 -11.814  1.00  0.00     0.041 C 
ATOM     13  O   UNL     1      14.495  10.732 -11.316  1.00  0.00    -0.550 OA
ATOM     14  O   UNL     1      12.279  11.300 -11.451  1.00  0.00    -0.550 OA
ENDBRANCH  11  12
ENDBRANCH  10  11
ENDBRANCH   9  10
ENDBRANCH   8   9
ENDBRANCH   7   8
ENDBRANCH   6   7
ENDBRANCH   5   6
ENDBRANCH   4   5
ENDBRANCH   3   4
ENDBRANCH   2   3
ENDBRANCH   1   2
BRANCH   1  15
ATOM     15  C   UNL     1      11.820   6.042 -15.517  1.00  0.00     0.000 C 
BRANCH  15  16
ATOM     16  C   UNL     1      13.035   6.936 -15.818  1.00  0.00     0.000 C 
BRANCH  16  17
ATOM     17  C   UNL     1      12.645   8.250 -16.515  1.00  0.00     0.000 C 
BRANCH  17  18
ATOM     18  C   UNL     1      11.172   8.633 -16.290  1.00  0.00    -0.000 C 
BRANCH  18  19
ATOM     19  C   UNL     1      10.383   8.988 -17.566  1.00  0.00    -0.000 C 
BRANCH  19  20
ATOM     20  C   UNL     1       8.896   8.575 -17.521  1.00  0.00    -0.000 C 
BRANCH  20  21
ATOM     21  C   UNL     1       8.481   8.043 -16.138  1.00  0.00    -0.000 C 
BRANCH  21  22
ATOM     22  C   UNL     1       7.202   8.709 -15.604  1.00  0.00    -0.000 C 
BRANCH  22  23
ATOM     23  C   UNL     1       7.458   9.652 -14.407  1.00  0.00    -0.000 C 
BRANCH  23  24
ATOM     24  C   UNL     1       8.115   8.921 -13.228  1.00  0.00    -0.000 C 
BRANCH  24  25
ATOM     25  C   UNL     1       9.392   9.640 -12.776  1.00  0.00    -0.003 C 
ATOM     26  C   UNL     1       9.345  11.123 -13.130  1.00  0.00     0.004 C 
ENDBRANCH  24  25
ENDBRANCH  23  24
ENDBRANCH  22  23
ENDBRANCH  21  22
ENDBRANCH  20  21
ENDBRANCH  19  20
ENDBRANCH  18  19
ENDBRANCH  17  18
ENDBRANCH  16  17
ENDBRANCH  15  16
ENDBRANCH   1  15
TORSDOF 22
ENDMDL
MODEL 3
REMARK VINA RESULT:    -5.957      2.236      6.131
REMARK INTER + INTRA:         -17.885
REMARK INTER:                 -13.343
REMARK INTRA:                  -4.542
REMARK UNBOUND:                -4.267
REMARK SMILES CCCCCCCCCCCCCCCCCCCCCCCC(=O)[O-]
REMARK SMILES IDX 13 1 14 2 15 3 16 4 17 5 18 6 19 7 20 8 21 9 22 10 23 11
REMARK SMILES IDX 24 12 25 13 26 14 12 15 11 16 10 17 9 18 8 19 7 20 6 21 5 22
REMARK SMILES IDX 4 23 3 24 2 25 1 26
REMARK H PARENT
REMARK Flexibility Score: inf
ROOT
ATOM      1  C   UNL     1      11.029   4.780 -14.584  1.00  0.00     0.000 C 
ENDROOT
BRANCH   1   2
ATOM      2  C   UNL     1      12.065   5.607 -15.377  1.00  0.00     0.000 C 
BRANCH   2   3
ATOM      3  C   UNL     1      12.370   7.007 -14.805  1.00  0.00     0.000 C 
BRANCH   3   4
ATOM      4  C   UNL     1      13.318   7.855 -15.682  1.00  0.00     0.000 C 
BRANCH   4   5
ATOM      5  C   UNL     1      12.654   8.410 -16.953  1.00  0.00     0.000 C 
BRANCH   5   6
ATOM      6  C   UNL     1      11.298   9.074 -16.673  1.00  0.00     0.000 C 
BRANCH   6   7
ATOM      7  C   UNL     1      10.395   9.022 -17.912  1.00  0.00     0.000 C 
BRANCH   7   8
ATOM      8  C   UNL     1       9.036   8.390 -17.575  1.00  0.00     0.000 C 
BRANCH   8   9
ATOM      9  C   UNL     1       9.101   7.465 -16.350  1.00  0.00     0.000 C 
BRANCH   9  10
ATOM     10  C   UNL     1       8.174   7.926 -15.211  1.00  0.00     0.006 C 
BRANCH  10  11
ATOM     11  C   UNL     1       8.952   8.252 -13.927  1.00  0.00     0.053 C 
BRANCH  11  12
ATOM     12  C   UNL     1       8.164   9.134 -13.008  1.00  0.00     0.041 C 
ATOM     13  O   UNL     1       8.301  10.385 -13.057  1.00  0.00    -0.550 OA
ATOM     14  O   UNL     1       7.304   8.572 -12.074  1.00  0.00    -0.550 OA
ENDBRANCH  11  12
ENDBRANCH  10  11
ENDBRANCH   9  10
ENDBRANCH   8   9
ENDBRANCH   7   8
ENDBRANCH   6   7
ENDBRANCH   5   6
ENDBRANCH   4   5
ENDBRANCH   3   4
ENDBRANCH   2   3
ENDBRANCH   1   2
BRANCH   1  15
ATOM     15  C   UNL     1      11.111   4.910 -13.050  1.00  0.00     0.000 C 
BRANCH  15  16
ATOM     16  C   UNL     1       9.760   5.116 -12.345  1.00  0.00     0.000 C 
BRANCH  16  17
ATOM     17  C   UNL     1       9.879   5.986 -11.082  1.00  0.00     0.000 C 
BRANCH  17  18
ATOM     18  C   UNL     1      11.202   6.770 -11.017  1.00  0.00    -0.000 C 
BRANCH  18  19
ATOM     19  C   UNL     1      12.137   6.387  -9.851  1.00  0.00    -0.000 C 
BRANCH  19  20
ATOM     20  C   UNL     1      13.630   6.662 -10.127  1.00  0.00    -0.000 C 
BRANCH  20  21
ATOM     21  C   UNL     1      13.984   6.519 -11.618  1.00  0.00    -0.000 C 
BRANCH  21  22
ATOM     22  C   UNL     1      14.765   7.725 -12.163  1.00  0.00    -0.000 C 
BRANCH  22  23
ATOM     23  C   UNL     1      14.252   9.080 -11.626  1.00  0.00    -0.000 C 
BRANCH  23  24
ATOM     24  C   UNL     1      13.932  10.064 -12.760  1.00  0.00    -0.000 C 
BRANCH  24  25
ATOM     25  C   UNL     1      12.419  10.165 -12.992  1.00  0.00    -0.003 C 
ATOM     26  C   UNL     1      11.681  10.477 -11.694  1.00  0.00     0.004 C 
ENDBRANCH  24  25
ENDBRANCH  23  24
ENDBRANCH  22  23
ENDBRANCH  21  22
ENDBRANCH  20  21
ENDBRANCH  19  20
ENDBRANCH  18  19
ENDBRANCH  17  18
ENDBRANCH  16  17
ENDBRANCH  15  16
ENDBRANCH   1  15
TORSDOF 22
ENDMDL
MODEL 4
REMARK VINA RESULT:    -5.933      2.717      6.503
REMARK INTER + INTRA:         -17.831
REMARK INTER:                 -13.700
REMARK INTRA:                  -4.131
REMARK UNBOUND:                -4.267
REMARK SMILES CCCCCCCCCCCCCCCCCCCCCCCC(=O)[O-]
REMARK SMILES IDX 13 1 14 2 15 3 16 4 17 5 18 6 19 7 20 8 21 9 22 10 23 11
REMARK SMILES IDX 24 12 25 13 26 14 12 15 11 16 10 17 9 18 8 19 7 20 6 21 5 22
REMARK SMILES IDX 4 23 3 24 2 25 1 26
REMARK H PARENT
REMARK Flexibility Score: inf
ROOT
ATOM      1  C   UNL     1      10.064   6.307 -13.154  1.00  0.00     0.000 C 
ENDROOT
BRANCH   1   2
ATOM      2  C   UNL     1      10.747   4.922 -13.161  1.00  0.00     0.000 C 
BRANCH   2   3
ATOM      3  C   UNL     1      11.388   4.508 -14.502  1.00  0.00     0.000 C 
BRANCH   3   4
ATOM      4  C   UNL     1      11.266   5.571 -15.616  1.00  0.00     0.000 C 
BRANCH   4   5
ATOM      5  C   UNL     1      12.569   6.342 -15.880  1.00  0.00     0.000 C 
BRANCH   5   6
ATOM      6  C   UNL     1      12.412   7.858 -15.692  1.00  0.00     0.000 C 
BRANCH   6   7
ATOM      7  C   UNL     1      12.403   8.581 -17.045  1.00  0.00     0.000 C 
BRANCH   7   8
ATOM      8  C   UNL     1      11.137   9.437 -17.202  1.00  0.00     0.000 C 
BRANCH   8   9
ATOM      9  C   UNL     1      10.090   8.783 -18.118  1.00  0.00     0.000 C 
BRANCH   9  10
ATOM     10  C   UNL     1       9.014   8.013 -17.331  1.00  0.00     0.006 C 
BRANCH  10  11
ATOM     11  C   UNL     1       8.823   8.569 -15.914  1.00  0.00     0.053 C 
BRANCH  11  12
ATOM     12  C   UNL     1       7.396   8.482 -15.468  1.00  0.00     0.041 C 
ATOM     13  O   UNL     1       7.014   7.524 -14.747  1.00  0.00    -0.550 OA
ATOM     14  O   UNL     1       6.480   9.442 -15.879  1.00  0.00    -0.550 OA
ENDBRANCH  11  12
ENDBRANCH  10  11
ENDBRANCH   9  10
ENDBRANCH   8   9
ENDBRANCH   7   8
ENDBRANCH   6   7
ENDBRANCH   5   6
ENDBRANCH   4   5
ENDBRANCH   3   4
ENDBRANCH   2   3
ENDBRANCH   1   2
BRANCH   1  15
ATOM     15  C   UNL     1       9.774   6.897 -11.760  1.00  0.00     0.000 C 
BRANCH  15  16
ATOM     16  C   UNL     1      10.089   5.959 -10.582  1.00  0.00     0.000 C 
BRANCH  16  17
ATOM     17  C   UNL     1      11.302   6.428  -9.760  1.00  0.00     0.000 C 
BRANCH  17  18
ATOM     18  C   UNL     1      12.644   5.982 -10.367  1.00  0.00    -0.000 C 
BRANCH  18  19
ATOM     19  C   UNL     1      13.588   7.128 -10.787  1.00  0.00    -0.000 C 
BRANCH  19  20
ATOM     20  C   UNL     1      13.769   7.263 -12.314  1.00  0.00    -0.000 C 
BRANCH  20  21
ATOM     21  C   UNL     1      14.737   8.400 -12.688  1.00  0.00    -0.000 C 
BRANCH  21  22
ATOM     22  C   UNL     1      14.009   9.692 -13.092  1.00  0.00    -0.000 C 
BRANCH  22  23
ATOM     23  C   UNL     1      13.669  10.605 -11.893  1.00  0.00    -0.000 C 
BRANCH  23  24
ATOM     24  C   UNL     1      12.160  10.860 -11.772  1.00  0.00    -0.000 C 
BRANCH  24  25
ATOM     25  C   UNL     1      11.378  10.036 -12.802  1.00  0.00    -0.003 C 
ATOM     26  C   UNL     1      10.073  10.728 -13.187  1.00  0.00     0.004 C 
ENDBRANCH  24  25
ENDBRANCH  23  24
ENDBRANCH  22  23
ENDBRANCH  21  22
ENDBRANCH  20  21
ENDBRANCH  19  20
ENDBRANCH  18  19
ENDBRANCH  17  18
ENDBRANCH  16  17
ENDBRANCH  15  16
ENDBRANCH   1  15
TORSDOF 22
ENDMDL
MODEL 5
REMARK VINA RESULT:    -5.898      1.289      4.375
REMARK INTER + INTRA:         -17.749
REMARK INTER:                 -13.778
REMARK INTRA:                  -3.972
REMARK UNBOUND:                -4.267
REMARK SMILES CCCCCCCCCCCCCCCCCCCCCCCC(=O)[O-]
REMARK SMILES IDX 13 1 14 2 15 3 16 4 17 5 18 6 19 7 20 8 21 9 22 10 23 11
REMARK SMILES IDX 24 12 25 13 26 14 12 15 11 16 10 17 9 18 8 19 7 20 6 21 5 22
REMARK SMILES IDX 4 23 3 24 2 25 1 26
REMARK H PARENT
REMARK Flexibility Score: inf
ROOT
ATOM      1  C   UNL     1      11.844   8.620 -17.354  1.00  0.00     0.000 C 
ENDROOT
BRANCH   1   2
ATOM      2  C   UNL     1      10.518   9.091 -16.718  1.00  0.00     0.000 C 
BRANCH   2   3
ATOM      3  C   UNL     1       9.359   8.076 -16.779  1.00  0.00     0.000 C 
BRANCH   3   4
ATOM      4  C   UNL     1       7.984   8.661 -16.389  1.00  0.00     0.000 C 
BRANCH   4   5
ATOM      5  C   UNL     1       7.350   7.987 -15.161  1.00  0.00     0.000 C 
BRANCH   5   6
ATOM      6  C   UNL     1       8.124   8.264 -13.865  1.00  0.00     0.000 C 
BRANCH   6   7
ATOM      7  C   UNL     1       8.039   9.747 -13.481  1.00  0.00     0.000 C 
BRANCH   7   8
ATOM      8  C   UNL     1       9.419  10.291 -13.081  1.00  0.00     0.000 C 
BRANCH   8   9
ATOM      9  C   UNL     1      10.558   9.308 -13.399  1.00  0.00     0.000 C 
BRANCH   9  10
ATOM     10  C   UNL     1      11.794   9.528 -12.509  1.00  0.00     0.006 C 
BRANCH  10  11
ATOM     11  C   UNL     1      11.726  10.855 -11.739  1.00  0.00     0.053 C 
BRANCH  11  12
ATOM     12  C   UNL     1      13.086  11.332 -11.330  1.00  0.00     0.041 C 
ATOM     13  O   UNL     1      13.211  12.387 -10.655  1.00  0.00    -0.550 OA
ATOM     14  O   UNL     1      14.216  10.627 -11.723  1.00  0.00    -0.550 OA
ENDBRANCH  11  12
ENDBRANCH  10  11
ENDBRANCH   9  10
ENDBRANCH   8   9
ENDBRANCH   7   8
ENDBRANCH   6   7
ENDBRANCH   5   6
ENDBRANCH   4   5
ENDBRANCH   3   4
ENDBRANCH   2   3
ENDBRANCH   1   2
BRANCH   1  15
ATOM     15  C   UNL     1      13.026   8.459 -16.378  1.00  0.00     0.000 C 
BRANCH  15  16
ATOM     16  C   UNL     1      12.849   7.354 -15.322  1.00  0.00     0.000 C 
BRANCH  16  17
ATOM     17  C   UNL     1      12.335   6.036 -15.925  1.00  0.00     0.000 C 
BRANCH  17  18
ATOM     18  C   UNL     1      11.919   5.010 -14.855  1.00  0.00    -0.000 C 
BRANCH  18  19
ATOM     19  C   UNL     1      10.587   5.310 -14.139  1.00  0.00    -0.000 C 
BRANCH  19  20
ATOM     20  C   UNL     1      10.603   5.001 -12.627  1.00  0.00    -0.000 C 
BRANCH  20  21
ATOM     21  C   UNL     1      10.315   6.249 -11.774  1.00  0.00    -0.000 C 
BRANCH  21  22
ATOM     22  C   UNL     1      10.304   5.950 -10.266  1.00  0.00    -0.000 C 
BRANCH  22  23
ATOM     23  C   UNL     1      11.488   6.587  -9.507  1.00  0.00    -0.000 C 
BRANCH  23  24
ATOM     24  C   UNL     1      12.836   5.992  -9.937  1.00  0.00    -0.000 C 
BRANCH  24  25
ATOM     25  C   UNL     1      13.726   7.057 -10.591  1.00  0.00    -0.003 C 
ATOM     26  C   UNL     1      14.109   6.659 -12.013  1.00  0.00     0.004 C 
ENDBRANCH  24  25
ENDBRANCH  23  24
ENDBRANCH  22  23
ENDBRANCH  21  22
ENDBRANCH  20  21
ENDBRANCH  19  20
ENDBRANCH  18  19
ENDBRANCH  17  18
ENDBRANCH  16  17
ENDBRANCH  15  16
ENDBRANCH   1  15
TORSDOF 22
ENDMDL
MODEL 6
REMARK VINA RESULT:    -5.891      1.849      5.574
REMARK INTER + INTRA:         -17.735
REMARK INTER:                 -13.466
REMARK INTRA:                  -4.269
REMARK UNBOUND:                -4.267
REMARK SMILES CCCCCCCCCCCCCCCCCCCCCCCC(=O)[O-]
REMARK SMILES IDX 13 1 14 2 15 3 16 4 17 5 18 6 19 7 20 8 21 9 22 10 23 11
REMARK SMILES IDX 24 12 25 13 26 14 12 15 11 16 10 17 9 18 8 19 7 20 6 21 5 22
REMARK SMILES IDX 4 23 3 24 2 25 1 26
REMARK H PARENT
REMARK Flexibility Score: inf
ROOT
ATOM      1  C   UNL     1      12.944  10.783 -11.951  1.00  0.00     0.000 C 
ENDROOT
BRANCH   1   2
ATOM      2  C   UNL     1      11.746   9.824 -11.780  1.00  0.00     0.000 C 
BRANCH   2   3
ATOM      3  C   UNL     1      10.896   9.596 -13.046  1.00  0.00     0.000 C 
BRANCH   3   4
ATOM      4  C   UNL     1       9.801  10.663 -13.273  1.00  0.00     0.000 C 
BRANCH   4   5
ATOM      5  C   UNL     1       8.382  10.081 -13.375  1.00  0.00     0.000 C 
BRANCH   5   6
ATOM      6  C   UNL     1       8.239   8.734 -12.653  1.00  0.00     0.000 C 
BRANCH   6   7
ATOM      7  C   UNL     1       7.372   7.764 -13.465  1.00  0.00     0.000 C 
BRANCH   7   8
ATOM      8  C   UNL     1       7.767   7.785 -14.950  1.00  0.00     0.000 C 
BRANCH   8   9
ATOM      9  C   UNL     1       9.024   6.949 -15.240  1.00  0.00     0.000 C 
BRANCH   9  10
ATOM     10  C   UNL     1       9.980   7.642 -16.227  1.00  0.00     0.006 C 
BRANCH  10  11
ATOM     11  C   UNL     1      11.452   7.318 -15.933  1.00  0.00     0.053 C 
BRANCH  11  12
ATOM     12  C   UNL     1      12.381   8.238 -16.664  1.00  0.00     0.041 C 
ATOM     13  O   UNL     1      13.621   8.185 -16.453  1.00  0.00    -0.550 OA
ATOM     14  O   UNL     1      11.873   9.176 -17.554  1.00  0.00    -0.550 OA
ENDBRANCH  11  12
ENDBRANCH  10  11
ENDBRANCH   9  10
ENDBRANCH   8   9
ENDBRANCH   7   8
ENDBRANCH   6   7
ENDBRANCH   5   6
ENDBRANCH   4   5
ENDBRANCH   3   4
ENDBRANCH   2   3
ENDBRANCH   1   2
BRANCH   1  15
ATOM     15  C   UNL     1      14.330  10.109 -12.013  1.00  0.00     0.000 C 
BRANCH  15  16
ATOM     16  C   UNL     1      14.420   8.747 -11.305  1.00  0.00     0.000 C 
BRANCH  16  17
ATOM     17  C   UNL     1      14.887   7.622 -12.244  1.00  0.00     0.000 C 
BRANCH  17  18
ATOM     18  C   UNL     1      13.732   6.985 -13.038  1.00  0.00    -0.000 C 
BRANCH  18  19
ATOM     19  C   UNL     1      13.479   5.492 -12.746  1.00  0.00    -0.000 C 
BRANCH  19  20
ATOM     20  C   UNL     1      12.377   4.859 -13.623  1.00  0.00    -0.000 C 
BRANCH  20  21
ATOM     21  C   UNL     1      11.007   4.850 -12.922  1.00  0.00    -0.000 C 
BRANCH  21  22
ATOM     22  C   UNL     1      10.729   6.146 -12.142  1.00  0.00    -0.000 C 
BRANCH  22  23
ATOM     23  C   UNL     1       9.774   5.947 -10.946  1.00  0.00    -0.000 C 
BRANCH  23  24
ATOM     24  C   UNL     1      10.520   5.961  -9.604  1.00  0.00    -0.000 C 
BRANCH  24  25
ATOM     25  C   UNL     1      11.882   6.653  -9.738  1.00  0.00    -0.003 C 
ATOM     26  C   UNL     1      12.988   5.826  -9.090  1.00  0.00     0.004 C 
ENDBRANCH  24  25
ENDBRANCH  23  24
ENDBRANCH  22  23
ENDBRANCH  21  22
ENDBRANCH  20  21
ENDBRANCH  19  20
ENDBRANCH  18  19
ENDBRANCH  17  18
ENDBRANCH  16  17
ENDBRANCH  15  16
ENDBRANCH   1  15
TORSDOF 22
ENDMDL
MODEL 7
REMARK VINA RESULT:    -5.872      2.411      6.035
REMARK INTER + INTRA:         -17.690
REMARK INTER:                 -13.629
REMARK INTRA:                  -4.061
REMARK UNBOUND:                -4.267
REMARK SMILES CCCCCCCCCCCCCCCCCCCCCCCC(=O)[O-]
REMARK SMILES IDX 13 1 14 2 15 3 16 4 17 5 18 6 19 7 20 8 21 9 22 10 23 11
REMARK SMILES IDX 24 12 25 13 26 14 12 15 11 16 10 17 9 18 8 19 7 20 6 21 5 22
REMARK SMILES IDX 4 23 3 24 2 25 1 26
REMARK H PARENT
REMARK Flexibility Score: inf
ROOT
ATOM      1  C   UNL     1      13.584   6.263  -9.874  1.00  0.00     0.000 C 
ENDROOT
BRANCH   1   2
ATOM      2  C   UNL     1      14.049   7.492 -10.685  1.00  0.00     0.000 C 
BRANCH   2   3
ATOM      3  C   UNL     1      14.788   7.173 -12.001  1.00  0.00     0.000 C 
BRANCH   3   4
ATOM      4  C   UNL     1      14.775   8.326 -13.029  1.00  0.00     0.000 C 
BRANCH   4   5
ATOM      5  C   UNL     1      13.466   9.132 -13.038  1.00  0.00     0.000 C 
BRANCH   5   6
ATOM      6  C   UNL     1      13.594  10.481 -12.318  1.00  0.00     0.000 C 
BRANCH   6   7
ATOM      7  C   UNL     1      12.240  10.933 -11.754  1.00  0.00     0.000 C 
BRANCH   7   8
ATOM      8  C   UNL     1      11.097  10.076 -12.317  1.00  0.00     0.000 C 
BRANCH   8   9
ATOM      9  C   UNL     1      10.040  10.912 -13.059  1.00  0.00     0.000 C 
BRANCH   9  10
ATOM     10  C   UNL     1       8.747  10.123 -13.332  1.00  0.00     0.006 C 
BRANCH  10  11
ATOM     11  C   UNL     1       9.014   8.624 -13.532  1.00  0.00     0.053 C 
BRANCH  11  12
ATOM     12  C   UNL     1       7.764   7.812 -13.390  1.00  0.00     0.041 C 
ATOM     13  O   UNL     1       7.197   7.336 -14.409  1.00  0.00    -0.550 OA
ATOM     14  O   UNL     1       7.206   7.610 -12.134  1.00  0.00    -0.550 OA
ENDBRANCH  11  12
ENDBRANCH  10  11
ENDBRANCH   9  10
ENDBRANCH   8   9
ENDBRANCH   7   8
ENDBRANCH   6   7
ENDBRANCH   5   6
ENDBRANCH   4   5
ENDBRANCH   3   4
ENDBRANCH   2   3
ENDBRANCH   1   2
BRANCH   1  15
ATOM     15  C   UNL     1      12.093   6.254  -9.482  1.00  0.00     0.000 C 
BRANCH  15  16
ATOM     16  C   UNL     1      11.143   6.857 -10.531  1.00  0.00     0.000 C 
BRANCH  16  17
ATOM     17  C   UNL     1      10.089   5.852 -11.023  1.00  0.00     0.000 C 
BRANCH  17  18
ATOM     18  C   UNL     1      10.379   5.325 -12.440  1.00  0.00    -0.000 C 
BRANCH  18  19
ATOM     19  C   UNL     1      11.470   6.092 -13.215  1.00  0.00    -0.000 C 
BRANCH  19  20
ATOM     20  C   UNL     1      12.232   5.231 -14.245  1.00  0.00    -0.000 C 
BRANCH  20  21
ATOM     21  C   UNL     1      12.041   5.740 -15.685  1.00  0.00    -0.000 C 
BRANCH  21  22
ATOM     22  C   UNL     1      12.776   7.064 -15.950  1.00  0.00    -0.000 C 
BRANCH  22  23
ATOM     23  C   UNL     1      11.835   8.288 -15.991  1.00  0.00    -0.000 C 
BRANCH  23  24
ATOM     24  C   UNL     1      11.685   8.852 -17.411  1.00  0.00    -0.000 C 
BRANCH  24  25
ATOM     25  C   UNL     1      10.207   9.041 -17.776  1.00  0.00    -0.003 C 
ATOM     26  C   UNL     1       9.336   7.973 -17.121  1.00  0.00     0.004 C 
ENDBRANCH  24  25
ENDBRANCH  23  24
ENDBRANCH  22  23
ENDBRANCH  21  22
ENDBRANCH  20  21
ENDBRANCH  19  20
ENDBRANCH  18  19
ENDBRANCH  17  18
ENDBRANCH  16  17
ENDBRANCH  15  16
ENDBRANCH   1  15
TORSDOF 22
ENDMDL
MODEL 8
REMARK VINA RESULT:    -5.825      2.050      6.140
REMARK INTER + INTRA:         -17.583
REMARK INTER:                 -13.848
REMARK INTRA:                  -3.735
REMARK UNBOUND:                -4.267
REMARK SMILES CCCCCCCCCCCCCCCCCCCCCCCC(=O)[O-]
REMARK SMILES IDX 13 1 14 2 15 3 16 4 17 5 18 6 19 7 20 8 21 9 22 10 23 11
REMARK SMILES IDX 24 12 25 13 26 14 12 15 11 16 10 17 9 18 8 19 7 20 6 21 5 22
REMARK SMILES IDX 4 23 3 24 2 25 1 26
REMARK H PARENT
REMARK Flexibility Score: inf
ROOT
ATOM      1  C   UNL     1       8.938   7.119 -12.362  1.00  0.00     0.000 C 
ENDROOT
BRANCH   1   2
ATOM      2  C   UNL     1       7.538   7.298 -12.988  1.00  0.00     0.000 C 
BRANCH   2   3
ATOM      3  C   UNL     1       7.503   7.328 -14.530  1.00  0.00     0.000 C 
BRANCH   3   4
ATOM      4  C   UNL     1       7.949   8.672 -15.147  1.00  0.00     0.000 C 
BRANCH   4   5
ATOM      5  C   UNL     1       7.881   8.700 -16.682  1.00  0.00     0.000 C 
BRANCH   5   6
ATOM      6  C   UNL     1       9.228   8.380 -17.344  1.00  0.00     0.000 C 
BRANCH   6   7
ATOM      7  C   UNL     1      10.381   9.070 -16.603  1.00  0.00     0.000 C 
BRANCH   7   8
ATOM      8  C   UNL     1      11.726   8.777 -17.286  1.00  0.00     0.000 C 
BRANCH   8   9
ATOM      9  C   UNL     1      12.799   8.295 -16.297  1.00  0.00     0.000 C 
BRANCH   9  10
ATOM     10  C   UNL     1      12.645   6.807 -15.935  1.00  0.00     0.006 C 
BRANCH  10  11
ATOM     11  C   UNL     1      11.716   6.596 -14.731  1.00  0.00     0.053 C 
BRANCH  11  12
ATOM     12  C   UNL     1      10.845   5.390 -14.903  1.00  0.00     0.041 C 
ATOM     13  O   UNL     1       9.920   5.392 -15.757  1.00  0.00    -0.550 OA
ATOM     14  O   UNL     1      11.034   4.276 -14.096  1.00  0.00    -0.550 OA
ENDBRANCH  11  12
ENDBRANCH  10  11
ENDBRANCH   9  10
ENDBRANCH   8   9
ENDBRANCH   7   8
ENDBRANCH   6   7
ENDBRANCH   5   6
ENDBRANCH   4   5
ENDBRANCH   3   4
ENDBRANCH   2   3
ENDBRANCH   1   2
BRANCH   1  15
ATOM     15  C   UNL     1       9.107   5.883 -11.456  1.00  0.00     0.000 C 
BRANCH  15  16
ATOM     16  C   UNL     1      10.232   5.993 -10.414  1.00  0.00     0.000 C 
BRANCH  16  17
ATOM     17  C   UNL     1      11.469   6.730 -10.954  1.00  0.00     0.000 C 
BRANCH  17  18
ATOM     18  C   UNL     1      12.775   6.291 -10.268  1.00  0.00    -0.000 C 
BRANCH  18  19
ATOM     19  C   UNL     1      14.044   7.035 -10.732  1.00  0.00    -0.000 C 
BRANCH  19  20
ATOM     20  C   UNL     1      14.314   6.931 -12.248  1.00  0.00    -0.000 C 
BRANCH  20  21
ATOM     21  C   UNL     1      14.861   8.245 -12.835  1.00  0.00    -0.000 C 
BRANCH  21  22
ATOM     22  C   UNL     1      13.765   9.300 -13.053  1.00  0.00    -0.000 C 
BRANCH  22  23
ATOM     23  C   UNL     1      13.539  10.210 -11.825  1.00  0.00    -0.000 C 
BRANCH  23  24
ATOM     24  C   UNL     1      12.146  10.856 -11.836  1.00  0.00    -0.000 C 
BRANCH  24  25
ATOM     25  C   UNL     1      11.251  10.219 -12.907  1.00  0.00    -0.003 C 
ATOM     26  C   UNL     1       9.795  10.638 -12.729  1.00  0.00     0.004 C 
ENDBRANCH  24  25
ENDBRANCH  23  24
ENDBRANCH  22  23
ENDBRANCH  21  22
ENDBRANCH  20  21
ENDBRANCH  19  20
ENDBRANCH  18  19
ENDBRANCH  17  18
ENDBRANCH  16  17
ENDBRANCH  15  16
ENDBRANCH   1  15
TORSDOF 22
ENDMDL
MODEL 9
REMARK VINA RESULT:    -5.771      1.469      4.320
REMARK INTER + INTRA:         -17.460
REMARK INTER:                 -13.217
REMARK INTRA:                  -4.242
REMARK UNBOUND:                -4.267
REMARK SMILES CCCCCCCCCCCCCCCCCCCCCCCC(=O)[O-]
REMARK SMILES IDX 13 1 14 2 15 3 16 4 17 5 18 6 19 7 20 8 21 9 22 10 23 11
REMARK SMILES IDX 24 12 25 13 26 14 12 15 11 16 10 17 9 18 8 19 7 20 6 21 5 22
REMARK SMILES IDX 4 23 3 24 2 25 1 26
REMARK H PARENT
REMARK Flexibility Score: inf
ROOT
ATOM      1  C   UNL     1      10.722   4.576 -12.851  1.00  0.00     0.000 C 
ENDROOT
BRANCH   1   2
ATOM      2  C   UNL     1       9.511   5.350 -12.288  1.00  0.00     0.000 C 
BRANCH   2   3
ATOM      3  C   UNL     1       9.719   5.979 -10.895  1.00  0.00     0.000 C 
BRANCH   3   4
ATOM      4  C   UNL     1      11.048   6.751 -10.742  1.00  0.00     0.000 C 
BRANCH   4   5
ATOM      5  C   UNL     1      11.842   6.372  -9.481  1.00  0.00     0.000 C 
BRANCH   5   6
ATOM      6  C   UNL     1      13.321   6.083  -9.774  1.00  0.00     0.000 C 
BRANCH   6   7
ATOM      7  C   UNL     1      13.667   6.415 -11.232  1.00  0.00     0.000 C 
BRANCH   7   8
ATOM      8  C   UNL     1      14.427   7.746 -11.326  1.00  0.00     0.000 C 
BRANCH   8   9
ATOM      9  C   UNL     1      14.622   8.215 -12.777  1.00  0.00     0.000 C 
BRANCH   9  10
ATOM     10  C   UNL     1      13.882   9.530 -13.079  1.00  0.00     0.006 C 
BRANCH  10  11
ATOM     11  C   UNL     1      12.363   9.394 -12.904  1.00  0.00     0.053 C 
BRANCH  11  12
ATOM     12  C   UNL     1      11.747  10.656 -12.383  1.00  0.00     0.041 C 
ATOM     13  O   UNL     1      12.250  11.245 -11.390  1.00  0.00    -0.550 OA
ATOM     14  O   UNL     1      10.596  11.163 -12.974  1.00  0.00    -0.550 OA
ENDBRANCH  11  12
ENDBRANCH  10  11
ENDBRANCH   9  10
ENDBRANCH   8   9
ENDBRANCH   7   8
ENDBRANCH   6   7
ENDBRANCH   5   6
ENDBRANCH   4   5
ENDBRANCH   3   4
ENDBRANCH   2   3
ENDBRANCH   1   2
BRANCH   1  15
ATOM     15  C   UNL     1      11.092   4.896 -14.314  1.00  0.00     0.000 C 
BRANCH  15  16
ATOM     16  C   UNL     1      12.108   6.037 -14.491  1.00  0.00     0.000 C 
BRANCH  16  17
ATOM     17  C   UNL     1      12.499   6.258 -15.962  1.00  0.00     0.000 C 
BRANCH  17  18
ATOM     18  C   UNL     1      13.261   7.576 -16.187  1.00  0.00    -0.000 C 
BRANCH  18  19
ATOM     19  C   UNL     1      12.486   8.657 -16.969  1.00  0.00    -0.000 C 
BRANCH  19  20
ATOM     20  C   UNL     1      11.074   8.941 -16.415  1.00  0.00    -0.000 C 
BRANCH  20  21
ATOM     21  C   UNL     1      10.017   9.024 -17.531  1.00  0.00    -0.000 C 
BRANCH  21  22
ATOM     22  C   UNL     1       8.739   8.236 -17.198  1.00  0.00    -0.000 C 
BRANCH  22  23
ATOM     23  C   UNL     1       8.895   7.303 -15.977  1.00  0.00    -0.000 C 
BRANCH  23  24
ATOM     24  C   UNL     1       7.869   7.616 -14.879  1.00  0.00    -0.000 C 
BRANCH  24  25
ATOM     25  C   UNL     1       8.500   8.448 -13.756  1.00  0.00    -0.003 C 
ATOM     26  C   UNL     1       7.652   9.676 -13.436  1.00  0.00     0.004 C 
ENDBRANCH  24  25
ENDBRANCH  23  24
ENDBRANCH  22  23
ENDBRANCH  21  22
ENDBRANCH  20  21
ENDBRANCH  19  20
ENDBRANCH  18  19
ENDBRANCH  17  18
ENDBRANCH  16  17
ENDBRANCH  15  16
ENDBRANCH   1  15
TORSDOF 22
ENDMDL
