MODEL 1
REMARK VINA RESULT:    -5.122      0.000      0.000
REMARK INTER + INTRA:         -11.057
REMARK INTER:                  -9.313
REMARK INTRA:                  -1.744
REMARK UNBOUND:                -1.744
REMARK SMILES CCCCCCCCCCCCCCCC(=O)[O-]
REMARK SMILES IDX 9 1 10 2 11 3 12 4 13 5 14 6 15 7 16 8 17 9 18 10 8 11 7 12
REMARK SMILES IDX 6 13 5 14 4 15 3 16 2 17 1 18
REMARK H PARENT
REMARK Flexibility Score: inf
ROOT
ATOM      1  C   UNL     1      52.924  33.986  42.874  1.00  0.00     0.000 C 
ENDROOT
BRANCH   1   2
ATOM      2  C   UNL     1      54.104  33.586  43.774  1.00  0.00     0.000 C 
BRANCH   2   3
ATOM      3  C   UNL     1      55.130  32.705  43.045  1.00  0.00     0.000 C 
BRANCH   3   4
ATOM      4  C   UNL     1      55.302  31.356  43.757  1.00  0.00     0.000 C 
BRANCH   4   5
ATOM      5  C   UNL     1      54.814  30.167  42.913  1.00  0.00     0.000 C 
BRANCH   5   6
ATOM      6  C   UNL     1      53.372  29.727  43.240  1.00  0.00     0.006 C 
BRANCH   6   7
ATOM      7  C   UNL     1      52.444  29.827  42.023  1.00  0.00     0.053 C 
BRANCH   7   8
ATOM      8  C   UNL     1      51.119  30.397  42.419  1.00  0.00     0.041 C 
ATOM      9  O   UNL     1      50.646  31.390  41.805  1.00  0.00    -0.550 OA
ATOM     10  O   UNL     1      50.381  29.802  43.434  1.00  0.00    -0.550 OA
ENDBRANCH   7   8
ENDBRANCH   6   7
ENDBRANCH   5   6
ENDBRANCH   4   5
ENDBRANCH   3   4
ENDBRANCH   2   3
ENDBRANCH   1   2
BRANCH   1  11
ATOM     11  C   UNL     1      51.622  34.198  43.667  1.00  0.00     0.000 C 
BRANCH  11  12
ATOM     12  C   UNL     1      51.805  35.147  44.862  1.00  0.00    -0.000 C 
BRANCH  12  13
ATOM     13  C   UNL     1      51.016  36.457  44.701  1.00  0.00    -0.000 C 
BRANCH  13  14
ATOM     14  C   UNL     1      51.919  37.672  44.421  1.00  0.00    -0.000 C 
BRANCH  14  15
ATOM     15  C   UNL     1      53.106  37.843  45.387  1.00  0.00    -0.000 C 
BRANCH  15  16
ATOM     16  C   UNL     1      54.403  38.257  44.675  1.00  0.00    -0.000 C 
BRANCH  16  17
ATOM     17  C   UNL     1      55.127  37.034  44.102  1.00  0.00    -0.003 C 
ATOM     18  C   UNL     1      55.064  37.020  42.578  1.00  0.00     0.004 C 
ENDBRANCH  16  17
ENDBRANCH  15  16
ENDBRANCH  14  15
ENDBRANCH  13  14
ENDBRANCH  12  13
ENDBRANCH  11  12
ENDBRANCH   1  11
TORSDOF 14
ENDMDL
MODEL 2
REMARK VINA RESULT:    -5.120      2.847      7.007
REMARK INTER + INTRA:         -11.055
REMARK INTER:                  -9.382
REMARK INTRA:                  -1.673
REMARK UNBOUND:                -1.744
REMARK SMILES CCCCCCCCCCCCCCCC(=O)[O-]
REMARK SMILES IDX 9 1 10 2 11 3 12 4 13 5 14 6 15 7 16 8 17 9 18 10 8 11 7 12
REMARK SMILES IDX 6 13 5 14 4 15 3 16 2 17 1 18
REMARK H PARENT
REMARK Flexibility Score: inf
ROOT
ATOM      1  C   UNL     1      52.958  33.650  42.839  1.00  0.00     0.000 C 
ENDROOT
BRANCH   1   2
ATOM      2  C   UNL     1      51.844  34.536  43.418  1.00  0.00     0.000 C 
BRANCH   2   3
ATOM      3  C   UNL     1      52.208  35.118  44.793  1.00  0.00     0.000 C 
BRANCH   3   4
ATOM      4  C   UNL     1      51.944  36.629  44.838  1.00  0.00     0.000 C 
BRANCH   4   5
ATOM      5  C   UNL     1      52.368  37.350  43.547  1.00  0.00     0.000 C 
BRANCH   5   6
ATOM      6  C   UNL     1      53.893  37.547  43.420  1.00  0.00     0.006 C 
BRANCH   6   7
ATOM      7  C   UNL     1      54.466  36.860  42.174  1.00  0.00     0.053 C 
BRANCH   7   8
ATOM      8  C   UNL     1      55.956  36.760  42.268  1.00  0.00     0.041 C 
ATOM      9  O   UNL     1      56.489  36.067  43.175  1.00  0.00    -0.550 OA
ATOM     10  O   UNL     1      56.756  37.393  41.326  1.00  0.00    -0.550 OA
ENDBRANCH   7   8
ENDBRANCH   6   7
ENDBRANCH   5   6
ENDBRANCH   4   5
ENDBRANCH   3   4
ENDBRANCH   2   3
ENDBRANCH   1   2
BRANCH   1  11
ATOM     11  C   UNL     1      54.135  33.469  43.814  1.00  0.00     0.000 C 
BRANCH  11  12
ATOM     12  C   UNL     1      55.276  32.631  43.216  1.00  0.00    -0.000 C 
BRANCH  12  13
ATOM     13  C   UNL     1      55.268  31.179  43.722  1.00  0.00    -0.000 C 
BRANCH  13  14
ATOM     14  C   UNL     1      54.604  30.202  42.735  1.00  0.00    -0.000 C 
BRANCH  14  15
ATOM     15  C   UNL     1      53.270  29.596  43.209  1.00  0.00    -0.000 C 
BRANCH  15  16
ATOM     16  C   UNL     1      52.172  29.651  42.136  1.00  0.00    -0.000 C 
BRANCH  16  17
ATOM     17  C   UNL     1      50.818  30.014  42.756  1.00  0.00    -0.003 C 
ATOM     18  C   UNL     1      50.366  31.405  42.319  1.00  0.00     0.004 C 
ENDBRANCH  16  17
ENDBRANCH  15  16
ENDBRANCH  14  15
ENDBRANCH  13  14
ENDBRANCH  12  13
ENDBRANCH  11  12
ENDBRANCH   1  11
TORSDOF 14
ENDMDL
MODEL 3
REMARK VINA RESULT:    -5.091      3.261      7.188
REMARK INTER + INTRA:         -11.001
REMARK INTER:                  -9.716
REMARK INTRA:                  -1.285
REMARK UNBOUND:                -1.744
REMARK SMILES CCCCCCCCCCCCCCCC(=O)[O-]
REMARK SMILES IDX 9 1 10 2 11 3 12 4 13 5 14 6 15 7 16 8 17 9 18 10 8 11 7 12
REMARK SMILES IDX 6 13 5 14 4 15 3 16 2 17 1 18
REMARK H PARENT
REMARK Flexibility Score: inf
ROOT
ATOM      1  C   UNL     1      55.692  33.347  42.290  1.00  0.00     0.000 C 
ENDROOT
BRANCH   1   2
ATOM      2  C   UNL     1      55.438  34.848  42.078  1.00  0.00     0.000 C 
BRANCH   2   3
ATOM      3  C   UNL     1      56.028  35.711  43.205  1.00  0.00     0.000 C 
BRANCH   3   4
ATOM      4  C   UNL     1      54.940  36.561  43.875  1.00  0.00     0.000 C 
BRANCH   4   5
ATOM      5  C   UNL     1      53.528  36.245  43.355  1.00  0.00     0.000 C 
BRANCH   5   6
ATOM      6  C   UNL     1      52.587  37.468  43.339  1.00  0.00     0.006 C 
BRANCH   6   7
ATOM      7  C   UNL     1      53.357  38.794  43.364  1.00  0.00     0.053 C 
BRANCH   7   8
ATOM      8  C   UNL     1      53.295  39.462  42.027  1.00  0.00     0.041 C 
ATOM      9  O   UNL     1      53.020  38.792  40.996  1.00  0.00    -0.550 OA
ATOM     10  O   UNL     1      53.493  40.833  41.924  1.00  0.00    -0.550 OA
ENDBRANCH   7   8
ENDBRANCH   6   7
ENDBRANCH   5   6
ENDBRANCH   4   5
ENDBRANCH   3   4
ENDBRANCH   2   3
ENDBRANCH   1   2
BRANCH   1  11
ATOM     11  C   UNL     1      54.826  32.755  43.416  1.00  0.00     0.000 C 
BRANCH  11  12
ATOM     12  C   UNL     1      55.295  31.358  43.852  1.00  0.00    -0.000 C 
BRANCH  12  13
ATOM     13  C   UNL     1      54.885  30.261  42.855  1.00  0.00    -0.000 C 
BRANCH  13  14
ATOM     14  C   UNL     1      53.544  29.596  43.214  1.00  0.00    -0.000 C 
BRANCH  14  15
ATOM     15  C   UNL     1      52.441  29.725  42.146  1.00  0.00    -0.000 C 
BRANCH  15  16
ATOM     16  C   UNL     1      51.092  30.174  42.729  1.00  0.00    -0.000 C 
BRANCH  16  17
ATOM     17  C   UNL     1      50.565  31.413  41.997  1.00  0.00    -0.003 C 
ATOM     18  C   UNL     1      51.125  32.695  42.607  1.00  0.00     0.004 C 
ENDBRANCH  16  17
ENDBRANCH  15  16
ENDBRANCH  14  15
ENDBRANCH  13  14
ENDBRANCH  12  13
ENDBRANCH  11  12
ENDBRANCH   1  11
TORSDOF 14
ENDMDL
MODEL 4
REMARK VINA RESULT:    -5.087      7.261     10.068
REMARK INTER + INTRA:         -10.994
REMARK INTER:                  -9.283
REMARK INTRA:                  -1.711
REMARK UNBOUND:                -1.744
REMARK SMILES CCCCCCCCCCCCCCCC(=O)[O-]
REMARK SMILES IDX 9 1 10 2 11 3 12 4 13 5 14 6 15 7 16 8 17 9 18 10 8 11 7 12
REMARK SMILES IDX 6 13 5 14 4 15 3 16 2 17 1 18
REMARK H PARENT
REMARK Flexibility Score: inf
ROOT
ATOM      1  C   UNL     1      57.076  38.205  35.236  1.00  0.00     0.000 C 
ENDROOT
BRANCH   1   2
ATOM      2  C   UNL     1      57.883  37.532  36.358  1.00  0.00     0.000 C 
BRANCH   2   3
ATOM      3  C   UNL     1      57.105  37.461  37.682  1.00  0.00     0.000 C 
BRANCH   3   4
ATOM      4  C   UNL     1      57.675  38.448  38.709  1.00  0.00     0.000 C 
BRANCH   4   5
ATOM      5  C   UNL     1      56.732  38.686  39.900  1.00  0.00     0.000 C 
BRANCH   5   6
ATOM      6  C   UNL     1      55.882  37.452  40.271  1.00  0.00     0.006 C 
BRANCH   6   7
ATOM      7  C   UNL     1      56.239  36.897  41.656  1.00  0.00     0.053 C 
BRANCH   7   8
ATOM      8  C   UNL     1      55.336  35.760  42.014  1.00  0.00     0.041 C 
ATOM      9  O   UNL     1      54.195  35.984  42.497  1.00  0.00    -0.550 OA
ATOM     10  O   UNL     1      55.734  34.452  41.768  1.00  0.00    -0.550 OA
ENDBRANCH   7   8
ENDBRANCH   6   7
ENDBRANCH   5   6
ENDBRANCH   4   5
ENDBRANCH   3   4
ENDBRANCH   2   3
ENDBRANCH   1   2
BRANCH   1  11
ATOM     11  C   UNL     1      57.945  39.113  34.347  1.00  0.00     0.000 C 
BRANCH  11  12
ATOM     12  C   UNL     1      58.248  40.469  35.005  1.00  0.00    -0.000 C 
BRANCH  12  13
ATOM     13  C   UNL     1      59.757  40.723  35.161  1.00  0.00    -0.000 C 
BRANCH  13  14
ATOM     14  C   UNL     1      60.295  40.314  36.544  1.00  0.00    -0.000 C 
BRANCH  14  15
ATOM     15  C   UNL     1      61.327  39.171  36.535  1.00  0.00    -0.000 C 
BRANCH  15  16
ATOM     16  C   UNL     1      61.879  38.873  35.132  1.00  0.00    -0.000 C 
BRANCH  16  17
ATOM     17  C   UNL     1      61.365  37.525  34.616  1.00  0.00    -0.003 C 
ATOM     18  C   UNL     1      61.166  36.535  35.761  1.00  0.00     0.004 C 
ENDBRANCH  16  17
ENDBRANCH  15  16
ENDBRANCH  14  15
ENDBRANCH  13  14
ENDBRANCH  12  13
ENDBRANCH  11  12
ENDBRANCH   1  11
TORSDOF 14
ENDMDL
MODEL 5
REMARK VINA RESULT:    -5.070      2.360      6.407
REMARK INTER + INTRA:         -10.963
REMARK INTER:                  -9.481
REMARK INTRA:                  -1.482
REMARK UNBOUND:                -1.744
REMARK SMILES CCCCCCCCCCCCCCCC(=O)[O-]
REMARK SMILES IDX 9 1 10 2 11 3 12 4 13 5 14 6 15 7 16 8 17 9 18 10 8 11 7 12
REMARK SMILES IDX 6 13 5 14 4 15 3 16 2 17 1 18
REMARK H PARENT
REMARK Flexibility Score: inf
ROOT
ATOM      1  C   UNL     1      55.887  34.766  42.870  1.00  0.00     0.000 C 
ENDROOT
BRANCH   1   2
ATOM      2  C   UNL     1      55.646  36.040  42.044  1.00  0.00     0.000 C 
BRANCH   2   3
ATOM      3  C   UNL     1      54.751  37.055  42.774  1.00  0.00     0.000 C 
BRANCH   3   4
ATOM      4  C   UNL     1      53.334  37.063  42.185  1.00  0.00     0.000 C 
BRANCH   4   5
ATOM      5  C   UNL     1      52.238  37.009  43.261  1.00  0.00     0.000 C 
BRANCH   5   6
ATOM      6  C   UNL     1      52.020  35.600  43.852  1.00  0.00     0.006 C 
BRANCH   6   7
ATOM      7  C   UNL     1      51.993  35.611  45.386  1.00  0.00     0.053 C 
BRANCH   7   8
ATOM      8  C   UNL     1      50.585  35.535  45.886  1.00  0.00     0.041 C 
ATOM      9  O   UNL     1      50.343  35.053  47.025  1.00  0.00    -0.550 OA
ATOM     10  O   UNL     1      49.545  36.040  45.117  1.00  0.00    -0.550 OA
ENDBRANCH   7   8
ENDBRANCH   6   7
ENDBRANCH   5   6
ENDBRANCH   4   5
ENDBRANCH   3   4
ENDBRANCH   2   3
ENDBRANCH   1   2
BRANCH   1  11
ATOM     11  C   UNL     1      55.001  33.592  42.415  1.00  0.00     0.000 C 
BRANCH  11  12
ATOM     12  C   UNL     1      54.511  32.731  43.591  1.00  0.00    -0.000 C 
BRANCH  12  13
ATOM     13  C   UNL     1      55.309  31.424  43.736  1.00  0.00    -0.000 C 
BRANCH  13  14
ATOM     14  C   UNL     1      54.782  30.296  42.831  1.00  0.00    -0.000 C 
BRANCH  14  15
ATOM     15  C   UNL     1      53.395  29.745  43.210  1.00  0.00    -0.000 C 
BRANCH  15  16
ATOM     16  C   UNL     1      52.385  29.815  42.054  1.00  0.00    -0.000 C 
BRANCH  16  17
ATOM     17  C   UNL     1      51.005  30.250  42.558  1.00  0.00    -0.003 C 
ATOM     18  C   UNL     1      50.743  31.722  42.250  1.00  0.00     0.004 C 
ENDBRANCH  16  17
ENDBRANCH  15  16
ENDBRANCH  14  15
ENDBRANCH  13  14
ENDBRANCH  12  13
ENDBRANCH  11  12
ENDBRANCH   1  11
TORSDOF 14
ENDMDL
MODEL 6
REMARK VINA RESULT:    -5.049      7.086      9.765
REMARK INTER + INTRA:         -10.925
REMARK INTER:                  -9.229
REMARK INTRA:                  -1.696
REMARK UNBOUND:                -1.744
REMARK SMILES CCCCCCCCCCCCCCCC(=O)[O-]
REMARK SMILES IDX 9 1 10 2 11 3 12 4 13 5 14 6 15 7 16 8 17 9 18 10 8 11 7 12
REMARK SMILES IDX 6 13 5 14 4 15 3 16 2 17 1 18
REMARK H PARENT
REMARK Flexibility Score: inf
ROOT
ATOM      1  C   UNL     1      58.572  37.151  36.586  1.00  0.00     0.000 C 
ENDROOT
BRANCH   1   2
ATOM      2  C   UNL     1      57.502  37.768  37.501  1.00  0.00     0.000 C 
BRANCH   2   3
ATOM      3  C   UNL     1      58.107  38.457  38.734  1.00  0.00     0.000 C 
BRANCH   3   4
ATOM      4  C   UNL     1      57.096  38.507  39.888  1.00  0.00     0.000 C 
BRANCH   4   5
ATOM      5  C   UNL     1      55.963  37.479  39.737  1.00  0.00     0.000 C 
BRANCH   5   6
ATOM      6  C   UNL     1      55.097  37.321  41.004  1.00  0.00     0.006 C 
BRANCH   6   7
ATOM      7  C   UNL     1      55.543  36.133  41.866  1.00  0.00     0.053 C 
BRANCH   7   8
ATOM      8  C   UNL     1      56.104  36.611  43.168  1.00  0.00     0.041 C 
ATOM      9  O   UNL     1      57.350  36.698  43.327  1.00  0.00    -0.550 OA
ATOM     10  O   UNL     1      55.250  37.007  44.190  1.00  0.00    -0.550 OA
ENDBRANCH   7   8
ENDBRANCH   6   7
ENDBRANCH   5   6
ENDBRANCH   4   5
ENDBRANCH   3   4
ENDBRANCH   2   3
ENDBRANCH   1   2
BRANCH   1  11
ATOM     11  C   UNL     1      58.283  37.395  35.094  1.00  0.00     0.000 C 
BRANCH  11  12
ATOM     12  C   UNL     1      57.283  38.539  34.864  1.00  0.00    -0.000 C 
BRANCH  12  13
ATOM     13  C   UNL     1      57.936  39.771  34.217  1.00  0.00    -0.000 C 
BRANCH  13  14
ATOM     14  C   UNL     1      58.924  40.489  35.155  1.00  0.00    -0.000 C 
BRANCH  14  15
ATOM     15  C   UNL     1      60.405  40.395  34.743  1.00  0.00    -0.000 C 
BRANCH  15  16
ATOM     16  C   UNL     1      61.281  39.715  35.806  1.00  0.00    -0.000 C 
BRANCH  16  17
ATOM     17  C   UNL     1      60.897  40.182  37.214  1.00  0.00    -0.003 C 
ATOM     18  C   UNL     1      61.688  39.430  38.281  1.00  0.00     0.004 C 
ENDBRANCH  16  17
ENDBRANCH  15  16
ENDBRANCH  14  15
ENDBRANCH  13  14
ENDBRANCH  12  13
ENDBRANCH  11  12
ENDBRANCH   1  11
TORSDOF 14
ENDMDL
MODEL 7
REMARK VINA RESULT:    -5.021      7.076     10.020
REMARK INTER + INTRA:         -10.874
REMARK INTER:                  -9.212
REMARK INTRA:                  -1.662
REMARK UNBOUND:                -1.744
REMARK SMILES CCCCCCCCCCCCCCCC(=O)[O-]
REMARK SMILES IDX 9 1 10 2 11 3 12 4 13 5 14 6 15 7 16 8 17 9 18 10 8 11 7 12
REMARK SMILES IDX 6 13 5 14 4 15 3 16 2 17 1 18
REMARK H PARENT
REMARK Flexibility Score: inf
ROOT
ATOM      1  C   UNL     1      59.591  38.126  38.385  1.00  0.00     0.000 C 
ENDROOT
BRANCH   1   2
ATOM      2  C   UNL     1      58.131  38.586  38.535  1.00  0.00     0.000 C 
BRANCH   2   3
ATOM      3  C   UNL     1      57.149  37.694  37.760  1.00  0.00     0.000 C 
BRANCH   3   4
ATOM      4  C   UNL     1      56.012  37.208  38.670  1.00  0.00     0.000 C 
BRANCH   4   5
ATOM      5  C   UNL     1      56.088  37.796  40.089  1.00  0.00     0.000 C 
BRANCH   5   6
ATOM      6  C   UNL     1      55.436  36.902  41.164  1.00  0.00     0.006 C 
BRANCH   6   7
ATOM      7  C   UNL     1      54.473  37.686  42.065  1.00  0.00     0.053 C 
BRANCH   7   8
ATOM      8  C   UNL     1      53.550  38.526  41.240  1.00  0.00     0.041 C 
ATOM      9  O   UNL     1      52.683  37.981  40.507  1.00  0.00    -0.550 OA
ATOM     10  O   UNL     1      53.614  39.911  41.318  1.00  0.00    -0.550 OA
ENDBRANCH   7   8
ENDBRANCH   6   7
ENDBRANCH   5   6
ENDBRANCH   4   5
ENDBRANCH   3   4
ENDBRANCH   2   3
ENDBRANCH   1   2
BRANCH   1  11
ATOM     11  C   UNL     1      59.937  37.725  36.940  1.00  0.00     0.000 C 
BRANCH  11  12
ATOM     12  C   UNL     1      61.262  38.336  36.458  1.00  0.00    -0.000 C 
BRANCH  12  13
ATOM     13  C   UNL     1      61.085  39.212  35.206  1.00  0.00    -0.000 C 
BRANCH  13  14
ATOM     14  C   UNL     1      60.274  40.491  35.478  1.00  0.00    -0.000 C 
BRANCH  14  15
ATOM     15  C   UNL     1      59.107  40.747  34.506  1.00  0.00    -0.000 C 
BRANCH  15  16
ATOM     16  C   UNL     1      57.791  40.103  34.966  1.00  0.00    -0.000 C 
BRANCH  16  17
ATOM     17  C   UNL     1      57.529  38.794  34.212  1.00  0.00    -0.003 C 
ATOM     18  C   UNL     1      56.042  38.451  34.204  1.00  0.00     0.004 C 
ENDBRANCH  16  17
ENDBRANCH  15  16
ENDBRANCH  14  15
ENDBRANCH  13  14
ENDBRANCH  12  13
ENDBRANCH  11  12
ENDBRANCH   1  11
TORSDOF 14
ENDMDL
MODEL 8
REMARK VINA RESULT:    -5.000      3.078      7.062
REMARK INTER + INTRA:         -10.835
REMARK INTER:                  -9.491
REMARK INTRA:                  -1.344
REMARK UNBOUND:                -1.744
REMARK SMILES CCCCCCCCCCCCCCCC(=O)[O-]
REMARK SMILES IDX 9 1 10 2 11 3 12 4 13 5 14 6 15 7 16 8 17 9 18 10 8 11 7 12
REMARK SMILES IDX 6 13 5 14 4 15 3 16 2 17 1 18
REMARK H PARENT
REMARK Flexibility Score: inf
ROOT
ATOM      1  C   UNL     1      55.594  33.621  42.473  1.00  0.00     0.000 C 
ENDROOT
BRANCH   1   2
ATOM      2  C   UNL     1      55.224  35.113  42.513  1.00  0.00     0.000 C 
BRANCH   2   3
ATOM      3  C   UNL     1      54.117  35.419  43.534  1.00  0.00     0.000 C 
BRANCH   3   4
ATOM      4  C   UNL     1      52.814  35.820  42.830  1.00  0.00     0.000 C 
BRANCH   4   5
ATOM      5  C   UNL     1      52.850  37.253  42.275  1.00  0.00     0.000 C 
BRANCH   5   6
ATOM      6  C   UNL     1      53.389  38.293  43.279  1.00  0.00     0.006 C 
BRANCH   6   7
ATOM      7  C   UNL     1      52.356  38.649  44.356  1.00  0.00     0.053 C 
BRANCH   7   8
ATOM      8  C   UNL     1      52.830  38.207  45.704  1.00  0.00     0.041 C 
ATOM      9  O   UNL     1      52.423  37.120  46.194  1.00  0.00    -0.550 OA
ATOM     10  O   UNL     1      53.759  38.970  46.400  1.00  0.00    -0.550 OA
ENDBRANCH   7   8
ENDBRANCH   6   7
ENDBRANCH   5   6
ENDBRANCH   4   5
ENDBRANCH   3   4
ENDBRANCH   2   3
ENDBRANCH   1   2
BRANCH   1  11
ATOM     11  C   UNL     1      54.630  32.752  43.300  1.00  0.00     0.000 C 
BRANCH  11  12
ATOM     12  C   UNL     1      55.249  31.405  43.707  1.00  0.00    -0.000 C 
BRANCH  12  13
ATOM     13  C   UNL     1      54.736  30.238  42.847  1.00  0.00    -0.000 C 
BRANCH  13  14
ATOM     14  C   UNL     1      53.317  29.786  43.234  1.00  0.00    -0.000 C 
BRANCH  14  15
ATOM     15  C   UNL     1      52.287  29.807  42.089  1.00  0.00    -0.000 C 
BRANCH  15  16
ATOM     16  C   UNL     1      50.916  30.345  42.527  1.00  0.00    -0.000 C 
BRANCH  16  17
ATOM     17  C   UNL     1      50.702  31.776  42.022  1.00  0.00    -0.003 C 
ATOM     18  C   UNL     1      50.750  32.779  43.172  1.00  0.00     0.004 C 
ENDBRANCH  16  17
ENDBRANCH  15  16
ENDBRANCH  14  15
ENDBRANCH  13  14
ENDBRANCH  12  13
ENDBRANCH  11  12
ENDBRANCH   1  11
TORSDOF 14
ENDMDL
MODEL 9
REMARK VINA RESULT:    -4.993      6.433      9.311
REMARK INTER + INTRA:         -10.824
REMARK INTER:                  -9.213
REMARK INTRA:                  -1.611
REMARK UNBOUND:                -1.744
REMARK SMILES CCCCCCCCCCCCCCCC(=O)[O-]
REMARK SMILES IDX 9 1 10 2 11 3 12 4 13 5 14 6 15 7 16 8 17 9 18 10 8 11 7 12
REMARK SMILES IDX 6 13 5 14 4 15 3 16 2 17 1 18
REMARK H PARENT
REMARK Flexibility Score: inf
ROOT
ATOM      1  C   UNL     1      58.335  38.729  38.262  1.00  0.00     0.000 C 
ENDROOT
BRANCH   1   2
ATOM      2  C   UNL     1      57.339  37.747  37.624  1.00  0.00     0.000 C 
BRANCH   2   3
ATOM      3  C   UNL     1      56.237  37.307  38.601  1.00  0.00     0.000 C 
BRANCH   3   4
ATOM      4  C   UNL     1      56.350  38.061  39.933  1.00  0.00     0.000 C 
BRANCH   4   5
ATOM      5  C   UNL     1      55.334  37.579  40.982  1.00  0.00     0.000 C 
BRANCH   5   6
ATOM      6  C   UNL     1      55.947  36.663  42.062  1.00  0.00     0.006 C 
BRANCH   6   7
ATOM      7  C   UNL     1      54.874  35.955  42.900  1.00  0.00     0.053 C 
BRANCH   7   8
ATOM      8  C   UNL     1      55.076  34.473  42.865  1.00  0.00     0.041 C 
ATOM      9  O   UNL     1      54.437  33.728  43.655  1.00  0.00    -0.550 OA
ATOM     10  O   UNL     1      55.932  33.909  41.928  1.00  0.00    -0.550 OA
ENDBRANCH   7   8
ENDBRANCH   6   7
ENDBRANCH   5   6
ENDBRANCH   4   5
ENDBRANCH   3   4
ENDBRANCH   2   3
ENDBRANCH   1   2
BRANCH   1  11
ATOM     11  C   UNL     1      59.739  38.121  38.428  1.00  0.00     0.000 C 
BRANCH  11  12
ATOM     12  C   UNL     1      60.605  38.279  37.168  1.00  0.00    -0.000 C 
BRANCH  12  13
ATOM     13  C   UNL     1      60.808  36.949  36.423  1.00  0.00    -0.000 C 
BRANCH  13  14
ATOM     14  C   UNL     1      60.196  36.953  35.010  1.00  0.00    -0.000 C 
BRANCH  14  15
ATOM     15  C   UNL     1      59.712  38.327  34.509  1.00  0.00    -0.000 C 
BRANCH  15  16
ATOM     16  C   UNL     1      58.221  38.339  34.140  1.00  0.00    -0.000 C 
BRANCH  16  17
ATOM     17  C   UNL     1      57.578  39.682  34.504  1.00  0.00    -0.003 C 
ATOM     18  C   UNL     1      58.624  40.683  34.985  1.00  0.00     0.004 C 
ENDBRANCH  16  17
ENDBRANCH  15  16
ENDBRANCH  14  15
ENDBRANCH  13  14
ENDBRANCH  12  13
ENDBRANCH  11  12
ENDBRANCH   1  11
TORSDOF 14
ENDMDL
