MODEL 1
REMARK VINA RESULT:    -3.287      0.000      0.000
REMARK INTER + INTRA:          -4.671
REMARK INTER:                  -4.440
REMARK INTRA:                  -0.231
REMARK UNBOUND:                -0.231
REMARK SMILES CCCCCCCC(=O)[O-]
REMARK SMILES IDX 5 1 6 2 7 3 8 4 9 5 10 6 4 7 3 8 2 9 1 10
REMARK H PARENT
REMARK Flexibility Score: inf
ROOT
ATOM      1  C   UNL     1     112.702  55.626 230.759  1.00  0.00     0.000 C 
ENDROOT
BRANCH   1   2
ATOM      2  C   UNL     1     113.750  55.467 229.648  1.00  0.00     0.006 C 
BRANCH   2   3
ATOM      3  C   UNL     1     113.110  55.212 228.277  1.00  0.00     0.053 C 
BRANCH   3   4
ATOM      4  C   UNL     1     113.372  53.819 227.790  1.00  0.00     0.041 C 
ATOM      5  O   UNL     1     114.406  53.203 228.160  1.00  0.00    -0.550 OA
ATOM      6  O   UNL     1     112.491  53.215 226.902  1.00  0.00    -0.550 OA
ENDBRANCH   3   4
ENDBRANCH   2   3
ENDBRANCH   1   2
BRANCH   1   7
ATOM      7  C   UNL     1     113.220  55.067 232.089  1.00  0.00     0.000 C 
BRANCH   7   8
ATOM      8  C   UNL     1     113.190  53.534 232.092  1.00  0.00    -0.000 C 
BRANCH   8   9
ATOM      9  C   UNL     1     113.334  52.984 233.515  1.00  0.00    -0.003 C 
ATOM     10  C   UNL     1     114.752  53.183 234.043  1.00  0.00     0.004 C 
ENDBRANCH   8   9
ENDBRANCH   7   8
ENDBRANCH   1   7
TORSDOF 6
ENDMDL
MODEL 2
REMARK VINA RESULT:    -3.268     16.523     17.834
REMARK INTER + INTRA:          -4.646
REMARK INTER:                  -4.213
REMARK INTRA:                  -0.433
REMARK UNBOUND:                -0.231
REMARK SMILES CCCCCCCC(=O)[O-]
REMARK SMILES IDX 5 1 6 2 7 3 8 4 9 5 10 6 4 7 3 8 2 9 1 10
REMARK H PARENT
REMARK Flexibility Score: inf
ROOT
ATOM      1  C   UNL     1     112.198  63.870 218.092  1.00  0.00     0.000 C 
ENDROOT
BRANCH   1   2
ATOM      2  C   UNL     1     111.757  65.330 217.911  1.00  0.00     0.006 C 
BRANCH   2   3
ATOM      3  C   UNL     1     112.819  66.324 218.400  1.00  0.00     0.053 C 
BRANCH   3   4
ATOM      4  C   UNL     1     113.431  67.086 217.264  1.00  0.00     0.041 C 
ATOM      5  O   UNL     1     113.363  68.344 217.236  1.00  0.00    -0.550 OA
ATOM      6  O   UNL     1     114.047  66.407 216.220  1.00  0.00    -0.550 OA
ENDBRANCH   3   4
ENDBRANCH   2   3
ENDBRANCH   1   2
BRANCH   1   7
ATOM      7  C   UNL     1     112.049  63.085 216.784  1.00  0.00     0.000 C 
BRANCH   7   8
ATOM      8  C   UNL     1     111.371  63.936 215.704  1.00  0.00    -0.000 C 
BRANCH   8   9
ATOM      9  C   UNL     1     110.153  63.212 215.118  1.00  0.00    -0.003 C 
ATOM     10  C   UNL     1     109.938  61.860 215.794  1.00  0.00     0.004 C 
ENDBRANCH   8   9
ENDBRANCH   7   8
ENDBRANCH   1   7
TORSDOF 6
ENDMDL
MODEL 3
REMARK VINA RESULT:    -3.167     17.380     18.096
REMARK INTER + INTRA:          -4.509
REMARK INTER:                  -4.397
REMARK INTRA:                  -0.112
REMARK UNBOUND:                -0.231
REMARK SMILES CCCCCCCC(=O)[O-]
REMARK SMILES IDX 5 1 6 2 7 3 8 4 9 5 10 6 4 7 3 8 2 9 1 10
REMARK H PARENT
REMARK Flexibility Score: inf
ROOT
ATOM      1  C   UNL     1     111.294  63.409 216.572  1.00  0.00     0.000 C 
ENDROOT
BRANCH   1   2
ATOM      2  C   UNL     1     112.298  64.538 216.299  1.00  0.00     0.006 C 
BRANCH   2   3
ATOM      3  C   UNL     1     112.112  65.726 217.252  1.00  0.00     0.053 C 
BRANCH   3   4
ATOM      4  C   UNL     1     113.140  66.791 217.021  1.00  0.00     0.041 C 
ATOM      5  O   UNL     1     112.946  67.961 217.445  1.00  0.00    -0.550 OA
ATOM      6  O   UNL     1     114.297  66.500 216.308  1.00  0.00    -0.550 OA
ENDBRANCH   3   4
ENDBRANCH   2   3
ENDBRANCH   1   2
BRANCH   1   7
ATOM      7  C   UNL     1     110.456  63.104 215.326  1.00  0.00     0.000 C 
BRANCH   7   8
ATOM      8  C   UNL     1     109.698  61.780 215.481  1.00  0.00    -0.000 C 
BRANCH   8   9
ATOM      9  C   UNL     1     108.244  61.922 215.017  1.00  0.00    -0.003 C 
ATOM     10  C   UNL     1     107.289  61.207 215.970  1.00  0.00     0.004 C 
ENDBRANCH   8   9
ENDBRANCH   7   8
ENDBRANCH   1   7
TORSDOF 6
ENDMDL
MODEL 4
REMARK VINA RESULT:    -3.136      2.844      4.827
REMARK INTER + INTRA:          -4.466
REMARK INTER:                  -4.081
REMARK INTRA:                  -0.386
REMARK UNBOUND:                -0.231
REMARK SMILES CCCCCCCC(=O)[O-]
REMARK SMILES IDX 5 1 6 2 7 3 8 4 9 5 10 6 4 7 3 8 2 9 1 10
REMARK H PARENT
REMARK Flexibility Score: inf
ROOT
ATOM      1  C   UNL     1     112.725  55.998 230.412  1.00  0.00     0.000 C 
ENDROOT
BRANCH   1   2
ATOM      2  C   UNL     1     113.158  55.340 231.729  1.00  0.00     0.006 C 
BRANCH   2   3
ATOM      3  C   UNL     1     113.166  53.808 231.639  1.00  0.00     0.053 C 
BRANCH   3   4
ATOM      4  C   UNL     1     113.046  53.170 232.989  1.00  0.00     0.041 C 
ATOM      5  O   UNL     1     111.944  53.179 233.598  1.00  0.00    -0.550 OA
ATOM      6  O   UNL     1     114.160  52.595 233.590  1.00  0.00    -0.550 OA
ENDBRANCH   3   4
ENDBRANCH   2   3
ENDBRANCH   1   2
BRANCH   1   7
ATOM      7  C   UNL     1     113.599  55.523 229.246  1.00  0.00     0.000 C 
BRANCH   7   8
ATOM      8  C   UNL     1     112.747  55.222 228.006  1.00  0.00    -0.000 C 
BRANCH   8   9
ATOM      9  C   UNL     1     113.243  53.958 227.293  1.00  0.00    -0.003 C 
ATOM     10  C   UNL     1     114.377  53.296 228.070  1.00  0.00     0.004 C 
ENDBRANCH   8   9
ENDBRANCH   7   8
ENDBRANCH   1   7
TORSDOF 6
ENDMDL
MODEL 5
REMARK VINA RESULT:    -3.085     15.929     17.091
REMARK INTER + INTRA:          -4.397
REMARK INTER:                  -4.002
REMARK INTRA:                  -0.396
REMARK UNBOUND:                -0.231
REMARK SMILES CCCCCCCC(=O)[O-]
REMARK SMILES IDX 5 1 6 2 7 3 8 4 9 5 10 6 4 7 3 8 2 9 1 10
REMARK H PARENT
REMARK Flexibility Score: inf
ROOT
ATOM      1  C   UNL     1     112.385  65.151 219.589  1.00  0.00     0.000 C 
ENDROOT
BRANCH   1   2
ATOM      2  C   UNL     1     111.650  65.806 218.411  1.00  0.00     0.006 C 
BRANCH   2   3
ATOM      3  C   UNL     1     112.342  65.530 217.069  1.00  0.00     0.053 C 
BRANCH   3   4
ATOM      4  C   UNL     1     113.495  66.458 216.837  1.00  0.00     0.041 C 
ATOM      5  O   UNL     1     114.613  66.002 216.480  1.00  0.00    -0.550 OA
ATOM      6  O   UNL     1     113.344  67.823 217.047  1.00  0.00    -0.550 OA
ENDBRANCH   3   4
ENDBRANCH   2   3
ENDBRANCH   1   2
BRANCH   1   7
ATOM      7  C   UNL     1     112.187  65.958 220.877  1.00  0.00     0.000 C 
BRANCH   7   8
ATOM      8  C   UNL     1     112.095  67.459 220.579  1.00  0.00    -0.000 C 
BRANCH   8   9
ATOM      9  C   UNL     1     111.374  68.201 221.711  1.00  0.00    -0.003 C 
ATOM     10  C   UNL     1     109.867  67.969 221.649  1.00  0.00     0.004 C 
ENDBRANCH   8   9
ENDBRANCH   7   8
ENDBRANCH   1   7
TORSDOF 6
ENDMDL
MODEL 6
REMARK VINA RESULT:    -3.051     15.717     17.040
REMARK INTER + INTRA:          -4.353
REMARK INTER:                  -4.039
REMARK INTRA:                  -0.314
REMARK UNBOUND:                -0.231
REMARK SMILES CCCCCCCC(=O)[O-]
REMARK SMILES IDX 5 1 6 2 7 3 8 4 9 5 10 6 4 7 3 8 2 9 1 10
REMARK H PARENT
REMARK Flexibility Score: inf
ROOT
ATOM      1  C   UNL     1     103.367  58.480 218.505  1.00  0.00     0.000 C 
ENDROOT
BRANCH   1   2
ATOM      2  C   UNL     1     101.902  58.122 218.791  1.00  0.00     0.006 C 
BRANCH   2   3
ATOM      3  C   UNL     1     100.926  59.149 218.202  1.00  0.00     0.053 C 
BRANCH   3   4
ATOM      4  C   UNL     1     100.387  60.071 219.253  1.00  0.00     0.041 C 
ATOM      5  O   UNL     1      99.296  59.808 219.826  1.00  0.00    -0.550 OA
ATOM      6  O   UNL     1     101.071  61.236 219.575  1.00  0.00    -0.550 OA
ENDBRANCH   3   4
ENDBRANCH   2   3
ENDBRANCH   1   2
BRANCH   1   7
ATOM      7  C   UNL     1     103.994  59.221 219.691  1.00  0.00     0.000 C 
BRANCH   7   8
ATOM      8  C   UNL     1     105.356  59.817 219.311  1.00  0.00    -0.000 C 
BRANCH   8   9
ATOM      9  C   UNL     1     105.922  59.140 218.058  1.00  0.00    -0.003 C 
ATOM     10  C   UNL     1     106.484  60.169 217.081  1.00  0.00     0.004 C 
ENDBRANCH   8   9
ENDBRANCH   7   8
ENDBRANCH   1   7
TORSDOF 6
ENDMDL
MODEL 7
REMARK VINA RESULT:    -2.969     14.401     16.437
REMARK INTER + INTRA:          -4.241
REMARK INTER:                  -3.861
REMARK INTRA:                  -0.380
REMARK UNBOUND:                -0.231
REMARK SMILES CCCCCCCC(=O)[O-]
REMARK SMILES IDX 5 1 6 2 7 3 8 4 9 5 10 6 4 7 3 8 2 9 1 10
REMARK H PARENT
REMARK Flexibility Score: inf
ROOT
ATOM      1  C   UNL     1     111.652  63.172 216.965  1.00  0.00     0.000 C 
ENDROOT
BRANCH   1   2
ATOM      2  C   UNL     1     112.024  64.521 216.333  1.00  0.00     0.006 C 
BRANCH   2   3
ATOM      3  C   UNL     1     112.182  65.631 217.380  1.00  0.00     0.053 C 
BRANCH   3   4
ATOM      4  C   UNL     1     113.140  66.691 216.927  1.00  0.00     0.041 C 
ATOM      5  O   UNL     1     114.074  66.403 216.133  1.00  0.00    -0.550 OA
ATOM      6  O   UNL     1     113.022  67.988 217.410  1.00  0.00    -0.550 OA
ENDBRANCH   3   4
ENDBRANCH   2   3
ENDBRANCH   1   2
BRANCH   1   7
ATOM      7  C   UNL     1     112.537  62.873 218.181  1.00  0.00     0.000 C 
BRANCH   7   8
ATOM      8  C   UNL     1     111.884  61.828 219.093  1.00  0.00    -0.000 C 
BRANCH   8   9
ATOM      9  C   UNL     1     111.765  62.350 220.530  1.00  0.00    -0.003 C 
ATOM     10  C   UNL     1     112.262  63.789 220.636  1.00  0.00     0.004 C 
ENDBRANCH   8   9
ENDBRANCH   7   8
ENDBRANCH   1   7
TORSDOF 6
ENDMDL
MODEL 8
REMARK VINA RESULT:    -2.887     18.448     19.826
REMARK INTER + INTRA:          -4.131
REMARK INTER:                  -3.616
REMARK INTRA:                  -0.515
REMARK UNBOUND:                -0.231
REMARK SMILES CCCCCCCC(=O)[O-]
REMARK SMILES IDX 5 1 6 2 7 3 8 4 9 5 10 6 4 7 3 8 2 9 1 10
REMARK H PARENT
REMARK Flexibility Score: inf
ROOT
ATOM      1  C   UNL     1      97.696  64.234 225.533  1.00  0.00     0.000 C 
ENDROOT
BRANCH   1   2
ATOM      2  C   UNL     1      99.028  64.736 226.109  1.00  0.00     0.006 C 
BRANCH   2   3
ATOM      3  C   UNL     1      99.580  65.940 225.334  1.00  0.00     0.053 C 
BRANCH   3   4
ATOM      4  C   UNL     1     100.897  65.631 224.690  1.00  0.00     0.041 C 
ATOM      5  O   UNL     1     101.779  66.524 224.591  1.00  0.00    -0.550 OA
ATOM      6  O   UNL     1     101.137  64.365 224.170  1.00  0.00    -0.550 OA
ENDBRANCH   3   4
ENDBRANCH   2   3
ENDBRANCH   1   2
BRANCH   1   7
ATOM      7  C   UNL     1      96.994  65.335 224.730  1.00  0.00     0.000 C 
BRANCH   7   8
ATOM      8  C   UNL     1      95.679  65.752 225.400  1.00  0.00    -0.000 C 
BRANCH   8   9
ATOM      9  C   UNL     1      95.795  67.151 226.015  1.00  0.00    -0.003 C 
ATOM     10  C   UNL     1      96.239  67.076 227.474  1.00  0.00     0.004 C 
ENDBRANCH   8   9
ENDBRANCH   7   8
ENDBRANCH   1   7
TORSDOF 6
ENDMDL
MODEL 9
REMARK VINA RESULT:    -2.851     17.769     18.592
REMARK INTER + INTRA:          -4.082
REMARK INTER:                  -3.576
REMARK INTRA:                  -0.506
REMARK UNBOUND:                -0.231
REMARK SMILES CCCCCCCC(=O)[O-]
REMARK SMILES IDX 5 1 6 2 7 3 8 4 9 5 10 6 4 7 3 8 2 9 1 10
REMARK H PARENT
REMARK Flexibility Score: inf
ROOT
ATOM      1  C   UNL     1      96.447  55.511 221.366  1.00  0.00     0.000 C 
ENDROOT
BRANCH   1   2
ATOM      2  C   UNL     1      96.640  56.770 220.509  1.00  0.00     0.006 C 
BRANCH   2   3
ATOM      3  C   UNL     1      98.107  56.987 220.116  1.00  0.00     0.053 C 
BRANCH   3   4
ATOM      4  C   UNL     1      98.666  58.239 220.721  1.00  0.00     0.041 C 
ATOM      5  O   UNL     1      99.099  59.162 219.982  1.00  0.00    -0.550 OA
ATOM      6  O   UNL     1      98.738  58.372 222.102  1.00  0.00    -0.550 OA
ENDBRANCH   3   4
ENDBRANCH   2   3
ENDBRANCH   1   2
BRANCH   1   7
ATOM      7  C   UNL     1      95.829  55.860 222.725  1.00  0.00     0.000 C 
BRANCH   7   8
ATOM      8  C   UNL     1      96.867  55.746 223.848  1.00  0.00    -0.000 C 
BRANCH   8   9
ATOM      9  C   UNL     1      96.824  56.976 224.762  1.00  0.00    -0.003 C 
ATOM     10  C   UNL     1      95.952  58.077 224.165  1.00  0.00     0.004 C 
ENDBRANCH   8   9
ENDBRANCH   7   8
ENDBRANCH   1   7
TORSDOF 6
ENDMDL
