MODEL 1
REMARK VINA RESULT:    -4.593      0.000      0.000
REMARK INTER + INTRA:          -4.727
REMARK INTER:                  -4.727
REMARK INTRA:                   0.000
REMARK UNBOUND:                 0.000
REMARK SMILES C[C@H]1CC[C@H]2C(C)(C)[C@H]3C[C@@]12CC[C@@]3(C)O
REMARK SMILES IDX 1 1 2 2 3 3 4 4 5 5 11 6 12 7 13 8 14 9 9 10 10 11 6 12 7 13
REMARK SMILES IDX 8 14 15 15 16 16
REMARK H PARENT 16 17
REMARK Flexibility Score: inf
ROOT
ATOM      1  C   UNL     1     116.248 116.705 115.470  1.00  0.00     0.008 C 
ATOM      2  C   UNL     1     116.512 116.516 116.971  1.00  0.00    -0.008 C 
ATOM      3  C   UNL     1     117.967 116.773 117.348  1.00  0.00     0.004 C 
ATOM      4  C   UNL     1     117.946 117.026 118.851  1.00  0.00     0.005 C 
ATOM      5  C   UNL     1     116.540 117.575 119.193  1.00  0.00     0.001 C 
ATOM      6  C   UNL     1     115.695 117.430 117.906  1.00  0.00    -0.023 C 
ATOM      7  C   UNL     1     114.277 116.874 118.209  1.00  0.00     0.010 C 
ATOM      8  C   UNL     1     113.531 117.716 119.274  1.00  0.00     0.036 C 
ATOM      9  C   UNL     1     113.755 119.264 119.153  1.00  0.00     0.065 C 
ATOM     10  C   UNL     1     115.233 119.606 118.702  1.00  0.00     0.027 C 
ATOM     11  C   UNL     1     115.529 118.866 117.402  1.00  0.00     0.014 C 
ATOM     12  C   UNL     1     116.394 119.080 119.628  1.00  0.00    -0.026 C 
ATOM     13  C   UNL     1     117.665 119.941 119.363  1.00  0.00     0.012 C 
ATOM     14  C   UNL     1     116.113 119.193 121.146  1.00  0.00     0.012 C 
ATOM     15  C   UNL     1     112.731 119.855 118.149  1.00  0.00     0.042 C 
ENDROOT
BRANCH   9  16
ATOM     16  O   UNL     1     113.511 119.887 120.393  1.00  0.00    -0.390 OA
ATOM     17  H   UNL     1     113.965 120.770 120.395  1.00  0.00     0.211 HD
ENDBRANCH   9  16
TORSDOF 1
ENDMDL
MODEL 2
REMARK VINA RESULT:    -4.592      2.604      3.961
REMARK INTER + INTRA:          -4.726
REMARK INTER:                  -4.726
REMARK INTRA:                   0.000
REMARK UNBOUND:                 0.000
REMARK SMILES C[C@H]1CC[C@H]2C(C)(C)[C@H]3C[C@@]12CC[C@@]3(C)O
REMARK SMILES IDX 1 1 2 2 3 3 4 4 5 5 11 6 12 7 13 8 14 9 9 10 10 11 6 12 7 13
REMARK SMILES IDX 8 14 15 15 16 16
REMARK H PARENT 16 17
REMARK Flexibility Score: inf
ROOT
ATOM      1  C   UNL     1     116.606 116.239 115.527  1.00  0.00     0.008 C 
ATOM      2  C   UNL     1     116.733 116.507 117.034  1.00  0.00    -0.008 C 
ATOM      3  C   UNL     1     116.476 117.965 117.395  1.00  0.00     0.004 C 
ATOM      4  C   UNL     1     116.159 117.953 118.885  1.00  0.00     0.005 C 
ATOM      5  C   UNL     1     115.579 116.555 119.208  1.00  0.00     0.001 C 
ATOM      6  C   UNL     1     115.770 115.703 117.931  1.00  0.00    -0.023 C 
ATOM      7  C   UNL     1     116.297 114.280 118.263  1.00  0.00     0.010 C 
ATOM      8  C   UNL     1     115.401 113.547 119.292  1.00  0.00     0.036 C 
ATOM      9  C   UNL     1     113.862 113.788 119.104  1.00  0.00     0.065 C 
ATOM     10  C   UNL     1     113.556 115.268 118.634  1.00  0.00     0.027 C 
ATOM     11  C   UNL     1     114.356 115.552 117.366  1.00  0.00     0.014 C 
ATOM     12  C   UNL     1     114.055 116.427 119.578  1.00  0.00    -0.026 C 
ATOM     13  C   UNL     1     113.221 117.706 119.272  1.00  0.00     0.012 C 
ATOM     14  C   UNL     1     113.873 116.153 121.091  1.00  0.00     0.012 C 
ATOM     15  C   UNL     1     113.304 112.767 118.078  1.00  0.00     0.042 C 
ENDROOT
BRANCH   9  16
ATOM     16  O   UNL     1     113.184 113.556 120.316  1.00  0.00    -0.390 OA
ATOM     17  H   UNL     1     112.245 113.866 120.215  1.00  0.00     0.211 HD
ENDBRANCH   9  16
TORSDOF 1
ENDMDL
MODEL 3
REMARK VINA RESULT:    -4.588      3.438      5.629
REMARK INTER + INTRA:          -4.722
REMARK INTER:                  -4.722
REMARK INTRA:                   0.000
REMARK UNBOUND:                 0.000
REMARK SMILES C[C@H]1CC[C@H]2C(C)(C)[C@H]3C[C@@]12CC[C@@]3(C)O
REMARK SMILES IDX 1 1 2 2 3 3 4 4 5 5 11 6 12 7 13 8 14 9 9 10 10 11 6 12 7 13
REMARK SMILES IDX 8 14 15 15 16 16
REMARK H PARENT 16 17
REMARK Flexibility Score: inf
ROOT
ATOM      1  C   UNL     1     117.010 116.623 115.531  1.00  0.00     0.008 C 
ATOM      2  C   UNL     1     116.727 116.759 117.034  1.00  0.00    -0.008 C 
ATOM      3  C   UNL     1     115.262 116.517 117.381  1.00  0.00     0.004 C 
ATOM      4  C   UNL     1     115.256 116.206 118.872  1.00  0.00     0.005 C 
ATOM      5  C   UNL     1     116.645 115.614 119.213  1.00  0.00     0.001 C 
ATOM      6  C   UNL     1     117.512 115.792 117.944  1.00  0.00    -0.023 C 
ATOM      7  C   UNL     1     118.936 116.307 118.289  1.00  0.00     0.010 C 
ATOM      8  C   UNL     1     119.649 115.409 119.330  1.00  0.00     0.036 C 
ATOM      9  C   UNL     1     119.396 113.872 119.145  1.00  0.00     0.065 C 
ATOM     10  C   UNL     1     117.919 113.578 118.660  1.00  0.00     0.027 C 
ATOM     11  C   UNL     1     117.656 114.374 117.387  1.00  0.00     0.014 C 
ATOM     12  C   UNL     1     116.754 114.091 119.590  1.00  0.00    -0.026 C 
ATOM     13  C   UNL     1     115.471 113.267 119.273  1.00  0.00     0.012 C 
ATOM     14  C   UNL     1     117.010 113.913 121.106  1.00  0.00     0.012 C 
ATOM     15  C   UNL     1     120.423 113.300 118.133  1.00  0.00     0.042 C 
ENDROOT
BRANCH   9  16
ATOM     16  O   UNL     1     119.609 113.196 120.363  1.00  0.00    -0.390 OA
ATOM     17  H   UNL     1     120.583 113.022 120.459  1.00  0.00     0.211 HD
ENDBRANCH   9  16
TORSDOF 1
ENDMDL
MODEL 4
REMARK VINA RESULT:    -4.584      2.658      4.042
REMARK INTER + INTRA:          -4.717
REMARK INTER:                  -4.717
REMARK INTRA:                   0.000
REMARK UNBOUND:                 0.000
REMARK SMILES C[C@H]1CC[C@H]2C(C)(C)[C@H]3C[C@@]12CC[C@@]3(C)O
REMARK SMILES IDX 1 1 2 2 3 3 4 4 5 5 11 6 12 7 13 8 14 9 9 10 10 11 6 12 7 13
REMARK SMILES IDX 8 14 15 15 16 16
REMARK H PARENT 16 17
REMARK Flexibility Score: inf
ROOT
ATOM      1  C   UNL     1     116.637 117.000 115.516  1.00  0.00     0.008 C 
ATOM      2  C   UNL     1     116.498 116.705 117.017  1.00  0.00    -0.008 C 
ATOM      3  C   UNL     1     116.752 115.240 117.354  1.00  0.00     0.004 C 
ATOM      4  C   UNL     1     117.059 115.226 118.847  1.00  0.00     0.005 C 
ATOM      5  C   UNL     1     117.637 116.617 119.199  1.00  0.00     0.001 C 
ATOM      6  C   UNL     1     117.456 117.492 117.935  1.00  0.00    -0.023 C 
ATOM      7  C   UNL     1     116.927 118.909 118.289  1.00  0.00     0.010 C 
ATOM      8  C   UNL     1     117.816 119.623 119.338  1.00  0.00     0.036 C 
ATOM      9  C   UNL     1     119.356 119.384 119.157  1.00  0.00     0.065 C 
ATOM     10  C   UNL     1     119.664 117.913 118.662  1.00  0.00     0.027 C 
ATOM     11  C   UNL     1     118.874 117.653 117.384  1.00  0.00     0.014 C 
ATOM     12  C   UNL     1     119.158 116.737 119.581  1.00  0.00    -0.026 C 
ATOM     13  C   UNL     1     119.994 115.463 119.259  1.00  0.00     0.012 C 
ATOM     14  C   UNL     1     119.329 116.984 121.100  1.00  0.00     0.012 C 
ATOM     15  C   UNL     1     119.922 120.423 118.154  1.00  0.00     0.042 C 
ENDROOT
BRANCH   9  16
ATOM     16  O   UNL     1     120.025 119.594 120.378  1.00  0.00    -0.390 OA
ATOM     17  H   UNL     1     119.414 120.082 120.991  1.00  0.00     0.211 HD
ENDBRANCH   9  16
TORSDOF 1
ENDMDL
MODEL 5
REMARK VINA RESULT:    -4.489      3.211      4.838
REMARK INTER + INTRA:          -4.620
REMARK INTER:                  -4.620
REMARK INTRA:                   0.000
REMARK UNBOUND:                 0.000
REMARK SMILES C[C@H]1CC[C@H]2C(C)(C)[C@H]3C[C@@]12CC[C@@]3(C)O
REMARK SMILES IDX 1 1 2 2 3 3 4 4 5 5 11 6 12 7 13 8 14 9 9 10 10 11 6 12 7 13
REMARK SMILES IDX 8 14 15 15 16 16
REMARK H PARENT 16 17
REMARK Flexibility Score: inf
ROOT
ATOM      1  C   UNL     1     114.348 117.965 118.694  1.00  0.00     0.008 C 
ATOM      2  C   UNL     1     115.076 117.043 117.704  1.00  0.00    -0.008 C 
ATOM      3  C   UNL     1     116.242 117.734 117.007  1.00  0.00     0.004 C 
ATOM      4  C   UNL     1     117.112 116.601 116.477  1.00  0.00     0.005 C 
ATOM      5  C   UNL     1     116.864 115.379 117.393  1.00  0.00     0.001 C 
ATOM      6  C   UNL     1     115.684 115.765 118.317  1.00  0.00    -0.023 C 
ATOM      7  C   UNL     1     114.656 114.609 118.450  1.00  0.00     0.010 C 
ATOM      8  C   UNL     1     115.316 113.286 118.912  1.00  0.00     0.036 C 
ATOM      9  C   UNL     1     116.440 113.463 119.993  1.00  0.00     0.065 C 
ATOM     10  C   UNL     1     117.286 114.777 119.746  1.00  0.00     0.027 C 
ATOM     11  C   UNL     1     116.332 115.967 119.688  1.00  0.00     0.014 C 
ATOM     12  C   UNL     1     118.013 114.898 118.353  1.00  0.00    -0.026 C 
ATOM     13  C   UNL     1     119.185 115.915 118.495  1.00  0.00     0.012 C 
ATOM     14  C   UNL     1     118.650 113.584 117.839  1.00  0.00     0.012 C 
ATOM     15  C   UNL     1     115.796 113.489 121.404  1.00  0.00     0.042 C 
ENDROOT
BRANCH   9  16
ATOM     16  O   UNL     1     117.314 112.358 119.968  1.00  0.00    -0.390 OA
ATOM     17  H   UNL     1     117.270 111.945 119.065  1.00  0.00     0.211 HD
ENDBRANCH   9  16
TORSDOF 1
ENDMDL
MODEL 6
REMARK VINA RESULT:    -4.480      2.940      4.746
REMARK INTER + INTRA:          -4.611
REMARK INTER:                  -4.611
REMARK INTRA:                   0.000
REMARK UNBOUND:                 0.000
REMARK SMILES C[C@H]1CC[C@H]2C(C)(C)[C@H]3C[C@@]12CC[C@@]3(C)O
REMARK SMILES IDX 1 1 2 2 3 3 4 4 5 5 11 6 12 7 13 8 14 9 9 10 10 11 6 12 7 13
REMARK SMILES IDX 8 14 15 15 16 16
REMARK H PARENT 16 17
REMARK Flexibility Score: inf
ROOT
ATOM      1  C   UNL     1     115.300 114.353 118.720  1.00  0.00     0.008 C 
ATOM      2  C   UNL     1     116.214 115.082 117.725  1.00  0.00    -0.008 C 
ATOM      3  C   UNL     1     115.512 116.235 117.018  1.00  0.00     0.004 C 
ATOM      4  C   UNL     1     116.637 117.113 116.481  1.00  0.00     0.005 C 
ATOM      5  C   UNL     1     117.861 116.884 117.400  1.00  0.00     0.001 C 
ATOM      6  C   UNL     1     117.486 115.708 118.333  1.00  0.00    -0.023 C 
ATOM      7  C   UNL     1     118.653 114.693 118.475  1.00  0.00     0.010 C 
ATOM      8  C   UNL     1     119.968 115.370 118.933  1.00  0.00     0.036 C 
ATOM      9  C   UNL     1     119.779 116.501 120.005  1.00  0.00     0.065 C 
ATOM     10  C   UNL     1     118.456 117.331 119.750  1.00  0.00     0.027 C 
ATOM     11  C   UNL     1     117.277 116.365 119.699  1.00  0.00     0.014 C 
ATOM     12  C   UNL     1     118.329 118.046 118.352  1.00  0.00    -0.026 C 
ATOM     13  C   UNL     1     117.300 119.208 118.483  1.00  0.00     0.012 C 
ATOM     14  C   UNL     1     119.637 118.692 117.833  1.00  0.00     0.012 C 
ATOM     15  C   UNL     1     119.758 115.868 121.421  1.00  0.00     0.042 C 
ENDROOT
BRANCH   9  16
ATOM     16  O   UNL     1     120.875 117.386 119.973  1.00  0.00    -0.390 OA
ATOM     17  H   UNL     1     120.834 117.964 120.780  1.00  0.00     0.211 HD
ENDBRANCH   9  16
TORSDOF 1
ENDMDL
MODEL 7
REMARK VINA RESULT:    -4.476      1.231      3.417
REMARK INTER + INTRA:          -4.606
REMARK INTER:                  -4.606
REMARK INTRA:                   0.000
REMARK UNBOUND:                 0.000
REMARK SMILES C[C@H]1CC[C@H]2C(C)(C)[C@H]3C[C@@]12CC[C@@]3(C)O
REMARK SMILES IDX 1 1 2 2 3 3 4 4 5 5 11 6 12 7 13 8 14 9 9 10 10 11 6 12 7 13
REMARK SMILES IDX 8 14 15 15 16 16
REMARK H PARENT 16 17
REMARK Flexibility Score: inf
ROOT
ATOM      1  C   UNL     1     118.897 115.280 118.690  1.00  0.00     0.008 C 
ATOM      2  C   UNL     1     118.160 116.198 117.704  1.00  0.00    -0.008 C 
ATOM      3  C   UNL     1     117.001 115.498 117.003  1.00  0.00     0.004 C 
ATOM      4  C   UNL     1     116.120 116.623 116.477  1.00  0.00     0.005 C 
ATOM      5  C   UNL     1     116.355 117.844 117.399  1.00  0.00     0.001 C 
ATOM      6  C   UNL     1     117.537 117.466 118.322  1.00  0.00    -0.023 C 
ATOM      7  C   UNL     1     118.553 118.633 118.460  1.00  0.00     0.010 C 
ATOM      8  C   UNL     1     117.879 119.947 118.928  1.00  0.00     0.036 C 
ATOM      9  C   UNL     1     116.756 119.754 120.007  1.00  0.00     0.065 C 
ATOM     10  C   UNL     1     115.925 118.431 119.754  1.00  0.00     0.027 C 
ATOM     11  C   UNL     1     116.891 117.252 119.692  1.00  0.00     0.014 C 
ATOM     12  C   UNL     1     115.199 118.308 118.361  1.00  0.00    -0.026 C 
ATOM     13  C   UNL     1     114.038 117.279 118.497  1.00  0.00     0.012 C 
ATOM     14  C   UNL     1     114.549 119.618 117.852  1.00  0.00     0.012 C 
ATOM     15  C   UNL     1     117.399 119.728 121.418  1.00  0.00     0.042 C 
ENDROOT
BRANCH   9  16
ATOM     16  O   UNL     1     115.871 120.849 119.986  1.00  0.00    -0.390 OA
ATOM     17  H   UNL     1     115.097 120.638 120.573  1.00  0.00     0.211 HD
ENDBRANCH   9  16
TORSDOF 1
ENDMDL
MODEL 8
REMARK VINA RESULT:    -4.466      1.817      3.524
REMARK INTER + INTRA:          -4.596
REMARK INTER:                  -4.596
REMARK INTRA:                   0.000
REMARK UNBOUND:                 0.000
REMARK SMILES C[C@H]1CC[C@H]2C(C)(C)[C@H]3C[C@@]12CC[C@@]3(C)O
REMARK SMILES IDX 1 1 2 2 3 3 4 4 5 5 11 6 12 7 13 8 14 9 9 10 10 11 6 12 7 13
REMARK SMILES IDX 8 14 15 15 16 16
REMARK H PARENT 16 17
REMARK Flexibility Score: inf
ROOT
ATOM      1  C   UNL     1     117.975 118.887 118.729  1.00  0.00     0.008 C 
ATOM      2  C   UNL     1     117.057 118.158 117.737  1.00  0.00    -0.008 C 
ATOM      3  C   UNL     1     117.744 116.979 117.058  1.00  0.00     0.004 C 
ATOM      4  C   UNL     1     116.610 116.114 116.525  1.00  0.00     0.005 C 
ATOM      5  C   UNL     1     115.381 116.381 117.427  1.00  0.00     0.001 C 
ATOM      6  C   UNL     1     115.768 117.566 118.343  1.00  0.00    -0.023 C 
ATOM      7  C   UNL     1     114.619 118.605 118.455  1.00  0.00     0.010 C 
ATOM      8  C   UNL     1     113.286 117.960 118.911  1.00  0.00     0.036 C 
ATOM      9  C   UNL     1     113.443 116.846 120.004  1.00  0.00     0.065 C 
ATOM     10  C   UNL     1     114.753 115.987 119.777  1.00  0.00     0.027 C 
ATOM     11  C   UNL     1     115.951 116.930 119.722  1.00  0.00     0.014 C 
ATOM     12  C   UNL     1     114.881 115.245 118.393  1.00  0.00    -0.026 C 
ATOM     13  C   UNL     1     115.886 114.066 118.556  1.00  0.00     0.012 C 
ATOM     14  C   UNL     1     113.567 114.614 117.873  1.00  0.00     0.012 C 
ATOM     15  C   UNL     1     113.462 117.503 121.408  1.00  0.00     0.042 C 
ENDROOT
BRANCH   9  16
ATOM     16  O   UNL     1     112.331 115.981 119.976  1.00  0.00    -0.390 OA
ATOM     17  H   UNL     1     111.935 115.951 120.887  1.00  0.00     0.211 HD
ENDBRANCH   9  16
TORSDOF 1
ENDMDL
MODEL 9
REMARK VINA RESULT:    -4.399      2.343      3.937
REMARK INTER + INTRA:          -4.528
REMARK INTER:                  -4.528
REMARK INTRA:                   0.000
REMARK UNBOUND:                 0.000
REMARK SMILES C[C@H]1CC[C@H]2C(C)(C)[C@H]3C[C@@]12CC[C@@]3(C)O
REMARK SMILES IDX 1 1 2 2 3 3 4 4 5 5 11 6 12 7 13 8 14 9 9 10 10 11 6 12 7 13
REMARK SMILES IDX 8 14 15 15 16 16
REMARK H PARENT 16 17
REMARK Flexibility Score: inf
ROOT
ATOM      1  C   UNL     1     119.993 114.604 119.332  1.00  0.00     0.008 C 
ATOM      2  C   UNL     1     119.353 115.998 119.244  1.00  0.00    -0.008 C 
ATOM      3  C   UNL     1     119.979 116.865 118.159  1.00  0.00     0.004 C 
ATOM      4  C   UNL     1     118.952 117.956 117.883  1.00  0.00     0.005 C 
ATOM      5  C   UNL     1     117.567 117.370 118.249  1.00  0.00     0.001 C 
ATOM      6  C   UNL     1     117.842 116.011 118.936  1.00  0.00    -0.023 C 
ATOM      7  C   UNL     1     116.964 115.821 120.203  1.00  0.00     0.010 C 
ATOM      8  C   UNL     1     115.454 116.000 119.904  1.00  0.00     0.036 C 
ATOM      9  C   UNL     1     114.988 115.401 118.531  1.00  0.00     0.065 C 
ATOM     10  C   UNL     1     116.090 115.585 117.410  1.00  0.00     0.027 C 
ATOM     11  C   UNL     1     117.396 114.973 117.905  1.00  0.00     0.014 C 
ATOM     12  C   UNL     1     116.541 117.062 117.098  1.00  0.00    -0.026 C 
ATOM     13  C   UNL     1     117.162 117.097 115.670  1.00  0.00     0.012 C 
ATOM     14  C   UNL     1     115.393 118.101 117.087  1.00  0.00     0.012 C 
ATOM     15  C   UNL     1     114.646 113.900 118.715  1.00  0.00     0.042 C 
ENDROOT
BRANCH   9  16
ATOM     16  O   UNL     1     113.805 116.036 118.103  1.00  0.00    -0.390 OA
ATOM     17  H   UNL     1     114.039 116.684 117.388  1.00  0.00     0.211 HD
ENDBRANCH   9  16
TORSDOF 1
ENDMDL
