MODEL 1
REMARK VINA RESULT:    -5.440      0.000      0.000
REMARK INTER + INTRA:          -6.921
REMARK INTER:                  -6.553
REMARK INTRA:                  -0.368
REMARK UNBOUND:                -0.368
REMARK SMILES Oc1cc(O)c2c(c1)O[C@@H](c1ccc(O)c(O)c1)[C@H](O)C2
REMARK SMILES IDX 21 1 19 2 10 3 9 4 7 5 8 6 2 7 3 8 4 9 6 10 20 11 11 13
REMARK SMILES IDX 18 14 12 15 16 16 13 17 14 18 17 19 15 21 5 23 1 25
REMARK H PARENT 20 12 17 20 15 22 5 24 1 26
REMARK Flexibility Score: inf
ROOT
ATOM      1  C   UNL     1       4.157 105.931 180.513  1.00  0.00     0.079 C 
ATOM      2  C   UNL     1       3.974 107.042 181.564  1.00  0.00     0.164 C 
ATOM      3  C   UNL     1       3.640 108.380 180.876  1.00  0.00     0.232 C 
ATOM      4  O   UNL     1       2.478 108.223 180.060  1.00  0.00    -0.482 OA
ATOM      5  C   UNL     1       2.238 107.063 179.315  1.00  0.00     0.131 A 
ATOM      6  C   UNL     1       1.185 107.055 178.397  1.00  0.00     0.093 A 
ATOM      7  C   UNL     1       0.930 105.917 177.625  1.00  0.00     0.122 A 
ATOM      8  C   UNL     1       1.738 104.787 177.767  1.00  0.00     0.092 A 
ATOM      9  C   UNL     1       2.798 104.777 178.681  1.00  0.00     0.126 A 
ATOM     10  C   UNL     1       3.035 105.910 179.496  1.00  0.00     0.039 A 
ENDROOT
BRANCH   2  11
ATOM     11  O   UNL     1       5.120 107.152 182.372  1.00  0.00    -0.389 OA
ATOM     12  H   UNL     1       5.612 107.966 182.087  1.00  0.00     0.211 HD
ENDBRANCH   2  11
BRANCH   3  13
ATOM     13  C   UNL     1       3.404 109.473 181.891  1.00  0.00    -0.001 A 
ATOM     14  C   UNL     1       4.251 110.593 181.933  1.00  0.00     0.057 A 
ATOM     15  C   UNL     1       2.371 109.360 182.837  1.00  0.00     0.012 A 
ATOM     16  C   UNL     1       4.055 111.597 182.894  1.00  0.00     0.157 A 
ATOM     17  C   UNL     1       2.174 110.359 183.792  1.00  0.00     0.050 A 
ATOM     18  C   UNL     1       3.014 111.480 183.823  1.00  0.00     0.157 A 
BRANCH  16  19
ATOM     19  O   UNL     1       4.892 112.711 182.931  1.00  0.00    -0.504 OA
ATOM     20  H   UNL     1       5.145 113.156 183.806  1.00  0.00     0.293 HD
ENDBRANCH  16  19
BRANCH  18  21
ATOM     21  O   UNL     1       2.821 112.480 184.774  1.00  0.00    -0.504 OA
ATOM     22  H   UNL     1       3.599 113.008 185.154  1.00  0.00     0.293 HD
ENDBRANCH  18  21
ENDBRANCH   3  13
BRANCH   9  23
ATOM     23  O   UNL     1       3.599 103.634 178.745  1.00  0.00    -0.507 OA
ATOM     24  H   UNL     1       4.384 103.539 179.376  1.00  0.00     0.293 HD
ENDBRANCH   9  23
BRANCH   7  25
ATOM     25  O   UNL     1      -0.119 105.900 176.710  1.00  0.00    -0.508 OA
ATOM     26  H   UNL     1      -1.004 105.453 176.925  1.00  0.00     0.293 HD
ENDBRANCH   7  25
TORSDOF 6
ENDMDL
MODEL 2
REMARK VINA RESULT:    -5.393      1.327      1.871
REMARK INTER + INTRA:          -6.865
REMARK INTER:                  -6.489
REMARK INTRA:                  -0.376
REMARK UNBOUND:                -0.368
REMARK SMILES Oc1cc(O)c2c(c1)O[C@@H](c1ccc(O)c(O)c1)[C@H](O)C2
REMARK SMILES IDX 21 1 19 2 10 3 9 4 7 5 8 6 2 7 3 8 4 9 6 10 20 11 11 13
REMARK SMILES IDX 18 14 12 15 16 16 13 17 14 18 17 19 15 21 5 23 1 25
REMARK H PARENT 20 12 17 20 15 22 5 24 1 26
REMARK Flexibility Score: inf
ROOT
ATOM      1  C   UNL     1       4.986 105.607 179.943  1.00  0.00     0.079 C 
ATOM      2  C   UNL     1       4.617 106.647 181.017  1.00  0.00     0.164 C 
ATOM      3  C   UNL     1       4.294 108.003 180.360  1.00  0.00     0.232 C 
ATOM      4  O   UNL     1       3.251 107.836 179.401  1.00  0.00    -0.482 OA
ATOM      5  C   UNL     1       3.167 106.709 178.574  1.00  0.00     0.131 A 
ATOM      6  C   UNL     1       2.235 106.701 177.534  1.00  0.00     0.093 A 
ATOM      7  C   UNL     1       2.138 105.596 176.682  1.00  0.00     0.122 A 
ATOM      8  C   UNL     1       2.985 104.501 176.866  1.00  0.00     0.092 A 
ATOM      9  C   UNL     1       3.926 104.492 177.903  1.00  0.00     0.126 A 
ATOM     10  C   UNL     1       3.999 105.588 178.795  1.00  0.00     0.039 A 
ENDROOT
BRANCH   2  11
ATOM     11  O   UNL     1       5.649 106.768 181.965  1.00  0.00    -0.389 OA
ATOM     12  H   UNL     1       5.325 106.368 182.815  1.00  0.00     0.211 HD
ENDBRANCH   2  11
BRANCH   3  13
ATOM     13  C   UNL     1       3.877 109.026 181.391  1.00  0.00    -0.001 A 
ATOM     14  C   UNL     1       2.663 108.877 182.084  1.00  0.00     0.057 A 
ATOM     15  C   UNL     1       4.670 110.161 181.634  1.00  0.00     0.012 A 
ATOM     16  C   UNL     1       2.258 109.839 183.021  1.00  0.00     0.157 A 
ATOM     17  C   UNL     1       4.267 111.118 182.567  1.00  0.00     0.050 A 
ATOM     18  C   UNL     1       3.061 110.959 183.264  1.00  0.00     0.157 A 
BRANCH  16  19
ATOM     19  O   UNL     1       1.056 109.687 183.711  1.00  0.00    -0.504 OA
ATOM     20  H   UNL     1       0.204 110.140 183.399  1.00  0.00     0.293 HD
ENDBRANCH  16  19
BRANCH  18  21
ATOM     21  O   UNL     1       2.655 111.912 184.197  1.00  0.00    -0.504 OA
ATOM     22  H   UNL     1       3.287 112.632 184.529  1.00  0.00     0.293 HD
ENDBRANCH  18  21
ENDBRANCH   3  13
BRANCH   9  23
ATOM     23  O   UNL     1       4.775 103.388 178.008  1.00  0.00    -0.507 OA
ATOM     24  H   UNL     1       5.569 103.236 177.399  1.00  0.00     0.293 HD
ENDBRANCH   9  23
BRANCH   7  25
ATOM     25  O   UNL     1       1.210 105.579 175.644  1.00  0.00    -0.508 OA
ATOM     26  H   UNL     1       1.121 106.357 174.999  1.00  0.00     0.293 HD
ENDBRANCH   7  25
TORSDOF 6
ENDMDL
MODEL 3
REMARK VINA RESULT:    -5.336      1.388      1.965
REMARK INTER + INTRA:          -6.796
REMARK INTER:                  -6.441
REMARK INTRA:                  -0.355
REMARK UNBOUND:                -0.368
REMARK SMILES Oc1cc(O)c2c(c1)O[C@@H](c1ccc(O)c(O)c1)[C@H](O)C2
REMARK SMILES IDX 21 1 19 2 10 3 9 4 7 5 8 6 2 7 3 8 4 9 6 10 20 11 11 13
REMARK SMILES IDX 18 14 12 15 16 16 13 17 14 18 17 19 15 21 5 23 1 25
REMARK H PARENT 20 12 17 20 15 22 5 24 1 26
REMARK Flexibility Score: inf
ROOT
ATOM      1  C   UNL     1       3.788 106.356 181.559  1.00  0.00     0.079 C 
ATOM      2  C   UNL     1       3.978 107.551 182.513  1.00  0.00     0.164 C 
ATOM      3  C   UNL     1       4.449 108.792 181.729  1.00  0.00     0.232 C 
ATOM      4  O   UNL     1       3.516 109.085 180.689  1.00  0.00    -0.482 OA
ATOM      5  C   UNL     1       2.885 108.081 179.945  1.00  0.00     0.131 A 
ATOM      6  C   UNL     1       2.134 108.441 178.823  1.00  0.00     0.093 A 
ATOM      7  C   UNL     1       1.505 107.461 178.050  1.00  0.00     0.122 A 
ATOM      8  C   UNL     1       1.636 106.114 178.396  1.00  0.00     0.092 A 
ATOM      9  C   UNL     1       2.386 105.734 179.516  1.00  0.00     0.126 A 
ATOM     10  C   UNL     1       2.989 106.724 180.327  1.00  0.00     0.039 A 
ENDROOT
BRANCH   2  11
ATOM     11  O   UNL     1       4.877 107.223 183.544  1.00  0.00    -0.389 OA
ATOM     12  H   UNL     1       4.667 106.301 183.845  1.00  0.00     0.211 HD
ENDBRANCH   2  11
BRANCH   3  13
ATOM     13  C   UNL     1       4.592 109.991 182.636  1.00  0.00    -0.001 A 
ATOM     14  C   UNL     1       3.450 110.671 183.094  1.00  0.00     0.057 A 
ATOM     15  C   UNL     1       5.864 110.472 182.991  1.00  0.00     0.012 A 
ATOM     16  C   UNL     1       3.579 111.803 183.913  1.00  0.00     0.157 A 
ATOM     17  C   UNL     1       5.991 111.598 183.807  1.00  0.00     0.050 A 
ATOM     18  C   UNL     1       4.850 112.265 184.271  1.00  0.00     0.157 A 
BRANCH  16  19
ATOM     19  O   UNL     1       2.445 112.473 184.372  1.00  0.00    -0.504 OA
ATOM     20  H   UNL     1       1.810 112.939 183.734  1.00  0.00     0.293 HD
ENDBRANCH  16  19
BRANCH  18  21
ATOM     21  O   UNL     1       4.973 113.389 185.086  1.00  0.00    -0.504 OA
ATOM     22  H   UNL     1       5.344 114.263 184.731  1.00  0.00     0.293 HD
ENDBRANCH  18  21
ENDBRANCH   3  13
BRANCH   9  23
ATOM     23  O   UNL     1       2.519 104.369 179.784  1.00  0.00    -0.507 OA
ATOM     24  H   UNL     1       2.826 103.694 179.096  1.00  0.00     0.293 HD
ENDBRANCH   9  23
BRANCH   7  25
ATOM     25  O   UNL     1       0.752 107.812 176.932  1.00  0.00    -0.508 OA
ATOM     26  H   UNL     1       1.191 108.155 176.085  1.00  0.00     0.293 HD
ENDBRANCH   7  25
TORSDOF 6
ENDMDL
MODEL 4
REMARK VINA RESULT:    -5.223      1.708      7.395
REMARK INTER + INTRA:          -6.659
REMARK INTER:                  -6.348
REMARK INTRA:                  -0.311
REMARK UNBOUND:                -0.368
REMARK SMILES Oc1cc(O)c2c(c1)O[C@@H](c1ccc(O)c(O)c1)[C@H](O)C2
REMARK SMILES IDX 21 1 19 2 10 3 9 4 7 5 8 6 2 7 3 8 4 9 6 10 20 11 11 13
REMARK SMILES IDX 18 14 12 15 16 16 13 17 14 18 17 19 15 21 5 23 1 25
REMARK H PARENT 20 12 17 20 15 22 5 24 1 26
REMARK Flexibility Score: inf
ROOT
ATOM      1  C   UNL     1       2.799 110.764 183.512  1.00  0.00     0.079 C 
ATOM      2  C   UNL     1       2.642 109.374 182.866  1.00  0.00     0.164 C 
ATOM      3  C   UNL     1       3.213 109.381 181.435  1.00  0.00     0.232 C 
ATOM      4  O   UNL     1       4.577 109.802 181.464  1.00  0.00    -0.482 OA
ATOM      5  C   UNL     1       5.030 110.814 182.320  1.00  0.00     0.131 A 
ATOM      6  C   UNL     1       6.329 111.302 182.161  1.00  0.00     0.093 A 
ATOM      7  C   UNL     1       6.805 112.323 182.990  1.00  0.00     0.122 A 
ATOM      8  C   UNL     1       5.974 112.863 183.974  1.00  0.00     0.092 A 
ATOM      9  C   UNL     1       4.669 112.386 184.147  1.00  0.00     0.126 A 
ATOM     10  C   UNL     1       4.196 111.324 183.341  1.00  0.00     0.039 A 
ENDROOT
BRANCH   2  11
ATOM     11  O   UNL     1       1.294 108.972 182.880  1.00  0.00    -0.389 OA
ATOM     12  H   UNL     1       0.886 109.314 183.718  1.00  0.00     0.211 HD
ENDBRANCH   2  11
BRANCH   3  13
ATOM     13  C   UNL     1       3.117 108.013 180.801  1.00  0.00    -0.001 A 
ATOM     14  C   UNL     1       2.094 107.731 179.880  1.00  0.00     0.057 A 
ATOM     15  C   UNL     1       4.015 106.994 181.161  1.00  0.00     0.012 A 
ATOM     16  C   UNL     1       1.982 106.453 179.312  1.00  0.00     0.157 A 
ATOM     17  C   UNL     1       3.905 105.723 180.595  1.00  0.00     0.050 A 
ATOM     18  C   UNL     1       2.890 105.449 179.668  1.00  0.00     0.157 A 
BRANCH  16  19
ATOM     19  O   UNL     1       0.970 106.177 178.393  1.00  0.00    -0.504 OA
ATOM     20  H   UNL     1      -0.005 106.349 178.611  1.00  0.00     0.293 HD
ENDBRANCH  16  19
BRANCH  18  21
ATOM     21  O   UNL     1       2.777 104.181 179.099  1.00  0.00    -0.504 OA
ATOM     22  H   UNL     1       3.572 103.556 179.035  1.00  0.00     0.293 HD
ENDBRANCH  18  21
ENDBRANCH   3  13
BRANCH   9  23
ATOM     23  O   UNL     1       3.871 112.997 185.117  1.00  0.00    -0.507 OA
ATOM     24  H   UNL     1       2.988 113.446 184.910  1.00  0.00     0.293 HD
ENDBRANCH   9  23
BRANCH   7  25
ATOM     25  O   UNL     1       8.100 112.815 182.840  1.00  0.00    -0.508 OA
ATOM     26  H   UNL     1       8.611 112.704 181.971  1.00  0.00     0.293 HD
ENDBRANCH   7  25
TORSDOF 6
ENDMDL
MODEL 5
REMARK VINA RESULT:    -5.207      3.366      8.343
REMARK INTER + INTRA:          -6.641
REMARK INTER:                  -6.264
REMARK INTRA:                  -0.377
REMARK UNBOUND:                -0.368
REMARK SMILES Oc1cc(O)c2c(c1)O[C@@H](c1ccc(O)c(O)c1)[C@H](O)C2
REMARK SMILES IDX 21 1 19 2 10 3 9 4 7 5 8 6 2 7 3 8 4 9 6 10 20 11 11 13
REMARK SMILES IDX 18 14 12 15 16 16 13 17 14 18 17 19 15 21 5 23 1 25
REMARK H PARENT 20 12 17 20 15 22 5 24 1 26
REMARK Flexibility Score: inf
ROOT
ATOM      1  C   UNL     1       3.120 105.695 180.210  1.00  0.00     0.079 C 
ATOM      2  C   UNL     1       3.319 104.732 179.023  1.00  0.00     0.164 C 
ATOM      3  C   UNL     1       4.374 105.295 178.050  1.00  0.00     0.232 C 
ATOM      4  O   UNL     1       5.594 105.535 178.750  1.00  0.00    -0.482 OA
ATOM      5  C   UNL     1       5.621 106.040 180.056  1.00  0.00     0.131 A 
ATOM      6  C   UNL     1       6.845 106.427 180.606  1.00  0.00     0.093 A 
ATOM      7  C   UNL     1       6.903 106.950 181.901  1.00  0.00     0.122 A 
ATOM      8  C   UNL     1       5.729 107.095 182.645  1.00  0.00     0.092 A 
ATOM      9  C   UNL     1       4.493 106.713 182.109  1.00  0.00     0.126 A 
ATOM     10  C   UNL     1       4.434 106.143 180.815  1.00  0.00     0.039 A 
ENDROOT
BRANCH   2  11
ATOM     11  O   UNL     1       2.097 104.490 178.373  1.00  0.00    -0.389 OA
ATOM     12  H   UNL     1       1.486 104.061 179.028  1.00  0.00     0.211 HD
ENDBRANCH   2  11
BRANCH   3  13
ATOM     13  C   UNL     1       4.624 104.342 176.905  1.00  0.00    -0.001 A 
ATOM     14  C   UNL     1       5.173 103.071 177.150  1.00  0.00     0.057 A 
ATOM     15  C   UNL     1       4.361 104.731 175.581  1.00  0.00     0.012 A 
ATOM     16  C   UNL     1       5.435 102.194 176.086  1.00  0.00     0.157 A 
ATOM     17  C   UNL     1       4.620 103.857 174.523  1.00  0.00     0.050 A 
ATOM     18  C   UNL     1       5.157 102.587 174.772  1.00  0.00     0.157 A 
BRANCH  16  19
ATOM     19  O   UNL     1       5.974 100.932 176.331  1.00  0.00    -0.504 OA
ATOM     20  H   UNL     1       6.309 100.667 177.251  1.00  0.00     0.293 HD
ENDBRANCH  16  19
BRANCH  18  21
ATOM     21  O   UNL     1       5.417 101.712 173.719  1.00  0.00    -0.504 OA
ATOM     22  H   UNL     1       5.677 100.746 173.884  1.00  0.00     0.293 HD
ENDBRANCH  18  21
ENDBRANCH   3  13
BRANCH   9  23
ATOM     23  O   UNL     1       3.350 106.924 182.883  1.00  0.00    -0.507 OA
ATOM     24  H   UNL     1       2.409 106.850 182.518  1.00  0.00     0.293 HD
ENDBRANCH   9  23
BRANCH   7  25
ATOM     25  O   UNL     1       8.120 107.337 182.458  1.00  0.00    -0.508 OA
ATOM     26  H   UNL     1       8.858 106.665 182.636  1.00  0.00     0.293 HD
ENDBRANCH   7  25
TORSDOF 6
ENDMDL
MODEL 6
REMARK VINA RESULT:    -5.184      1.511      2.876
REMARK INTER + INTRA:          -6.612
REMARK INTER:                  -6.290
REMARK INTRA:                  -0.323
REMARK UNBOUND:                -0.368
REMARK SMILES Oc1cc(O)c2c(c1)O[C@@H](c1ccc(O)c(O)c1)[C@H](O)C2
REMARK SMILES IDX 21 1 19 2 10 3 9 4 7 5 8 6 2 7 3 8 4 9 6 10 20 11 11 13
REMARK SMILES IDX 18 14 12 15 16 16 13 17 14 18 17 19 15 21 5 23 1 25
REMARK H PARENT 20 12 17 20 15 22 5 24 1 26
REMARK Flexibility Score: inf
ROOT
ATOM      1  C   UNL     1       1.501 106.716 178.609  1.00  0.00     0.079 C 
ATOM      2  C   UNL     1       1.696 107.952 179.508  1.00  0.00     0.164 C 
ATOM      3  C   UNL     1       2.482 107.571 180.777  1.00  0.00     0.232 C 
ATOM      4  O   UNL     1       3.728 106.978 180.411  1.00  0.00    -0.482 OA
ATOM      5  C   UNL     1       3.852 106.111 179.319  1.00  0.00     0.131 A 
ATOM      6  C   UNL     1       5.053 105.423 179.135  1.00  0.00     0.093 A 
ATOM      7  C   UNL     1       5.203 104.537 178.063  1.00  0.00     0.122 A 
ATOM      8  C   UNL     1       4.142 104.333 177.178  1.00  0.00     0.092 A 
ATOM      9  C   UNL     1       2.929 105.013 177.348  1.00  0.00     0.126 A 
ATOM     10  C   UNL     1       2.787 105.943 178.405  1.00  0.00     0.039 A 
ENDROOT
BRANCH   2  11
ATOM     11  O   UNL     1       0.455 108.532 179.826  1.00  0.00    -0.389 OA
ATOM     12  H   UNL     1       0.303 109.283 179.194  1.00  0.00     0.211 HD
ENDBRANCH   2  11
BRANCH   3  13
ATOM     13  C   UNL     1       2.731 108.779 181.650  1.00  0.00    -0.001 A 
ATOM     14  C   UNL     1       3.783 109.661 181.351  1.00  0.00     0.057 A 
ATOM     15  C   UNL     1       1.949 109.007 182.795  1.00  0.00     0.012 A 
ATOM     16  C   UNL     1       4.037 110.768 182.176  1.00  0.00     0.157 A 
ATOM     17  C   UNL     1       2.201 110.109 183.614  1.00  0.00     0.050 A 
ATOM     18  C   UNL     1       3.244 110.993 183.307  1.00  0.00     0.157 A 
BRANCH  16  19
ATOM     19  O   UNL     1       5.078 111.646 181.875  1.00  0.00    -0.504 OA
ATOM     20  H   UNL     1       6.032 111.453 182.157  1.00  0.00     0.293 HD
ENDBRANCH  16  19
BRANCH  18  21
ATOM     21  O   UNL     1       3.498 112.095 184.122  1.00  0.00    -0.504 OA
ATOM     22  H   UNL     1       3.429 112.035 185.131  1.00  0.00     0.293 HD
ENDBRANCH  18  21
ENDBRANCH   3  13
BRANCH   9  23
ATOM     23  O   UNL     1       1.890 104.732 176.458  1.00  0.00    -0.507 OA
ATOM     24  H   UNL     1       1.143 105.383 176.252  1.00  0.00     0.293 HD
ENDBRANCH   9  23
BRANCH   7  25
ATOM     25  O   UNL     1       6.399 103.849 177.871  1.00  0.00    -0.508 OA
ATOM     26  H   UNL     1       7.198 104.289 177.429  1.00  0.00     0.293 HD
ENDBRANCH   7  25
TORSDOF 6
ENDMDL
MODEL 7
REMARK VINA RESULT:    -5.114      3.424      5.625
REMARK INTER + INTRA:          -6.529
REMARK INTER:                  -6.171
REMARK INTRA:                  -0.357
REMARK UNBOUND:                -0.368
REMARK SMILES Oc1cc(O)c2c(c1)O[C@@H](c1ccc(O)c(O)c1)[C@H](O)C2
REMARK SMILES IDX 21 1 19 2 10 3 9 4 7 5 8 6 2 7 3 8 4 9 6 10 20 11 11 13
REMARK SMILES IDX 18 14 12 15 16 16 13 17 14 18 17 19 15 21 5 23 1 25
REMARK H PARENT 20 12 17 20 15 22 5 24 1 26
REMARK Flexibility Score: inf
ROOT
ATOM      1  C   UNL     1       6.399 105.873 180.598  1.00  0.00     0.079 C 
ATOM      2  C   UNL     1       5.675 107.178 180.981  1.00  0.00     0.164 C 
ATOM      3  C   UNL     1       5.077 107.063 182.397  1.00  0.00     0.232 C 
ATOM      4  O   UNL     1       6.107 106.734 183.328  1.00  0.00    -0.482 OA
ATOM      5  C   UNL     1       7.143 105.845 183.016  1.00  0.00     0.131 A 
ATOM      6  C   UNL     1       8.004 105.426 184.033  1.00  0.00     0.093 A 
ATOM      7  C   UNL     1       9.038 104.526 183.756  1.00  0.00     0.122 A 
ATOM      8  C   UNL     1       9.203 104.036 182.459  1.00  0.00     0.092 A 
ATOM      9  C   UNL     1       8.350 104.445 181.427  1.00  0.00     0.126 A 
ATOM     10  C   UNL     1       7.328 105.388 181.691  1.00  0.00     0.039 A 
ENDROOT
BRANCH   2  11
ATOM     11  O   UNL     1       4.688 107.493 180.030  1.00  0.00    -0.389 OA
ATOM     12  H   UNL     1       4.627 106.731 179.396  1.00  0.00     0.211 HD
ENDBRANCH   2  11
BRANCH   3  13
ATOM     13  C   UNL     1       4.407 108.351 182.813  1.00  0.00    -0.001 A 
ATOM     14  C   UNL     1       3.007 108.416 182.925  1.00  0.00     0.057 A 
ATOM     15  C   UNL     1       5.167 109.510 183.044  1.00  0.00     0.012 A 
ATOM     16  C   UNL     1       2.379 109.618 183.282  1.00  0.00     0.157 A 
ATOM     17  C   UNL     1       4.541 110.706 183.402  1.00  0.00     0.050 A 
ATOM     18  C   UNL     1       3.147 110.763 183.523  1.00  0.00     0.157 A 
BRANCH  16  19
ATOM     19  O   UNL     1       0.991 109.680 183.398  1.00  0.00    -0.504 OA
ATOM     20  H   UNL     1       0.544 110.110 184.201  1.00  0.00     0.293 HD
ENDBRANCH  16  19
BRANCH  18  21
ATOM     21  O   UNL     1       2.518 111.955 183.880  1.00  0.00    -0.504 OA
ATOM     22  H   UNL     1       1.516 112.074 183.786  1.00  0.00     0.293 HD
ENDBRANCH  18  21
ENDBRANCH   3  13
BRANCH   9  23
ATOM     23  O   UNL     1       8.537 103.885 180.161  1.00  0.00    -0.507 OA
ATOM     24  H   UNL     1       8.524 104.427 179.306  1.00  0.00     0.293 HD
ENDBRANCH   9  23
BRANCH   7  25
ATOM     25  O   UNL     1       9.902 104.104 184.764  1.00  0.00    -0.508 OA
ATOM     26  H   UNL     1      10.646 103.440 184.581  1.00  0.00     0.293 HD
ENDBRANCH   7  25
TORSDOF 6
ENDMDL
MODEL 8
REMARK VINA RESULT:    -5.078      2.878      8.116
REMARK INTER + INTRA:          -6.485
REMARK INTER:                  -6.254
REMARK INTRA:                  -0.231
REMARK UNBOUND:                -0.368
REMARK SMILES Oc1cc(O)c2c(c1)O[C@@H](c1ccc(O)c(O)c1)[C@H](O)C2
REMARK SMILES IDX 21 1 19 2 10 3 9 4 7 5 8 6 2 7 3 8 4 9 6 10 20 11 11 13
REMARK SMILES IDX 18 14 12 15 16 16 13 17 14 18 17 19 15 21 5 23 1 25
REMARK H PARENT 20 12 17 20 15 22 5 24 1 26
REMARK Flexibility Score: inf
ROOT
ATOM      1  C   UNL     1       1.584 106.671 177.821  1.00  0.00     0.079 C 
ATOM      2  C   UNL     1       2.214 105.434 177.152  1.00  0.00     0.164 C 
ATOM      3  C   UNL     1       3.730 105.641 176.966  1.00  0.00     0.232 C 
ATOM      4  O   UNL     1       4.334 105.930 178.226  1.00  0.00    -0.482 OA
ATOM      5  C   UNL     1       3.711 106.733 179.189  1.00  0.00     0.131 A 
ATOM      6  C   UNL     1       4.438 107.126 180.314  1.00  0.00     0.093 A 
ATOM      7  C   UNL     1       3.848 107.942 181.286  1.00  0.00     0.122 A 
ATOM      8  C   UNL     1       2.530 108.372 181.124  1.00  0.00     0.092 A 
ATOM      9  C   UNL     1       1.786 107.989 180.001  1.00  0.00     0.126 A 
ATOM     10  C   UNL     1       2.362 107.129 179.036  1.00  0.00     0.039 A 
ENDROOT
BRANCH   2  11
ATOM     11  O   UNL     1       1.579 105.156 175.929  1.00  0.00    -0.389 OA
ATOM     12  H   UNL     1       0.778 105.740 175.865  1.00  0.00     0.211 HD
ENDBRANCH   2  11
BRANCH   3  13
ATOM     13  C   UNL     1       4.378 104.418 176.359  1.00  0.00    -0.001 A 
ATOM     14  C   UNL     1       4.907 103.414 177.188  1.00  0.00     0.057 A 
ATOM     15  C   UNL     1       4.506 104.294 174.966  1.00  0.00     0.012 A 
ATOM     16  C   UNL     1       5.536 102.291 176.630  1.00  0.00     0.157 A 
ATOM     17  C   UNL     1       5.131 103.176 174.410  1.00  0.00     0.050 A 
ATOM     18  C   UNL     1       5.646 102.171 175.240  1.00  0.00     0.157 A 
BRANCH  16  19
ATOM     19  O   UNL     1       6.055 101.293 177.453  1.00  0.00    -0.504 OA
ATOM     20  H   UNL     1       5.835 101.253 178.442  1.00  0.00     0.293 HD
ENDBRANCH  16  19
BRANCH  18  21
ATOM     21  O   UNL     1       6.271 101.053 174.690  1.00  0.00    -0.504 OA
ATOM     22  H   UNL     1       5.886 100.122 174.802  1.00  0.00     0.293 HD
ENDBRANCH  18  21
ENDBRANCH   3  13
BRANCH   9  23
ATOM     23  O   UNL     1       0.488 108.488 179.872  1.00  0.00    -0.507 OA
ATOM     24  H   UNL     1       0.034 108.635 178.980  1.00  0.00     0.293 HD
ENDBRANCH   9  23
BRANCH   7  25
ATOM     25  O   UNL     1       4.565 108.337 182.413  1.00  0.00    -0.508 OA
ATOM     26  H   UNL     1       4.225 109.068 183.028  1.00  0.00     0.293 HD
ENDBRANCH   7  25
TORSDOF 6
ENDMDL
MODEL 9
REMARK VINA RESULT:    -4.920      1.533      7.027
REMARK INTER + INTRA:          -6.295
REMARK INTER:                  -6.204
REMARK INTRA:                  -0.091
REMARK UNBOUND:                -0.368
REMARK SMILES Oc1cc(O)c2c(c1)O[C@@H](c1ccc(O)c(O)c1)[C@H](O)C2
REMARK SMILES IDX 21 1 19 2 10 3 9 4 7 5 8 6 2 7 3 8 4 9 6 10 20 11 11 13
REMARK SMILES IDX 18 14 12 15 16 16 13 17 14 18 17 19 15 21 5 23 1 25
REMARK H PARENT 20 12 17 20 15 22 5 24 1 26
REMARK Flexibility Score: inf
ROOT
ATOM      1  C   UNL     1       5.952 109.214 182.572  1.00  0.00     0.079 C 
ATOM      2  C   UNL     1       5.219 108.481 181.433  1.00  0.00     0.164 C 
ATOM      3  C   UNL     1       3.811 108.051 181.891  1.00  0.00     0.232 C 
ATOM      4  O   UNL     1       3.084 109.193 182.343  1.00  0.00    -0.482 OA
ATOM      5  C   UNL     1       3.687 110.225 183.072  1.00  0.00     0.131 A 
ATOM      6  C   UNL     1       2.880 111.213 183.641  1.00  0.00     0.093 A 
ATOM      7  C   UNL     1       3.452 112.248 184.388  1.00  0.00     0.122 A 
ATOM      8  C   UNL     1       4.836 112.288 184.573  1.00  0.00     0.092 A 
ATOM      9  C   UNL     1       5.660 111.306 184.011  1.00  0.00     0.126 A 
ATOM     10  C   UNL     1       5.092 110.281 183.218  1.00  0.00     0.039 A 
ENDROOT
BRANCH   2  11
ATOM     11  O   UNL     1       5.973 107.380 180.988  1.00  0.00    -0.389 OA
ATOM     12  H   UNL     1       5.542 106.558 181.341  1.00  0.00     0.211 HD
ENDBRANCH   2  11
BRANCH   3  13
ATOM     13  C   UNL     1       3.054 107.376 180.772  1.00  0.00    -0.001 A 
ATOM     14  C   UNL     1       3.299 106.027 180.466  1.00  0.00     0.057 A 
ATOM     15  C   UNL     1       2.136 108.100 179.992  1.00  0.00     0.012 A 
ATOM     16  C   UNL     1       2.620 105.404 179.408  1.00  0.00     0.157 A 
ATOM     17  C   UNL     1       1.459 107.480 178.940  1.00  0.00     0.050 A 
ATOM     18  C   UNL     1       1.698 106.130 178.646  1.00  0.00     0.157 A 
BRANCH  16  19
ATOM     19  O   UNL     1       2.859 104.063 179.110  1.00  0.00    -0.504 OA
ATOM     20  H   UNL     1       2.100 103.402 178.992  1.00  0.00     0.293 HD
ENDBRANCH  16  19
BRANCH  18  21
ATOM     21  O   UNL     1       1.024 105.507 177.597  1.00  0.00    -0.504 OA
ATOM     22  H   UNL     1       0.472 104.670 177.744  1.00  0.00     0.293 HD
ENDBRANCH  18  21
ENDBRANCH   3  13
BRANCH   9  23
ATOM     23  O   UNL     1       7.031 111.375 184.269  1.00  0.00    -0.507 OA
ATOM     24  H   UNL     1       7.436 111.191 185.178  1.00  0.00     0.293 HD
ENDBRANCH   9  23
BRANCH   7  25
ATOM     25  O   UNL     1       2.654 113.238 184.957  1.00  0.00    -0.508 OA
ATOM     26  H   UNL     1       2.653 114.187 184.601  1.00  0.00     0.293 HD
ENDBRANCH   7  25
TORSDOF 6
ENDMDL
