MODEL 1
REMARK VINA RESULT:    -4.290      0.000      0.000
REMARK INTER + INTRA:          -6.966
REMARK INTER:                  -6.296
REMARK INTRA:                  -0.670
REMARK UNBOUND:                -0.670
REMARK SMILES O=C([O-])CCCCCCCC(=O)[O-]
REMARK SMILES IDX 7 1 6 2 5 3 4 4 2 5 1 6 3 7 8 8 9 9 10 10 11 11 12 12 13 13
REMARK H PARENT
REMARK Flexibility Score: inf
ROOT
ATOM      1  C   UNL     1      29.521   0.102  31.476  1.00  0.00     0.000 C 
ENDROOT
BRANCH   1   2
ATOM      2  C   UNL     1      28.092  -0.296  31.888  1.00  0.00     0.000 C 
BRANCH   2   3
ATOM      3  C   UNL     1      27.014   0.771  31.605  1.00  0.00     0.006 C 
BRANCH   3   4
ATOM      4  C   UNL     1      26.104   0.458  30.406  1.00  0.00     0.053 C 
BRANCH   4   5
ATOM      5  C   UNL     1      26.630   1.044  29.133  1.00  0.00     0.041 C 
ATOM      6  O   UNL     1      26.267   0.574  28.022  1.00  0.00    -0.550 OA
ATOM      7  O   UNL     1      27.493   2.132  29.170  1.00  0.00    -0.550 OA
ENDBRANCH   4   5
ENDBRANCH   3   4
ENDBRANCH   2   3
ENDBRANCH   1   2
BRANCH   1   8
ATOM      8  C   UNL     1      29.990  -0.600  30.191  1.00  0.00     0.000 C 
BRANCH   8   9
ATOM      9  C   UNL     1      29.055  -1.746  29.764  1.00  0.00     0.006 C 
BRANCH   9  10
ATOM     10  C   UNL     1      29.742  -3.120  29.679  1.00  0.00     0.053 C 
BRANCH  10  11
ATOM     11  C   UNL     1      28.867  -4.219  30.197  1.00  0.00     0.041 C 
ATOM     12  O   UNL     1      29.262  -5.414  30.161  1.00  0.00    -0.550 OA
ATOM     13  O   UNL     1      27.627  -3.920  30.748  1.00  0.00    -0.550 OA
ENDBRANCH  10  11
ENDBRANCH   9  10
ENDBRANCH   8   9
ENDBRANCH   1   8
TORSDOF 8
ENDMDL
MODEL 2
REMARK VINA RESULT:    -4.286      2.629      6.079
REMARK INTER + INTRA:          -6.961
REMARK INTER:                  -6.325
REMARK INTRA:                  -0.635
REMARK UNBOUND:                -0.670
REMARK SMILES O=C([O-])CCCCCCCC(=O)[O-]
REMARK SMILES IDX 7 1 6 2 5 3 4 4 2 5 1 6 3 7 8 8 9 9 10 10 11 11 12 12 13 13
REMARK H PARENT
REMARK Flexibility Score: inf
ROOT
ATOM      1  C   UNL     1      26.311   0.563  29.992  1.00  0.00     0.000 C 
ENDROOT
BRANCH   1   2
ATOM      2  C   UNL     1      26.881   0.886  31.384  1.00  0.00     0.000 C 
BRANCH   2   3
ATOM      3  C   UNL     1      27.886  -0.149  31.931  1.00  0.00     0.006 C 
BRANCH   3   4
ATOM      4  C   UNL     1      29.359   0.278  31.833  1.00  0.00     0.053 C 
BRANCH   4   5
ATOM      5  C   UNL     1      30.008  -0.221  30.579  1.00  0.00     0.041 C 
ATOM      6  O   UNL     1      31.096   0.276  30.186  1.00  0.00    -0.550 OA
ATOM      7  O   UNL     1      29.429  -1.261  29.862  1.00  0.00    -0.550 OA
ENDBRANCH   4   5
ENDBRANCH   3   4
ENDBRANCH   2   3
ENDBRANCH   1   2
BRANCH   1   8
ATOM      8  C   UNL     1      26.868   1.480  28.890  1.00  0.00     0.000 C 
BRANCH   8   9
ATOM      9  C   UNL     1      27.794   2.579  29.443  1.00  0.00     0.006 C 
BRANCH   9  10
ATOM     10  C   UNL     1      27.445   3.997  28.960  1.00  0.00     0.053 C 
BRANCH  10  11
ATOM     11  C   UNL     1      27.684   5.027  30.021  1.00  0.00     0.041 C 
ATOM     12  O   UNL     1      27.923   4.673  31.205  1.00  0.00    -0.550 OA
ATOM     13  O   UNL     1      27.674   6.378  29.695  1.00  0.00    -0.550 OA
ENDBRANCH  10  11
ENDBRANCH   9  10
ENDBRANCH   8   9
ENDBRANCH   1   8
TORSDOF 8
ENDMDL
MODEL 3
REMARK VINA RESULT:    -4.220      2.085      3.213
REMARK INTER + INTRA:          -6.864
REMARK INTER:                  -6.263
REMARK INTRA:                  -0.601
REMARK UNBOUND:                -0.670
REMARK SMILES O=C([O-])CCCCCCCC(=O)[O-]
REMARK SMILES IDX 7 1 6 2 5 3 4 4 2 5 1 6 3 7 8 8 9 9 10 10 11 11 12 12 13 13
REMARK H PARENT
REMARK Flexibility Score: inf
ROOT
ATOM      1  C   UNL     1      26.692   0.004  29.435  1.00  0.00     0.000 C 
ENDROOT
BRANCH   1   2
ATOM      2  C   UNL     1      28.053  -0.152  28.734  1.00  0.00     0.000 C 
BRANCH   2   3
ATOM      3  C   UNL     1      29.047   1.003  28.981  1.00  0.00     0.006 C 
BRANCH   3   4
ATOM      4  C   UNL     1      30.072   0.736  30.094  1.00  0.00     0.053 C 
BRANCH   4   5
ATOM      5  C   UNL     1      29.595   1.225  31.427  1.00  0.00     0.041 C 
ATOM      6  O   UNL     1      30.017   0.691  32.486  1.00  0.00    -0.550 OA
ATOM      7  O   UNL     1      28.710   2.293  31.501  1.00  0.00    -0.550 OA
ENDBRANCH   4   5
ENDBRANCH   3   4
ENDBRANCH   2   3
ENDBRANCH   1   2
BRANCH   1   8
ATOM      8  C   UNL     1      26.490  -1.003  30.579  1.00  0.00     0.000 C 
BRANCH   8   9
ATOM      9  C   UNL     1      27.618  -2.047  30.660  1.00  0.00     0.006 C 
BRANCH   9  10
ATOM     10  C   UNL     1      27.130  -3.484  30.910  1.00  0.00     0.053 C 
BRANCH  10  11
ATOM     11  C   UNL     1      28.206  -4.495  30.661  1.00  0.00     0.041 C 
ATOM     12  O   UNL     1      29.045  -4.312  29.740  1.00  0.00    -0.550 OA
ATOM     13  O   UNL     1      28.302  -5.622  31.466  1.00  0.00    -0.550 OA
ENDBRANCH  10  11
ENDBRANCH   9  10
ENDBRANCH   8   9
ENDBRANCH   1   8
TORSDOF 8
ENDMDL
MODEL 4
REMARK VINA RESULT:    -4.199      2.706      4.249
REMARK INTER + INTRA:          -6.833
REMARK INTER:                  -6.268
REMARK INTRA:                  -0.565
REMARK UNBOUND:                -0.670
REMARK SMILES O=C([O-])CCCCCCCC(=O)[O-]
REMARK SMILES IDX 7 1 6 2 5 3 4 4 2 5 1 6 3 7 8 8 9 9 10 10 11 11 12 12 13 13
REMARK H PARENT
REMARK Flexibility Score: inf
ROOT
ATOM      1  C   UNL     1      26.508   0.592  29.812  1.00  0.00     0.000 C 
ENDROOT
BRANCH   1   2
ATOM      2  C   UNL     1      26.817   1.692  28.782  1.00  0.00     0.000 C 
BRANCH   2   3
ATOM      3  C   UNL     1      27.726   2.828  29.297  1.00  0.00     0.006 C 
BRANCH   3   4
ATOM      4  C   UNL     1      27.243   4.243  28.942  1.00  0.00     0.053 C 
BRANCH   4   5
ATOM      5  C   UNL     1      27.774   5.273  29.890  1.00  0.00     0.041 C 
ATOM      6  O   UNL     1      28.323   6.317  29.450  1.00  0.00    -0.550 OA
ATOM      7  O   UNL     1      27.632   5.097  31.261  1.00  0.00    -0.550 OA
ENDBRANCH   4   5
ENDBRANCH   3   4
ENDBRANCH   2   3
ENDBRANCH   1   2
BRANCH   1   8
ATOM      8  C   UNL     1      26.893   0.991  31.246  1.00  0.00     0.000 C 
BRANCH   8   9
ATOM      9  C   UNL     1      27.770  -0.066  31.943  1.00  0.00     0.006 C 
BRANCH   9  10
ATOM     10  C   UNL     1      29.271   0.270  31.953  1.00  0.00     0.053 C 
BRANCH  10  11
ATOM     11  C   UNL     1      29.948  -0.140  30.682  1.00  0.00     0.041 C 
ATOM     12  O   UNL     1      30.763   0.636  30.119  1.00  0.00    -0.550 OA
ATOM     13  O   UNL     1      29.703  -1.394  30.136  1.00  0.00    -0.550 OA
ENDBRANCH  10  11
ENDBRANCH   9  10
ENDBRANCH   8   9
ENDBRANCH   1   8
TORSDOF 8
ENDMDL
MODEL 5
REMARK VINA RESULT:    -4.159      1.097      5.254
REMARK INTER + INTRA:          -6.775
REMARK INTER:                  -6.129
REMARK INTRA:                  -0.646
REMARK UNBOUND:                -0.670
REMARK SMILES O=C([O-])CCCCCCCC(=O)[O-]
REMARK SMILES IDX 7 1 6 2 5 3 4 4 2 5 1 6 3 7 8 8 9 9 10 10 11 11 12 12 13 13
REMARK H PARENT
REMARK Flexibility Score: inf
ROOT
ATOM      1  C   UNL     1      27.953  -0.292  31.944  1.00  0.00     0.000 C 
ENDROOT
BRANCH   1   2
ATOM      2  C   UNL     1      29.420   0.056  31.630  1.00  0.00     0.000 C 
BRANCH   2   3
ATOM      3  C   UNL     1      30.008  -0.663  30.398  1.00  0.00     0.006 C 
BRANCH   3   4
ATOM      4  C   UNL     1      29.143  -1.812  29.856  1.00  0.00     0.053 C 
BRANCH   4   5
ATOM      5  C   UNL     1      29.880  -3.115  29.851  1.00  0.00     0.041 C 
ATOM      6  O   UNL     1      31.138  -3.133  29.920  1.00  0.00    -0.550 OA
ATOM      7  O   UNL     1      29.178  -4.313  29.807  1.00  0.00    -0.550 OA
ENDBRANCH   4   5
ENDBRANCH   3   4
ENDBRANCH   2   3
ENDBRANCH   1   2
BRANCH   1   8
ATOM      8  C   UNL     1      26.971   0.806  31.503  1.00  0.00     0.000 C 
BRANCH   8   9
ATOM      9  C   UNL     1      26.042   0.351  30.364  1.00  0.00     0.006 C 
BRANCH   9  10
ATOM     10  C   UNL     1      26.594   0.621  28.954  1.00  0.00     0.053 C 
BRANCH  10  11
ATOM     11  C   UNL     1      27.289   1.945  28.867  1.00  0.00     0.041 C 
ATOM     12  O   UNL     1      26.619   3.006  28.767  1.00  0.00    -0.550 OA
ATOM     13  O   UNL     1      28.676   2.009  28.928  1.00  0.00    -0.550 OA
ENDBRANCH  10  11
ENDBRANCH   9  10
ENDBRANCH   8   9
ENDBRANCH   1   8
TORSDOF 8
ENDMDL
MODEL 6
REMARK VINA RESULT:    -4.123      1.772      2.438
REMARK INTER + INTRA:          -6.722
REMARK INTER:                  -6.230
REMARK INTRA:                  -0.491
REMARK UNBOUND:                -0.670
REMARK SMILES O=C([O-])CCCCCCCC(=O)[O-]
REMARK SMILES IDX 7 1 6 2 5 3 4 4 2 5 1 6 3 7 8 8 9 9 10 10 11 11 12 12 13 13
REMARK H PARENT
REMARK Flexibility Score: inf
ROOT
ATOM      1  C   UNL     1      28.091   0.010  31.867  1.00  0.00     0.000 C 
ENDROOT
BRANCH   1   2
ATOM      2  C   UNL     1      27.170   1.142  31.379  1.00  0.00     0.000 C 
BRANCH   2   3
ATOM      3  C   UNL     1      27.902   2.360  30.777  1.00  0.00     0.006 C 
BRANCH   3   4
ATOM      4  C   UNL     1      27.749   2.508  29.254  1.00  0.00     0.053 C 
BRANCH   4   5
ATOM      5  C   UNL     1      27.202   3.849  28.873  1.00  0.00     0.041 C 
ATOM      6  O   UNL     1      27.700   4.898  29.359  1.00  0.00    -0.550 OA
ATOM      7  O   UNL     1      26.165   3.942  27.953  1.00  0.00    -0.550 OA
ENDBRANCH   4   5
ENDBRANCH   3   4
ENDBRANCH   2   3
ENDBRANCH   1   2
BRANCH   1   8
ATOM      8  C   UNL     1      29.574   0.266  31.549  1.00  0.00     0.000 C 
BRANCH   8   9
ATOM      9  C   UNL     1      30.090  -0.596  30.382  1.00  0.00     0.006 C 
BRANCH   9  10
ATOM     10  C   UNL     1      29.122  -1.708  29.945  1.00  0.00     0.053 C 
BRANCH  10  11
ATOM     11  C   UNL     1      29.808  -3.033  29.821  1.00  0.00     0.041 C 
ATOM     12  O   UNL     1      31.065  -3.102  29.859  1.00  0.00    -0.550 OA
ATOM     13  O   UNL     1      29.059  -4.196  29.696  1.00  0.00    -0.550 OA
ENDBRANCH  10  11
ENDBRANCH   9  10
ENDBRANCH   8   9
ENDBRANCH   1   8
TORSDOF 8
ENDMDL
MODEL 7
REMARK VINA RESULT:    -4.107      2.690      5.813
REMARK INTER + INTRA:          -6.698
REMARK INTER:                  -6.160
REMARK INTRA:                  -0.538
REMARK UNBOUND:                -0.670
REMARK SMILES O=C([O-])CCCCCCCC(=O)[O-]
REMARK SMILES IDX 7 1 6 2 5 3 4 4 2 5 1 6 3 7 8 8 9 9 10 10 11 11 12 12 13 13
REMARK H PARENT
REMARK Flexibility Score: inf
ROOT
ATOM      1  C   UNL     1      29.798   1.047  30.389  1.00  0.00     0.000 C 
ENDROOT
BRANCH   1   2
ATOM      2  C   UNL     1      29.816  -0.477  30.601  1.00  0.00     0.000 C 
BRANCH   2   3
ATOM      3  C   UNL     1      28.761  -1.258  29.789  1.00  0.00     0.006 C 
BRANCH   3   4
ATOM      4  C   UNL     1      27.362  -1.287  30.424  1.00  0.00     0.053 C 
BRANCH   4   5
ATOM      5  C   UNL     1      26.439  -0.289  29.795  1.00  0.00     0.041 C 
ATOM      6  O   UNL     1      25.402   0.087  30.404  1.00  0.00    -0.550 OA
ATOM      7  O   UNL     1      26.740   0.253  28.552  1.00  0.00    -0.550 OA
ENDBRANCH   4   5
ENDBRANCH   3   4
ENDBRANCH   2   3
ENDBRANCH   1   2
BRANCH   1   8
ATOM      8  C   UNL     1      29.121   1.804  31.544  1.00  0.00     0.000 C 
BRANCH   8   9
ATOM      9  C   UNL     1      28.035   2.781  31.060  1.00  0.00     0.006 C 
BRANCH   9  10
ATOM     10  C   UNL     1      28.160   4.199  31.641  1.00  0.00     0.053 C 
BRANCH  10  11
ATOM     11  C   UNL     1      27.997   5.254  30.590  1.00  0.00     0.041 C 
ATOM     12  O   UNL     1      27.489   4.964  29.476  1.00  0.00    -0.550 OA
ATOM     13  O   UNL     1      28.377   6.564  30.854  1.00  0.00    -0.550 OA
ENDBRANCH  10  11
ENDBRANCH   9  10
ENDBRANCH   8   9
ENDBRANCH   1   8
TORSDOF 8
ENDMDL
MODEL 8
REMARK VINA RESULT:    -4.064      3.299      4.551
REMARK INTER + INTRA:          -6.635
REMARK INTER:                  -6.173
REMARK INTRA:                  -0.462
REMARK UNBOUND:                -0.670
REMARK SMILES O=C([O-])CCCCCCCC(=O)[O-]
REMARK SMILES IDX 7 1 6 2 5 3 4 4 2 5 1 6 3 7 8 8 9 9 10 10 11 11 12 12 13 13
REMARK H PARENT
REMARK Flexibility Score: inf
ROOT
ATOM      1  C   UNL     1      29.122   1.937  31.669  1.00  0.00     0.000 C 
ENDROOT
BRANCH   1   2
ATOM      2  C   UNL     1      28.149   2.929  31.009  1.00  0.00     0.000 C 
BRANCH   2   3
ATOM      3  C   UNL     1      27.950   4.252  31.778  1.00  0.00     0.006 C 
BRANCH   3   4
ATOM      4  C   UNL     1      28.496   5.496  31.060  1.00  0.00     0.053 C 
BRANCH   4   5
ATOM      5  C   UNL     1      27.400   6.338  30.482  1.00  0.00     0.041 C 
ATOM      6  O   UNL     1      27.295   7.551  30.807  1.00  0.00    -0.550 OA
ATOM      7  O   UNL     1      26.516   5.794  29.559  1.00  0.00    -0.550 OA
ENDBRANCH   4   5
ENDBRANCH   3   4
ENDBRANCH   2   3
ENDBRANCH   1   2
BRANCH   1   8
ATOM      8  C   UNL     1      29.756   0.962  30.663  1.00  0.00     0.000 C 
BRANCH   8   9
ATOM      9  C   UNL     1      29.130   1.064  29.260  1.00  0.00     0.006 C 
BRANCH   9  10
ATOM     10  C   UNL     1      28.352  -0.190  28.825  1.00  0.00     0.053 C 
BRANCH  10  11
ATOM     11  C   UNL     1      26.876  -0.035  29.029  1.00  0.00     0.041 C 
ATOM     12  O   UNL     1      26.180   0.571  28.173  1.00  0.00    -0.550 OA
ATOM     13  O   UNL     1      26.266  -0.589  30.147  1.00  0.00    -0.550 OA
ENDBRANCH  10  11
ENDBRANCH   9  10
ENDBRANCH   8   9
ENDBRANCH   1   8
TORSDOF 8
ENDMDL
MODEL 9
REMARK VINA RESULT:    -4.043      2.364      5.458
REMARK INTER + INTRA:          -6.604
REMARK INTER:                  -6.139
REMARK INTRA:                  -0.465
REMARK UNBOUND:                -0.670
REMARK SMILES O=C([O-])CCCCCCCC(=O)[O-]
REMARK SMILES IDX 7 1 6 2 5 3 4 4 2 5 1 6 3 7 8 8 9 9 10 10 11 11 12 12 13 13
REMARK H PARENT
REMARK Flexibility Score: inf
ROOT
ATOM      1  C   UNL     1      26.676  -0.091  29.290  1.00  0.00     0.000 C 
ENDROOT
BRANCH   1   2
ATOM      2  C   UNL     1      26.404  -1.118  30.404  1.00  0.00     0.000 C 
BRANCH   2   3
ATOM      3  C   UNL     1      27.590  -2.047  30.734  1.00  0.00     0.006 C 
BRANCH   3   4
ATOM      4  C   UNL     1      27.194  -3.491  31.077  1.00  0.00     0.053 C 
BRANCH   4   5
ATOM      5  C   UNL     1      28.046  -4.493  30.361  1.00  0.00     0.041 C 
ATOM      6  O   UNL     1      29.242  -4.219  30.076  1.00  0.00    -0.550 OA
ATOM      7  O   UNL     1      27.532  -5.743  30.039  1.00  0.00    -0.550 OA
ENDBRANCH   4   5
ENDBRANCH   3   4
ENDBRANCH   2   3
ENDBRANCH   1   2
BRANCH   1   8
ATOM      8  C   UNL     1      28.127  -0.131  28.781  1.00  0.00     0.000 C 
BRANCH   8   9
ATOM      9  C   UNL     1      28.910   1.151  29.117  1.00  0.00     0.006 C 
BRANCH   9  10
ATOM     10  C   UNL     1      28.048   2.279  29.709  1.00  0.00     0.053 C 
BRANCH  10  11
ATOM     11  C   UNL     1      28.434   2.599  31.121  1.00  0.00     0.041 C 
ATOM     12  O   UNL     1      29.111   1.778  31.794  1.00  0.00    -0.550 OA
ATOM     13  O   UNL     1      28.071   3.817  31.683  1.00  0.00    -0.550 OA
ENDBRANCH  10  11
ENDBRANCH   9  10
ENDBRANCH   8   9
ENDBRANCH   1   8
TORSDOF 8
ENDMDL
