MODEL 1
REMARK VINA RESULT:    -5.376      0.000      0.000
REMARK INTER + INTRA:         -11.061
REMARK INTER:                 -10.091
REMARK INTRA:                  -0.970
REMARK UNBOUND:                -0.970
REMARK SMILES O=C([O-])CCCCCCCCCCCCCCC(=O)[O-]
REMARK SMILES IDX 10 1 9 2 8 3 7 4 6 5 5 6 4 7 2 8 1 9 3 10 11 11 12 12 13 13
REMARK SMILES IDX 14 14 15 15 16 16 17 17 18 18 19 19 20 20
REMARK H PARENT
REMARK Flexibility Score: inf
ROOT
ATOM      1  C   UNL     1      26.489  42.697  35.123  1.00  0.00     0.000 C 
ENDROOT
BRANCH   1   2
ATOM      2  C   UNL     1      27.731  42.018  34.521  1.00  0.00     0.000 C 
BRANCH   2   3
ATOM      3  C   UNL     1      27.563  41.685  33.030  1.00  0.00     0.000 C 
BRANCH   3   4
ATOM      4  C   UNL     1      27.905  40.221  32.710  1.00  0.00     0.000 C 
BRANCH   4   5
ATOM      5  C   UNL     1      28.055  39.359  33.974  1.00  0.00     0.000 C 
BRANCH   5   6
ATOM      6  C   UNL     1      27.555  37.921  33.777  1.00  0.00     0.006 C 
BRANCH   6   7
ATOM      7  C   UNL     1      27.198  37.661  32.309  1.00  0.00     0.053 C 
BRANCH   7   8
ATOM      8  C   UNL     1      27.122  36.191  32.040  1.00  0.00     0.041 C 
ATOM      9  O   UNL     1      26.622  35.770  30.964  1.00  0.00    -0.550 OA
ATOM     10  O   UNL     1      27.559  35.286  32.998  1.00  0.00    -0.550 OA
ENDBRANCH   7   8
ENDBRANCH   6   7
ENDBRANCH   5   6
ENDBRANCH   4   5
ENDBRANCH   3   4
ENDBRANCH   2   3
ENDBRANCH   1   2
BRANCH   1  11
ATOM     11  C   UNL     1      25.245  41.795  35.080  1.00  0.00     0.000 C 
BRANCH  11  12
ATOM     12  C   UNL     1      23.931  42.596  35.126  1.00  0.00     0.000 C 
BRANCH  12  13
ATOM     13  C   UNL     1      24.152  44.047  35.604  1.00  0.00     0.000 C 
BRANCH  13  14
ATOM     14  C   UNL     1      22.870  44.733  36.107  1.00  0.00     0.000 C 
BRANCH  14  15
ATOM     15  C   UNL     1      21.726  44.678  35.082  1.00  0.00     0.000 C 
BRANCH  15  16
ATOM     16  C   UNL     1      20.870  45.960  35.076  1.00  0.00     0.006 C 
BRANCH  16  17
ATOM     17  C   UNL     1      20.720  46.617  33.694  1.00  0.00     0.053 C 
BRANCH  17  18
ATOM     18  C   UNL     1      20.058  45.705  32.707  1.00  0.00     0.041 C 
ATOM     19  O   UNL     1      20.677  45.331  31.676  1.00  0.00    -0.550 OA
ATOM     20  O   UNL     1      18.746  45.297  32.907  1.00  0.00    -0.550 OA
ENDBRANCH  17  18
ENDBRANCH  16  17
ENDBRANCH  15  16
ENDBRANCH  14  15
ENDBRANCH  13  14
ENDBRANCH  12  13
ENDBRANCH  11  12
ENDBRANCH   1  11
TORSDOF 15
ENDMDL
MODEL 2
REMARK VINA RESULT:    -5.372      5.280      8.821
REMARK INTER + INTRA:         -11.053
REMARK INTER:                  -9.981
REMARK INTRA:                  -1.071
REMARK UNBOUND:                -0.970
REMARK SMILES O=C([O-])CCCCCCCCCCCCCCC(=O)[O-]
REMARK SMILES IDX 10 1 9 2 8 3 7 4 6 5 5 6 4 7 2 8 1 9 3 10 11 11 12 12 13 13
REMARK SMILES IDX 14 14 15 15 16 16 17 17 18 18 19 19 20 20
REMARK H PARENT
REMARK Flexibility Score: inf
ROOT
ATOM      1  C   UNL     1      27.879  33.386  31.370  1.00  0.00     0.000 C 
ENDROOT
BRANCH   1   2
ATOM      2  C   UNL     1      27.135  33.661  30.051  1.00  0.00     0.000 C 
BRANCH   2   3
ATOM      3  C   UNL     1      25.827  34.441  30.260  1.00  0.00     0.000 C 
BRANCH   3   4
ATOM      4  C   UNL     1      24.581  33.604  29.923  1.00  0.00     0.000 C 
BRANCH   4   5
ATOM      5  C   UNL     1      24.916  32.358  29.087  1.00  0.00     0.000 C 
BRANCH   5   6
ATOM      6  C   UNL     1      23.713  31.840  28.285  1.00  0.00     0.006 C 
BRANCH   6   7
ATOM      7  C   UNL     1      23.229  30.493  28.831  1.00  0.00     0.053 C 
BRANCH   7   8
ATOM      8  C   UNL     1      21.878  30.636  29.459  1.00  0.00     0.041 C 
ATOM      9  O   UNL     1      21.552  31.716  30.019  1.00  0.00    -0.550 OA
ATOM     10  O   UNL     1      20.999  29.562  29.470  1.00  0.00    -0.550 OA
ENDBRANCH   7   8
ENDBRANCH   6   7
ENDBRANCH   5   6
ENDBRANCH   4   5
ENDBRANCH   3   4
ENDBRANCH   2   3
ENDBRANCH   1   2
BRANCH   1  11
ATOM     11  C   UNL     1      28.591  34.634  31.917  1.00  0.00     0.000 C 
BRANCH  11  12
ATOM     12  C   UNL     1      28.086  35.039  33.314  1.00  0.00     0.000 C 
BRANCH  12  13
ATOM     13  C   UNL     1      27.453  36.447  33.317  1.00  0.00     0.000 C 
BRANCH  13  14
ATOM     14  C   UNL     1      27.542  37.165  31.959  1.00  0.00     0.000 C 
BRANCH  14  15
ATOM     15  C   UNL     1      27.797  38.675  32.099  1.00  0.00     0.000 C 
BRANCH  15  16
ATOM     16  C   UNL     1      27.922  39.123  33.568  1.00  0.00     0.006 C 
BRANCH  16  17
ATOM     17  C   UNL     1      26.821  40.090  34.033  1.00  0.00     0.053 C 
BRANCH  17  18
ATOM     18  C   UNL     1      27.247  41.522  33.924  1.00  0.00     0.041 C 
ATOM     19  O   UNL     1      27.749  41.954  32.853  1.00  0.00    -0.550 OA
ATOM     20  O   UNL     1      27.121  42.371  35.016  1.00  0.00    -0.550 OA
ENDBRANCH  17  18
ENDBRANCH  16  17
ENDBRANCH  15  16
ENDBRANCH  14  15
ENDBRANCH  13  14
ENDBRANCH  12  13
ENDBRANCH  11  12
ENDBRANCH   1  11
TORSDOF 15
ENDMDL
MODEL 3
REMARK VINA RESULT:    -5.327      1.381      2.225
REMARK INTER + INTRA:         -10.968
REMARK INTER:                 -10.254
REMARK INTRA:                  -0.714
REMARK UNBOUND:                -0.970
REMARK SMILES O=C([O-])CCCCCCCCCCCCCCC(=O)[O-]
REMARK SMILES IDX 10 1 9 2 8 3 7 4 6 5 5 6 4 7 2 8 1 9 3 10 11 11 12 12 13 13
REMARK SMILES IDX 14 14 15 15 16 16 17 17 18 18 19 19 20 20
REMARK H PARENT
REMARK Flexibility Score: inf
ROOT
ATOM      1  C   UNL     1      27.469  41.542  34.201  1.00  0.00     0.000 C 
ENDROOT
BRANCH   1   2
ATOM      2  C   UNL     1      27.707  41.353  32.692  1.00  0.00     0.000 C 
BRANCH   2   3
ATOM      3  C   UNL     1      28.004  39.893  32.316  1.00  0.00     0.000 C 
BRANCH   3   4
ATOM      4  C   UNL     1      27.975  38.953  33.533  1.00  0.00     0.000 C 
BRANCH   4   5
ATOM      5  C   UNL     1      27.452  37.550  33.183  1.00  0.00     0.000 C 
BRANCH   5   6
ATOM      6  C   UNL     1      27.690  37.176  31.713  1.00  0.00     0.006 C 
BRANCH   6   7
ATOM      7  C   UNL     1      27.042  35.829  31.378  1.00  0.00     0.053 C 
BRANCH   7   8
ATOM      8  C   UNL     1      28.059  34.732  31.427  1.00  0.00     0.041 C 
ATOM      9  O   UNL     1      27.864  33.720  32.152  1.00  0.00    -0.550 OA
ATOM     10  O   UNL     1      29.243  34.849  30.712  1.00  0.00    -0.550 OA
ENDBRANCH   7   8
ENDBRANCH   6   7
ENDBRANCH   5   6
ENDBRANCH   4   5
ENDBRANCH   3   4
ENDBRANCH   2   3
ENDBRANCH   1   2
BRANCH   1  11
ATOM     11  C   UNL     1      27.942  42.915  34.705  1.00  0.00     0.000 C 
BRANCH  11  12
ATOM     12  C   UNL     1      26.777  43.805  35.176  1.00  0.00     0.000 C 
BRANCH  12  13
ATOM     13  C   UNL     1      25.593  42.974  35.716  1.00  0.00     0.000 C 
BRANCH  13  14
ATOM     14  C   UNL     1      24.419  43.830  36.221  1.00  0.00     0.000 C 
BRANCH  14  15
ATOM     15  C   UNL     1      23.250  43.885  35.224  1.00  0.00     0.000 C 
BRANCH  15  16
ATOM     16  C   UNL     1      22.006  44.585  35.802  1.00  0.00     0.006 C 
BRANCH  16  17
ATOM     17  C   UNL     1      21.914  46.086  35.483  1.00  0.00     0.053 C 
BRANCH  17  18
ATOM     18  C   UNL     1      20.911  46.373  34.408  1.00  0.00     0.041 C 
ATOM     19  O   UNL     1      20.723  47.554  34.016  1.00  0.00    -0.550 OA
ATOM     20  O   UNL     1      20.159  45.340  33.864  1.00  0.00    -0.550 OA
ENDBRANCH  17  18
ENDBRANCH  16  17
ENDBRANCH  15  16
ENDBRANCH  14  15
ENDBRANCH  13  14
ENDBRANCH  12  13
ENDBRANCH  11  12
ENDBRANCH   1  11
TORSDOF 15
ENDMDL
MODEL 4
REMARK VINA RESULT:    -5.241      2.037     10.082
REMARK INTER + INTRA:         -10.807
REMARK INTER:                 -10.086
REMARK INTRA:                  -0.721
REMARK UNBOUND:                -0.970
REMARK SMILES O=C([O-])CCCCCCCCCCCCCCC(=O)[O-]
REMARK SMILES IDX 10 1 9 2 8 3 7 4 6 5 5 6 4 7 2 8 1 9 3 10 11 11 12 12 13 13
REMARK SMILES IDX 14 14 15 15 16 16 17 17 18 18 19 19 20 20
REMARK H PARENT
REMARK Flexibility Score: inf
ROOT
ATOM      1  C   UNL     1      27.765  42.785  34.208  1.00  0.00     0.000 C 
ENDROOT
BRANCH   1   2
ATOM      2  C   UNL     1      26.979  43.299  35.427  1.00  0.00     0.000 C 
BRANCH   2   3
ATOM      3  C   UNL     1      25.561  42.711  35.509  1.00  0.00     0.000 C 
BRANCH   3   4
ATOM      4  C   UNL     1      24.532  43.725  36.037  1.00  0.00     0.000 C 
BRANCH   4   5
ATOM      5  C   UNL     1      23.245  43.753  35.198  1.00  0.00     0.000 C 
BRANCH   5   6
ATOM      6  C   UNL     1      22.096  44.496  35.896  1.00  0.00     0.006 C 
BRANCH   6   7
ATOM      7  C   UNL     1      22.621  45.697  36.688  1.00  0.00     0.053 C 
BRANCH   7   8
ATOM      8  C   UNL     1      22.132  46.977  36.086  1.00  0.00     0.041 C 
ATOM      9  O   UNL     1      22.568  48.081  36.506  1.00  0.00    -0.550 OA
ATOM     10  O   UNL     1      21.160  46.952  35.095  1.00  0.00    -0.550 OA
ENDBRANCH   7   8
ENDBRANCH   6   7
ENDBRANCH   5   6
ENDBRANCH   4   5
ENDBRANCH   3   4
ENDBRANCH   2   3
ENDBRANCH   1   2
BRANCH   1  11
ATOM     11  C   UNL     1      27.150  41.513  33.603  1.00  0.00     0.000 C 
BRANCH  11  12
ATOM     12  C   UNL     1      27.911  40.237  34.007  1.00  0.00     0.000 C 
BRANCH  12  13
ATOM     13  C   UNL     1      26.981  39.007  34.087  1.00  0.00     0.000 C 
BRANCH  13  14
ATOM     14  C   UNL     1      27.567  37.748  33.424  1.00  0.00     0.000 C 
BRANCH  14  15
ATOM     15  C   UNL     1      26.933  37.448  32.056  1.00  0.00     0.000 C 
BRANCH  15  16
ATOM     16  C   UNL     1      27.518  36.186  31.393  1.00  0.00     0.006 C 
BRANCH  16  17
ATOM     17  C   UNL     1      28.268  35.251  32.357  1.00  0.00     0.053 C 
BRANCH  17  18
ATOM     18  C   UNL     1      28.045  33.807  32.028  1.00  0.00     0.041 C 
ATOM     19  O   UNL     1      27.906  32.961  32.950  1.00  0.00    -0.550 OA
ATOM     20  O   UNL     1      28.025  33.390  30.704  1.00  0.00    -0.550 OA
ENDBRANCH  17  18
ENDBRANCH  16  17
ENDBRANCH  15  16
ENDBRANCH  14  15
ENDBRANCH  13  14
ENDBRANCH  12  13
ENDBRANCH  11  12
ENDBRANCH   1  11
TORSDOF 15
ENDMDL
MODEL 5
REMARK VINA RESULT:    -5.212      3.256      5.494
REMARK INTER + INTRA:         -10.753
REMARK INTER:                 -10.114
REMARK INTRA:                  -0.639
REMARK UNBOUND:                -0.970
REMARK SMILES O=C([O-])CCCCCCCCCCCCCCC(=O)[O-]
REMARK SMILES IDX 10 1 9 2 8 3 7 4 6 5 5 6 4 7 2 8 1 9 3 10 11 11 12 12 13 13
REMARK SMILES IDX 14 14 15 15 16 16 17 17 18 18 19 19 20 20
REMARK H PARENT
REMARK Flexibility Score: inf
ROOT
ATOM      1  C   UNL     1      27.466  38.161  33.924  1.00  0.00     0.000 C 
ENDROOT
BRANCH   1   2
ATOM      2  C   UNL     1      27.521  37.544  32.515  1.00  0.00     0.000 C 
BRANCH   2   3
ATOM      3  C   UNL     1      27.343  36.018  32.528  1.00  0.00     0.000 C 
BRANCH   3   4
ATOM      4  C   UNL     1      26.812  35.475  31.190  1.00  0.00     0.000 C 
BRANCH   4   5
ATOM      5  C   UNL     1      27.609  34.260  30.688  1.00  0.00     0.000 C 
BRANCH   5   6
ATOM      6  C   UNL     1      26.782  33.343  29.774  1.00  0.00     0.006 C 
BRANCH   6   7
ATOM      7  C   UNL     1      25.282  33.581  29.973  1.00  0.00     0.053 C 
BRANCH   7   8
ATOM      8  C   UNL     1      24.485  32.581  29.195  1.00  0.00     0.041 C 
ATOM      9  O   UNL     1      23.241  32.488  29.369  1.00  0.00    -0.550 OA
ATOM     10  O   UNL     1      25.123  31.717  28.315  1.00  0.00    -0.550 OA
ENDBRANCH   7   8
ENDBRANCH   6   7
ENDBRANCH   5   6
ENDBRANCH   4   5
ENDBRANCH   3   4
ENDBRANCH   2   3
ENDBRANCH   1   2
BRANCH   1  11
ATOM     11  C   UNL     1      28.023  39.593  33.964  1.00  0.00     0.000 C 
BRANCH  11  12
ATOM     12  C   UNL     1      27.756  40.368  32.661  1.00  0.00     0.000 C 
BRANCH  12  13
ATOM     13  C   UNL     1      27.709  41.894  32.893  1.00  0.00     0.000 C 
BRANCH  13  14
ATOM     14  C   UNL     1      27.861  42.297  34.370  1.00  0.00     0.000 C 
BRANCH  14  15
ATOM     15  C   UNL     1      27.054  43.555  34.729  1.00  0.00     0.000 C 
BRANCH  15  16
ATOM     16  C   UNL     1      26.541  43.540  36.182  1.00  0.00     0.006 C 
BRANCH  16  17
ATOM     17  C   UNL     1      25.046  43.867  36.331  1.00  0.00     0.053 C 
BRANCH  17  18
ATOM     18  C   UNL     1      24.189  42.995  35.464  1.00  0.00     0.041 C 
ATOM     19  O   UNL     1      23.174  43.472  34.893  1.00  0.00    -0.550 OA
ATOM     20  O   UNL     1      24.493  41.648  35.316  1.00  0.00    -0.550 OA
ENDBRANCH  17  18
ENDBRANCH  16  17
ENDBRANCH  15  16
ENDBRANCH  14  15
ENDBRANCH  13  14
ENDBRANCH  12  13
ENDBRANCH  11  12
ENDBRANCH   1  11
TORSDOF 15
ENDMDL
MODEL 6
REMARK VINA RESULT:    -5.212      1.188      1.878
REMARK INTER + INTRA:         -10.753
REMARK INTER:                 -10.007
REMARK INTRA:                  -0.747
REMARK UNBOUND:                -0.970
REMARK SMILES O=C([O-])CCCCCCCCCCCCCCC(=O)[O-]
REMARK SMILES IDX 10 1 9 2 8 3 7 4 6 5 5 6 4 7 2 8 1 9 3 10 11 11 12 12 13 13
REMARK SMILES IDX 14 14 15 15 16 16 17 17 18 18 19 19 20 20
REMARK H PARENT
REMARK Flexibility Score: inf
ROOT
ATOM      1  C   UNL     1      25.677  42.889  35.495  1.00  0.00     0.000 C 
ENDROOT
BRANCH   1   2
ATOM      2  C   UNL     1      27.007  43.618  35.236  1.00  0.00     0.000 C 
BRANCH   2   3
ATOM      3  C   UNL     1      27.942  42.834  34.301  1.00  0.00     0.000 C 
BRANCH   3   4
ATOM      4  C   UNL     1      27.251  41.618  33.661  1.00  0.00     0.000 C 
BRANCH   4   5
ATOM      5  C   UNL     1      27.834  41.265  32.283  1.00  0.00     0.000 C 
BRANCH   5   6
ATOM      6  C   UNL     1      28.091  39.760  32.114  1.00  0.00     0.006 C 
BRANCH   6   7
ATOM      7  C   UNL     1      27.631  38.983  33.352  1.00  0.00     0.053 C 
BRANCH   7   8
ATOM      8  C   UNL     1      27.478  37.529  33.031  1.00  0.00     0.041 C 
ATOM      9  O   UNL     1      27.467  37.143  31.833  1.00  0.00    -0.550 OA
ATOM     10  O   UNL     1      27.297  36.607  34.054  1.00  0.00    -0.550 OA
ENDBRANCH   7   8
ENDBRANCH   6   7
ENDBRANCH   5   6
ENDBRANCH   4   5
ENDBRANCH   3   4
ENDBRANCH   2   3
ENDBRANCH   1   2
BRANCH   1  11
ATOM     11  C   UNL     1      24.656  43.769  36.234  1.00  0.00     0.000 C 
BRANCH  11  12
ATOM     12  C   UNL     1      23.329  43.908  35.466  1.00  0.00     0.000 C 
BRANCH  12  13
ATOM     13  C   UNL     1      22.447  45.043  36.032  1.00  0.00     0.000 C 
BRANCH  13  14
ATOM     14  C   UNL     1      20.983  44.977  35.563  1.00  0.00     0.000 C 
BRANCH  14  15
ATOM     15  C   UNL     1      20.246  46.316  35.727  1.00  0.00     0.000 C 
BRANCH  15  16
ATOM     16  C   UNL     1      20.665  47.359  34.673  1.00  0.00     0.006 C 
BRANCH  16  17
ATOM     17  C   UNL     1      20.665  46.837  33.227  1.00  0.00     0.053 C 
BRANCH  17  18
ATOM     18  C   UNL     1      19.278  46.695  32.680  1.00  0.00     0.041 C 
ATOM     19  O   UNL     1      18.727  47.662  32.092  1.00  0.00    -0.550 OA
ATOM     20  O   UNL     1      18.581  45.506  32.850  1.00  0.00    -0.550 OA
ENDBRANCH  17  18
ENDBRANCH  16  17
ENDBRANCH  15  16
ENDBRANCH  14  15
ENDBRANCH  13  14
ENDBRANCH  12  13
ENDBRANCH  11  12
ENDBRANCH   1  11
TORSDOF 15
ENDMDL
MODEL 7
REMARK VINA RESULT:    -5.155      1.089      9.391
REMARK INTER + INTRA:         -10.645
REMARK INTER:                  -9.903
REMARK INTRA:                  -0.742
REMARK UNBOUND:                -0.970
REMARK SMILES O=C([O-])CCCCCCCCCCCCCCC(=O)[O-]
REMARK SMILES IDX 10 1 9 2 8 3 7 4 6 5 5 6 4 7 2 8 1 9 3 10 11 11 12 12 13 13
REMARK SMILES IDX 14 14 15 15 16 16 17 17 18 18 19 19 20 20
REMARK H PARENT
REMARK Flexibility Score: inf
ROOT
ATOM      1  C   UNL     1      25.228  42.030  35.500  1.00  0.00     0.000 C 
ENDROOT
BRANCH   1   2
ATOM      2  C   UNL     1      23.843  42.588  35.127  1.00  0.00     0.000 C 
BRANCH   2   3
ATOM      3  C   UNL     1      23.683  44.072  35.493  1.00  0.00     0.000 C 
BRANCH   3   4
ATOM      4  C   UNL     1      22.235  44.566  35.334  1.00  0.00     0.000 C 
BRANCH   4   5
ATOM      5  C   UNL     1      22.082  46.061  35.658  1.00  0.00     0.000 C 
BRANCH   5   6
ATOM      6  C   UNL     1      21.177  46.796  34.659  1.00  0.00     0.006 C 
BRANCH   6   7
ATOM      7  C   UNL     1      19.809  46.115  34.555  1.00  0.00     0.053 C 
BRANCH   7   8
ATOM      8  C   UNL     1      19.524  45.725  33.139  1.00  0.00     0.041 C 
ATOM      9  O   UNL     1      18.492  45.058  32.861  1.00  0.00    -0.550 OA
ATOM     10  O   UNL     1      20.421  46.055  32.132  1.00  0.00    -0.550 OA
ENDBRANCH   7   8
ENDBRANCH   6   7
ENDBRANCH   5   6
ENDBRANCH   4   5
ENDBRANCH   3   4
ENDBRANCH   2   3
ENDBRANCH   1   2
BRANCH   1  11
ATOM     11  C   UNL     1      26.344  43.076  35.354  1.00  0.00     0.000 C 
BRANCH  11  12
ATOM     12  C   UNL     1      27.499  42.588  34.461  1.00  0.00     0.000 C 
BRANCH  12  13
ATOM     13  C   UNL     1      27.202  41.212  33.827  1.00  0.00     0.000 C 
BRANCH  13  14
ATOM     14  C   UNL     1      27.853  41.015  32.448  1.00  0.00     0.000 C 
BRANCH  14  15
ATOM     15  C   UNL     1      28.225  39.549  32.169  1.00  0.00     0.000 C 
BRANCH  15  16
ATOM     16  C   UNL     1      27.124  38.563  32.604  1.00  0.00     0.006 C 
BRANCH  16  17
ATOM     17  C   UNL     1      27.461  37.084  32.352  1.00  0.00     0.053 C 
BRANCH  17  18
ATOM     18  C   UNL     1      27.491  36.289  33.621  1.00  0.00     0.041 C 
ATOM     19  O   UNL     1      27.854  35.084  33.605  1.00  0.00    -0.550 OA
ATOM     20  O   UNL     1      27.084  36.870  34.815  1.00  0.00    -0.550 OA
ENDBRANCH  17  18
ENDBRANCH  16  17
ENDBRANCH  15  16
ENDBRANCH  14  15
ENDBRANCH  13  14
ENDBRANCH  12  13
ENDBRANCH  11  12
ENDBRANCH   1  11
TORSDOF 15
ENDMDL
MODEL 8
REMARK VINA RESULT:    -5.125      4.888     10.064
REMARK INTER + INTRA:         -10.590
REMARK INTER:                  -9.897
REMARK INTRA:                  -0.693
REMARK UNBOUND:                -0.970
REMARK SMILES O=C([O-])CCCCCCCCCCCCCCC(=O)[O-]
REMARK SMILES IDX 10 1 9 2 8 3 7 4 6 5 5 6 4 7 2 8 1 9 3 10 11 11 12 12 13 13
REMARK SMILES IDX 14 14 15 15 16 16 17 17 18 18 19 19 20 20
REMARK H PARENT
REMARK Flexibility Score: inf
ROOT
ATOM      1  C   UNL     1      27.499  36.589  33.584  1.00  0.00     0.000 C 
ENDROOT
BRANCH   1   2
ATOM      2  C   UNL     1      27.216  37.452  32.342  1.00  0.00     0.000 C 
BRANCH   2   3
ATOM      3  C   UNL     1      27.838  38.854  32.438  1.00  0.00     0.000 C 
BRANCH   3   4
ATOM      4  C   UNL     1      27.799  39.419  33.868  1.00  0.00     0.000 C 
BRANCH   4   5
ATOM      5  C   UNL     1      26.371  39.749  34.334  1.00  0.00     0.000 C 
BRANCH   5   6
ATOM      6  C   UNL     1      26.133  41.257  34.498  1.00  0.00     0.006 C 
BRANCH   6   7
ATOM      7  C   UNL     1      27.421  42.046  34.245  1.00  0.00     0.053 C 
BRANCH   7   8
ATOM      8  C   UNL     1      27.377  43.363  34.954  1.00  0.00     0.041 C 
ATOM      9  O   UNL     1      26.357  43.692  35.617  1.00  0.00    -0.550 OA
ATOM     10  O   UNL     1      28.441  44.248  34.844  1.00  0.00    -0.550 OA
ENDBRANCH   7   8
ENDBRANCH   6   7
ENDBRANCH   5   6
ENDBRANCH   4   5
ENDBRANCH   3   4
ENDBRANCH   2   3
ENDBRANCH   1   2
BRANCH   1  11
ATOM     11  C   UNL     1      27.918  35.155  33.223  1.00  0.00     0.000 C 
BRANCH  11  12
ATOM     12  C   UNL     1      28.434  35.036  31.777  1.00  0.00     0.000 C 
BRANCH  12  13
ATOM     13  C   UNL     1      27.794  33.847  31.029  1.00  0.00     0.000 C 
BRANCH  13  14
ATOM     14  C   UNL     1      26.522  34.222  30.250  1.00  0.00     0.000 C 
BRANCH  14  15
ATOM     15  C   UNL     1      25.882  33.018  29.540  1.00  0.00     0.000 C 
BRANCH  15  16
ATOM     16  C   UNL     1      24.342  33.065  29.558  1.00  0.00     0.006 C 
BRANCH  16  17
ATOM     17  C   UNL     1      23.661  31.773  29.076  1.00  0.00     0.053 C 
BRANCH  17  18
ATOM     18  C   UNL     1      22.307  32.035  28.493  1.00  0.00     0.041 C 
ATOM     19  O   UNL     1      22.198  32.520  27.336  1.00  0.00    -0.550 OA
ATOM     20  O   UNL     1      21.165  31.775  29.240  1.00  0.00    -0.550 OA
ENDBRANCH  17  18
ENDBRANCH  16  17
ENDBRANCH  15  16
ENDBRANCH  14  15
ENDBRANCH  13  14
ENDBRANCH  12  13
ENDBRANCH  11  12
ENDBRANCH   1  11
TORSDOF 15
ENDMDL
MODEL 9
REMARK VINA RESULT:    -5.116      5.361      8.316
REMARK INTER + INTRA:         -10.572
REMARK INTER:                  -9.975
REMARK INTRA:                  -0.596
REMARK UNBOUND:                -0.970
REMARK SMILES O=C([O-])CCCCCCCCCCCCCCC(=O)[O-]
REMARK SMILES IDX 10 1 9 2 8 3 7 4 6 5 5 6 4 7 2 8 1 9 3 10 11 11 12 12 13 13
REMARK SMILES IDX 14 14 15 15 16 16 17 17 18 18 19 19 20 20
REMARK H PARENT
REMARK Flexibility Score: inf
ROOT
ATOM      1  C   UNL     1      26.630  35.812  31.159  1.00  0.00     0.000 C 
ENDROOT
BRANCH   1   2
ATOM      2  C   UNL     1      27.144  34.755  30.166  1.00  0.00     0.000 C 
BRANCH   2   3
ATOM      3  C   UNL     1      26.474  33.385  30.357  1.00  0.00     0.000 C 
BRANCH   3   4
ATOM      4  C   UNL     1      25.052  33.338  29.773  1.00  0.00     0.000 C 
BRANCH   4   5
ATOM      5  C   UNL     1      24.902  32.279  28.669  1.00  0.00     0.000 C 
BRANCH   5   6
ATOM      6  C   UNL     1      23.754  31.295  28.941  1.00  0.00     0.006 C 
BRANCH   6   7
ATOM      7  C   UNL     1      22.488  32.037  29.380  1.00  0.00     0.053 C 
BRANCH   7   8
ATOM      8  C   UNL     1      21.335  31.675  28.499  1.00  0.00     0.041 C 
ATOM      9  O   UNL     1      21.231  30.506  28.040  1.00  0.00    -0.550 OA
ATOM     10  O   UNL     1      20.401  32.639  28.144  1.00  0.00    -0.550 OA
ENDBRANCH   7   8
ENDBRANCH   6   7
ENDBRANCH   5   6
ENDBRANCH   4   5
ENDBRANCH   3   4
ENDBRANCH   2   3
ENDBRANCH   1   2
BRANCH   1  11
ATOM     11  C   UNL     1      27.763  36.661  31.756  1.00  0.00     0.000 C 
BRANCH  11  12
ATOM     12  C   UNL     1      27.478  37.095  33.206  1.00  0.00     0.000 C 
BRANCH  12  13
ATOM     13  C   UNL     1      27.537  38.629  33.374  1.00  0.00     0.000 C 
BRANCH  13  14
ATOM     14  C   UNL     1      28.066  39.365  32.131  1.00  0.00     0.000 C 
BRANCH  14  15
ATOM     15  C   UNL     1      27.882  40.889  32.219  1.00  0.00     0.000 C 
BRANCH  15  16
ATOM     16  C   UNL     1      27.473  41.359  33.629  1.00  0.00     0.006 C 
BRANCH  16  17
ATOM     17  C   UNL     1      27.821  42.825  33.935  1.00  0.00     0.053 C 
BRANCH  17  18
ATOM     18  C   UNL     1      27.921  43.083  35.407  1.00  0.00     0.041 C 
ATOM     19  O   UNL     1      26.980  43.657  36.015  1.00  0.00    -0.550 OA
ATOM     20  O   UNL     1      29.070  42.723  36.101  1.00  0.00    -0.550 OA
ENDBRANCH  17  18
ENDBRANCH  16  17
ENDBRANCH  15  16
ENDBRANCH  14  15
ENDBRANCH  13  14
ENDBRANCH  12  13
ENDBRANCH  11  12
ENDBRANCH   1  11
TORSDOF 15
ENDMDL
