MODEL 1
REMARK VINA RESULT:    -3.111      0.000      0.000
REMARK INTER + INTRA:          -3.480
REMARK INTER:                  -3.475
REMARK INTRA:                  -0.005
REMARK UNBOUND:                -0.005
REMARK SMILES CCCC(=O)[O-]
REMARK SMILES IDX 3 1 4 2 5 3 6 4 2 5 1 6
REMARK H PARENT
REMARK Flexibility Score: inf
ROOT
ATOM      1  C   UNL     1     -11.142  22.821  12.536  1.00  0.00     0.052 C 
ENDROOT
BRANCH   1   2
ATOM      2  C   UNL     1     -10.477  23.745  11.564  1.00  0.00     0.041 C 
ATOM      3  O   UNL     1      -9.340  24.224  11.819  1.00  0.00    -0.550 OA
ATOM      4  O   UNL     1     -11.126  24.105  10.390  1.00  0.00    -0.550 OA
ENDBRANCH   1   2
BRANCH   1   5
ATOM      5  C   UNL     1     -11.662  23.573  13.768  1.00  0.00     0.003 C 
ATOM      6  C   UNL     1     -12.660  22.744  14.577  1.00  0.00     0.004 C 
ENDBRANCH   1   5
TORSDOF 2
ENDMDL
MODEL 2
REMARK VINA RESULT:    -3.091     16.834     17.472
REMARK INTER + INTRA:          -3.458
REMARK INTER:                  -3.401
REMARK INTRA:                  -0.057
REMARK UNBOUND:                -0.005
REMARK SMILES CCCC(=O)[O-]
REMARK SMILES IDX 3 1 4 2 5 3 6 4 2 5 1 6
REMARK H PARENT
REMARK Flexibility Score: inf
ROOT
ATOM      1  C   UNL     1       2.218  24.957  22.636  1.00  0.00     0.052 C 
ENDROOT
BRANCH   1   2
ATOM      2  C   UNL     1       2.199  24.793  24.124  1.00  0.00     0.041 C 
ATOM      3  O   UNL     1       1.153  25.048  24.777  1.00  0.00    -0.550 OA
ATOM      4  O   UNL     1       3.347  24.391  24.794  1.00  0.00    -0.550 OA
ENDBRANCH   1   2
BRANCH   1   5
ATOM      5  C   UNL     1       2.500  23.629  21.922  1.00  0.00     0.003 C 
ATOM      6  C   UNL     1       1.586  22.503  22.406  1.00  0.00     0.004 C 
ENDBRANCH   1   5
TORSDOF 2
ENDMDL
MODEL 3
REMARK VINA RESULT:    -3.022      2.622      3.509
REMARK INTER + INTRA:          -3.380
REMARK INTER:                  -3.344
REMARK INTRA:                  -0.036
REMARK UNBOUND:                -0.005
REMARK SMILES CCCC(=O)[O-]
REMARK SMILES IDX 3 1 4 2 5 3 6 4 2 5 1 6
REMARK H PARENT
REMARK Flexibility Score: inf
ROOT
ATOM      1  C   UNL     1     -11.997  23.770  12.891  1.00  0.00     0.052 C 
ENDROOT
BRANCH   1   2
ATOM      2  C   UNL     1     -12.000  23.509  14.366  1.00  0.00     0.041 C 
ATOM      3  O   UNL     1     -11.268  24.190  15.132  1.00  0.00    -0.550 OA
ATOM      4  O   UNL     1     -12.785  22.492  14.891  1.00  0.00    -0.550 OA
ENDBRANCH   1   2
BRANCH   1   5
ATOM      5  C   UNL     1     -10.857  23.024  12.186  1.00  0.00     0.003 C 
ATOM      6  C   UNL     1      -9.741  23.964  11.731  1.00  0.00     0.004 C 
ENDBRANCH   1   5
TORSDOF 2
ENDMDL
MODEL 4
REMARK VINA RESULT:    -3.006     16.892     17.530
REMARK INTER + INTRA:          -3.362
REMARK INTER:                  -3.310
REMARK INTRA:                  -0.052
REMARK UNBOUND:                -0.005
REMARK SMILES CCCC(=O)[O-]
REMARK SMILES IDX 3 1 4 2 5 3 6 4 2 5 1 6
REMARK H PARENT
REMARK Flexibility Score: inf
ROOT
ATOM      1  C   UNL     1       1.547  23.364  23.560  1.00  0.00     0.052 C 
ENDROOT
BRANCH   1   2
ATOM      2  C   UNL     1       1.987  24.360  24.587  1.00  0.00     0.041 C 
ATOM      3  O   UNL     1       3.175  24.361  25.003  1.00  0.00    -0.550 OA
ATOM      4  O   UNL     1       1.075  25.268  25.111  1.00  0.00    -0.550 OA
ENDBRANCH   1   2
BRANCH   1   5
ATOM      5  C   UNL     1       2.212  23.618  22.201  1.00  0.00     0.003 C 
ATOM      6  C   UNL     1       2.092  25.076  21.758  1.00  0.00     0.004 C 
ENDBRANCH   1   5
TORSDOF 2
ENDMDL
MODEL 5
REMARK VINA RESULT:    -3.004     16.936     17.495
REMARK INTER + INTRA:          -3.360
REMARK INTER:                  -3.323
REMARK INTRA:                  -0.037
REMARK UNBOUND:                -0.005
REMARK SMILES CCCC(=O)[O-]
REMARK SMILES IDX 3 1 4 2 5 3 6 4 2 5 1 6
REMARK H PARENT
REMARK Flexibility Score: inf
ROOT
ATOM      1  C   UNL     1       1.527  22.822  22.988  1.00  0.00     0.052 C 
ENDROOT
BRANCH   1   2
ATOM      2  C   UNL     1       1.720  22.995  24.463  1.00  0.00     0.041 C 
ATOM      3  O   UNL     1       0.741  22.891  25.248  1.00  0.00    -0.550 OA
ATOM      4  O   UNL     1       2.976  23.304  24.969  1.00  0.00    -0.550 OA
ENDBRANCH   1   2
BRANCH   1   5
ATOM      5  C   UNL     1       2.549  23.634  22.183  1.00  0.00     0.003 C 
ATOM      6  C   UNL     1       2.177  25.115  22.096  1.00  0.00     0.004 C 
ENDBRANCH   1   5
TORSDOF 2
ENDMDL
MODEL 6
REMARK VINA RESULT:    -2.980     16.937     17.617
REMARK INTER + INTRA:          -3.333
REMARK INTER:                  -3.300
REMARK INTRA:                  -0.033
REMARK UNBOUND:                -0.005
REMARK SMILES CCCC(=O)[O-]
REMARK SMILES IDX 3 1 4 2 5 3 6 4 2 5 1 6
REMARK H PARENT
REMARK Flexibility Score: inf
ROOT
ATOM      1  C   UNL     1       1.461  23.287  23.734  1.00  0.00     0.052 C 
ENDROOT
BRANCH   1   2
ATOM      2  C   UNL     1       1.966  24.338  24.675  1.00  0.00     0.041 C 
ATOM      3  O   UNL     1       1.185  25.220  25.120  1.00  0.00    -0.550 OA
ATOM      4  O   UNL     1       3.307  24.363  25.034  1.00  0.00    -0.550 OA
ENDBRANCH   1   2
BRANCH   1   5
ATOM      5  C   UNL     1       2.128  23.391  22.357  1.00  0.00     0.003 C 
ATOM      6  C   UNL     1       2.124  24.821  21.815  1.00  0.00     0.004 C 
ENDBRANCH   1   5
TORSDOF 2
ENDMDL
MODEL 7
REMARK VINA RESULT:    -2.935     16.515     17.090
REMARK INTER + INTRA:          -3.283
REMARK INTER:                  -3.228
REMARK INTRA:                  -0.055
REMARK UNBOUND:                -0.005
REMARK SMILES CCCC(=O)[O-]
REMARK SMILES IDX 3 1 4 2 5 3 6 4 2 5 1 6
REMARK H PARENT
REMARK Flexibility Score: inf
ROOT
ATOM      1  C   UNL     1       1.594  22.856  22.955  1.00  0.00     0.052 C 
ENDROOT
BRANCH   1   2
ATOM      2  C   UNL     1       2.522  23.927  22.470  1.00  0.00     0.041 C 
ATOM      3  O   UNL     1       2.113  24.801  21.660  1.00  0.00    -0.550 OA
ATOM      4  O   UNL     1       3.846  23.941  22.886  1.00  0.00    -0.550 OA
ENDBRANCH   1   2
BRANCH   1   5
ATOM      5  C   UNL     1       1.413  22.909  24.478  1.00  0.00     0.003 C 
ATOM      6  C   UNL     1       1.060  24.311  24.973  1.00  0.00     0.004 C 
ENDBRANCH   1   5
TORSDOF 2
ENDMDL
MODEL 8
REMARK VINA RESULT:    -2.647     17.518     18.147
REMARK INTER + INTRA:          -2.962
REMARK INTER:                  -2.949
REMARK INTRA:                  -0.013
REMARK UNBOUND:                -0.005
REMARK SMILES CCCC(=O)[O-]
REMARK SMILES IDX 3 1 4 2 5 3 6 4 2 5 1 6
REMARK H PARENT
REMARK Flexibility Score: inf
ROOT
ATOM      1  C   UNL     1       2.053  24.328  23.972  1.00  0.00     0.052 C 
ENDROOT
BRANCH   1   2
ATOM      2  C   UNL     1       3.526  24.200  24.209  1.00  0.00     0.041 C 
ATOM      3  O   UNL     1       4.310  24.018  23.241  1.00  0.00    -0.550 OA
ATOM      4  O   UNL     1       4.029  24.247  25.502  1.00  0.00    -0.550 OA
ENDBRANCH   1   2
BRANCH   1   5
ATOM      5  C   UNL     1       1.356  22.961  23.982  1.00  0.00     0.003 C 
ATOM      6  C   UNL     1       1.430  22.260  22.626  1.00  0.00     0.004 C 
ENDBRANCH   1   5
TORSDOF 2
ENDMDL
MODEL 9
REMARK VINA RESULT:    -2.467      2.066      3.441
REMARK INTER + INTRA:          -2.761
REMARK INTER:                  -2.732
REMARK INTRA:                  -0.029
REMARK UNBOUND:                -0.005
REMARK SMILES CCCC(=O)[O-]
REMARK SMILES IDX 3 1 4 2 5 3 6 4 2 5 1 6
REMARK H PARENT
REMARK Flexibility Score: inf
ROOT
ATOM      1  C   UNL     1     -11.913  23.479  10.919  1.00  0.00     0.052 C 
ENDROOT
BRANCH   1   2
ATOM      2  C   UNL     1     -10.894  23.674  11.999  1.00  0.00     0.041 C 
ATOM      3  O   UNL     1     -11.205  23.487  13.205  1.00  0.00    -0.550 OA
ATOM      4  O   UNL     1      -9.610  24.094  11.677  1.00  0.00    -0.550 OA
ENDBRANCH   1   2
BRANCH   1   5
ATOM      5  C   UNL     1     -11.644  24.390   9.714  1.00  0.00     0.003 C 
ATOM      6  C   UNL     1     -11.645  23.622   8.393  1.00  0.00     0.004 C 
ENDBRANCH   1   5
TORSDOF 2
ENDMDL
