MODEL 1
REMARK VINA RESULT:    -2.180      0.000      0.000
REMARK INTER + INTRA:          -2.180
REMARK INTER:                  -2.180
REMARK INTRA:                   0.000
REMARK UNBOUND:                 0.000
REMARK SMILES CC(=O)[O-]
REMARK SMILES IDX 1 1 2 2 3 3 4 4
REMARK H PARENT
REMARK Flexibility Score: inf
ROOT
ATOM      1  C   UNL     1      12.729  13.495  69.771  1.00  0.00     0.063 C 
ATOM      2  C   UNL     1      11.367  13.471  70.376  1.00  0.00     0.038 C 
ATOM      3  O   UNL     1      11.230  13.392  71.625  1.00  0.00    -0.550 OA
ATOM      4  O   UNL     1      10.242  13.483  69.559  1.00  0.00    -0.550 OA
ENDROOT
TORSDOF 0
ENDMDL
MODEL 2
REMARK VINA RESULT:    -2.175      0.099      1.621
REMARK INTER + INTRA:          -2.175
REMARK INTER:                  -2.175
REMARK INTRA:                   0.000
REMARK UNBOUND:                 0.000
REMARK SMILES CC(=O)[O-]
REMARK SMILES IDX 1 1 2 2 3 3 4 4
REMARK H PARENT
REMARK Flexibility Score: inf
ROOT
ATOM      1  C   UNL     1      12.737  13.519  69.786  1.00  0.00     0.063 C 
ATOM      2  C   UNL     1      11.365  13.421  70.361  1.00  0.00     0.038 C 
ATOM      3  O   UNL     1      10.360  13.413  69.602  1.00  0.00    -0.550 OA
ATOM      4  O   UNL     1      11.188  13.391  71.739  1.00  0.00    -0.550 OA
ENDROOT
TORSDOF 0
ENDMDL
MODEL 3
REMARK VINA RESULT:    -2.170      2.399      3.010
REMARK INTER + INTRA:          -2.170
REMARK INTER:                  -2.170
REMARK INTRA:                   0.000
REMARK UNBOUND:                 0.000
REMARK SMILES CC(=O)[O-]
REMARK SMILES IDX 1 1 2 2 3 3 4 4
REMARK H PARENT
REMARK Flexibility Score: inf
ROOT
ATOM      1  C   UNL     1      13.131  13.448  69.500  1.00  0.00     0.063 C 
ATOM      2  C   UNL     1      12.575  14.223  68.355  1.00  0.00     0.038 C 
ATOM      3  O   UNL     1      11.398  14.010  67.959  1.00  0.00    -0.550 OA
ATOM      4  O   UNL     1      13.370  15.146  67.687  1.00  0.00    -0.550 OA
ENDROOT
TORSDOF 0
ENDMDL
MODEL 4
REMARK VINA RESULT:    -2.163      2.208      2.409
REMARK INTER + INTRA:          -2.163
REMARK INTER:                  -2.163
REMARK INTRA:                   0.000
REMARK UNBOUND:                 0.000
REMARK SMILES CC(=O)[O-]
REMARK SMILES IDX 1 1 2 2 3 3 4 4
REMARK H PARENT
REMARK Flexibility Score: inf
ROOT
ATOM      1  C   UNL     1      13.082  15.003  68.055  1.00  0.00     0.063 C 
ATOM      2  C   UNL     1      12.855  13.752  68.834  1.00  0.00     0.038 C 
ATOM      3  O   UNL     1      13.651  13.427  69.754  1.00  0.00    -0.550 OA
ATOM      4  O   UNL     1      11.794  12.915  68.512  1.00  0.00    -0.550 OA
ENDROOT
TORSDOF 0
ENDMDL
MODEL 5
REMARK VINA RESULT:    -2.162      2.693      2.982
REMARK INTER + INTRA:          -2.162
REMARK INTER:                  -2.162
REMARK INTRA:                   0.000
REMARK UNBOUND:                 0.000
REMARK SMILES CC(=O)[O-]
REMARK SMILES IDX 1 1 2 2 3 3 4 4
REMARK H PARENT
REMARK Flexibility Score: inf
ROOT
ATOM      1  C   UNL     1       9.716  14.020  68.790  1.00  0.00     0.063 C 
ATOM      2  C   UNL     1      10.312  12.681  68.521  1.00  0.00     0.038 C 
ATOM      3  O   UNL     1       9.576  11.661  68.463  1.00  0.00    -0.550 OA
ATOM      4  O   UNL     1      11.688  12.545  68.386  1.00  0.00    -0.550 OA
ENDROOT
TORSDOF 0
ENDMDL
MODEL 6
REMARK VINA RESULT:    -2.159      2.989      3.238
REMARK INTER + INTRA:          -2.159
REMARK INTER:                  -2.159
REMARK INTRA:                   0.000
REMARK UNBOUND:                 0.000
REMARK SMILES CC(=O)[O-]
REMARK SMILES IDX 1 1 2 2 3 3 4 4
REMARK H PARENT
REMARK Flexibility Score: inf
ROOT
ATOM      1  C   UNL     1      15.360  14.606  70.316  1.00  0.00     0.063 C 
ATOM      2  C   UNL     1      14.081  14.436  69.570  1.00  0.00     0.038 C 
ATOM      3  O   UNL     1      13.390  13.395  69.727  1.00  0.00    -0.550 OA
ATOM      4  O   UNL     1      13.672  15.402  68.658  1.00  0.00    -0.550 OA
ENDROOT
TORSDOF 0
ENDMDL
MODEL 7
REMARK VINA RESULT:    -2.151      3.206      3.775
REMARK INTER + INTRA:          -2.151
REMARK INTER:                  -2.151
REMARK INTRA:                   0.000
REMARK UNBOUND:                 0.000
REMARK SMILES CC(=O)[O-]
REMARK SMILES IDX 1 1 2 2 3 3 4 4
REMARK H PARENT
REMARK Flexibility Score: inf
ROOT
ATOM      1  C   UNL     1      13.165  13.638  69.476  1.00  0.00     0.063 C 
ATOM      2  C   UNL     1      13.743  14.924  68.992  1.00  0.00     0.038 C 
ATOM      3  O   UNL     1      13.535  15.306  67.810  1.00  0.00    -0.550 OA
ATOM      4  O   UNL     1      14.556  15.680  69.828  1.00  0.00    -0.550 OA
ENDROOT
TORSDOF 0
ENDMDL
MODEL 8
REMARK VINA RESULT:    -2.146      1.919      2.358
REMARK INTER + INTRA:          -2.146
REMARK INTER:                  -2.146
REMARK INTRA:                   0.000
REMARK UNBOUND:                 0.000
REMARK SMILES CC(=O)[O-]
REMARK SMILES IDX 1 1 2 2 3 3 4 4
REMARK H PARENT
REMARK Flexibility Score: inf
ROOT
ATOM      1  C   UNL     1      10.120  12.644  68.345  1.00  0.00     0.063 C 
ATOM      2  C   UNL     1      11.250  13.068  69.219  1.00  0.00     0.038 C 
ATOM      3  O   UNL     1      12.433  13.028  68.787  1.00  0.00    -0.550 OA
ATOM      4  O   UNL     1      11.009  13.457  70.530  1.00  0.00    -0.550 OA
ENDROOT
TORSDOF 0
ENDMDL
MODEL 9
REMARK VINA RESULT:    -2.145      3.710      4.086
REMARK INTER + INTRA:          -2.145
REMARK INTER:                  -2.145
REMARK INTRA:                   0.000
REMARK UNBOUND:                 0.000
REMARK SMILES CC(=O)[O-]
REMARK SMILES IDX 1 1 2 2 3 3 4 4
REMARK H PARENT
REMARK Flexibility Score: inf
ROOT
ATOM      1  C   UNL     1      14.204  15.962  70.254  1.00  0.00     0.063 C 
ATOM      2  C   UNL     1      14.905  14.665  70.037  1.00  0.00     0.038 C 
ATOM      3  O   UNL     1      16.161  14.631  69.945  1.00  0.00    -0.550 OA
ATOM      4  O   UNL     1      14.172  13.495  69.882  1.00  0.00    -0.550 OA
ENDROOT
TORSDOF 0
ENDMDL
