MODEL 1
REMARK VINA RESULT:    -5.097      0.000      0.000
REMARK INTER + INTRA:          -9.556
REMARK INTER:                  -8.673
REMARK INTRA:                  -0.884
REMARK UNBOUND:                -0.884
REMARK SMILES CCCCCCCCCCCCCC(=O)[O-]
REMARK SMILES IDX 8 1 9 2 10 3 11 4 12 5 13 6 14 7 15 8 16 9 7 10 6 11 5 12
REMARK SMILES IDX 4 13 3 14 2 15 1 16
REMARK H PARENT
REMARK Flexibility Score: inf
ROOT
ATOM      1  C   UNL     1      29.743  -9.529  16.113  1.00  0.00     0.000 C 
ENDROOT
BRANCH   1   2
ATOM      2  C   UNL     1      28.303  -9.162  15.710  1.00  0.00     0.000 C 
BRANCH   2   3
ATOM      3  C   UNL     1      27.323 -10.347  15.646  1.00  0.00     0.000 C 
BRANCH   3   4
ATOM      4  C   UNL     1      27.175 -10.927  14.231  1.00  0.00     0.000 C 
BRANCH   4   5
ATOM      5  C   UNL     1      28.142 -12.100  14.015  1.00  0.00     0.006 C 
BRANCH   5   6
ATOM      6  C   UNL     1      27.613 -13.407  14.620  1.00  0.00     0.053 C 
BRANCH   6   7
ATOM      7  C   UNL     1      28.541 -13.954  15.660  1.00  0.00     0.041 C 
ATOM      8  O   UNL     1      29.042 -15.101  15.523  1.00  0.00    -0.550 OA
ATOM      9  O   UNL     1      28.828 -13.210  16.797  1.00  0.00    -0.550 OA
ENDBRANCH   6   7
ENDBRANCH   5   6
ENDBRANCH   4   5
ENDBRANCH   3   4
ENDBRANCH   2   3
ENDBRANCH   1   2
BRANCH   1  10
ATOM     10  C   UNL     1      30.794  -9.018  15.115  1.00  0.00     0.000 C 
BRANCH  10  11
ATOM     11  C   UNL     1      30.147  -8.681  13.763  1.00  0.00    -0.000 C 
BRANCH  11  12
ATOM     12  C   UNL     1      31.143  -8.064  12.769  1.00  0.00    -0.000 C 
BRANCH  12  13
ATOM     13  C   UNL     1      30.573  -6.827  12.052  1.00  0.00    -0.000 C 
BRANCH  13  14
ATOM     14  C   UNL     1      31.498  -6.310  10.939  1.00  0.00    -0.000 C 
BRANCH  14  15
ATOM     15  C   UNL     1      32.428  -5.186  11.419  1.00  0.00    -0.003 C 
ATOM     16  C   UNL     1      33.877  -5.472  11.037  1.00  0.00     0.004 C 
ENDBRANCH  14  15
ENDBRANCH  13  14
ENDBRANCH  12  13
ENDBRANCH  11  12
ENDBRANCH  10  11
ENDBRANCH   1  10
TORSDOF 12
ENDMDL
MODEL 2
REMARK VINA RESULT:    -4.977      4.210      8.043
REMARK INTER + INTRA:          -9.352
REMARK INTER:                  -8.460
REMARK INTRA:                  -0.892
REMARK UNBOUND:                -0.884
REMARK SMILES CCCCCCCCCCCCCC(=O)[O-]
REMARK SMILES IDX 8 1 9 2 10 3 11 4 12 5 13 6 14 7 15 8 16 9 7 10 6 11 5 12
REMARK SMILES IDX 4 13 3 14 2 15 1 16
REMARK H PARENT
REMARK Flexibility Score: inf
ROOT
ATOM      1  C   UNL     1      30.603 -10.527  12.981  1.00  0.00     0.000 C 
ENDROOT
BRANCH   1   2
ATOM      2  C   UNL     1      31.199  -9.243  13.585  1.00  0.00     0.000 C 
BRANCH   2   3
ATOM      3  C   UNL     1      31.633  -8.181  12.557  1.00  0.00     0.000 C 
BRANCH   3   4
ATOM      4  C   UNL     1      30.583  -7.078  12.356  1.00  0.00     0.000 C 
BRANCH   4   5
ATOM      5  C   UNL     1      30.965  -6.164  11.183  1.00  0.00     0.006 C 
BRANCH   5   6
ATOM      6  C   UNL     1      32.345  -5.521  11.374  1.00  0.00     0.053 C 
BRANCH   6   7
ATOM      7  C   UNL     1      33.240  -5.767  10.199  1.00  0.00     0.041 C 
ATOM      8  O   UNL     1      32.748  -5.961   9.056  1.00  0.00    -0.550 OA
ATOM      9  O   UNL     1      34.617  -5.816  10.372  1.00  0.00    -0.550 OA
ENDBRANCH   6   7
ENDBRANCH   5   6
ENDBRANCH   4   5
ENDBRANCH   3   4
ENDBRANCH   2   3
ENDBRANCH   1   2
BRANCH   1  10
ATOM     10  C   UNL     1      29.251 -10.910  13.602  1.00  0.00     0.000 C 
BRANCH  10  11
ATOM     11  C   UNL     1      28.920 -10.002  14.796  1.00  0.00    -0.000 C 
BRANCH  11  12
ATOM     12  C   UNL     1      27.704 -10.497  15.595  1.00  0.00    -0.000 C 
BRANCH  12  13
ATOM     13  C   UNL     1      27.337 -11.956  15.270  1.00  0.00    -0.000 C 
BRANCH  13  14
ATOM     14  C   UNL     1      27.899 -12.949  16.300  1.00  0.00    -0.000 C 
BRANCH  14  15
ATOM     15  C   UNL     1      28.532 -14.184  15.644  1.00  0.00    -0.003 C 
ATOM     16  C   UNL     1      27.850 -14.514  14.320  1.00  0.00     0.004 C 
ENDBRANCH  14  15
ENDBRANCH  13  14
ENDBRANCH  12  13
ENDBRANCH  11  12
ENDBRANCH  10  11
ENDBRANCH   1  10
TORSDOF 12
ENDMDL
MODEL 3
REMARK VINA RESULT:    -4.891      3.979      7.714
REMARK INTER + INTRA:          -9.206
REMARK INTER:                  -8.191
REMARK INTRA:                  -1.015
REMARK UNBOUND:                -0.884
REMARK SMILES CCCCCCCCCCCCCC(=O)[O-]
REMARK SMILES IDX 8 1 9 2 10 3 11 4 12 5 13 6 14 7 15 8 16 9 7 10 6 11 5 12
REMARK SMILES IDX 4 13 3 14 2 15 1 16
REMARK H PARENT
REMARK Flexibility Score: inf
ROOT
ATOM      1  C   UNL     1      28.823  -9.941  15.178  1.00  0.00     0.000 C 
ENDROOT
BRANCH   1   2
ATOM      2  C   UNL     1      29.918  -9.919  14.097  1.00  0.00     0.000 C 
BRANCH   2   3
ATOM      3  C   UNL     1      30.549  -8.539  13.839  1.00  0.00     0.000 C 
BRANCH   3   4
ATOM      4  C   UNL     1      30.914  -8.312  12.364  1.00  0.00     0.000 C 
BRANCH   4   5
ATOM      5  C   UNL     1      30.662  -6.854  11.953  1.00  0.00     0.006 C 
BRANCH   5   6
ATOM      6  C   UNL     1      31.033  -6.591  10.488  1.00  0.00     0.053 C 
BRANCH   6   7
ATOM      7  C   UNL     1      32.466  -6.182  10.343  1.00  0.00     0.041 C 
ATOM      8  O   UNL     1      32.958  -5.313  11.110  1.00  0.00    -0.550 OA
ATOM      9  O   UNL     1      33.249  -6.735   9.339  1.00  0.00    -0.550 OA
ENDBRANCH   6   7
ENDBRANCH   5   6
ENDBRANCH   4   5
ENDBRANCH   3   4
ENDBRANCH   2   3
ENDBRANCH   1   2
BRANCH   1  10
ATOM     10  C   UNL     1      27.422 -10.207  14.606  1.00  0.00     0.000 C 
BRANCH  10  11
ATOM     11  C   UNL     1      27.460 -11.334  13.563  1.00  0.00    -0.000 C 
BRANCH  11  12
ATOM     12  C   UNL     1      26.875 -12.652  14.095  1.00  0.00    -0.000 C 
BRANCH  12  13
ATOM     13  C   UNL     1      27.791 -13.858  13.822  1.00  0.00    -0.000 C 
BRANCH  13  14
ATOM     14  C   UNL     1      28.358 -14.473  15.112  1.00  0.00    -0.000 C 
BRANCH  14  15
ATOM     15  C   UNL     1      28.362 -13.484  16.285  1.00  0.00    -0.003 C 
ATOM     16  C   UNL     1      29.785 -13.085  16.665  1.00  0.00     0.004 C 
ENDBRANCH  14  15
ENDBRANCH  13  14
ENDBRANCH  12  13
ENDBRANCH  11  12
ENDBRANCH  10  11
ENDBRANCH   1  10
TORSDOF 12
ENDMDL
MODEL 4
REMARK VINA RESULT:    -4.887      1.934      3.137
REMARK INTER + INTRA:          -9.199
REMARK INTER:                  -8.138
REMARK INTRA:                  -1.061
REMARK UNBOUND:                -0.884
REMARK SMILES CCCCCCCCCCCCCC(=O)[O-]
REMARK SMILES IDX 8 1 9 2 10 3 11 4 12 5 13 6 14 7 15 8 16 9 7 10 6 11 5 12
REMARK SMILES IDX 4 13 3 14 2 15 1 16
REMARK H PARENT
REMARK Flexibility Score: inf
ROOT
ATOM      1  C   UNL     1      31.014 -10.441  13.177  1.00  0.00     0.000 C 
ENDROOT
BRANCH   1   2
ATOM      2  C   UNL     1      29.568 -10.863  12.861  1.00  0.00     0.000 C 
BRANCH   2   3
ATOM      3  C   UNL     1      28.807 -11.508  14.034  1.00  0.00     0.000 C 
BRANCH   3   4
ATOM      4  C   UNL     1      27.516 -10.759  14.396  1.00  0.00     0.000 C 
BRANCH   4   5
ATOM      5  C   UNL     1      27.555 -10.270  15.851  1.00  0.00     0.006 C 
BRANCH   5   6
ATOM      6  C   UNL     1      28.388  -8.992  16.013  1.00  0.00     0.053 C 
BRANCH   6   7
ATOM      7  C   UNL     1      29.521  -9.185  16.973  1.00  0.00     0.041 C 
ATOM      8  O   UNL     1      30.316 -10.151  16.830  1.00  0.00    -0.550 OA
ATOM      9  O   UNL     1      29.680  -8.317  18.045  1.00  0.00    -0.550 OA
ENDBRANCH   6   7
ENDBRANCH   5   6
ENDBRANCH   4   5
ENDBRANCH   3   4
ENDBRANCH   2   3
ENDBRANCH   1   2
BRANCH   1  10
ATOM     10  C   UNL     1      31.125  -8.978  13.633  1.00  0.00     0.000 C 
BRANCH  10  11
ATOM     11  C   UNL     1      31.656  -8.089  12.498  1.00  0.00    -0.000 C 
BRANCH  11  12
ATOM     12  C   UNL     1      30.665  -6.985  12.099  1.00  0.00    -0.000 C 
BRANCH  12  13
ATOM     13  C   UNL     1      31.274  -5.972  11.113  1.00  0.00    -0.000 C 
BRANCH  13  14
ATOM     14  C   UNL     1      32.561  -5.325  11.650  1.00  0.00    -0.000 C 
BRANCH  14  15
ATOM     15  C   UNL     1      33.695  -5.322  10.615  1.00  0.00    -0.003 C 
ATOM     16  C   UNL     1      33.331  -6.168   9.398  1.00  0.00     0.004 C 
ENDBRANCH  14  15
ENDBRANCH  13  14
ENDBRANCH  12  13
ENDBRANCH  11  12
ENDBRANCH  10  11
ENDBRANCH   1  10
TORSDOF 12
ENDMDL
MODEL 5
REMARK VINA RESULT:    -4.882      3.785      7.246
REMARK INTER + INTRA:          -9.190
REMARK INTER:                  -7.746
REMARK INTRA:                  -1.444
REMARK UNBOUND:                -0.884
REMARK SMILES CCCCCCCCCCCCCC(=O)[O-]
REMARK SMILES IDX 8 1 9 2 10 3 11 4 12 5 13 6 14 7 15 8 16 9 7 10 6 11 5 12
REMARK SMILES IDX 4 13 3 14 2 15 1 16
REMARK H PARENT
REMARK Flexibility Score: inf
ROOT
ATOM      1  C   UNL     1      31.654  -8.891  12.741  1.00  0.00     0.000 C 
ENDROOT
BRANCH   1   2
ATOM      2  C   UNL     1      30.591  -7.789  12.904  1.00  0.00     0.000 C 
BRANCH   2   3
ATOM      3  C   UNL     1      30.656  -6.663  11.857  1.00  0.00     0.000 C 
BRANCH   3   4
ATOM      4  C   UNL     1      31.437  -7.061  10.596  1.00  0.00     0.000 C 
BRANCH   4   5
ATOM      5  C   UNL     1      32.284  -5.887  10.081  1.00  0.00     0.006 C 
BRANCH   5   6
ATOM      6  C   UNL     1      33.372  -5.474  11.081  1.00  0.00     0.053 C 
BRANCH   6   7
ATOM      7  C   UNL     1      34.374  -6.566  11.294  1.00  0.00     0.041 C 
ATOM      8  O   UNL     1      34.554  -7.047  12.444  1.00  0.00    -0.550 OA
ATOM      9  O   UNL     1      35.134  -7.031  10.229  1.00  0.00    -0.550 OA
ENDBRANCH   6   7
ENDBRANCH   5   6
ENDBRANCH   4   5
ENDBRANCH   3   4
ENDBRANCH   2   3
ENDBRANCH   1   2
BRANCH   1  10
ATOM     10  C   UNL     1      31.278 -10.197  13.456  1.00  0.00     0.000 C 
BRANCH  10  11
ATOM     11  C   UNL     1      29.870 -10.658  13.051  1.00  0.00    -0.000 C 
BRANCH  11  12
ATOM     12  C   UNL     1      29.080 -11.250  14.229  1.00  0.00    -0.000 C 
BRANCH  12  13
ATOM     13  C   UNL     1      27.805 -10.449  14.548  1.00  0.00    -0.000 C 
BRANCH  13  14
ATOM     14  C   UNL     1      28.031  -9.391  15.641  1.00  0.00    -0.000 C 
BRANCH  14  15
ATOM     15  C   UNL     1      29.236  -9.714  16.535  1.00  0.00    -0.003 C 
ATOM     16  C   UNL     1      30.012  -8.450  16.891  1.00  0.00     0.004 C 
ENDBRANCH  14  15
ENDBRANCH  13  14
ENDBRANCH  12  13
ENDBRANCH  11  12
ENDBRANCH  10  11
ENDBRANCH   1  10
TORSDOF 12
ENDMDL
MODEL 6
REMARK VINA RESULT:    -4.785      2.486      5.144
REMARK INTER + INTRA:          -9.026
REMARK INTER:                  -7.236
REMARK INTRA:                  -1.790
REMARK UNBOUND:                -0.884
REMARK SMILES CCCCCCCCCCCCCC(=O)[O-]
REMARK SMILES IDX 8 1 9 2 10 3 11 4 12 5 13 6 14 7 15 8 16 9 7 10 6 11 5 12
REMARK SMILES IDX 4 13 3 14 2 15 1 16
REMARK H PARENT
REMARK Flexibility Score: inf
ROOT
ATOM      1  C   UNL     1      32.970  -5.870  11.677  1.00  0.00     0.000 C 
ENDROOT
BRANCH   1   2
ATOM      2  C   UNL     1      31.446  -5.725  11.517  1.00  0.00     0.000 C 
BRANCH   2   3
ATOM      3  C   UNL     1      30.631  -6.979  11.884  1.00  0.00     0.000 C 
BRANCH   3   4
ATOM      4  C   UNL     1      31.498  -8.111  12.455  1.00  0.00     0.000 C 
BRANCH   4   5
ATOM      5  C   UNL     1      30.630  -9.169  13.152  1.00  0.00     0.006 C 
BRANCH   5   6
ATOM      6  C   UNL     1      29.943  -8.618  14.409  1.00  0.00     0.053 C 
BRANCH   6   7
ATOM      7  C   UNL     1      28.825  -9.504  14.864  1.00  0.00     0.041 C 
ATOM      8  O   UNL     1      28.491 -10.507  14.179  1.00  0.00    -0.550 OA
ATOM      9  O   UNL     1      28.129  -9.204  16.028  1.00  0.00    -0.550 OA
ENDBRANCH   6   7
ENDBRANCH   5   6
ENDBRANCH   4   5
ENDBRANCH   3   4
ENDBRANCH   2   3
ENDBRANCH   1   2
BRANCH   1  10
ATOM     10  C   UNL     1      33.757  -5.256  10.509  1.00  0.00     0.000 C 
BRANCH  10  11
ATOM     11  C   UNL     1      34.793  -6.251   9.963  1.00  0.00    -0.000 C 
BRANCH  11  12
ATOM     12  C   UNL     1      34.263  -7.692   9.920  1.00  0.00    -0.000 C 
BRANCH  12  13
ATOM     13  C   UNL     1      33.605  -8.040   8.573  1.00  0.00    -0.000 C 
BRANCH  13  14
ATOM     14  C   UNL     1      32.095  -8.295   8.701  1.00  0.00    -0.000 C 
BRANCH  14  15
ATOM     15  C   UNL     1      31.252  -7.111   8.207  1.00  0.00    -0.003 C 
ATOM     16  C   UNL     1      32.059  -6.213   7.274  1.00  0.00     0.004 C 
ENDBRANCH  14  15
ENDBRANCH  13  14
ENDBRANCH  12  13
ENDBRANCH  11  12
ENDBRANCH  10  11
ENDBRANCH   1  10
TORSDOF 12
ENDMDL
MODEL 7
REMARK VINA RESULT:    -4.784      1.281      3.226
REMARK INTER + INTRA:          -9.024
REMARK INTER:                  -7.984
REMARK INTRA:                  -1.040
REMARK UNBOUND:                -0.884
REMARK SMILES CCCCCCCCCCCCCC(=O)[O-]
REMARK SMILES IDX 8 1 9 2 10 3 11 4 12 5 13 6 14 7 15 8 16 9 7 10 6 11 5 12
REMARK SMILES IDX 4 13 3 14 2 15 1 16
REMARK H PARENT
REMARK Flexibility Score: inf
ROOT
ATOM      1  C   UNL     1      31.323  -8.358  12.678  1.00  0.00     0.000 C 
ENDROOT
BRANCH   1   2
ATOM      2  C   UNL     1      30.442  -9.206  13.614  1.00  0.00     0.000 C 
BRANCH   2   3
ATOM      3  C   UNL     1      30.731  -9.029  15.116  1.00  0.00     0.000 C 
BRANCH   3   4
ATOM      4  C   UNL     1      29.457  -8.859  15.956  1.00  0.00     0.000 C 
BRANCH   4   5
ATOM      5  C   UNL     1      28.212  -9.263  15.152  1.00  0.00     0.006 C 
BRANCH   5   6
ATOM      6  C   UNL     1      27.385 -10.341  15.866  1.00  0.00     0.053 C 
BRANCH   6   7
ATOM      7  C   UNL     1      27.764 -11.719  15.417  1.00  0.00     0.041 C 
ATOM      8  O   UNL     1      28.322 -11.892  14.302  1.00  0.00    -0.550 OA
ATOM      9  O   UNL     1      27.471 -12.816  16.217  1.00  0.00    -0.550 OA
ENDBRANCH   6   7
ENDBRANCH   5   6
ENDBRANCH   4   5
ENDBRANCH   3   4
ENDBRANCH   2   3
ENDBRANCH   1   2
BRANCH   1  10
ATOM     10  C   UNL     1      30.638  -7.061  12.222  1.00  0.00     0.000 C 
BRANCH  10  11
ATOM     11  C   UNL     1      31.422  -6.400  11.078  1.00  0.00    -0.000 C 
BRANCH  11  12
ATOM     12  C   UNL     1      32.136  -5.113  11.518  1.00  0.00    -0.000 C 
BRANCH  12  13
ATOM     13  C   UNL     1      33.597  -5.053  11.037  1.00  0.00    -0.000 C 
BRANCH  13  14
ATOM     14  C   UNL     1      33.911  -6.112   9.968  1.00  0.00    -0.000 C 
BRANCH  14  15
ATOM     15  C   UNL     1      35.130  -6.973  10.330  1.00  0.00    -0.003 C 
ATOM     16  C   UNL     1      35.076  -7.416  11.789  1.00  0.00     0.004 C 
ENDBRANCH  14  15
ENDBRANCH  13  14
ENDBRANCH  12  13
ENDBRANCH  11  12
ENDBRANCH  10  11
ENDBRANCH   1  10
TORSDOF 12
ENDMDL
MODEL 8
REMARK VINA RESULT:    -4.772      2.510      3.962
REMARK INTER + INTRA:          -9.003
REMARK INTER:                  -7.412
REMARK INTRA:                  -1.591
REMARK UNBOUND:                -0.884
REMARK SMILES CCCCCCCCCCCCCC(=O)[O-]
REMARK SMILES IDX 8 1 9 2 10 3 11 4 12 5 13 6 14 7 15 8 16 9 7 10 6 11 5 12
REMARK SMILES IDX 4 13 3 14 2 15 1 16
REMARK H PARENT
REMARK Flexibility Score: inf
ROOT
ATOM      1  C   UNL     1      30.774  -7.827  12.865  1.00  0.00     0.000 C 
ENDROOT
BRANCH   1   2
ATOM      2  C   UNL     1      31.195  -9.163  12.226  1.00  0.00     0.000 C 
BRANCH   2   3
ATOM      3  C   UNL     1      30.992 -10.403  13.116  1.00  0.00     0.000 C 
BRANCH   3   4
ATOM      4  C   UNL     1      29.512 -10.750  13.332  1.00  0.00     0.000 C 
BRANCH   4   5
ATOM      5  C   UNL     1      29.191 -10.879  14.828  1.00  0.00     0.006 C 
BRANCH   5   6
ATOM      6  C   UNL     1      28.682  -9.561  15.428  1.00  0.00     0.053 C 
BRANCH   6   7
ATOM      7  C   UNL     1      29.621  -9.021  16.461  1.00  0.00     0.041 C 
ATOM      8  O   UNL     1      30.863  -9.014  16.248  1.00  0.00    -0.550 OA
ATOM      9  O   UNL     1      29.130  -8.555  17.673  1.00  0.00    -0.550 OA
ENDBRANCH   6   7
ENDBRANCH   5   6
ENDBRANCH   4   5
ENDBRANCH   3   4
ENDBRANCH   2   3
ENDBRANCH   1   2
BRANCH   1  10
ATOM     10  C   UNL     1      30.651  -6.686  11.844  1.00  0.00     0.000 C 
BRANCH  10  11
ATOM     11  C   UNL     1      31.250  -7.095  10.490  1.00  0.00    -0.000 C 
BRANCH  11  12
ATOM     12  C   UNL     1      32.273  -6.076   9.964  1.00  0.00    -0.000 C 
BRANCH  12  13
ATOM     13  C   UNL     1      33.048  -5.379  11.097  1.00  0.00    -0.000 C 
BRANCH  13  14
ATOM     14  C   UNL     1      34.456  -5.963  11.295  1.00  0.00    -0.000 C 
BRANCH  14  15
ATOM     15  C   UNL     1      34.470  -7.154  12.263  1.00  0.00    -0.003 C 
ATOM     16  C   UNL     1      34.775  -8.456  11.528  1.00  0.00     0.004 C 
ENDBRANCH  14  15
ENDBRANCH  13  14
ENDBRANCH  12  13
ENDBRANCH  11  12
ENDBRANCH  10  11
ENDBRANCH   1  10
TORSDOF 12
ENDMDL
MODEL 9
REMARK VINA RESULT:    -4.691      4.009      7.563
REMARK INTER + INTRA:          -8.865
REMARK INTER:                  -7.543
REMARK INTRA:                  -1.322
REMARK UNBOUND:                -0.884
REMARK SMILES CCCCCCCCCCCCCC(=O)[O-]
REMARK SMILES IDX 8 1 9 2 10 3 11 4 12 5 13 6 14 7 15 8 16 9 7 10 6 11 5 12
REMARK SMILES IDX 4 13 3 14 2 15 1 16
REMARK H PARENT
REMARK Flexibility Score: inf
ROOT
ATOM      1  C   UNL     1      31.041  -9.614  12.210  1.00  0.00     0.000 C 
ENDROOT
BRANCH   1   2
ATOM      2  C   UNL     1      31.552  -8.192  12.503  1.00  0.00     0.000 C 
BRANCH   2   3
ATOM      3  C   UNL     1      30.538  -7.067  12.228  1.00  0.00     0.000 C 
BRANCH   3   4
ATOM      4  C   UNL     1      31.125  -5.923  11.387  1.00  0.00     0.000 C 
BRANCH   4   5
ATOM      5  C   UNL     1      32.648  -5.835  11.568  1.00  0.00     0.006 C 
BRANCH   5   6
ATOM      6  C   UNL     1      33.376  -5.587  10.241  1.00  0.00     0.053 C 
BRANCH   6   7
ATOM      7  C   UNL     1      32.899  -6.512   9.164  1.00  0.00     0.041 C 
ATOM      8  O   UNL     1      32.337  -6.052   8.135  1.00  0.00    -0.550 OA
ATOM      9  O   UNL     1      33.045  -7.885   9.312  1.00  0.00    -0.550 OA
ENDBRANCH   6   7
ENDBRANCH   5   6
ENDBRANCH   4   5
ENDBRANCH   3   4
ENDBRANCH   2   3
ENDBRANCH   1   2
BRANCH   1  10
ATOM     10  C   UNL     1      30.840 -10.453  13.481  1.00  0.00     0.000 C 
BRANCH  10  11
ATOM     11  C   UNL     1      31.262  -9.666  14.730  1.00  0.00    -0.000 C 
BRANCH  11  12
ATOM     12  C   UNL     1      30.134  -9.553  15.767  1.00  0.00    -0.000 C 
BRANCH  12  13
ATOM     13  C   UNL     1      28.829  -9.004  15.163  1.00  0.00    -0.000 C 
BRANCH  13  14
ATOM     14  C   UNL     1      27.611  -9.882  15.491  1.00  0.00    -0.000 C 
BRANCH  14  15
ATOM     15  C   UNL     1      27.238 -10.827  14.340  1.00  0.00    -0.003 C 
ATOM     16  C   UNL     1      27.728 -12.246  14.612  1.00  0.00     0.004 C 
ENDBRANCH  14  15
ENDBRANCH  13  14
ENDBRANCH  12  13
ENDBRANCH  11  12
ENDBRANCH  10  11
ENDBRANCH   1  10
TORSDOF 12
ENDMDL
