MODEL 1
REMARK VINA RESULT:     9.756      0.000      0.000
REMARK INTER + INTRA:          15.933
REMARK INTER:                  13.748
REMARK INTRA:                   2.185
REMARK UNBOUND:                 2.185
REMARK SMILES COc1ccc(-c2cc(=O)c3c(OC)c(OC)c(OC)c(OC)c3o2)cc1OC
REMARK SMILES IDX 7 1 8 2 9 3 10 4 11 5 24 6 25 7 21 8 18 9 15 10 12 11 6 12
REMARK SMILES IDX 3 13 27 14 4 15 26 16 5 17 2 18 1 19 28 20 29 21 22 22 23 23
REMARK SMILES IDX 13 24 14 25 19 26 20 27 16 28 17 29
REMARK H PARENT
REMARK Flexibility Score: inf
ROOT
ATOM      1  C   UNL     1      14.691  38.974 -12.800  1.00  0.00     0.138 A 
ATOM      2  C   UNL     1      13.844  38.279 -13.665  1.00  0.00     0.100 A 
ATOM      3  C   UNL     1      12.524  38.051 -13.287  1.00  0.00     0.197 A 
ATOM      4  O   UNL     1      11.773  37.431 -14.085  1.00  0.00    -0.289 OA
ATOM      5  C   UNL     1      12.058  38.522 -12.034  1.00  0.00     0.115 A 
ATOM      6  C   UNL     1      12.976  39.216 -11.211  1.00  0.00     0.188 A 
ATOM      7  O   UNL     1      14.223  39.411 -11.636  1.00  0.00    -0.452 OA
ATOM      8  C   UNL     1      12.580  39.696  -9.941  1.00  0.00     0.209 A 
ATOM      9  C   UNL     1      11.241  39.510  -9.508  1.00  0.00     0.211 A 
ATOM     10  C   UNL     1      10.310  38.836 -10.344  1.00  0.00     0.208 A 
ATOM     11  C   UNL     1      10.727  38.317 -11.596  1.00  0.00     0.179 A 
ENDROOT
BRANCH   1  12
ATOM     12  C   UNL     1      16.105  39.244 -13.158  1.00  0.00     0.021 A 
ATOM     13  C   UNL     1      18.799  39.789 -13.799  1.00  0.00     0.160 A 
ATOM     14  C   UNL     1      18.027  40.757 -13.139  1.00  0.00     0.161 A 
ATOM     15  C   UNL     1      18.223  38.547 -14.125  1.00  0.00     0.051 A 
ATOM     16  C   UNL     1      16.683  40.478 -12.820  1.00  0.00     0.062 A 
ATOM     17  C   UNL     1      16.891  38.278 -13.805  1.00  0.00     0.016 A 
BRANCH  13  18
ATOM     18  O   UNL     1      20.133  40.097 -14.110  1.00  0.00    -0.493 OA
ATOM     19  C   UNL     1      20.676  41.414 -14.125  1.00  0.00     0.278 C 
ENDBRANCH  13  18
BRANCH  14  20
ATOM     20  O   UNL     1      18.628  41.985 -12.818  1.00  0.00    -0.493 OA
ATOM     21  C   UNL     1      17.913  43.177 -12.509  1.00  0.00     0.278 C 
ENDBRANCH  14  20
ENDBRANCH   1  12
BRANCH   8  22
ATOM     22  O   UNL     1      13.476  40.352  -9.074  1.00  0.00    -0.490 OA
ATOM     23  C   UNL     1      14.062  41.639  -9.234  1.00  0.00     0.278 C 
ENDBRANCH   8  22
BRANCH  11  24
ATOM     24  O   UNL     1       9.863  37.590 -12.445  1.00  0.00    -0.492 OA
ATOM     25  C   UNL     1       9.387  37.961 -13.735  1.00  0.00     0.278 C 
ENDBRANCH  11  24
BRANCH   9  26
ATOM     26  O   UNL     1      10.787  39.972  -8.256  1.00  0.00    -0.490 OA
ATOM     27  C   UNL     1      11.526  40.129  -7.051  1.00  0.00     0.279 C 
ENDBRANCH   9  26
BRANCH  10  28
ATOM     28  O   UNL     1       8.960  38.660  -9.980  1.00  0.00    -0.490 OA
ATOM     29  C   UNL     1       7.898  39.605 -10.043  1.00  0.00     0.278 C 
ENDBRANCH  10  28
TORSDOF 7
ENDMDL
MODEL 2
REMARK VINA RESULT:    11.360      2.067      4.398
REMARK INTER + INTRA:          18.193
REMARK INTER:                  17.228
REMARK INTRA:                   0.965
REMARK UNBOUND:                 2.185
REMARK SMILES COc1ccc(-c2cc(=O)c3c(OC)c(OC)c(OC)c(OC)c3o2)cc1OC
REMARK SMILES IDX 7 1 8 2 9 3 10 4 11 5 24 6 25 7 21 8 18 9 15 10 12 11 6 12
REMARK SMILES IDX 3 13 27 14 4 15 26 16 5 17 2 18 1 19 28 20 29 21 22 22 23 23
REMARK SMILES IDX 13 24 14 25 19 26 20 27 16 28 17 29
REMARK H PARENT
REMARK Flexibility Score: inf
ROOT
ATOM      1  C   UNL     1      17.017  41.216 -11.982  1.00  0.00     0.138 A 
ATOM      2  C   UNL     1      16.377  41.955 -10.984  1.00  0.00     0.100 A 
ATOM      3  C   UNL     1      15.077  41.621 -10.619  1.00  0.00     0.197 A 
ATOM      4  O   UNL     1      14.521  42.294  -9.711  1.00  0.00    -0.289 OA
ATOM      5  C   UNL     1      14.417  40.544 -11.262  1.00  0.00     0.115 A 
ATOM      6  C   UNL     1      15.129  39.844 -12.264  1.00  0.00     0.188 A 
ATOM      7  O   UNL     1      16.376  40.205 -12.560  1.00  0.00    -0.452 OA
ATOM      8  C   UNL     1      14.523  38.770 -12.957  1.00  0.00     0.209 A 
ATOM      9  C   UNL     1      13.205  38.371 -12.615  1.00  0.00     0.211 A 
ATOM     10  C   UNL     1      12.497  39.056 -11.591  1.00  0.00     0.208 A 
ATOM     11  C   UNL     1      13.095  40.162 -10.933  1.00  0.00     0.179 A 
ENDROOT
BRANCH   1  12
ATOM     12  C   UNL     1      18.403  41.530 -12.405  1.00  0.00     0.021 A 
ATOM     13  C   UNL     1      21.058  42.113 -13.164  1.00  0.00     0.160 A 
ATOM     14  C   UNL     1      20.678  42.211 -11.817  1.00  0.00     0.161 A 
ATOM     15  C   UNL     1      20.111  41.714 -14.125  1.00  0.00     0.051 A 
ATOM     16  C   UNL     1      19.351  41.916 -11.444  1.00  0.00     0.062 A 
ATOM     17  C   UNL     1      18.798  41.423 -13.748  1.00  0.00     0.016 A 
BRANCH  13  18
ATOM     18  O   UNL     1      22.385  42.419 -13.507  1.00  0.00    -0.493 OA
ATOM     19  C   UNL     1      22.801  43.634 -14.124  1.00  0.00     0.278 C 
ENDBRANCH  13  18
BRANCH  14  20
ATOM     20  O   UNL     1      21.645  42.603 -10.877  1.00  0.00    -0.493 OA
ATOM     21  C   UNL     1      21.951  43.956 -10.553  1.00  0.00     0.278 C 
ENDBRANCH  14  20
ENDBRANCH   1  12
BRANCH   8  22
ATOM     22  O   UNL     1      15.182  38.077 -13.992  1.00  0.00    -0.490 OA
ATOM     23  C   UNL     1      15.790  36.790 -13.933  1.00  0.00     0.278 C 
ENDBRANCH   8  22
BRANCH  11  24
ATOM     24  O   UNL     1      12.421  40.917  -9.947  1.00  0.00    -0.492 OA
ATOM     25  C   UNL     1      12.227  40.589  -8.574  1.00  0.00     0.278 C 
ENDBRANCH  11  24
BRANCH   9  26
ATOM     26  O   UNL     1      12.551  37.305 -13.265  1.00  0.00    -0.490 OA
ATOM     27  C   UNL     1      11.390  37.350 -14.086  1.00  0.00     0.279 C 
ENDBRANCH   9  26
BRANCH  10  28
ATOM     28  O   UNL     1      11.202  38.677 -11.185  1.00  0.00    -0.490 OA
ATOM     29  C   UNL     1      10.657  38.660  -9.870  1.00  0.00     0.278 C 
ENDBRANCH  10  28
TORSDOF 7
ENDMDL
MODEL 3
REMARK VINA RESULT:    11.975      1.742      8.029
REMARK INTER + INTRA:          19.061
REMARK INTER:                  17.628
REMARK INTRA:                   1.432
REMARK UNBOUND:                 2.185
REMARK SMILES COc1ccc(-c2cc(=O)c3c(OC)c(OC)c(OC)c(OC)c3o2)cc1OC
REMARK SMILES IDX 7 1 8 2 9 3 10 4 11 5 24 6 25 7 21 8 18 9 15 10 12 11 6 12
REMARK SMILES IDX 3 13 27 14 4 15 26 16 5 17 2 18 1 19 28 20 29 21 22 22 23 23
REMARK SMILES IDX 13 24 14 25 19 26 20 27 16 28 17 29
REMARK H PARENT
REMARK Flexibility Score: inf
ROOT
ATOM      1  C   UNL     1      12.563  39.080 -10.848  1.00  0.00     0.138 A 
ATOM      2  C   UNL     1      12.654  37.861 -11.524  1.00  0.00     0.100 A 
ATOM      3  C   UNL     1      13.758  37.614 -12.335  1.00  0.00     0.197 A 
ATOM      4  O   UNL     1      13.826  36.505 -12.929  1.00  0.00    -0.289 OA
ATOM      5  C   UNL     1      14.770  38.597 -12.468  1.00  0.00     0.115 A 
ATOM      6  C   UNL     1      14.606  39.807 -11.754  1.00  0.00     0.188 A 
ATOM      7  O   UNL     1      13.532  39.978 -10.986  1.00  0.00    -0.452 OA
ATOM      8  C   UNL     1      15.571  40.837 -11.857  1.00  0.00     0.209 A 
ATOM      9  C   UNL     1      16.727  40.636 -12.654  1.00  0.00     0.211 A 
ATOM     10  C   UNL     1      16.906  39.411 -13.352  1.00  0.00     0.208 A 
ATOM     11  C   UNL     1      15.912  38.402 -13.281  1.00  0.00     0.179 A 
ENDROOT
BRANCH   1  12
ATOM     12  C   UNL     1      11.409  39.390  -9.971  1.00  0.00     0.021 A 
ATOM     13  C   UNL     1       9.189  39.937  -8.315  1.00  0.00     0.160 A 
ATOM     14  C   UNL     1       9.017  39.194  -9.494  1.00  0.00     0.161 A 
ATOM     15  C   UNL     1      10.473  40.393  -7.964  1.00  0.00     0.051 A 
ATOM     16  C   UNL     1      10.130  38.923 -10.315  1.00  0.00     0.062 A 
ATOM     17  C   UNL     1      11.571  40.120  -8.782  1.00  0.00     0.016 A 
BRANCH  13  18
ATOM     18  O   UNL     1       8.061  40.198  -7.520  1.00  0.00    -0.493 OA
ATOM     19  C   UNL     1       7.083  41.192  -7.807  1.00  0.00     0.278 C 
ENDBRANCH  13  18
BRANCH  14  20
ATOM     20  O   UNL     1       7.727  38.743  -9.816  1.00  0.00    -0.493 OA
ATOM     21  C   UNL     1       7.156  37.528  -9.342  1.00  0.00     0.278 C 
ENDBRANCH  14  20
ENDBRANCH   1  12
BRANCH   8  22
ATOM     22  O   UNL     1      15.422  42.073 -11.198  1.00  0.00    -0.490 OA
ATOM     23  C   UNL     1      14.462  42.426 -10.207  1.00  0.00     0.278 C 
ENDBRANCH   8  22
BRANCH  11  24
ATOM     24  O   UNL     1      16.007  37.186 -13.996  1.00  0.00    -0.492 OA
ATOM     25  C   UNL     1      16.834  36.063 -13.707  1.00  0.00     0.278 C 
ENDBRANCH  11  24
BRANCH   9  26
ATOM     26  O   UNL     1      17.726  41.621 -12.791  1.00  0.00    -0.490 OA
ATOM     27  C   UNL     1      17.976  42.477 -13.900  1.00  0.00     0.279 C 
ENDBRANCH   9  26
BRANCH  10  28
ATOM     28  O   UNL     1      18.054  39.144 -14.125  1.00  0.00    -0.490 OA
ATOM     29  C   UNL     1      19.302  39.829 -14.120  1.00  0.00     0.278 C 
ENDBRANCH  10  28
TORSDOF 7
ENDMDL
MODEL 4
REMARK VINA RESULT:    12.690      1.877      8.600
REMARK INTER + INTRA:          20.068
REMARK INTER:                  19.244
REMARK INTRA:                   0.824
REMARK UNBOUND:                 2.185
REMARK SMILES COc1ccc(-c2cc(=O)c3c(OC)c(OC)c(OC)c(OC)c3o2)cc1OC
REMARK SMILES IDX 7 1 8 2 9 3 10 4 11 5 24 6 25 7 21 8 18 9 15 10 12 11 6 12
REMARK SMILES IDX 3 13 27 14 4 15 26 16 5 17 2 18 1 19 28 20 29 21 22 22 23 23
REMARK SMILES IDX 13 24 14 25 19 26 20 27 16 28 17 29
REMARK H PARENT
REMARK Flexibility Score: inf
ROOT
ATOM      1  C   UNL     1      12.305  40.247  -9.974  1.00  0.00     0.138 A 
ATOM      2  C   UNL     1      13.119  41.344  -9.685  1.00  0.00     0.100 A 
ATOM      3  C   UNL     1      14.334  41.482 -10.349  1.00  0.00     0.197 A 
ATOM      4  O   UNL     1      15.050  42.484 -10.081  1.00  0.00    -0.289 OA
ATOM      5  C   UNL     1      14.733  40.512 -11.302  1.00  0.00     0.115 A 
ATOM      6  C   UNL     1      13.856  39.428 -11.539  1.00  0.00     0.188 A 
ATOM      7  O   UNL     1      12.701  39.359 -10.879  1.00  0.00    -0.452 OA
ATOM      8  C   UNL     1      14.201  38.415 -12.465  1.00  0.00     0.209 A 
ATOM      9  C   UNL     1      15.419  38.511 -13.185  1.00  0.00     0.211 A 
ATOM     10  C   UNL     1      16.290  39.613 -12.968  1.00  0.00     0.208 A 
ATOM     11  C   UNL     1      15.959  40.599 -12.004  1.00  0.00     0.179 A 
ENDROOT
BRANCH   1  12
ATOM     12  C   UNL     1      11.000  40.056  -9.296  1.00  0.00     0.021 A 
ATOM     13  C   UNL     1       8.508  39.652  -8.034  1.00  0.00     0.160 A 
ATOM     14  C   UNL     1       8.703  39.216  -9.354  1.00  0.00     0.161 A 
ATOM     15  C   UNL     1       9.564  40.278  -7.347  1.00  0.00     0.051 A 
ATOM     16  C   UNL     1       9.951  39.419  -9.978  1.00  0.00     0.062 A 
ATOM     17  C   UNL     1      10.797  40.475  -7.972  1.00  0.00     0.016 A 
BRANCH  13  18
ATOM     18  O   UNL     1       7.253  39.442  -7.441  1.00  0.00    -0.493 OA
ATOM     19  C   UNL     1       6.496  40.447  -6.774  1.00  0.00     0.278 C 
ENDBRANCH  13  18
BRANCH  14  20
ATOM     20  O   UNL     1       7.636  38.586 -10.014  1.00  0.00    -0.493 OA
ATOM     21  C   UNL     1       7.080  37.332  -9.632  1.00  0.00     0.278 C 
ENDBRANCH  14  20
ENDBRANCH   1  12
BRANCH   8  22
ATOM     22  O   UNL     1      13.376  37.297 -12.696  1.00  0.00    -0.490 OA
ATOM     23  C   UNL     1      12.368  37.145 -13.690  1.00  0.00     0.278 C 
ENDBRANCH   8  22
BRANCH  11  24
ATOM     24  O   UNL     1      16.809  41.688 -11.704  1.00  0.00    -0.492 OA
ATOM     25  C   UNL     1      18.041  42.035 -12.329  1.00  0.00     0.278 C 
ENDBRANCH  11  24
BRANCH   9  26
ATOM     26  O   UNL     1      15.814  37.538 -14.125  1.00  0.00    -0.490 OA
ATOM     27  C   UNL     1      15.830  36.122 -13.977  1.00  0.00     0.279 C 
ENDBRANCH   9  26
BRANCH  10  28
ATOM     28  O   UNL     1      17.492  39.778 -13.685  1.00  0.00    -0.490 OA
ATOM     29  C   UNL     1      18.403  38.776 -14.125  1.00  0.00     0.278 C 
ENDBRANCH  10  28
TORSDOF 7
ENDMDL
