MODEL 1
REMARK VINA RESULT:    -4.051      0.000      0.000
REMARK INTER + INTRA:          -6.447
REMARK INTER:                  -5.945
REMARK INTRA:                  -0.502
REMARK UNBOUND:                -0.502
REMARK SMILES O=C([O-])CCCCCCCC(=O)[O-]
REMARK SMILES IDX 7 1 6 2 5 3 4 4 2 5 1 6 3 7 8 8 9 9 10 10 11 11 12 12 13 13
REMARK H PARENT
REMARK Flexibility Score: inf
ROOT
ATOM      1  C   UNL     1      16.972  52.224 159.333  1.00  0.00     0.000 C 
ENDROOT
BRANCH   1   2
ATOM      2  C   UNL     1      15.664  51.418 159.367  1.00  0.00     0.000 C 
BRANCH   2   3
ATOM      3  C   UNL     1      14.511  52.217 158.742  1.00  0.00     0.006 C 
BRANCH   3   4
ATOM      4  C   UNL     1      14.796  52.606 157.286  1.00  0.00     0.053 C 
BRANCH   4   5
ATOM      5  C   UNL     1      14.582  54.070 157.050  1.00  0.00     0.041 C 
ATOM      6  O   UNL     1      13.569  54.470 156.418  1.00  0.00    -0.550 OA
ATOM      7  O   UNL     1      15.486  54.995 157.559  1.00  0.00    -0.550 OA
ENDBRANCH   4   5
ENDBRANCH   3   4
ENDBRANCH   2   3
ENDBRANCH   1   2
BRANCH   1   8
ATOM      8  C   UNL     1      16.975  53.407 160.319  1.00  0.00     0.000 C 
BRANCH   8   9
ATOM      9  C   UNL     1      18.224  54.304 160.254  1.00  0.00     0.006 C 
BRANCH   9  10
ATOM     10  C   UNL     1      19.400  53.642 159.522  1.00  0.00     0.053 C 
BRANCH  10  11
ATOM     11  C   UNL     1      20.664  53.809 160.305  1.00  0.00     0.041 C 
ATOM     12  O   UNL     1      21.776  53.553 159.773  1.00  0.00    -0.550 OA
ATOM     13  O   UNL     1      20.617  54.293 161.606  1.00  0.00    -0.550 OA
ENDBRANCH  10  11
ENDBRANCH   9  10
ENDBRANCH   8   9
ENDBRANCH   1   8
TORSDOF 8
ENDMDL
MODEL 2
REMARK VINA RESULT:    -4.033      3.352      4.571
REMARK INTER + INTRA:          -6.421
REMARK INTER:                  -5.955
REMARK INTRA:                  -0.466
REMARK UNBOUND:                -0.502
REMARK SMILES O=C([O-])CCCCCCCC(=O)[O-]
REMARK SMILES IDX 7 1 6 2 5 3 4 4 2 5 1 6 3 7 8 8 9 9 10 10 11 11 12 12 13 13
REMARK H PARENT
REMARK Flexibility Score: inf
ROOT
ATOM      1  C   UNL     1      14.379  54.059 157.064  1.00  0.00     0.000 C 
ENDROOT
BRANCH   1   2
ATOM      2  C   UNL     1      14.749  52.659 156.552  1.00  0.00     0.000 C 
BRANCH   2   3
ATOM      3  C   UNL     1      15.835  52.021 157.433  1.00  0.00     0.006 C 
BRANCH   3   4
ATOM      4  C   UNL     1      15.725  52.460 158.898  1.00  0.00     0.053 C 
BRANCH   4   5
ATOM      5  C   UNL     1      14.881  51.515 159.698  1.00  0.00     0.041 C 
ATOM      6  O   UNL     1      13.673  51.783 159.930  1.00  0.00    -0.550 OA
ATOM      7  O   UNL     1      15.421  50.320 160.159  1.00  0.00    -0.550 OA
ENDBRANCH   4   5
ENDBRANCH   3   4
ENDBRANCH   2   3
ENDBRANCH   1   2
BRANCH   1   8
ATOM      8  C   UNL     1      15.193  55.180 156.390  1.00  0.00     0.000 C 
BRANCH   8   9
ATOM      9  C   UNL     1      16.258  55.838 157.285  1.00  0.00     0.006 C 
BRANCH   9  10
ATOM     10  C   UNL     1      16.081  57.358 157.406  1.00  0.00     0.053 C 
BRANCH  10  11
ATOM     11  C   UNL     1      17.012  57.912 158.437  1.00  0.00     0.041 C 
ATOM     12  O   UNL     1      16.813  59.058 158.920  1.00  0.00    -0.550 OA
ATOM     13  O   UNL     1      18.072  57.143 158.902  1.00  0.00    -0.550 OA
ENDBRANCH  10  11
ENDBRANCH   9  10
ENDBRANCH   8   9
ENDBRANCH   1   8
TORSDOF 8
ENDMDL
MODEL 3
REMARK VINA RESULT:    -4.029      2.320      5.389
REMARK INTER + INTRA:          -6.415
REMARK INTER:                  -5.681
REMARK INTRA:                  -0.734
REMARK UNBOUND:                -0.502
REMARK SMILES O=C([O-])CCCCCCCC(=O)[O-]
REMARK SMILES IDX 7 1 6 2 5 3 4 4 2 5 1 6 3 7 8 8 9 9 10 10 11 11 12 12 13 13
REMARK H PARENT
REMARK Flexibility Score: inf
ROOT
ATOM      1  C   UNL     1      16.367  54.706 157.767  1.00  0.00     0.000 C 
ENDROOT
BRANCH   1   2
ATOM      2  C   UNL     1      17.648  54.349 156.998  1.00  0.00     0.000 C 
BRANCH   2   3
ATOM      3  C   UNL     1      18.615  53.550 157.884  1.00  0.00     0.006 C 
BRANCH   3   4
ATOM      4  C   UNL     1      18.342  53.761 159.379  1.00  0.00     0.053 C 
BRANCH   4   5
ATOM      5  C   UNL     1      19.611  53.813 160.173  1.00  0.00     0.041 C 
ATOM      6  O   UNL     1      19.589  54.159 161.383  1.00  0.00    -0.550 OA
ATOM      7  O   UNL     1      20.815  53.445 159.584  1.00  0.00    -0.550 OA
ENDBRANCH   4   5
ENDBRANCH   3   4
ENDBRANCH   2   3
ENDBRANCH   1   2
BRANCH   1   8
ATOM      8  C   UNL     1      15.099  54.096 157.140  1.00  0.00     0.000 C 
BRANCH   8   9
ATOM      9  C   UNL     1      14.877  52.604 157.445  1.00  0.00     0.006 C 
BRANCH   9  10
ATOM     10  C   UNL     1      14.813  52.303 158.949  1.00  0.00     0.053 C 
BRANCH  10  11
ATOM     11  C   UNL     1      15.651  51.109 159.279  1.00  0.00     0.041 C 
ATOM     12  O   UNL     1      15.388  50.413 160.295  1.00  0.00    -0.550 OA
ATOM     13  O   UNL     1      16.693  50.736 158.438  1.00  0.00    -0.550 OA
ENDBRANCH  10  11
ENDBRANCH   9  10
ENDBRANCH   8   9
ENDBRANCH   1   8
TORSDOF 8
ENDMDL
MODEL 4
REMARK VINA RESULT:    -4.005      1.608      5.191
REMARK INTER + INTRA:          -6.380
REMARK INTER:                  -5.810
REMARK INTRA:                  -0.570
REMARK UNBOUND:                -0.502
REMARK SMILES O=C([O-])CCCCCCCC(=O)[O-]
REMARK SMILES IDX 7 1 6 2 5 3 4 4 2 5 1 6 3 7 8 8 9 9 10 10 11 11 12 12 13 13
REMARK H PARENT
REMARK Flexibility Score: inf
ROOT
ATOM      1  C   UNL     1      16.999  52.259 159.306  1.00  0.00     0.000 C 
ENDROOT
BRANCH   1   2
ATOM      2  C   UNL     1      17.363  53.540 160.070  1.00  0.00     0.000 C 
BRANCH   2   3
ATOM      3  C   UNL     1      18.887  53.686 160.203  1.00  0.00     0.006 C 
BRANCH   3   4
ATOM      4  C   UNL     1      19.576  53.831 158.841  1.00  0.00     0.053 C 
BRANCH   4   5
ATOM      5  C   UNL     1      19.172  55.096 158.146  1.00  0.00     0.041 C 
ATOM      6  O   UNL     1      18.718  55.058 156.972  1.00  0.00    -0.550 OA
ATOM      7  O   UNL     1      19.265  56.314 158.809  1.00  0.00    -0.550 OA
ENDBRANCH   4   5
ENDBRANCH   3   4
ENDBRANCH   2   3
ENDBRANCH   1   2
BRANCH   1   8
ATOM      8  C   UNL     1      15.594  51.731 159.651  1.00  0.00     0.000 C 
BRANCH   8   9
ATOM      9  C   UNL     1      14.451  52.324 158.808  1.00  0.00     0.006 C 
BRANCH   9  10
ATOM     10  C   UNL     1      14.872  52.636 157.365  1.00  0.00     0.053 C 
BRANCH  10  11
ATOM     11  C   UNL     1      14.577  54.064 157.032  1.00  0.00     0.041 C 
ATOM     12  O   UNL     1      13.515  54.367 156.427  1.00  0.00    -0.550 OA
ATOM     13  O   UNL     1      15.452  55.067 157.433  1.00  0.00    -0.550 OA
ENDBRANCH  10  11
ENDBRANCH   9  10
ENDBRANCH   8   9
ENDBRANCH   1   8
TORSDOF 8
ENDMDL
MODEL 5
REMARK VINA RESULT:    -3.996      2.418      3.193
REMARK INTER + INTRA:          -6.366
REMARK INTER:                  -5.841
REMARK INTRA:                  -0.525
REMARK UNBOUND:                -0.502
REMARK SMILES O=C([O-])CCCCCCCC(=O)[O-]
REMARK SMILES IDX 7 1 6 2 5 3 4 4 2 5 1 6 3 7 8 8 9 9 10 10 11 11 12 12 13 13
REMARK H PARENT
REMARK Flexibility Score: inf
ROOT
ATOM      1  C   UNL     1      16.245  55.022 157.796  1.00  0.00     0.000 C 
ENDROOT
BRANCH   1   2
ATOM      2  C   UNL     1      15.107  54.379 156.990  1.00  0.00     0.000 C 
BRANCH   2   3
ATOM      3  C   UNL     1      14.431  53.256 157.792  1.00  0.00     0.006 C 
BRANCH   3   4
ATOM      4  C   UNL     1      15.451  52.342 158.482  1.00  0.00     0.053 C 
BRANCH   4   5
ATOM      5  C   UNL     1      14.827  51.552 159.592  1.00  0.00     0.041 C 
ATOM      6  O   UNL     1      15.465  50.617 160.142  1.00  0.00    -0.550 OA
ATOM      7  O   UNL     1      13.551  51.873 160.041  1.00  0.00    -0.550 OA
ENDBRANCH   4   5
ENDBRANCH   3   4
ENDBRANCH   2   3
ENDBRANCH   1   2
BRANCH   1   8
ATOM      8  C   UNL     1      17.562  55.120 157.005  1.00  0.00     0.000 C 
BRANCH   8   9
ATOM      9  C   UNL     1      18.841  55.010 157.854  1.00  0.00     0.006 C 
BRANCH   9  10
ATOM     10  C   UNL     1      19.041  53.614 158.458  1.00  0.00     0.053 C 
BRANCH  10  11
ATOM     11  C   UNL     1      19.375  53.717 159.913  1.00  0.00     0.041 C 
ATOM     12  O   UNL     1      18.489  54.051 160.743  1.00  0.00    -0.550 OA
ATOM     13  O   UNL     1      20.651  53.393 160.358  1.00  0.00    -0.550 OA
ENDBRANCH  10  11
ENDBRANCH   9  10
ENDBRANCH   8   9
ENDBRANCH   1   8
TORSDOF 8
ENDMDL
MODEL 6
REMARK VINA RESULT:    -3.967      2.537      3.798
REMARK INTER + INTRA:          -6.324
REMARK INTER:                  -5.629
REMARK INTRA:                  -0.695
REMARK UNBOUND:                -0.502
REMARK SMILES O=C([O-])CCCCCCCC(=O)[O-]
REMARK SMILES IDX 7 1 6 2 5 3 4 4 2 5 1 6 3 7 8 8 9 9 10 10 11 11 12 12 13 13
REMARK H PARENT
REMARK Flexibility Score: inf
ROOT
ATOM      1  C   UNL     1      14.753  52.514 156.702  1.00  0.00     0.000 C 
ENDROOT
BRANCH   1   2
ATOM      2  C   UNL     1      15.232  53.827 156.065  1.00  0.00     0.000 C 
BRANCH   2   3
ATOM      3  C   UNL     1      15.102  54.996 157.053  1.00  0.00     0.006 C 
BRANCH   3   4
ATOM      4  C   UNL     1      15.685  56.298 156.491  1.00  0.00     0.053 C 
BRANCH   4   5
ATOM      5  C   UNL     1      16.712  56.888 157.408  1.00  0.00     0.041 C 
ATOM      6  O   UNL     1      17.354  57.915 157.066  1.00  0.00    -0.550 OA
ATOM      7  O   UNL     1      16.936  56.320 158.657  1.00  0.00    -0.550 OA
ENDBRANCH   4   5
ENDBRANCH   3   4
ENDBRANCH   2   3
ENDBRANCH   1   2
BRANCH   1   8
ATOM      8  C   UNL     1      14.226  52.698 158.137  1.00  0.00     0.000 C 
BRANCH   8   9
ATOM      9  C   UNL     1      14.938  51.850 159.206  1.00  0.00     0.006 C 
BRANCH   9  10
ATOM     10  C   UNL     1      16.401  51.551 158.856  1.00  0.00     0.053 C 
BRANCH  10  11
ATOM     11  C   UNL     1      17.272  52.716 159.206  1.00  0.00     0.041 C 
ATOM     12  O   UNL     1      18.111  53.152 158.374  1.00  0.00    -0.550 OA
ATOM     13  O   UNL     1      17.121  53.353 160.432  1.00  0.00    -0.550 OA
ENDBRANCH  10  11
ENDBRANCH   9  10
ENDBRANCH   8   9
ENDBRANCH   1   8
TORSDOF 8
ENDMDL
MODEL 7
REMARK VINA RESULT:    -3.950      3.129      4.970
REMARK INTER + INTRA:          -6.298
REMARK INTER:                  -5.752
REMARK INTRA:                  -0.546
REMARK UNBOUND:                -0.502
REMARK SMILES O=C([O-])CCCCCCCC(=O)[O-]
REMARK SMILES IDX 7 1 6 2 5 3 4 4 2 5 1 6 3 7 8 8 9 9 10 10 11 11 12 12 13 13
REMARK H PARENT
REMARK Flexibility Score: inf
ROOT
ATOM      1  C   UNL     1      13.974  54.765 156.185  1.00  0.00     0.000 C 
ENDROOT
BRANCH   1   2
ATOM      2  C   UNL     1      15.500  54.940 156.180  1.00  0.00     0.000 C 
BRANCH   2   3
ATOM      3  C   UNL     1      15.931  56.034 157.170  1.00  0.00     0.006 C 
BRANCH   3   4
ATOM      4  C   UNL     1      16.898  55.504 158.235  1.00  0.00     0.053 C 
BRANCH   4   5
ATOM      5  C   UNL     1      17.418  56.605 159.109  1.00  0.00     0.041 C 
ATOM      6  O   UNL     1      17.674  57.736 158.619  1.00  0.00    -0.550 OA
ATOM      7  O   UNL     1      17.589  56.389 160.471  1.00  0.00    -0.550 OA
ENDBRANCH   4   5
ENDBRANCH   3   4
ENDBRANCH   2   3
ENDBRANCH   1   2
BRANCH   1   8
ATOM      8  C   UNL     1      13.521  53.455 156.856  1.00  0.00     0.000 C 
BRANCH   8   9
ATOM      9  C   UNL     1      14.661  52.565 157.382  1.00  0.00     0.006 C 
BRANCH   9  10
ATOM     10  C   UNL     1      14.535  52.252 158.879  1.00  0.00     0.053 C 
BRANCH  10  11
ATOM     11  C   UNL     1      15.738  51.506 159.361  1.00  0.00     0.041 C 
ATOM     12  O   UNL     1      16.892  51.961 159.149  1.00  0.00    -0.550 OA
ATOM     13  O   UNL     1      15.582  50.332 160.088  1.00  0.00    -0.550 OA
ENDBRANCH  10  11
ENDBRANCH   9  10
ENDBRANCH   8   9
ENDBRANCH   1   8
TORSDOF 8
ENDMDL
MODEL 8
REMARK VINA RESULT:    -3.923      2.172      5.604
REMARK INTER + INTRA:          -6.260
REMARK INTER:                  -5.562
REMARK INTRA:                  -0.698
REMARK UNBOUND:                -0.502
REMARK SMILES O=C([O-])CCCCCCCC(=O)[O-]
REMARK SMILES IDX 7 1 6 2 5 3 4 4 2 5 1 6 3 7 8 8 9 9 10 10 11 11 12 12 13 13
REMARK H PARENT
REMARK Flexibility Score: inf
ROOT
ATOM      1  C   UNL     1      16.750  55.126 158.138  1.00  0.00     0.000 C 
ENDROOT
BRANCH   1   2
ATOM      2  C   UNL     1      18.157  54.545 157.939  1.00  0.00     0.000 C 
BRANCH   2   3
ATOM      3  C   UNL     1      18.454  53.454 158.980  1.00  0.00     0.006 C 
BRANCH   3   4
ATOM      4  C   UNL     1      18.015  53.865 160.391  1.00  0.00     0.053 C 
BRANCH   4   5
ATOM      5  C   UNL     1      19.190  54.159 161.273  1.00  0.00     0.041 C 
ATOM      6  O   UNL     1      20.359  54.109 160.810  1.00  0.00    -0.550 OA
ATOM      7  O   UNL     1      18.990  54.522 162.600  1.00  0.00    -0.550 OA
ENDBRANCH   4   5
ENDBRANCH   3   4
ENDBRANCH   2   3
ENDBRANCH   1   2
BRANCH   1   8
ATOM      8  C   UNL     1      15.737  54.620 157.093  1.00  0.00     0.000 C 
BRANCH   8   9
ATOM      9  C   UNL     1      14.654  53.674 157.642  1.00  0.00     0.006 C 
BRANCH   9  10
ATOM     10  C   UNL     1      15.177  52.256 157.907  1.00  0.00     0.053 C 
BRANCH  10  11
ATOM     11  C   UNL     1      14.822  51.818 159.293  1.00  0.00     0.041 C 
ATOM     12  O   UNL     1      13.677  52.058 159.759  1.00  0.00    -0.550 OA
ATOM     13  O   UNL     1      15.739  51.101 160.052  1.00  0.00    -0.550 OA
ENDBRANCH  10  11
ENDBRANCH   9  10
ENDBRANCH   8   9
ENDBRANCH   1   8
TORSDOF 8
ENDMDL
MODEL 9
REMARK VINA RESULT:    -3.884      1.225      5.420
REMARK INTER + INTRA:          -6.203
REMARK INTER:                  -5.752
REMARK INTRA:                  -0.451
REMARK UNBOUND:                -0.502
REMARK SMILES O=C([O-])CCCCCCCC(=O)[O-]
REMARK SMILES IDX 7 1 6 2 5 3 4 4 2 5 1 6 3 7 8 8 9 9 10 10 11 11 12 12 13 13
REMARK H PARENT
REMARK Flexibility Score: inf
ROOT
ATOM      1  C   UNL     1      15.368  51.655 158.870  1.00  0.00     0.000 C 
ENDROOT
BRANCH   1   2
ATOM      2  C   UNL     1      16.252  52.226 159.988  1.00  0.00     0.000 C 
BRANCH   2   3
ATOM      3  C   UNL     1      17.083  53.414 159.478  1.00  0.00     0.006 C 
BRANCH   3   4
ATOM      4  C   UNL     1      18.190  53.812 160.463  1.00  0.00     0.053 C 
BRANCH   4   5
ATOM      5  C   UNL     1      19.547  53.740 159.831  1.00  0.00     0.041 C 
ATOM      6  O   UNL     1      19.664  53.743 158.578  1.00  0.00    -0.550 OA
ATOM      7  O   UNL     1      20.684  53.704 160.629  1.00  0.00    -0.550 OA
ENDBRANCH   4   5
ENDBRANCH   3   4
ENDBRANCH   2   3
ENDBRANCH   1   2
BRANCH   1   8
ATOM      8  C   UNL     1      14.344  52.673 158.334  1.00  0.00     0.000 C 
BRANCH   8   9
ATOM      9  C   UNL     1      14.358  52.867 156.807  1.00  0.00     0.006 C 
BRANCH   9  10
ATOM     10  C   UNL     1      14.040  54.308 156.384  1.00  0.00     0.053 C 
BRANCH  10  11
ATOM     11  C   UNL     1      15.284  55.139 156.384  1.00  0.00     0.041 C 
ATOM     12  O   UNL     1      15.223  56.369 156.649  1.00  0.00    -0.550 OA
ATOM     13  O   UNL     1      16.517  54.547 156.142  1.00  0.00    -0.550 OA
ENDBRANCH  10  11
ENDBRANCH   9  10
ENDBRANCH   8   9
ENDBRANCH   1   8
TORSDOF 8
ENDMDL
