MODEL 1
REMARK VINA RESULT:    -4.919      0.000      0.000
REMARK INTER + INTRA:          -5.062
REMARK INTER:                  -5.062
REMARK INTRA:                   0.000
REMARK UNBOUND:                 0.000
REMARK SMILES O=c1ccc2ccc(O)cc2o1
REMARK SMILES IDX 6 1 7 2 8 3 10 4 11 5 5 6 4 7 3 8 2 9 1 10 12 11 9 12
REMARK H PARENT 9 13
REMARK Flexibility Score: inf
ROOT
ATOM      1  C   UNL     1      18.246  -6.343   9.601  1.00  0.00     0.016 A 
ATOM      2  C   UNL     1      18.089  -5.263   8.727  1.00  0.00     0.047 A 
ATOM      3  C   UNL     1      17.499  -5.452   7.468  1.00  0.00     0.119 A 
ATOM      4  C   UNL     1      17.066  -6.726   7.084  1.00  0.00     0.094 A 
ATOM      5  C   UNL     1      17.220  -7.812   7.951  1.00  0.00     0.142 A 
ATOM      6  C   UNL     1      17.813  -7.620   9.218  1.00  0.00     0.018 A 
ATOM      7  C   UNL     1      17.952  -8.725  10.064  1.00  0.00     0.019 A 
ATOM      8  C   UNL     1      17.505  -9.975   9.635  1.00  0.00     0.094 A 
ATOM      9  C   UNL     1      16.927 -10.091   8.367  1.00  0.00     0.336 A 
ATOM     10  O   UNL     1      16.518 -11.210   7.963  1.00  0.00    -0.246 OA
ATOM     11  O   UNL     1      16.807  -9.022   7.582  1.00  0.00    -0.423 OA
ENDROOT
BRANCH   3  12
ATOM     12  O   UNL     1      17.340  -4.380   6.592  1.00  0.00    -0.508 OA
ATOM     13  H   UNL     1      16.461  -3.878   6.523  1.00  0.00     0.293 HD
ENDBRANCH   3  12
TORSDOF 1
ENDMDL
MODEL 2
REMARK VINA RESULT:    -4.828      1.705      4.574
REMARK INTER + INTRA:          -4.970
REMARK INTER:                  -4.970
REMARK INTRA:                   0.000
REMARK UNBOUND:                 0.000
REMARK SMILES O=c1ccc2ccc(O)cc2o1
REMARK SMILES IDX 6 1 7 2 8 3 10 4 11 5 5 6 4 7 3 8 2 9 1 10 12 11 9 12
REMARK H PARENT 9 13
REMARK Flexibility Score: inf
ROOT
ATOM      1  C   UNL     1      17.101  -9.851   7.879  1.00  0.00     0.016 A 
ATOM      2  C   UNL     1      17.477 -10.344   9.132  1.00  0.00     0.047 A 
ATOM      3  C   UNL     1      17.861  -9.462  10.154  1.00  0.00     0.119 A 
ATOM      4  C   UNL     1      17.870  -8.082   9.918  1.00  0.00     0.094 A 
ATOM      5  C   UNL     1      17.496  -7.580   8.667  1.00  0.00     0.142 A 
ATOM      6  C   UNL     1      17.108  -8.470   7.641  1.00  0.00     0.018 A 
ATOM      7  C   UNL     1      16.739  -7.938   6.401  1.00  0.00     0.019 A 
ATOM      8  C   UNL     1      16.764  -6.556   6.216  1.00  0.00     0.094 A 
ATOM      9  C   UNL     1      17.159  -5.735   7.277  1.00  0.00     0.336 A 
ATOM     10  O   UNL     1      17.187  -4.486   7.128  1.00  0.00    -0.246 OA
ATOM     11  O   UNL     1      17.505  -6.268   8.447  1.00  0.00    -0.423 OA
ENDROOT
BRANCH   3  12
ATOM     12  O   UNL     1      18.238  -9.946  11.404  1.00  0.00    -0.508 OA
ATOM     13  H   UNL     1      18.097 -10.918  11.660  1.00  0.00     0.293 HD
ENDBRANCH   3  12
TORSDOF 1
ENDMDL
MODEL 3
REMARK VINA RESULT:    -4.828     14.499     16.588
REMARK INTER + INTRA:          -4.969
REMARK INTER:                  -4.969
REMARK INTRA:                   0.000
REMARK UNBOUND:                 0.000
REMARK SMILES O=c1ccc2ccc(O)cc2o1
REMARK SMILES IDX 6 1 7 2 8 3 10 4 11 5 5 6 4 7 3 8 2 9 1 10 12 11 9 12
REMARK H PARENT 9 13
REMARK Flexibility Score: inf
ROOT
ATOM      1  C   UNL     1      13.502 -17.425  22.714  1.00  0.00     0.016 A 
ATOM      2  C   UNL     1      14.260 -16.957  23.792  1.00  0.00     0.047 A 
ATOM      3  C   UNL     1      14.580 -15.595  23.894  1.00  0.00     0.119 A 
ATOM      4  C   UNL     1      14.141 -14.699  22.913  1.00  0.00     0.094 A 
ATOM      5  C   UNL     1      13.384 -15.157  21.830  1.00  0.00     0.142 A 
ATOM      6  C   UNL     1      13.061 -16.528  21.730  1.00  0.00     0.018 A 
ATOM      7  C   UNL     1      12.301 -16.957  20.637  1.00  0.00     0.019 A 
ATOM      8  C   UNL     1      11.887 -16.025  19.685  1.00  0.00     0.094 A 
ATOM      9  C   UNL     1      12.244 -14.683  19.849  1.00  0.00     0.336 A 
ATOM     10  O   UNL     1      11.880 -13.828  19.000  1.00  0.00    -0.246 OA
ATOM     11  O   UNL     1      12.968 -14.302  20.899  1.00  0.00    -0.423 OA
ENDROOT
BRANCH   3  12
ATOM     12  O   UNL     1      15.336 -15.123  24.966  1.00  0.00    -0.508 OA
ATOM     13  H   UNL     1      15.125 -15.391  25.921  1.00  0.00     0.293 HD
ENDBRANCH   3  12
TORSDOF 1
ENDMDL
MODEL 4
REMARK VINA RESULT:    -4.815      0.919      4.207
REMARK INTER + INTRA:          -4.956
REMARK INTER:                  -4.956
REMARK INTRA:                   0.000
REMARK UNBOUND:                 0.000
REMARK SMILES O=c1ccc2ccc(O)cc2o1
REMARK SMILES IDX 6 1 7 2 8 3 10 4 11 5 5 6 4 7 3 8 2 9 1 10 12 11 9 12
REMARK H PARENT 9 13
REMARK Flexibility Score: inf
ROOT
ATOM      1  C   UNL     1      17.957  -8.551  10.059  1.00  0.00     0.016 A 
ATOM      2  C   UNL     1      17.801  -9.917   9.804  1.00  0.00     0.047 A 
ATOM      3  C   UNL     1      17.219 -10.351   8.603  1.00  0.00     0.119 A 
ATOM      4  C   UNL     1      16.790  -9.413   7.657  1.00  0.00     0.094 A 
ATOM      5  C   UNL     1      16.941  -8.045   7.903  1.00  0.00     0.142 A 
ATOM      6  C   UNL     1      17.529  -7.611   9.112  1.00  0.00     0.018 A 
ATOM      7  C   UNL     1      17.667  -6.236   9.330  1.00  0.00     0.019 A 
ATOM      8  C   UNL     1      17.224  -5.342   8.356  1.00  0.00     0.094 A 
ATOM      9  C   UNL     1      16.651  -5.844   7.182  1.00  0.00     0.336 A 
ATOM     10  O   UNL     1      16.246  -5.052   6.292  1.00  0.00    -0.246 OA
ATOM     11  O   UNL     1      16.532  -7.157   7.001  1.00  0.00    -0.423 OA
ENDROOT
BRANCH   3  12
ATOM     12  O   UNL     1      17.060 -11.711   8.343  1.00  0.00    -0.508 OA
ATOM     13  H   UNL     1      16.324 -12.252   8.784  1.00  0.00     0.293 HD
ENDBRANCH   3  12
TORSDOF 1
ENDMDL
MODEL 5
REMARK VINA RESULT:    -4.788     16.494     17.372
REMARK INTER + INTRA:          -4.928
REMARK INTER:                  -4.928
REMARK INTRA:                   0.000
REMARK UNBOUND:                 0.000
REMARK SMILES O=c1ccc2ccc(O)cc2o1
REMARK SMILES IDX 6 1 7 2 8 3 10 4 11 5 5 6 4 7 3 8 2 9 1 10 12 11 9 12
REMARK H PARENT 9 13
REMARK Flexibility Score: inf
ROOT
ATOM      1  C   UNL     1      13.771 -14.809  21.934  1.00  0.00     0.016 A 
ATOM      2  C   UNL     1      14.467 -14.528  23.114  1.00  0.00     0.047 A 
ATOM      3  C   UNL     1      14.676 -15.533  24.070  1.00  0.00     0.119 A 
ATOM      4  C   UNL     1      14.184 -16.824  23.844  1.00  0.00     0.094 A 
ATOM      5  C   UNL     1      13.485 -17.115  22.669  1.00  0.00     0.142 A 
ATOM      6  C   UNL     1      13.277 -16.102  21.707  1.00  0.00     0.018 A 
ATOM      7  C   UNL     1      12.576 -16.423  20.540  1.00  0.00     0.019 A 
ATOM      8  C   UNL     1      12.105 -17.724  20.362  1.00  0.00     0.094 A 
ATOM      9  C   UNL     1      12.348 -18.676  21.357  1.00  0.00     0.336 A 
ATOM     10  O   UNL     1      11.931 -19.855  21.214  1.00  0.00    -0.246 OA
ATOM     11  O   UNL     1      13.019 -18.343  22.458  1.00  0.00    -0.423 OA
ENDROOT
BRANCH   3  12
ATOM     12  O   UNL     1      15.369 -15.259  25.247  1.00  0.00    -0.508 OA
ATOM     13  H   UNL     1      15.276 -15.849  26.066  1.00  0.00     0.293 HD
ENDBRANCH   3  12
TORSDOF 1
ENDMDL
MODEL 6
REMARK VINA RESULT:    -4.720      2.680      3.606
REMARK INTER + INTRA:          -4.858
REMARK INTER:                  -4.858
REMARK INTRA:                   0.000
REMARK UNBOUND:                 0.000
REMARK SMILES O=c1ccc2ccc(O)cc2o1
REMARK SMILES IDX 6 1 7 2 8 3 10 4 11 5 5 6 4 7 3 8 2 9 1 10 12 11 9 12
REMARK H PARENT 9 13
REMARK Flexibility Score: inf
ROOT
ATOM      1  C   UNL     1      16.877  -8.761   9.627  1.00  0.00     0.016 A 
ATOM      2  C   UNL     1      18.064  -8.084   9.924  1.00  0.00     0.047 A 
ATOM      3  C   UNL     1      18.253  -6.763   9.492  1.00  0.00     0.119 A 
ATOM      4  C   UNL     1      17.250  -6.118   8.759  1.00  0.00     0.094 A 
ATOM      5  C   UNL     1      16.059  -6.787   8.457  1.00  0.00     0.142 A 
ATOM      6  C   UNL     1      15.871  -8.116   8.894  1.00  0.00     0.018 A 
ATOM      7  C   UNL     1      14.670  -8.759   8.577  1.00  0.00     0.019 A 
ATOM      8  C   UNL     1      13.700  -8.073   7.844  1.00  0.00     0.094 A 
ATOM      9  C   UNL     1      13.956  -6.757   7.445  1.00  0.00     0.336 A 
ATOM     10  O   UNL     1      13.093  -6.123   6.783  1.00  0.00    -0.246 OA
ATOM     11  O   UNL     1      15.108  -6.170   7.760  1.00  0.00    -0.423 OA
ENDROOT
BRANCH   3  12
ATOM     12  O   UNL     1      19.434  -6.084   9.784  1.00  0.00    -0.508 OA
ATOM     13  H   UNL     1      19.907  -5.520   9.086  1.00  0.00     0.293 HD
ENDBRANCH   3  12
TORSDOF 1
ENDMDL
MODEL 7
REMARK VINA RESULT:    -4.536      1.809      2.434
REMARK INTER + INTRA:          -4.668
REMARK INTER:                  -4.668
REMARK INTRA:                   0.000
REMARK UNBOUND:                 0.000
REMARK SMILES O=c1ccc2ccc(O)cc2o1
REMARK SMILES IDX 6 1 7 2 8 3 10 4 11 5 5 6 4 7 3 8 2 9 1 10 12 11 9 12
REMARK H PARENT 9 13
REMARK Flexibility Score: inf
ROOT
ATOM      1  C   UNL     1      15.205  -6.085   7.425  1.00  0.00     0.016 A 
ATOM      2  C   UNL     1      15.801  -4.940   6.889  1.00  0.00     0.047 A 
ATOM      3  C   UNL     1      17.143  -4.643   7.170  1.00  0.00     0.119 A 
ATOM      4  C   UNL     1      17.889  -5.494   7.993  1.00  0.00     0.094 A 
ATOM      5  C   UNL     1      17.301  -6.641   8.536  1.00  0.00     0.142 A 
ATOM      6  C   UNL     1      15.950  -6.939   8.249  1.00  0.00     0.018 A 
ATOM      7  C   UNL     1      15.390  -8.094   8.805  1.00  0.00     0.019 A 
ATOM      8  C   UNL     1      16.175  -8.911   9.620  1.00  0.00     0.094 A 
ATOM      9  C   UNL     1      17.505  -8.553   9.860  1.00  0.00     0.336 A 
ATOM     10  O   UNL     1      18.228  -9.278  10.591  1.00  0.00    -0.246 OA
ATOM     11  O   UNL     1      18.014  -7.448   9.317  1.00  0.00    -0.423 OA
ENDROOT
BRANCH   3  12
ATOM     12  O   UNL     1      17.743  -3.503   6.638  1.00  0.00    -0.508 OA
ATOM     13  H   UNL     1      17.837  -3.372   5.637  1.00  0.00     0.293 HD
ENDBRANCH   3  12
TORSDOF 1
ENDMDL
MODEL 8
REMARK VINA RESULT:    -4.486     14.816     16.950
REMARK INTER + INTRA:          -4.617
REMARK INTER:                  -4.617
REMARK INTRA:                   0.000
REMARK UNBOUND:                 0.000
REMARK SMILES O=c1ccc2ccc(O)cc2o1
REMARK SMILES IDX 6 1 7 2 8 3 10 4 11 5 5 6 4 7 3 8 2 9 1 10 12 11 9 12
REMARK H PARENT 9 13
REMARK Flexibility Score: inf
ROOT
ATOM      1  C   UNL     1      14.054 -15.117  22.981  1.00  0.00     0.016 A 
ATOM      2  C   UNL     1      13.537 -15.577  24.196  1.00  0.00     0.047 A 
ATOM      3  C   UNL     1      12.530 -16.554  24.213  1.00  0.00     0.119 A 
ATOM      4  C   UNL     1      12.039 -17.070  23.008  1.00  0.00     0.094 A 
ATOM      5  C   UNL     1      12.548 -16.616  21.788  1.00  0.00     0.142 A 
ATOM      6  C   UNL     1      13.563 -15.634  21.773  1.00  0.00     0.018 A 
ATOM      7  C   UNL     1      14.054 -15.200  20.538  1.00  0.00     0.019 A 
ATOM      8  C   UNL     1      13.531 -15.746  19.365  1.00  0.00     0.094 A 
ATOM      9  C   UNL     1      12.527 -16.715  19.456  1.00  0.00     0.336 A 
ATOM     10  O   UNL     1      12.044 -17.218  18.408  1.00  0.00    -0.246 OA
ATOM     11  O   UNL     1      12.079 -17.110  20.645  1.00  0.00    -0.423 OA
ENDROOT
BRANCH   3  12
ATOM     12  O   UNL     1      12.011 -17.015  25.420  1.00  0.00    -0.508 OA
ATOM     13  H   UNL     1      11.694 -17.973  25.529  1.00  0.00     0.293 HD
ENDBRANCH   3  12
TORSDOF 1
ENDMDL
MODEL 9
REMARK VINA RESULT:    -4.390      1.652      4.084
REMARK INTER + INTRA:          -4.519
REMARK INTER:                  -4.519
REMARK INTRA:                   0.000
REMARK UNBOUND:                 0.000
REMARK SMILES O=c1ccc2ccc(O)cc2o1
REMARK SMILES IDX 6 1 7 2 8 3 10 4 11 5 5 6 4 7 3 8 2 9 1 10 12 11 9 12
REMARK H PARENT 9 13
REMARK Flexibility Score: inf
ROOT
ATOM      1  C   UNL     1      16.608  -8.125   9.474  1.00  0.00     0.016 A 
ATOM      2  C   UNL     1      15.647  -8.941   8.869  1.00  0.00     0.047 A 
ATOM      3  C   UNL     1      15.428  -8.870   7.485  1.00  0.00     0.119 A 
ATOM      4  C   UNL     1      16.173  -7.979   6.705  1.00  0.00     0.094 A 
ATOM      5  C   UNL     1      17.136  -7.158   7.300  1.00  0.00     0.142 A 
ATOM      6  C   UNL     1      17.356  -7.232   8.694  1.00  0.00     0.018 A 
ATOM      7  C   UNL     1      18.326  -6.399   9.261  1.00  0.00     0.019 A 
ATOM      8  C   UNL     1      19.043  -5.527   8.441  1.00  0.00     0.094 A 
ATOM      9  C   UNL     1      18.772  -5.508   7.069  1.00  0.00     0.336 A 
ATOM     10  O   UNL     1      19.408  -4.729   6.314  1.00  0.00    -0.246 OA
ATOM     11  O   UNL     1      17.843  -6.312   6.555  1.00  0.00    -0.423 OA
ENDROOT
BRANCH   3  12
ATOM     12  O   UNL     1      14.471  -9.680   6.876  1.00  0.00    -0.508 OA
ATOM     13  H   UNL     1      14.735 -10.496   6.334  1.00  0.00     0.293 HD
ENDBRANCH   3  12
TORSDOF 1
ENDMDL
