MODEL 1
REMARK VINA RESULT:    -6.587      0.000      0.000
REMARK INTER + INTRA:         -10.014
REMARK INTER:                  -9.091
REMARK INTRA:                  -0.924
REMARK UNBOUND:                -0.924
REMARK SMILES C[C@@H]1OC(=O)[C@H](C)[C@H]1C[C@H](O)[C@](C)(O)[C@@H]1CC[C@@]2(O)C3=CC(=O)[C@@H]4C[C@@H](O)[C@H](O)C[C@]4(C)[C@@H]3CC[C@]12C
REMARK SMILES IDX 12 1 13 2 10 3 9 4 8 5 7 6 6 7 4 8 2 9 3 10 5 11 1 12 11 13
REMARK SMILES IDX 15 15 16 16 36 17 17 18 18 19 35 20 37 21 20 22 34 23 33 24
REMARK SMILES IDX 21 25 31 26 22 27 24 28 30 29 32 30 23 31 25 32 28 33 26 34
REMARK SMILES IDX 19 35 29 37 27 39 14 41
REMARK H PARENT 11 14 19 36 29 38 27 40 14 42
REMARK Flexibility Score: inf
ROOT
ATOM      1  C   UNL     1      14.751  23.692  14.380  1.00  0.00     0.091 C 
ATOM      2  C   UNL     1      15.423  23.871  12.993  1.00  0.00     0.045 C 
ENDROOT
BRANCH   1   3
ATOM      3  C   UNL     1      13.945  22.333  14.387  1.00  0.00     0.146 C 
BRANCH   3   4
ATOM      4  C   UNL     1      13.409  21.837  15.775  1.00  0.00     0.043 C 
BRANCH   4   5
ATOM      5  C   UNL     1      13.278  20.304  16.076  1.00  0.00     0.046 C 
ATOM      6  C   UNL     1      12.105  18.574  14.574  1.00  0.00     0.020 C 
ATOM      7  C   UNL     1      11.938  19.692  15.606  1.00  0.00     0.103 C 
ATOM      8  C   UNL     1      11.356  19.185  16.873  1.00  0.00     0.309 C 
ATOM      9  C   UNL     1      13.440  19.905  17.574  1.00  0.00     0.177 C 
ATOM     10  O   UNL     1      12.193  19.333  17.951  1.00  0.00    -0.462 OA
ATOM     11  O   UNL     1      10.181  18.723  16.976  1.00  0.00    -0.252 OA
ATOM     12  C   UNL     1      14.556  18.885  17.752  1.00  0.00     0.053 C 
ENDBRANCH   4   5
ENDBRANCH   3   4
BRANCH   3  13
ATOM     13  O   UNL     1      14.788  21.319  13.877  1.00  0.00    -0.390 OA
ATOM     14  H   UNL     1      14.665  21.303  12.888  1.00  0.00     0.211 HD
ENDBRANCH   3  13
ENDBRANCH   1   3
BRANCH   1  15
ATOM     15  C   UNL     1      13.937  25.031  14.728  1.00  0.00     0.032 C 
ATOM     16  C   UNL     1      14.013  25.585  16.175  1.00  0.00     0.010 C 
ATOM     17  C   UNL     1      12.553  25.500  14.112  1.00  0.00     0.006 C 
ATOM     18  C   UNL     1      13.103  26.801  16.129  1.00  0.00     0.041 C 
ATOM     19  C   UNL     1      11.906  26.242  15.340  1.00  0.00     0.092 C 
ATOM     20  C   UNL     1      11.471  24.474  13.648  1.00  0.00     0.011 C 
ATOM     21  C   UNL     1      12.856  26.451  12.875  1.00  0.00     0.015 C 
ATOM     22  C   UNL     1      10.889  27.197  14.822  1.00  0.00    -0.031 C 
ATOM     23  C   UNL     1      10.081  25.168  13.378  1.00  0.00     0.009 C 
ATOM     24  C   UNL     1       9.942  26.678  13.749  1.00  0.00     0.025 C 
ATOM     25  C   UNL     1      10.901  28.515  15.097  1.00  0.00     0.050 C 
ATOM     26  C   UNL     1       8.510  27.249  14.046  1.00  0.00    -0.013 C 
ATOM     27  C   UNL     1       9.997  29.375  14.313  1.00  0.00     0.159 C 
ATOM     28  C   UNL     1       8.603  28.844  13.947  1.00  0.00     0.070 C 
ATOM     29  C   UNL     1       8.029  26.764  15.458  1.00  0.00     0.042 C 
ATOM     30  C   UNL     1       7.524  26.741  12.979  1.00  0.00     0.013 C 
ATOM     31  O   UNL     1      10.523  30.266  13.602  1.00  0.00    -0.295 OA
ATOM     32  C   UNL     1       7.532  29.610  14.706  1.00  0.00     0.047 C 
ATOM     33  C   UNL     1       6.848  27.576  16.007  1.00  0.00     0.143 C 
ATOM     34  C   UNL     1       7.248  29.057  16.108  1.00  0.00     0.143 C 
BRANCH  19  35
ATOM     35  O   UNL     1      11.236  25.316  16.170  1.00  0.00    -0.385 OA
ATOM     36  H   UNL     1      11.298  24.414  15.740  1.00  0.00     0.211 HD
ENDBRANCH  19  35
BRANCH  33  37
ATOM     37  O   UNL     1       6.538  27.124  17.310  1.00  0.00    -0.390 OA
ATOM     38  H   UNL     1       7.202  27.524  17.920  1.00  0.00     0.211 HD
ENDBRANCH  33  37
BRANCH  34  39
ATOM     39  O   UNL     1       6.199  29.789  16.731  1.00  0.00    -0.390 OA
ATOM     40  H   UNL     1       6.391  30.751  16.627  1.00  0.00     0.211 HD
ENDBRANCH  34  39
ENDBRANCH   1  15
BRANCH   1  41
ATOM     41  O   UNL     1      15.812  23.531  15.293  1.00  0.00    -0.387 OA
ATOM     42  H   UNL     1      16.698  23.550  14.846  1.00  0.00     0.211 HD
ENDBRANCH   1  41
TORSDOF 9
ENDMDL
MODEL 2
REMARK VINA RESULT:    -5.900      1.305      1.840
REMARK INTER + INTRA:          -9.065
REMARK INTER:                  -8.543
REMARK INTRA:                  -0.522
REMARK UNBOUND:                -0.924
REMARK SMILES C[C@@H]1OC(=O)[C@H](C)[C@H]1C[C@H](O)[C@](C)(O)[C@@H]1CC[C@@]2(O)C3=CC(=O)[C@@H]4C[C@@H](O)[C@H](O)C[C@]4(C)[C@@H]3CC[C@]12C
REMARK SMILES IDX 12 1 13 2 10 3 9 4 8 5 7 6 6 7 4 8 2 9 3 10 5 11 1 12 11 13
REMARK SMILES IDX 15 15 16 16 36 17 17 18 18 19 35 20 37 21 20 22 34 23 33 24
REMARK SMILES IDX 21 25 31 26 22 27 24 28 30 29 32 30 23 31 25 32 28 33 26 34
REMARK SMILES IDX 19 35 29 37 27 39 14 41
REMARK H PARENT 11 14 19 36 29 38 27 40 14 42
REMARK Flexibility Score: inf
ROOT
ATOM      1  C   UNL     1      14.109  23.148  14.604  1.00  0.00     0.091 C 
ATOM      2  C   UNL     1      13.930  22.752  13.114  1.00  0.00     0.045 C 
ENDROOT
BRANCH   1   3
ATOM      3  C   UNL     1      13.631  21.949  15.515  1.00  0.00     0.146 C 
BRANCH   3   4
ATOM      4  C   UNL     1      13.515  20.543  14.828  1.00  0.00     0.043 C 
BRANCH   4   5
ATOM      5  C   UNL     1      13.477  19.236  15.693  1.00  0.00     0.046 C 
ATOM      6  C   UNL     1      12.485  19.030  18.059  1.00  0.00     0.020 C 
ATOM      7  C   UNL     1      13.671  19.488  17.206  1.00  0.00     0.103 C 
ATOM      8  C   UNL     1      14.896  18.707  17.507  1.00  0.00     0.309 C 
ATOM      9  C   UNL     1      14.518  18.146  15.294  1.00  0.00     0.177 C 
ATOM     10  O   UNL     1      15.360  17.991  16.430  1.00  0.00    -0.462 OA
ATOM     11  O   UNL     1      15.502  18.742  18.618  1.00  0.00    -0.252 OA
ATOM     12  C   UNL     1      13.832  16.826  14.970  1.00  0.00     0.053 C 
ENDBRANCH   4   5
ENDBRANCH   3   4
BRANCH   3  13
ATOM     13  O   UNL     1      12.355  22.270  16.031  1.00  0.00    -0.390 OA
ATOM     14  H   UNL     1      11.974  21.434  16.417  1.00  0.00     0.211 HD
ENDBRANCH   3  13
ENDBRANCH   1   3
BRANCH   1  15
ATOM     15  C   UNL     1      13.410  24.573  14.839  1.00  0.00     0.032 C 
ATOM     16  C   UNL     1      13.549  25.243  16.231  1.00  0.00     0.010 C 
ATOM     17  C   UNL     1      12.060  25.098  14.193  1.00  0.00     0.006 C 
ATOM     18  C   UNL     1      12.739  26.520  16.085  1.00  0.00     0.041 C 
ATOM     19  C   UNL     1      11.490  25.994  15.355  1.00  0.00     0.092 C 
ATOM     20  C   UNL     1      10.894  24.127  13.827  1.00  0.00     0.011 C 
ATOM     21  C   UNL     1      12.422  25.911  12.875  1.00  0.00     0.015 C 
ATOM     22  C   UNL     1      10.547  26.979  14.762  1.00  0.00    -0.031 C 
ATOM     23  C   UNL     1       9.560  24.905  13.506  1.00  0.00     0.009 C 
ATOM     24  C   UNL     1       9.547  26.448  13.744  1.00  0.00     0.025 C 
ATOM     25  C   UNL     1      10.668  28.311  14.920  1.00  0.00     0.050 C 
ATOM     26  C   UNL     1       8.169  27.156  13.999  1.00  0.00    -0.013 C 
ATOM     27  C   UNL     1       9.825  29.170  14.070  1.00  0.00     0.159 C 
ATOM     28  C   UNL     1       8.389  28.724  13.761  1.00  0.00     0.070 C 
ATOM     29  C   UNL     1       7.670  26.836  15.451  1.00  0.00     0.042 C 
ATOM     30  C   UNL     1       7.132  26.640  12.987  1.00  0.00     0.013 C 
ATOM     31  O   UNL     1      10.412  29.950  13.281  1.00  0.00    -0.295 OA
ATOM     32  C   UNL     1       7.393  29.636  14.456  1.00  0.00     0.047 C 
ATOM     33  C   UNL     1       6.565  27.785  15.935  1.00  0.00     0.143 C 
ATOM     34  C   UNL     1       7.084  29.232  15.903  1.00  0.00     0.143 C 
BRANCH  19  35
ATOM     35  O   UNL     1      10.760  25.200  16.267  1.00  0.00    -0.385 OA
ATOM     36  H   UNL     1       9.825  25.112  15.920  1.00  0.00     0.211 HD
ENDBRANCH  19  35
BRANCH  33  37
ATOM     37  O   UNL     1       6.238  27.474  17.274  1.00  0.00    -0.390 OA
ATOM     38  H   UNL     1       6.520  26.542  17.432  1.00  0.00     0.211 HD
ENDBRANCH  33  37
BRANCH  34  39
ATOM     39  O   UNL     1       6.105  30.098  16.466  1.00  0.00    -0.390 OA
ATOM     40  H   UNL     1       6.514  30.987  16.587  1.00  0.00     0.211 HD
ENDBRANCH  34  39
ENDBRANCH   1  15
BRANCH   1  41
ATOM     41  O   UNL     1      15.500  23.264  14.796  1.00  0.00    -0.387 OA
ATOM     42  H   UNL     1      15.726  23.698  15.660  1.00  0.00     0.211 HD
ENDBRANCH   1  41
TORSDOF 9
ENDMDL
MODEL 3
REMARK VINA RESULT:    -5.741      3.792      8.772
REMARK INTER + INTRA:          -8.846
REMARK INTER:                  -8.198
REMARK INTRA:                  -0.649
REMARK UNBOUND:                -0.924
REMARK SMILES C[C@@H]1OC(=O)[C@H](C)[C@H]1C[C@H](O)[C@](C)(O)[C@@H]1CC[C@@]2(O)C3=CC(=O)[C@@H]4C[C@@H](O)[C@H](O)C[C@]4(C)[C@@H]3CC[C@]12C
REMARK SMILES IDX 12 1 13 2 10 3 9 4 8 5 7 6 6 7 4 8 2 9 3 10 5 11 1 12 11 13
REMARK SMILES IDX 15 15 16 16 36 17 17 18 18 19 35 20 37 21 20 22 34 23 33 24
REMARK SMILES IDX 21 25 31 26 22 27 24 28 30 29 32 30 23 31 25 32 28 33 26 34
REMARK SMILES IDX 19 35 29 37 27 39 14 41
REMARK H PARENT 11 14 19 36 29 38 27 40 14 42
REMARK Flexibility Score: inf
ROOT
ATOM      1  C   UNL     1      13.178  21.869  15.410  1.00  0.00     0.091 C 
ATOM      2  C   UNL     1      12.295  22.836  16.244  1.00  0.00     0.045 C 
ENDROOT
BRANCH   1   3
ATOM      3  C   UNL     1      14.223  22.716  14.581  1.00  0.00     0.146 C 
BRANCH   3   4
ATOM      4  C   UNL     1      13.679  23.992  13.851  1.00  0.00     0.043 C 
BRANCH   4   5
ATOM      5  C   UNL     1      14.145  25.422  14.293  1.00  0.00     0.046 C 
ATOM      6  C   UNL     1      16.222  26.662  13.413  1.00  0.00     0.020 C 
ATOM      7  C   UNL     1      15.682  25.581  14.354  1.00  0.00     0.103 C 
ATOM      8  C   UNL     1      15.913  25.929  15.777  1.00  0.00     0.309 C 
ATOM      9  C   UNL     1      13.601  25.900  15.674  1.00  0.00     0.177 C 
ATOM     10  O   UNL     1      14.750  26.079  16.493  1.00  0.00    -0.462 OA
ATOM     11  O   UNL     1      17.060  26.015  16.307  1.00  0.00    -0.252 OA
ATOM     12  C   UNL     1      12.849  27.217  15.539  1.00  0.00     0.053 C 
ENDBRANCH   4   5
ENDBRANCH   3   4
BRANCH   3  13
ATOM     13  O   UNL     1      14.785  21.875  13.592  1.00  0.00    -0.390 OA
ATOM     14  H   UNL     1      14.235  21.982  12.768  1.00  0.00     0.211 HD
ENDBRANCH   3  13
ENDBRANCH   1   3
BRANCH   1  15
ATOM     15  C   UNL     1      12.215  20.882  14.589  1.00  0.00     0.032 C 
ATOM     16  C   UNL     1      11.473  21.439  13.347  1.00  0.00     0.010 C 
ATOM     17  C   UNL     1      11.343  19.691  15.169  1.00  0.00     0.006 C 
ATOM     18  C   UNL     1      10.647  20.254  12.875  1.00  0.00     0.041 C 
ATOM     19  C   UNL     1      10.093  19.731  14.213  1.00  0.00     0.092 C 
ATOM     20  C   UNL     1      10.745  19.738  16.611  1.00  0.00     0.011 C 
ATOM     21  C   UNL     1      12.191  18.352  15.059  1.00  0.00     0.015 C 
ATOM     22  C   UNL     1       9.446  18.392  14.238  1.00  0.00    -0.031 C 
ATOM     23  C   UNL     1       9.668  18.609  16.837  1.00  0.00     0.009 C 
ATOM     24  C   UNL     1       9.251  17.748  15.603  1.00  0.00     0.025 C 
ATOM     25  C   UNL     1       9.221  17.656  13.133  1.00  0.00     0.050 C 
ATOM     26  C   UNL     1       7.846  17.049  15.617  1.00  0.00    -0.013 C 
ATOM     27  C   UNL     1       8.816  16.252  13.330  1.00  0.00     0.159 C 
ATOM     28  C   UNL     1       7.869  15.911  14.490  1.00  0.00     0.070 C 
ATOM     29  C   UNL     1       6.722  18.114  15.367  1.00  0.00     0.042 C 
ATOM     30  C   UNL     1       7.614  16.387  16.986  1.00  0.00     0.013 C 
ATOM     31  O   UNL     1       9.578  15.365  12.875  1.00  0.00    -0.295 OA
ATOM     32  C   UNL     1       6.510  15.493  13.955  1.00  0.00     0.047 C 
ATOM     33  C   UNL     1       5.378  17.493  14.962  1.00  0.00     0.143 C 
ATOM     34  C   UNL     1       5.562  16.667  13.679  1.00  0.00     0.143 C 
BRANCH  19  35
ATOM     35  O   UNL     1       9.149  20.670  14.685  1.00  0.00    -0.385 OA
ATOM     36  H   UNL     1       9.419  20.941  15.610  1.00  0.00     0.211 HD
ENDBRANCH  19  35
BRANCH  33  37
ATOM     37  O   UNL     1       4.454  18.526  14.681  1.00  0.00    -0.390 OA
ATOM     38  H   UNL     1       3.674  18.383  15.265  1.00  0.00     0.211 HD
ENDBRANCH  33  37
BRANCH  34  39
ATOM     39  O   UNL     1       4.296  16.193  13.236  1.00  0.00    -0.390 OA
ATOM     40  H   UNL     1       3.690  16.160  14.014  1.00  0.00     0.211 HD
ENDBRANCH  34  39
ENDBRANCH   1  15
BRANCH   1  41
ATOM     41  O   UNL     1      13.921  21.132  16.354  1.00  0.00    -0.387 OA
ATOM     42  H   UNL     1      14.900  21.223  16.215  1.00  0.00     0.211 HD
ENDBRANCH   1  41
TORSDOF 9
ENDMDL
MODEL 4
REMARK VINA RESULT:    -5.705      3.144      8.501
REMARK INTER + INTRA:          -8.797
REMARK INTER:                  -7.516
REMARK INTRA:                  -1.281
REMARK UNBOUND:                -0.924
REMARK SMILES C[C@@H]1OC(=O)[C@H](C)[C@H]1C[C@H](O)[C@](C)(O)[C@@H]1CC[C@@]2(O)C3=CC(=O)[C@@H]4C[C@@H](O)[C@H](O)C[C@]4(C)[C@@H]3CC[C@]12C
REMARK SMILES IDX 12 1 13 2 10 3 9 4 8 5 7 6 6 7 4 8 2 9 3 10 5 11 1 12 11 13
REMARK SMILES IDX 15 15 16 16 36 17 17 18 18 19 35 20 37 21 20 22 34 23 33 24
REMARK SMILES IDX 21 25 31 26 22 27 24 28 30 29 32 30 23 31 25 32 28 33 26 34
REMARK SMILES IDX 19 35 29 37 27 39 14 41
REMARK H PARENT 11 14 19 36 29 38 27 40 14 42
REMARK Flexibility Score: inf
ROOT
ATOM      1  C   UNL     1      12.707  26.228  15.234  1.00  0.00     0.091 C 
ATOM      2  C   UNL     1      11.224  26.545  15.563  1.00  0.00     0.045 C 
ENDROOT
BRANCH   1   3
ATOM      3  C   UNL     1      13.321  27.436  14.421  1.00  0.00     0.146 C 
BRANCH   3   4
ATOM      4  C   UNL     1      14.689  27.178  13.698  1.00  0.00     0.043 C 
BRANCH   4   5
ATOM      5  C   UNL     1      16.034  27.215  14.502  1.00  0.00     0.046 C 
ATOM      6  C   UNL     1      17.498  29.297  14.884  1.00  0.00     0.020 C 
ATOM      7  C   UNL     1      17.081  28.188  13.914  1.00  0.00     0.103 C 
ATOM      8  C   UNL     1      18.215  27.285  13.595  1.00  0.00     0.309 C 
ATOM      9  C   UNL     1      16.752  25.840  14.657  1.00  0.00     0.177 C 
ATOM     10  O   UNL     1      18.002  25.989  13.994  1.00  0.00    -0.462 OA
ATOM     11  O   UNL     1      19.249  27.646  12.960  1.00  0.00    -0.252 OA
ATOM     12  C   UNL     1      16.978  25.503  16.124  1.00  0.00     0.053 C 
ENDBRANCH   4   5
ENDBRANCH   3   4
BRANCH   3  13
ATOM     13  O   UNL     1      13.516  28.514  15.316  1.00  0.00    -0.390 OA
ATOM     14  H   UNL     1      13.065  28.273  16.170  1.00  0.00     0.211 HD
ENDBRANCH   3  13
ENDBRANCH   1   3
BRANCH   1  15
ATOM     15  C   UNL     1      12.779  24.775  14.558  1.00  0.00     0.032 C 
ATOM     16  C   UNL     1      12.143  24.581  13.156  1.00  0.00     0.010 C 
ATOM     17  C   UNL     1      12.742  23.370  15.294  1.00  0.00     0.006 C 
ATOM     18  C   UNL     1      12.365  23.104  12.875  1.00  0.00     0.041 C 
ATOM     19  C   UNL     1      11.987  22.487  14.233  1.00  0.00     0.092 C 
ATOM     20  C   UNL     1      11.952  23.163  16.625  1.00  0.00     0.011 C 
ATOM     21  C   UNL     1      14.239  22.910  15.563  1.00  0.00     0.015 C 
ATOM     22  C   UNL     1      12.331  21.062  14.486  1.00  0.00    -0.031 C 
ATOM     23  C   UNL     1      11.800  21.635  16.985  1.00  0.00     0.009 C 
ATOM     24  C   UNL     1      12.292  20.591  15.933  1.00  0.00     0.025 C 
ATOM     25  C   UNL     1      12.861  20.250  13.552  1.00  0.00     0.050 C 
ATOM     26  C   UNL     1      11.671  19.149  15.960  1.00  0.00    -0.013 C 
ATOM     27  C   UNL     1      13.391  18.952  14.009  1.00  0.00     0.159 C 
ATOM     28  C   UNL     1      12.643  18.196  15.117  1.00  0.00     0.070 C 
ATOM     29  C   UNL     1      10.217  19.189  15.375  1.00  0.00     0.042 C 
ATOM     30  C   UNL     1      11.614  18.642  17.411  1.00  0.00     0.013 C 
ATOM     31  O   UNL     1      14.616  18.738  13.836  1.00  0.00    -0.295 OA
ATOM     32  C   UNL     1      12.000  16.940  14.554  1.00  0.00     0.047 C 
ATOM     33  C   UNL     1       9.683  17.803  14.985  1.00  0.00     0.143 C 
ATOM     34  C   UNL     1      10.615  17.173  13.937  1.00  0.00     0.143 C 
BRANCH  19  35
ATOM     35  O   UNL     1      10.590  22.622  14.395  1.00  0.00    -0.385 OA
ATOM     36  H   UNL     1      10.321  22.108  15.211  1.00  0.00     0.211 HD
ENDBRANCH  19  35
BRANCH  33  37
ATOM     37  O   UNL     1       8.406  17.946  14.395  1.00  0.00    -0.390 OA
ATOM     38  H   UNL     1       8.528  17.869  13.419  1.00  0.00     0.211 HD
ENDBRANCH  33  37
BRANCH  34  39
ATOM     39  O   UNL     1      10.056  15.945  13.485  1.00  0.00    -0.390 OA
ATOM     40  H   UNL     1      10.081  15.941  12.499  1.00  0.00     0.211 HD
ENDBRANCH  34  39
ENDBRANCH   1  15
BRANCH   1  41
ATOM     41  O   UNL     1      13.370  26.207  16.477  1.00  0.00    -0.387 OA
ATOM     42  H   UNL     1      13.388  27.100  16.909  1.00  0.00     0.211 HD
ENDBRANCH   1  41
TORSDOF 9
ENDMDL
MODEL 5
REMARK VINA RESULT:    -5.630      2.780      8.889
REMARK INTER + INTRA:          -8.693
REMARK INTER:                  -7.225
REMARK INTRA:                  -1.469
REMARK UNBOUND:                -0.924
REMARK SMILES C[C@@H]1OC(=O)[C@H](C)[C@H]1C[C@H](O)[C@](C)(O)[C@@H]1CC[C@@]2(O)C3=CC(=O)[C@@H]4C[C@@H](O)[C@H](O)C[C@]4(C)[C@@H]3CC[C@]12C
REMARK SMILES IDX 12 1 13 2 10 3 9 4 8 5 7 6 6 7 4 8 2 9 3 10 5 11 1 12 11 13
REMARK SMILES IDX 15 15 16 16 36 17 17 18 18 19 35 20 37 21 20 22 34 23 33 24
REMARK SMILES IDX 21 25 31 26 22 27 24 28 30 29 32 30 23 31 25 32 28 33 26 34
REMARK SMILES IDX 19 35 29 37 27 39 14 41
REMARK H PARENT 11 14 19 36 29 38 27 40 14 42
REMARK Flexibility Score: inf
ROOT
ATOM      1  C   UNL     1      11.770  25.565  15.506  1.00  0.00     0.091 C 
ATOM      2  C   UNL     1      10.229  25.477  15.665  1.00  0.00     0.045 C 
ENDROOT
BRANCH   1   3
ATOM      3  C   UNL     1      12.144  26.982  14.915  1.00  0.00     0.146 C 
BRANCH   3   4
ATOM      4  C   UNL     1      13.452  27.653  15.463  1.00  0.00     0.043 C 
BRANCH   4   5
ATOM      5  C   UNL     1      14.783  27.591  14.639  1.00  0.00     0.046 C 
ATOM      6  C   UNL     1      15.530  25.637  13.138  1.00  0.00     0.020 C 
ATOM      7  C   UNL     1      15.402  26.175  14.566  1.00  0.00     0.103 C 
ATOM      8  C   UNL     1      16.730  26.372  15.198  1.00  0.00     0.309 C 
ATOM      9  C   UNL     1      15.917  28.538  15.136  1.00  0.00     0.177 C 
ATOM     10  O   UNL     1      16.984  27.682  15.525  1.00  0.00    -0.462 OA
ATOM     11  O   UNL     1      17.527  25.429  15.475  1.00  0.00    -0.252 OA
ATOM     12  C   UNL     1      16.377  29.471  14.025  1.00  0.00     0.053 C 
ENDBRANCH   4   5
ENDBRANCH   3   4
BRANCH   3  13
ATOM     13  O   UNL     1      11.075  27.867  15.185  1.00  0.00    -0.390 OA
ATOM     14  H   UNL     1      10.768  27.685  16.115  1.00  0.00     0.211 HD
ENDBRANCH   3  13
ENDBRANCH   1   3
BRANCH   1  15
ATOM     15  C   UNL     1      12.272  24.275  14.694  1.00  0.00     0.032 C 
ATOM     16  C   UNL     1      11.655  23.994  13.299  1.00  0.00     0.010 C 
ATOM     17  C   UNL     1      12.735  22.883  15.297  1.00  0.00     0.006 C 
ATOM     18  C   UNL     1      12.328  22.700  12.875  1.00  0.00     0.041 C 
ATOM     19  C   UNL     1      12.249  21.887  14.179  1.00  0.00     0.092 C 
ATOM     20  C   UNL     1      12.132  22.322  16.623  1.00  0.00     0.011 C 
ATOM     21  C   UNL     1      14.314  22.920  15.480  1.00  0.00     0.015 C 
ATOM     22  C   UNL     1      13.052  20.639  14.288  1.00  0.00    -0.031 C 
ATOM     23  C   UNL     1      12.506  20.805  16.843  1.00  0.00     0.009 C 
ATOM     24  C   UNL     1      13.251  20.068  15.685  1.00  0.00     0.025 C 
ATOM     25  C   UNL     1      13.764  20.123  13.268  1.00  0.00     0.050 C 
ATOM     26  C   UNL     1      13.134  18.505  15.594  1.00  0.00    -0.013 C 
ATOM     27  C   UNL     1      14.712  19.041  13.587  1.00  0.00     0.159 C 
ATOM     28  C   UNL     1      14.314  17.995  14.639  1.00  0.00     0.070 C 
ATOM     29  C   UNL     1      11.715  18.110  15.055  1.00  0.00     0.042 C 
ATOM     30  C   UNL     1      13.328  17.894  16.992  1.00  0.00     0.013 C 
ATOM     31  O   UNL     1      15.927  19.256  13.361  1.00  0.00    -0.295 OA
ATOM     32  C   UNL     1      14.083  16.646  13.979  1.00  0.00     0.047 C 
ATOM     33  C   UNL     1      11.640  16.662  14.552  1.00  0.00     0.143 C 
ATOM     34  C   UNL     1      12.666  16.459  13.425  1.00  0.00     0.143 C 
BRANCH  19  35
ATOM     35  O   UNL     1      10.896  21.541  14.391  1.00  0.00    -0.385 OA
ATOM     36  H   UNL     1      10.405  22.369  14.668  1.00  0.00     0.211 HD
ENDBRANCH  19  35
BRANCH  33  37
ATOM     37  O   UNL     1      10.355  16.423  14.013  1.00  0.00    -0.390 OA
ATOM     38  H   UNL     1       9.826  17.244  14.151  1.00  0.00     0.211 HD
ENDBRANCH  33  37
BRANCH  34  39
ATOM     39  O   UNL     1      12.511  15.155  12.875  1.00  0.00    -0.390 OA
ATOM     40  H   UNL     1      11.557  15.021  12.664  1.00  0.00     0.211 HD
ENDBRANCH  34  39
ENDBRANCH   1  15
BRANCH   1  41
ATOM     41  O   UNL     1      12.284  25.531  16.817  1.00  0.00    -0.387 OA
ATOM     42  H   UNL     1      12.915  24.777  16.954  1.00  0.00     0.211 HD
ENDBRANCH   1  41
TORSDOF 9
ENDMDL
MODEL 6
REMARK VINA RESULT:    -5.613      1.891      8.616
REMARK INTER + INTRA:          -8.670
REMARK INTER:                  -7.692
REMARK INTRA:                  -0.978
REMARK UNBOUND:                -0.924
REMARK SMILES C[C@@H]1OC(=O)[C@H](C)[C@H]1C[C@H](O)[C@](C)(O)[C@@H]1CC[C@@]2(O)C3=CC(=O)[C@@H]4C[C@@H](O)[C@H](O)C[C@]4(C)[C@@H]3CC[C@]12C
REMARK SMILES IDX 12 1 13 2 10 3 9 4 8 5 7 6 6 7 4 8 2 9 3 10 5 11 1 12 11 13
REMARK SMILES IDX 15 15 16 16 36 17 17 18 18 19 35 20 37 21 20 22 34 23 33 24
REMARK SMILES IDX 21 25 31 26 22 27 24 28 30 29 32 30 23 31 25 32 28 33 26 34
REMARK SMILES IDX 19 35 29 37 27 39 14 41
REMARK H PARENT 11 14 19 36 29 38 27 40 14 42
REMARK Flexibility Score: inf
ROOT
ATOM      1  C   UNL     1      12.491  26.394  14.005  1.00  0.00     0.091 C 
ATOM      2  C   UNL     1      13.653  27.259  13.450  1.00  0.00     0.045 C 
ENDROOT
BRANCH   1   3
ATOM      3  C   UNL     1      11.549  27.305  14.889  1.00  0.00     0.146 C 
BRANCH   3   4
ATOM      4  C   UNL     1      10.405  28.074  14.141  1.00  0.00     0.043 C 
BRANCH   4   5
ATOM      5  C   UNL     1       8.940  27.519  14.144  1.00  0.00     0.046 C 
ATOM      6  C   UNL     1       6.797  28.938  13.997  1.00  0.00     0.020 C 
ATOM      7  C   UNL     1       7.934  28.428  14.887  1.00  0.00     0.103 C 
ATOM      8  C   UNL     1       7.431  27.538  15.962  1.00  0.00     0.309 C 
ATOM      9  C   UNL     1       8.771  26.093  14.751  1.00  0.00     0.177 C 
ATOM     10  O   UNL     1       7.923  26.259  15.881  1.00  0.00    -0.462 OA
ATOM     11  O   UNL     1       6.678  27.924  16.905  1.00  0.00    -0.252 OA
ATOM     12  C   UNL     1       8.124  25.145  13.750  1.00  0.00     0.053 C 
ENDBRANCH   4   5
ENDBRANCH   3   4
BRANCH   3  13
ATOM     13  O   UNL     1      12.354  28.273  15.533  1.00  0.00    -0.390 OA
ATOM     14  H   UNL     1      12.613  28.946  14.845  1.00  0.00     0.211 HD
ENDBRANCH   3  13
ENDBRANCH   1   3
BRANCH   1  15
ATOM     15  C   UNL     1      13.114  25.089  14.699  1.00  0.00     0.032 C 
ATOM     16  C   UNL     1      14.632  24.816  14.531  1.00  0.00     0.010 C 
ATOM     17  C   UNL     1      12.403  23.689  14.924  1.00  0.00     0.006 C 
ATOM     18  C   UNL     1      14.834  23.505  15.270  1.00  0.00     0.041 C 
ATOM     19  C   UNL     1      13.619  22.699  14.778  1.00  0.00     0.092 C 
ATOM     20  C   UNL     1      11.325  23.148  13.933  1.00  0.00     0.011 C 
ATOM     21  C   UNL     1      11.748  23.690  16.372  1.00  0.00     0.015 C 
ATOM     22  C   UNL     1      13.275  21.434  15.480  1.00  0.00    -0.031 C 
ATOM     23  C   UNL     1      11.007  21.624  14.186  1.00  0.00     0.009 C 
ATOM     24  C   UNL     1      11.884  20.865  15.230  1.00  0.00     0.025 C 
ATOM     25  C   UNL     1      14.031  20.897  16.456  1.00  0.00     0.050 C 
ATOM     26  C   UNL     1      12.012  19.304  15.110  1.00  0.00    -0.013 C 
ATOM     27  C   UNL     1      13.442  19.794  17.236  1.00  0.00     0.159 C 
ATOM     28  C   UNL     1      12.564  18.763  16.512  1.00  0.00     0.070 C 
ATOM     29  C   UNL     1      12.958  18.940  13.914  1.00  0.00     0.042 C 
ATOM     30  C   UNL     1      10.623  18.695  14.854  1.00  0.00     0.013 C 
ATOM     31  O   UNL     1      13.286  19.980  18.468  1.00  0.00    -0.295 OA
ATOM     32  C   UNL     1      13.266  17.417  16.462  1.00  0.00     0.047 C 
ATOM     33  C   UNL     1      13.465  17.492  13.961  1.00  0.00     0.143 C 
ATOM     34  C   UNL     1      14.226  17.260  15.276  1.00  0.00     0.143 C 
BRANCH  19  35
ATOM     35  O   UNL     1      13.830  22.387  13.417  1.00  0.00    -0.385 OA
ATOM     36  H   UNL     1      13.048  21.850  13.097  1.00  0.00     0.211 HD
ENDBRANCH  19  35
BRANCH  33  37
ATOM     37  O   UNL     1      14.370  17.281  12.896  1.00  0.00    -0.390 OA
ATOM     38  H   UNL     1      13.859  17.382  12.059  1.00  0.00     0.211 HD
ENDBRANCH  33  37
BRANCH  34  39
ATOM     39  O   UNL     1      14.801  15.958  15.266  1.00  0.00    -0.390 OA
ATOM     40  H   UNL     1      15.514  15.931  15.948  1.00  0.00     0.211 HD
ENDBRANCH  34  39
ENDBRANCH   1  15
BRANCH   1  41
ATOM     41  O   UNL     1      11.735  26.016  12.877  1.00  0.00    -0.387 OA
ATOM     42  H   UNL     1      10.791  26.321  12.937  1.00  0.00     0.211 HD
ENDBRANCH   1  41
TORSDOF 9
ENDMDL
MODEL 7
REMARK VINA RESULT:    -5.532      1.787      2.341
REMARK INTER + INTRA:          -8.558
REMARK INTER:                  -8.469
REMARK INTRA:                  -0.089
REMARK UNBOUND:                -0.924
REMARK SMILES C[C@@H]1OC(=O)[C@H](C)[C@H]1C[C@H](O)[C@](C)(O)[C@@H]1CC[C@@]2(O)C3=CC(=O)[C@@H]4C[C@@H](O)[C@H](O)C[C@]4(C)[C@@H]3CC[C@]12C
REMARK SMILES IDX 12 1 13 2 10 3 9 4 8 5 7 6 6 7 4 8 2 9 3 10 5 11 1 12 11 13
REMARK SMILES IDX 15 15 16 16 36 17 17 18 18 19 35 20 37 21 20 22 34 23 33 24
REMARK SMILES IDX 21 25 31 26 22 27 24 28 30 29 32 30 23 31 25 32 28 33 26 34
REMARK SMILES IDX 19 35 29 37 27 39 14 41
REMARK H PARENT 11 14 19 36 29 38 27 40 14 42
REMARK Flexibility Score: inf
ROOT
ATOM      1  C   UNL     1      12.936  21.974  13.882  1.00  0.00     0.091 C 
ATOM      2  C   UNL     1      11.708  21.670  12.984  1.00  0.00     0.045 C 
ENDROOT
BRANCH   1   3
ATOM      3  C   UNL     1      13.102  20.807  14.935  1.00  0.00     0.146 C 
BRANCH   3   4
ATOM      4  C   UNL     1      14.230  19.755  14.652  1.00  0.00     0.043 C 
BRANCH   4   5
ATOM      5  C   UNL     1      14.902  18.972  15.832  1.00  0.00     0.046 C 
ATOM      6  C   UNL     1      16.815  17.264  15.603  1.00  0.00     0.020 C 
ATOM      7  C   UNL     1      15.313  17.527  15.463  1.00  0.00     0.103 C 
ATOM      8  C   UNL     1      14.523  16.715  16.420  1.00  0.00     0.309 C 
ATOM      9  C   UNL     1      14.046  18.865  17.131  1.00  0.00     0.177 C 
ATOM     10  O   UNL     1      13.813  17.474  17.318  1.00  0.00    -0.462 OA
ATOM     11  O   UNL     1      14.448  15.451  16.381  1.00  0.00    -0.252 OA
ATOM     12  C   UNL     1      14.795  19.433  18.328  1.00  0.00     0.053 C 
ENDBRANCH   4   5
ENDBRANCH   3   4
BRANCH   3  13
ATOM     13  O   UNL     1      11.878  20.101  15.005  1.00  0.00    -0.390 OA
ATOM     14  H   UNL     1      11.347  20.352  14.201  1.00  0.00     0.211 HD
ENDBRANCH   3  13
ENDBRANCH   1   3
BRANCH   1  15
ATOM     15  C   UNL     1      12.792  23.465  14.456  1.00  0.00     0.032 C 
ATOM     16  C   UNL     1      12.947  23.688  15.983  1.00  0.00     0.010 C 
ATOM     17  C   UNL     1      11.857  24.620  13.901  1.00  0.00     0.006 C 
ATOM     18  C   UNL     1      12.706  25.179  16.144  1.00  0.00     0.041 C 
ATOM     19  C   UNL     1      11.485  25.380  15.228  1.00  0.00     0.092 C 
ATOM     20  C   UNL     1      10.486  24.310  13.220  1.00  0.00     0.011 C 
ATOM     21  C   UNL     1      12.700  25.495  12.876  1.00  0.00     0.015 C 
ATOM     22  C   UNL     1      11.085  26.767  14.873  1.00  0.00    -0.031 C 
ATOM     23  C   UNL     1       9.609  25.609  13.048  1.00  0.00     0.009 C 
ATOM     24  C   UNL     1      10.135  26.929  13.694  1.00  0.00     0.025 C 
ATOM     25  C   UNL     1      11.667  27.864  15.394  1.00  0.00     0.050 C 
ATOM     26  C   UNL     1       9.099  28.053  14.054  1.00  0.00    -0.013 C 
ATOM     27  C   UNL     1      11.353  29.159  14.762  1.00  0.00     0.159 C 
ATOM     28  C   UNL     1       9.923  29.410  14.263  1.00  0.00     0.070 C 
ATOM     29  C   UNL     1       8.293  27.640  15.334  1.00  0.00     0.042 C 
ATOM     30  C   UNL     1       8.120  28.241  12.883  1.00  0.00     0.013 C 
ATOM     31  O   UNL     1      12.306  29.794  14.249  1.00  0.00    -0.295 OA
ATOM     32  C   UNL     1       9.243  30.461  15.123  1.00  0.00     0.047 C 
ATOM     33  C   UNL     1       7.559  28.816  15.994  1.00  0.00     0.143 C 
ATOM     34  C   UNL     1       8.579  29.898  16.385  1.00  0.00     0.143 C 
BRANCH  19  35
ATOM     35  O   UNL     1      10.376  24.762  15.848  1.00  0.00    -0.385 OA
ATOM     36  H   UNL     1       9.628  25.427  15.878  1.00  0.00     0.211 HD
ENDBRANCH  19  35
BRANCH  33  37
ATOM     37  O   UNL     1       6.931  28.367  17.178  1.00  0.00    -0.390 OA
ATOM     38  H   UNL     1       7.312  28.889  17.923  1.00  0.00     0.211 HD
ENDBRANCH  33  37
BRANCH  34  39
ATOM     39  O   UNL     1       7.917  30.932  17.106  1.00  0.00    -0.390 OA
ATOM     40  H   UNL     1       7.834  31.716  16.513  1.00  0.00     0.211 HD
ENDBRANCH  34  39
ENDBRANCH   1  15
BRANCH   1  41
ATOM     41  O   UNL     1      14.053  21.899  13.027  1.00  0.00    -0.387 OA
ATOM     42  H   UNL     1      14.396  20.972  12.936  1.00  0.00     0.211 HD
ENDBRANCH   1  41
TORSDOF 9
ENDMDL
MODEL 8
REMARK VINA RESULT:    -5.418      3.781     10.475
REMARK INTER + INTRA:          -8.400
REMARK INTER:                  -7.736
REMARK INTRA:                  -0.664
REMARK UNBOUND:                -0.924
REMARK SMILES C[C@@H]1OC(=O)[C@H](C)[C@H]1C[C@H](O)[C@](C)(O)[C@@H]1CC[C@@]2(O)C3=CC(=O)[C@@H]4C[C@@H](O)[C@H](O)C[C@]4(C)[C@@H]3CC[C@]12C
REMARK SMILES IDX 12 1 13 2 10 3 9 4 8 5 7 6 6 7 4 8 2 9 3 10 5 11 1 12 11 13
REMARK SMILES IDX 15 15 16 16 36 17 17 18 18 19 35 20 37 21 20 22 34 23 33 24
REMARK SMILES IDX 21 25 31 26 22 27 24 28 30 29 32 30 23 31 25 32 28 33 26 34
REMARK SMILES IDX 19 35 29 37 27 39 14 41
REMARK H PARENT 11 14 19 36 29 38 27 40 14 42
REMARK Flexibility Score: inf
ROOT
ATOM      1  C   UNL     1      12.434  22.372  14.904  1.00  0.00     0.091 C 
ATOM      2  C   UNL     1      12.641  22.741  13.411  1.00  0.00     0.045 C 
ENDROOT
BRANCH   1   3
ATOM      3  C   UNL     1      13.722  22.790  15.719  1.00  0.00     0.146 C 
BRANCH   3   4
ATOM      4  C   UNL     1      14.810  23.614  14.947  1.00  0.00     0.043 C 
BRANCH   4   5
ATOM      5  C   UNL     1      15.002  25.143  15.234  1.00  0.00     0.046 C 
ATOM      6  C   UNL     1      13.261  26.696  16.322  1.00  0.00     0.020 C 
ATOM      7  C   UNL     1      13.712  25.975  15.048  1.00  0.00     0.103 C 
ATOM      8  C   UNL     1      14.099  26.934  13.984  1.00  0.00     0.309 C 
ATOM      9  C   UNL     1      16.102  25.846  14.382  1.00  0.00     0.177 C 
ATOM     10  O   UNL     1      15.417  26.830  13.616  1.00  0.00    -0.462 OA
ATOM     11  O   UNL     1      13.289  27.726  13.418  1.00  0.00    -0.252 OA
ATOM     12  C   UNL     1      17.143  26.510  15.272  1.00  0.00     0.053 C 
ENDBRANCH   4   5
ENDBRANCH   3   4
BRANCH   3  13
ATOM     13  O   UNL     1      14.345  21.611  16.190  1.00  0.00    -0.390 OA
ATOM     14  H   UNL     1      14.692  21.123  15.394  1.00  0.00     0.211 HD
ENDBRANCH   3  13
ENDBRANCH   1   3
BRANCH   1  15
ATOM     15  C   UNL     1      11.975  20.837  14.990  1.00  0.00     0.032 C 
ATOM     16  C   UNL     1      11.340  20.329  16.310  1.00  0.00     0.010 C 
ATOM     17  C   UNL     1      12.653  19.591  14.280  1.00  0.00     0.006 C 
ATOM     18  C   UNL     1      11.085  18.858  16.031  1.00  0.00     0.041 C 
ATOM     19  C   UNL     1      12.402  18.458  15.342  1.00  0.00     0.092 C 
ATOM     20  C   UNL     1      14.189  19.544  13.999  1.00  0.00     0.011 C 
ATOM     21  C   UNL     1      11.917  19.346  12.894  1.00  0.00     0.015 C 
ATOM     22  C   UNL     1      12.467  17.145  14.645  1.00  0.00    -0.031 C 
ATOM     23  C   UNL     1      14.666  18.098  13.589  1.00  0.00     0.009 C 
ATOM     24  C   UNL     1      13.622  16.940  13.673  1.00  0.00     0.025 C 
ATOM     25  C   UNL     1      11.472  16.239  14.673  1.00  0.00     0.050 C 
ATOM     26  C   UNL     1      14.145  15.469  13.843  1.00  0.00    -0.013 C 
ATOM     27  C   UNL     1      11.564  15.108  13.733  1.00  0.00     0.159 C 
ATOM     28  C   UNL     1      12.941  14.488  13.454  1.00  0.00     0.070 C 
ATOM     29  C   UNL     1      14.643  15.250  15.313  1.00  0.00     0.042 C 
ATOM     30  C   UNL     1      15.316  15.227  12.875  1.00  0.00     0.013 C 
ATOM     31  O   UNL     1      10.652  14.996  12.877  1.00  0.00    -0.295 OA
ATOM     32  C   UNL     1      13.019  13.091  14.045  1.00  0.00     0.047 C 
ATOM     33  C   UNL     1      14.790  13.769  15.689  1.00  0.00     0.143 C 
ATOM     34  C   UNL     1      13.435  13.063  15.521  1.00  0.00     0.143 C 
BRANCH  19  35
ATOM     35  O   UNL     1      13.422  18.472  16.320  1.00  0.00    -0.385 OA
ATOM     36  H   UNL     1      14.083  17.757  16.088  1.00  0.00     0.211 HD
ENDBRANCH  19  35
BRANCH  33  37
ATOM     37  O   UNL     1      15.162  13.669  17.049  1.00  0.00    -0.390 OA
ATOM     38  H   UNL     1      15.946  13.072  17.091  1.00  0.00     0.211 HD
ENDBRANCH  33  37
BRANCH  34  39
ATOM     39  O   UNL     1      13.540  11.722  15.986  1.00  0.00    -0.390 OA
ATOM     40  H   UNL     1      13.412  11.118  15.216  1.00  0.00     0.211 HD
ENDBRANCH  34  39
ENDBRANCH   1  15
BRANCH   1  41
ATOM     41  O   UNL     1      11.391  23.206  15.354  1.00  0.00    -0.387 OA
ATOM     42  H   UNL     1      11.459  24.126  14.987  1.00  0.00     0.211 HD
ENDBRANCH   1  41
TORSDOF 9
ENDMDL
MODEL 9
REMARK VINA RESULT:    -5.355      1.887      8.339
REMARK INTER + INTRA:          -8.314
REMARK INTER:                  -7.513
REMARK INTRA:                  -0.800
REMARK UNBOUND:                -0.924
REMARK SMILES C[C@@H]1OC(=O)[C@H](C)[C@H]1C[C@H](O)[C@](C)(O)[C@@H]1CC[C@@]2(O)C3=CC(=O)[C@@H]4C[C@@H](O)[C@H](O)C[C@]4(C)[C@@H]3CC[C@]12C
REMARK SMILES IDX 12 1 13 2 10 3 9 4 8 5 7 6 6 7 4 8 2 9 3 10 5 11 1 12 11 13
REMARK SMILES IDX 15 15 16 16 36 17 17 18 18 19 35 20 37 21 20 22 34 23 33 24
REMARK SMILES IDX 21 25 31 26 22 27 24 28 30 29 32 30 23 31 25 32 28 33 26 34
REMARK SMILES IDX 19 35 29 37 27 39 14 41
REMARK H PARENT 11 14 19 36 29 38 27 40 14 42
REMARK Flexibility Score: inf
ROOT
ATOM      1  C   UNL     1      12.826  26.591  14.968  1.00  0.00     0.091 C 
ATOM      2  C   UNL     1      13.211  26.634  16.471  1.00  0.00     0.045 C 
ENDROOT
BRANCH   1   3
ATOM      3  C   UNL     1      11.407  27.262  14.783  1.00  0.00     0.146 C 
BRANCH   3   4
ATOM      4  C   UNL     1      10.165  26.305  14.800  1.00  0.00     0.043 C 
BRANCH   4   5
ATOM      5  C   UNL     1       8.730  26.859  14.503  1.00  0.00     0.046 C 
ATOM      6  C   UNL     1       8.116  29.337  14.174  1.00  0.00     0.020 C 
ATOM      7  C   UNL     1       8.441  28.223  15.172  1.00  0.00     0.103 C 
ATOM      8  C   UNL     1       7.281  27.913  16.044  1.00  0.00     0.309 C 
ATOM      9  C   UNL     1       7.557  25.916  14.908  1.00  0.00     0.177 C 
ATOM     10  O   UNL     1       6.823  26.627  15.898  1.00  0.00    -0.462 OA
ATOM     11  O   UNL     1       6.797  28.721  16.890  1.00  0.00    -0.252 OA
ATOM     12  C   UNL     1       6.661  25.611  13.715  1.00  0.00     0.053 C 
ENDBRANCH   4   5
ENDBRANCH   3   4
BRANCH   3  13
ATOM     13  O   UNL     1      11.400  27.938  13.540  1.00  0.00    -0.390 OA
ATOM     14  H   UNL     1      12.292  27.794  13.121  1.00  0.00     0.211 HD
ENDBRANCH   3  13
ENDBRANCH   1   3
BRANCH   1  15
ATOM     15  C   UNL     1      13.001  25.086  14.441  1.00  0.00     0.032 C 
ATOM     16  C   UNL     1      12.564  24.756  12.990  1.00  0.00     0.010 C 
ATOM     17  C   UNL     1      12.876  23.751  15.289  1.00  0.00     0.006 C 
ATOM     18  C   UNL     1      12.833  23.265  12.875  1.00  0.00     0.041 C 
ATOM     19  C   UNL     1      12.279  22.762  14.220  1.00  0.00     0.092 C 
ATOM     20  C   UNL     1      11.914  23.645  16.514  1.00  0.00     0.011 C 
ATOM     21  C   UNL     1      14.326  23.346  15.797  1.00  0.00     0.015 C 
ATOM     22  C   UNL     1      12.598  21.373  14.643  1.00  0.00    -0.031 C 
ATOM     23  C   UNL     1      11.727  22.152  16.986  1.00  0.00     0.009 C 
ATOM     24  C   UNL     1      12.366  21.030  16.109  1.00  0.00     0.025 C 
ATOM     25  C   UNL     1      13.257  20.492  13.866  1.00  0.00     0.050 C 
ATOM     26  C   UNL     1      11.759  19.584  16.181  1.00  0.00    -0.013 C 
ATOM     27  C   UNL     1      13.730  19.251  14.505  1.00  0.00     0.159 C 
ATOM     28  C   UNL     1      12.844  18.580  15.565  1.00  0.00     0.070 C 
ATOM     29  C   UNL     1      10.398  19.542  15.404  1.00  0.00     0.042 C 
ATOM     30  C   UNL     1      11.509  19.205  17.651  1.00  0.00     0.013 C 
ATOM     31  O   UNL     1      14.969  19.048  14.519  1.00  0.00    -0.295 OA
ATOM     32  C   UNL     1      12.294  17.267  15.036  1.00  0.00     0.047 C 
ATOM     33  C   UNL     1       9.933  18.117  15.071  1.00  0.00     0.143 C 
ATOM     34  C   UNL     1      11.004  17.416  14.220  1.00  0.00     0.143 C 
BRANCH  19  35
ATOM     35  O   UNL     1      10.872  22.882  14.179  1.00  0.00    -0.385 OA
ATOM     36  H   UNL     1      10.648  23.723  13.684  1.00  0.00     0.211 HD
ENDBRANCH  19  35
BRANCH  33  37
ATOM     37  O   UNL     1       8.747  18.181  14.304  1.00  0.00    -0.390 OA
ATOM     38  H   UNL     1       8.178  17.428  14.589  1.00  0.00     0.211 HD
ENDBRANCH  33  37
BRANCH  34  39
ATOM     39  O   UNL     1      10.522  16.142  13.808  1.00  0.00    -0.390 OA
ATOM     40  H   UNL     1      11.228  15.704  13.276  1.00  0.00     0.211 HD
ENDBRANCH  34  39
ENDBRANCH   1  15
BRANCH   1  41
ATOM     41  O   UNL     1      13.752  27.432  14.320  1.00  0.00    -0.387 OA
ATOM     42  H   UNL     1      14.449  27.773  14.940  1.00  0.00     0.211 HD
ENDBRANCH   1  41
TORSDOF 9
ENDMDL
