MODEL 1
REMARK VINA RESULT:    -2.049      0.000      0.000
REMARK INTER + INTRA:          -2.229
REMARK INTER:                  -2.229
REMARK INTRA:                   0.000
REMARK UNBOUND:                 0.000
REMARK SMILES [NH3+]CC(=O)[O-]
REMARK SMILES IDX 2 1 1 2 3 6 4 7 5 8
REMARK H PARENT 1 3 1 4 1 5
REMARK Flexibility Score: inf
ROOT
ATOM      1  C   UNL     1     207.761 187.258  -4.262  1.00  0.00     0.312 C 
ENDROOT
BRANCH   1   2
ATOM      2  N   UNL     1     207.252 186.989  -5.605  1.00  0.00    -0.353 N 
ATOM      3  H   UNL     1     206.275 186.619  -5.552  1.00  0.00     0.344 HD
ATOM      4  H   UNL     1     207.247 187.880  -6.154  1.00  0.00     0.344 HD
ATOM      5  H   UNL     1     207.867 186.296  -6.090  1.00  0.00     0.344 HD
ENDBRANCH   1   2
BRANCH   1   6
ATOM      6  C   UNL     1     206.654 187.701  -3.356  1.00  0.00     0.096 C 
ATOM      7  O   UNL     1     205.790 186.875  -2.961  1.00  0.00    -0.544 OA
ATOM      8  O   UNL     1     206.607 189.014  -2.906  1.00  0.00    -0.544 OA
ENDBRANCH   1   6
TORSDOF 2
ENDMDL
MODEL 2
REMARK VINA RESULT:    -1.899     22.215     22.592
REMARK INTER + INTRA:          -2.066
REMARK INTER:                  -2.066
REMARK INTRA:                   0.000
REMARK UNBOUND:                 0.000
REMARK SMILES [NH3+]CC(=O)[O-]
REMARK SMILES IDX 2 1 1 2 3 6 4 7 5 8
REMARK H PARENT 1 3 1 4 1 5
REMARK Flexibility Score: inf
ROOT
ATOM      1  C   UNL     1     219.487 205.639  -6.386  1.00  0.00     0.312 C 
ENDROOT
BRANCH   1   2
ATOM      2  N   UNL     1     219.225 206.118  -7.741  1.00  0.00    -0.353 N 
ATOM      3  H   UNL     1     219.663 207.057  -7.881  1.00  0.00     0.344 HD
ATOM      4  H   UNL     1     219.639 205.446  -8.428  1.00  0.00     0.344 HD
ATOM      5  H   UNL     1     218.194 206.180  -7.908  1.00  0.00     0.344 HD
ENDBRANCH   1   2
BRANCH   1   6
ATOM      6  C   UNL     1     220.827 204.975  -6.310  1.00  0.00     0.096 C 
ATOM      7  O   UNL     1     221.051 204.099  -5.434  1.00  0.00    -0.544 OA
ATOM      8  O   UNL     1     221.812 205.287  -7.238  1.00  0.00    -0.544 OA
ENDBRANCH   1   6
TORSDOF 2
ENDMDL
MODEL 3
REMARK VINA RESULT:    -1.887      2.084      2.321
REMARK INTER + INTRA:          -2.053
REMARK INTER:                  -2.053
REMARK INTRA:                   0.000
REMARK UNBOUND:                 0.000
REMARK SMILES [NH3+]CC(=O)[O-]
REMARK SMILES IDX 2 1 1 2 3 6 4 7 5 8
REMARK H PARENT 1 3 1 4 1 5
REMARK Flexibility Score: inf
ROOT
ATOM      1  C   UNL     1     208.821 188.023  -3.880  1.00  0.00     0.312 C 
ENDROOT
BRANCH   1   2
ATOM      2  N   UNL     1     209.934 187.124  -3.584  1.00  0.00    -0.353 N 
ATOM      3  H   UNL     1     210.835 187.553  -3.898  1.00  0.00     0.344 HD
ATOM      4  H   UNL     1     209.978 186.961  -2.552  1.00  0.00     0.344 HD
ATOM      5  H   UNL     1     209.793 186.206  -4.066  1.00  0.00     0.344 HD
ENDBRANCH   1   2
BRANCH   1   6
ATOM      6  C   UNL     1     207.564 187.245  -4.122  1.00  0.00     0.096 C 
ATOM      7  O   UNL     1     207.259 186.882  -5.288  1.00  0.00    -0.544 OA
ATOM      8  O   UNL     1     206.756 186.878  -3.053  1.00  0.00    -0.544 OA
ENDBRANCH   1   6
TORSDOF 2
ENDMDL
MODEL 4
REMARK VINA RESULT:    -1.885     22.051     22.236
REMARK INTER + INTRA:          -2.050
REMARK INTER:                  -2.050
REMARK INTRA:                   0.000
REMARK UNBOUND:                 0.000
REMARK SMILES [NH3+]CC(=O)[O-]
REMARK SMILES IDX 2 1 1 2 3 6 4 7 5 8
REMARK H PARENT 1 3 1 4 1 5
REMARK Flexibility Score: inf
ROOT
ATOM      1  C   UNL     1     220.958 204.913  -6.787  1.00  0.00     0.312 C 
ENDROOT
BRANCH   1   2
ATOM      2  N   UNL     1     220.761 203.523  -7.192  1.00  0.00    -0.353 N 
ATOM      3  H   UNL     1     220.830 203.439  -8.233  1.00  0.00     0.344 HD
ATOM      4  H   UNL     1     221.504 202.930  -6.755  1.00  0.00     0.344 HD
ATOM      5  H   UNL     1     219.825 203.184  -6.872  1.00  0.00     0.344 HD
ENDBRANCH   1   2
BRANCH   1   6
ATOM      6  C   UNL     1     219.665 205.666  -6.837  1.00  0.00     0.096 C 
ATOM      7  O   UNL     1     219.231 206.106  -7.934  1.00  0.00    -0.544 OA
ATOM      8  O   UNL     1     218.914 205.838  -5.682  1.00  0.00    -0.544 OA
ENDBRANCH   1   6
TORSDOF 2
ENDMDL
MODEL 5
REMARK VINA RESULT:    -1.867      2.187      2.380
REMARK INTER + INTRA:          -2.030
REMARK INTER:                  -2.030
REMARK INTRA:                   0.000
REMARK UNBOUND:                 0.000
REMARK SMILES [NH3+]CC(=O)[O-]
REMARK SMILES IDX 2 1 1 2 3 6 4 7 5 8
REMARK H PARENT 1 3 1 4 1 5
REMARK Flexibility Score: inf
ROOT
ATOM      1  C   UNL     1     207.565 188.668  -3.227  1.00  0.00     0.312 C 
ENDROOT
BRANCH   1   2
ATOM      2  N   UNL     1     206.596 189.622  -2.694  1.00  0.00    -0.353 N 
ATOM      3  H   UNL     1     206.993 190.109  -1.858  1.00  0.00     0.344 HD
ATOM      4  H   UNL     1     206.376 190.333  -3.428  1.00  0.00     0.344 HD
ATOM      5  H   UNL     1     205.714 189.126  -2.428  1.00  0.00     0.344 HD
ENDBRANCH   1   2
BRANCH   1   6
ATOM      6  C   UNL     1     206.876 187.433  -3.720  1.00  0.00     0.096 C 
ATOM      7  O   UNL     1     205.939 186.922  -3.053  1.00  0.00    -0.544 OA
ATOM      8  O   UNL     1     207.234 186.876  -4.941  1.00  0.00    -0.544 OA
ENDBRANCH   1   6
TORSDOF 2
ENDMDL
MODEL 6
REMARK VINA RESULT:    -1.844     22.183     22.468
REMARK INTER + INTRA:          -2.006
REMARK INTER:                  -2.006
REMARK INTRA:                   0.000
REMARK UNBOUND:                 0.000
REMARK SMILES [NH3+]CC(=O)[O-]
REMARK SMILES IDX 2 1 1 2 3 6 4 7 5 8
REMARK H PARENT 1 3 1 4 1 5
REMARK Flexibility Score: inf
ROOT
ATOM      1  C   UNL     1     219.431 204.892  -5.727  1.00  0.00     0.312 C 
ENDROOT
BRANCH   1   2
ATOM      2  N   UNL     1     218.888 205.981  -4.918  1.00  0.00    -0.353 N 
ATOM      3  H   UNL     1     218.732 206.827  -5.512  1.00  0.00     0.344 HD
ATOM      4  H   UNL     1     217.973 205.680  -4.509  1.00  0.00     0.344 HD
ATOM      5  H   UNL     1     219.546 206.212  -4.139  1.00  0.00     0.344 HD
ENDBRANCH   1   2
BRANCH   1   6
ATOM      6  C   UNL     1     220.047 205.425  -6.984  1.00  0.00     0.096 C 
ATOM      7  O   UNL     1     221.274 205.255  -7.208  1.00  0.00    -0.544 OA
ATOM      8  O   UNL     1     219.257 206.063  -7.931  1.00  0.00    -0.544 OA
ENDBRANCH   1   6
TORSDOF 2
ENDMDL
MODEL 7
REMARK VINA RESULT:    -1.770      1.986      2.353
REMARK INTER + INTRA:          -1.925
REMARK INTER:                  -1.925
REMARK INTRA:                   0.000
REMARK UNBOUND:                 0.000
REMARK SMILES [NH3+]CC(=O)[O-]
REMARK SMILES IDX 2 1 1 2 3 6 4 7 5 8
REMARK H PARENT 1 3 1 4 1 5
REMARK Flexibility Score: inf
ROOT
ATOM      1  C   UNL     1     207.278 186.977  -3.470  1.00  0.00     0.312 C 
ENDROOT
BRANCH   1   2
ATOM      2  N   UNL     1     205.880 187.051  -3.052  1.00  0.00    -0.353 N 
ATOM      3  H   UNL     1     205.554 186.116  -2.717  1.00  0.00     0.344 HD
ATOM      4  H   UNL     1     205.792 187.740  -2.269  1.00  0.00     0.344 HD
ATOM      5  H   UNL     1     205.282 187.369  -3.850  1.00  0.00     0.344 HD
ENDBRANCH   1   2
BRANCH   1   6
ATOM      6  C   UNL     1     207.883 188.345  -3.538  1.00  0.00     0.096 C 
ATOM      7  O   UNL     1     207.414 189.280  -2.837  1.00  0.00    -0.544 OA
ATOM      8  O   UNL     1     208.997 188.574  -4.335  1.00  0.00    -0.544 OA
ENDBRANCH   1   6
TORSDOF 2
ENDMDL
MODEL 8
REMARK VINA RESULT:    -1.708      2.429      2.537
REMARK INTER + INTRA:          -1.857
REMARK INTER:                  -1.857
REMARK INTRA:                   0.000
REMARK UNBOUND:                 0.000
REMARK SMILES [NH3+]CC(=O)[O-]
REMARK SMILES IDX 2 1 1 2 3 6 4 7 5 8
REMARK H PARENT 1 3 1 4 1 5
REMARK Flexibility Score: inf
ROOT
ATOM      1  C   UNL     1     207.208 187.241  -4.322  1.00  0.00     0.312 C 
ENDROOT
BRANCH   1   2
ATOM      2  N   UNL     1     206.367 187.219  -3.127  1.00  0.00    -0.353 N 
ATOM      3  H   UNL     1     206.631 186.412  -2.516  1.00  0.00     0.344 HD
ATOM      4  H   UNL     1     206.507 188.108  -2.593  1.00  0.00     0.344 HD
ATOM      5  H   UNL     1     205.360 187.143  -3.398  1.00  0.00     0.344 HD
ENDBRANCH   1   2
BRANCH   1   6
ATOM      6  C   UNL     1     208.591 187.706  -3.986  1.00  0.00     0.096 C 
ATOM      7  O   UNL     1     209.530 186.875  -3.874  1.00  0.00    -0.544 OA
ATOM      8  O   UNL     1     208.854 189.063  -3.847  1.00  0.00    -0.544 OA
ENDBRANCH   1   6
TORSDOF 2
ENDMDL
