MODEL 1
REMARK VINA RESULT:    -7.997      0.000      0.000
REMARK INTER + INTRA:         -12.783
REMARK INTER:                 -12.204
REMARK INTRA:                  -0.579
REMARK UNBOUND:                -0.579
REMARK SMILES COc1cc(C=CC(=O)CC(=O)C=Cc2ccc(O)c(OC)c2)ccc1O
REMARK SMILES IDX 10 1 8 2 9 3 7 4 6 5 5 6 3 7 26 8 4 9 25 10 24 11 2 12 1 13
REMARK SMILES IDX 27 14 11 16 12 17 13 18 14 19 15 20 23 21 16 22 20 23 17 24
REMARK SMILES IDX 18 25 21 26 22 27 19 28
REMARK H PARENT 27 15 19 29
REMARK Flexibility Score: inf
ROOT
ATOM      1  C   UNL     1     -11.723 -17.368  28.119  1.00  0.00     0.160 C 
ENDROOT
BRANCH   1   2
ATOM      2  C   UNL     1     -12.678 -16.864  29.170  1.00  0.00     0.163 C 
ATOM      3  O   UNL     1     -13.100 -15.680  29.083  1.00  0.00    -0.294 OA
BRANCH   2   4
ATOM      4  C   UNL     1     -13.169 -17.697  30.291  1.00  0.00     0.048 C 
ATOM      5  C   UNL     1     -12.793 -17.523  31.566  1.00  0.00     0.012 C 
BRANCH   5   6
ATOM      6  C   UNL     1     -13.289 -18.359  32.686  1.00  0.00    -0.022 A 
ATOM      7  C   UNL     1     -13.326 -20.436  33.987  1.00  0.00     0.161 A 
ATOM      8  C   UNL     1     -14.263 -19.859  34.862  1.00  0.00     0.157 A 
ATOM      9  C   UNL     1     -12.838 -19.676  32.903  1.00  0.00     0.058 A 
ATOM     10  C   UNL     1     -14.696 -18.546  34.659  1.00  0.00     0.051 A 
ATOM     11  C   UNL     1     -14.210 -17.799  33.585  1.00  0.00     0.012 A 
BRANCH   7  12
ATOM     12  O   UNL     1     -12.901 -21.752  34.224  1.00  0.00    -0.493 OA
ATOM     13  C   UNL     1     -11.664 -22.106  34.834  1.00  0.00     0.278 C 
ENDBRANCH   7  12
BRANCH   8  14
ATOM     14  O   UNL     1     -14.774 -20.576  35.945  1.00  0.00    -0.504 OA
ATOM     15  H   UNL     1     -14.180 -20.941  36.679  1.00  0.00     0.293 HD
ENDBRANCH   8  14
ENDBRANCH   5   6
ENDBRANCH   2   4
ENDBRANCH   1   2
BRANCH   1  16
ATOM     16  C   UNL     1     -10.943 -16.235  27.503  1.00  0.00     0.163 C 
ATOM     17  O   UNL     1     -11.398 -15.683  26.466  1.00  0.00    -0.294 OA
BRANCH  16  18
ATOM     18  C   UNL     1      -9.676 -15.717  28.068  1.00  0.00     0.048 C 
ATOM     19  C   UNL     1      -8.662 -15.257  27.320  1.00  0.00     0.012 C 
BRANCH  19  20
ATOM     20  C   UNL     1      -7.396 -14.737  27.891  1.00  0.00    -0.022 A 
ATOM     21  C   UNL     1      -7.239 -14.478  29.268  1.00  0.00     0.058 A 
ATOM     22  C   UNL     1      -6.304 -14.538  27.034  1.00  0.00     0.012 A 
ATOM     23  C   UNL     1      -6.016 -13.996  29.775  1.00  0.00     0.161 A 
ATOM     24  C   UNL     1      -5.091 -14.060  27.531  1.00  0.00     0.051 A 
ATOM     25  C   UNL     1      -4.941 -13.785  28.891  1.00  0.00     0.157 A 
BRANCH  23  26
ATOM     26  O   UNL     1      -5.832 -13.721  31.139  1.00  0.00    -0.493 OA
ATOM     27  C   UNL     1      -6.611 -12.794  31.890  1.00  0.00     0.278 C 
ENDBRANCH  23  26
BRANCH  25  28
ATOM     28  O   UNL     1      -3.714 -13.306  29.350  1.00  0.00    -0.504 OA
ATOM     29  H   UNL     1      -3.328 -13.580  30.246  1.00  0.00     0.293 HD
ENDBRANCH  25  28
ENDBRANCH  19  20
ENDBRANCH  16  18
ENDBRANCH   1  16
TORSDOF 10
ENDMDL
MODEL 2
REMARK VINA RESULT:    -7.922      0.934      9.611
REMARK INTER + INTRA:         -12.669
REMARK INTER:                 -12.103
REMARK INTRA:                  -0.566
REMARK UNBOUND:                -0.579
REMARK SMILES COc1cc(C=CC(=O)CC(=O)C=Cc2ccc(O)c(OC)c2)ccc1O
REMARK SMILES IDX 10 1 8 2 9 3 7 4 6 5 5 6 3 7 26 8 4 9 25 10 24 11 2 12 1 13
REMARK SMILES IDX 27 14 11 16 12 17 13 18 14 19 15 20 23 21 16 22 20 23 17 24
REMARK SMILES IDX 18 25 21 26 22 27 19 28
REMARK H PARENT 27 15 19 29
REMARK Flexibility Score: inf
ROOT
ATOM      1  C   UNL     1     -12.589 -16.505  28.636  1.00  0.00     0.160 C 
ENDROOT
BRANCH   1   2
ATOM      2  C   UNL     1     -11.456 -16.141  27.712  1.00  0.00     0.163 C 
ATOM      3  O   UNL     1     -11.674 -16.118  26.471  1.00  0.00    -0.294 OA
BRANCH   2   4
ATOM      4  C   UNL     1     -10.101 -15.783  28.188  1.00  0.00     0.048 C 
ATOM      5  C   UNL     1      -9.164 -15.222  27.408  1.00  0.00     0.012 C 
BRANCH   5   6
ATOM      6  C   UNL     1      -7.808 -14.863  27.891  1.00  0.00    -0.022 A 
ATOM      7  C   UNL     1      -6.175 -14.490  29.679  1.00  0.00     0.161 A 
ATOM      8  C   UNL     1      -5.196 -14.204  28.712  1.00  0.00     0.157 A 
ATOM      9  C   UNL     1      -7.480 -14.826  29.260  1.00  0.00     0.058 A 
ATOM     10  C   UNL     1      -5.517 -14.259  27.353  1.00  0.00     0.051 A 
ATOM     11  C   UNL     1      -6.809 -14.592  26.944  1.00  0.00     0.012 A 
BRANCH   7  12
ATOM     12  O   UNL     1      -5.819 -14.438  31.036  1.00  0.00    -0.493 OA
ATOM     13  C   UNL     1      -6.254 -13.435  31.949  1.00  0.00     0.278 C 
ENDBRANCH   7  12
BRANCH   8  14
ATOM     14  O   UNL     1      -3.894 -13.865  29.082  1.00  0.00    -0.504 OA
ATOM     15  H   UNL     1      -3.132 -13.838  28.415  1.00  0.00     0.293 HD
ENDBRANCH   8  14
ENDBRANCH   5   6
ENDBRANCH   2   4
ENDBRANCH   1   2
BRANCH   1  16
ATOM     16  C   UNL     1     -12.412 -17.893  29.197  1.00  0.00     0.163 C 
ATOM     17  O   UNL     1     -11.622 -18.682  28.615  1.00  0.00    -0.294 OA
BRANCH  16  18
ATOM     18  C   UNL     1     -13.102 -18.371  30.416  1.00  0.00     0.048 C 
ATOM     19  C   UNL     1     -12.546 -18.361  31.637  1.00  0.00     0.012 C 
BRANCH  19  20
ATOM     20  C   UNL     1     -13.243 -18.839  32.857  1.00  0.00    -0.022 A 
ATOM     21  C   UNL     1     -13.201 -20.186  33.271  1.00  0.00     0.058 A 
ATOM     22  C   UNL     1     -13.930 -17.906  33.646  1.00  0.00     0.012 A 
ATOM     23  C   UNL     1     -13.865 -20.599  34.443  1.00  0.00     0.161 A 
ATOM     24  C   UNL     1     -14.590 -18.310  34.808  1.00  0.00     0.051 A 
ATOM     25  C   UNL     1     -14.565 -19.648  35.208  1.00  0.00     0.157 A 
BRANCH  23  26
ATOM     26  O   UNL     1     -13.848 -21.934  34.877  1.00  0.00    -0.493 OA
ATOM     27  C   UNL     1     -12.709 -22.789  34.823  1.00  0.00     0.278 C 
ENDBRANCH  23  26
BRANCH  25  28
ATOM     28  O   UNL     1     -15.239 -20.015  36.373  1.00  0.00    -0.504 OA
ATOM     29  H   UNL     1     -16.238 -20.178  36.391  1.00  0.00     0.293 HD
ENDBRANCH  25  28
ENDBRANCH  19  20
ENDBRANCH  16  18
ENDBRANCH   1  16
TORSDOF 10
ENDMDL
MODEL 3
REMARK VINA RESULT:    -7.920      3.547      6.823
REMARK INTER + INTRA:         -12.666
REMARK INTER:                 -11.879
REMARK INTRA:                  -0.787
REMARK UNBOUND:                -0.579
REMARK SMILES COc1cc(C=CC(=O)CC(=O)C=Cc2ccc(O)c(OC)c2)ccc1O
REMARK SMILES IDX 10 1 8 2 9 3 7 4 6 5 5 6 3 7 26 8 4 9 25 10 24 11 2 12 1 13
REMARK SMILES IDX 27 14 11 16 12 17 13 18 14 19 15 20 23 21 16 22 20 23 17 24
REMARK SMILES IDX 18 25 21 26 22 27 19 28
REMARK H PARENT 27 15 19 29
REMARK Flexibility Score: inf
ROOT
ATOM      1  C   UNL     1      -4.890 -14.030  31.098  1.00  0.00     0.160 C 
ENDROOT
BRANCH   1   2
ATOM      2  C   UNL     1      -6.282 -14.219  31.644  1.00  0.00     0.163 C 
ATOM      3  O   UNL     1      -6.577 -13.677  32.743  1.00  0.00    -0.294 OA
BRANCH   2   4
ATOM      4  C   UNL     1      -7.333 -14.989  30.943  1.00  0.00     0.048 C 
ATOM      5  C   UNL     1      -7.995 -16.016  31.497  1.00  0.00     0.012 C 
BRANCH   5   6
ATOM      6  C   UNL     1      -9.050 -16.784  30.791  1.00  0.00    -0.022 A 
ATOM      7  C   UNL     1     -10.694 -17.055  28.995  1.00  0.00     0.161 A 
ATOM      8  C   UNL     1     -11.016 -18.329  29.496  1.00  0.00     0.157 A 
ATOM      9  C   UNL     1      -9.704 -16.290  29.646  1.00  0.00     0.058 A 
ATOM     10  C   UNL     1     -10.354 -18.828  30.621  1.00  0.00     0.051 A 
ATOM     11  C   UNL     1      -9.374 -18.065  31.260  1.00  0.00     0.012 A 
BRANCH   7  12
ATOM     12  O   UNL     1     -11.369 -16.587  27.856  1.00  0.00    -0.493 OA
ATOM     13  C   UNL     1     -10.850 -15.620  26.949  1.00  0.00     0.278 C 
ENDBRANCH   7  12
BRANCH   8  14
ATOM     14  O   UNL     1     -11.991 -19.118  28.885  1.00  0.00    -0.504 OA
ATOM     15  H   UNL     1     -12.077 -20.111  29.071  1.00  0.00     0.293 HD
ENDBRANCH   8  14
ENDBRANCH   5   6
ENDBRANCH   2   4
ENDBRANCH   1   2
BRANCH   1  16
ATOM     16  C   UNL     1      -4.915 -13.301  29.779  1.00  0.00     0.163 C 
ATOM     17  O   UNL     1      -5.630 -12.270  29.673  1.00  0.00    -0.294 OA
BRANCH  16  18
ATOM     18  C   UNL     1      -4.120 -13.721  28.603  1.00  0.00     0.048 C 
ATOM     19  C   UNL     1      -3.462 -14.888  28.528  1.00  0.00     0.012 C 
BRANCH  19  20
ATOM     20  C   UNL     1      -2.670 -15.306  27.346  1.00  0.00    -0.022 A 
ATOM     21  C   UNL     1      -2.036 -16.562  27.269  1.00  0.00     0.058 A 
ATOM     22  C   UNL     1      -2.587 -14.435  26.251  1.00  0.00     0.012 A 
ATOM     23  C   UNL     1      -1.302 -16.929  26.123  1.00  0.00     0.161 A 
ATOM     24  C   UNL     1      -1.862 -14.793  25.114  1.00  0.00     0.051 A 
ATOM     25  C   UNL     1      -1.217 -16.029  25.044  1.00  0.00     0.157 A 
BRANCH  23  26
ATOM     26  O   UNL     1      -0.653 -18.170  26.020  1.00  0.00    -0.493 OA
ATOM     27  C   UNL     1      -1.280 -19.379  25.602  1.00  0.00     0.278 C 
ENDBRANCH  23  26
BRANCH  25  28
ATOM     28  O   UNL     1      -0.499 -16.351  23.893  1.00  0.00    -0.504 OA
ATOM     29  H   UNL     1      -0.481 -15.746  23.080  1.00  0.00     0.293 HD
ENDBRANCH  25  28
ENDBRANCH  19  20
ENDBRANCH  16  18
ENDBRANCH   1  16
TORSDOF 10
ENDMDL
MODEL 4
REMARK VINA RESULT:    -7.890      3.571     10.647
REMARK INTER + INTRA:         -12.621
REMARK INTER:                 -11.831
REMARK INTRA:                  -0.789
REMARK UNBOUND:                -0.579
REMARK SMILES COc1cc(C=CC(=O)CC(=O)C=Cc2ccc(O)c(OC)c2)ccc1O
REMARK SMILES IDX 10 1 8 2 9 3 7 4 6 5 5 6 3 7 26 8 4 9 25 10 24 11 2 12 1 13
REMARK SMILES IDX 27 14 11 16 12 17 13 18 14 19 15 20 23 21 16 22 20 23 17 24
REMARK SMILES IDX 18 25 21 26 22 27 19 28
REMARK H PARENT 27 15 19 29
REMARK Flexibility Score: inf
ROOT
ATOM      1  C   UNL     1      -4.963 -14.079  31.074  1.00  0.00     0.160 C 
ENDROOT
BRANCH   1   2
ATOM      2  C   UNL     1      -4.900 -13.292  29.791  1.00  0.00     0.163 C 
ATOM      3  O   UNL     1      -5.577 -12.233  29.700  1.00  0.00    -0.294 OA
BRANCH   2   4
ATOM      4  C   UNL     1      -4.062 -13.685  28.636  1.00  0.00     0.048 C 
ATOM      5  C   UNL     1      -3.556 -14.916  28.469  1.00  0.00     0.012 C 
BRANCH   5   6
ATOM      6  C   UNL     1      -2.720 -15.305  27.308  1.00  0.00    -0.022 A 
ATOM      7  C   UNL     1      -1.287 -16.889  26.106  1.00  0.00     0.161 A 
ATOM      8  C   UNL     1      -1.180 -15.972  25.046  1.00  0.00     0.157 A 
ATOM      9  C   UNL     1      -2.065 -16.550  27.233  1.00  0.00     0.058 A 
ATOM     10  C   UNL     1      -1.845 -14.744  25.111  1.00  0.00     0.051 A 
ATOM     11  C   UNL     1      -2.613 -14.415  26.229  1.00  0.00     0.012 A 
BRANCH   7  12
ATOM     12  O   UNL     1      -0.618 -18.119  26.006  1.00  0.00    -0.493 OA
ATOM     13  C   UNL     1      -1.192 -19.313  25.483  1.00  0.00     0.278 C 
ENDBRANCH   7  12
BRANCH   8  14
ATOM     14  O   UNL     1      -0.419 -16.265  23.914  1.00  0.00    -0.504 OA
ATOM     15  H   UNL     1       0.563 -16.026  23.846  1.00  0.00     0.293 HD
ENDBRANCH   8  14
ENDBRANCH   5   6
ENDBRANCH   2   4
ENDBRANCH   1   2
BRANCH   1  16
ATOM     16  C   UNL     1      -6.385 -14.227  31.554  1.00  0.00     0.163 C 
ATOM     17  O   UNL     1      -6.737 -13.610  32.594  1.00  0.00    -0.294 OA
BRANCH  16  18
ATOM     18  C   UNL     1      -7.400 -15.044  30.851  1.00  0.00     0.048 C 
ATOM     19  C   UNL     1      -8.119 -16.008  31.445  1.00  0.00     0.012 C 
BRANCH  19  20
ATOM     20  C   UNL     1      -9.138 -16.821  30.738  1.00  0.00    -0.022 A 
ATOM     21  C   UNL     1      -9.824 -16.349  29.600  1.00  0.00     0.058 A 
ATOM     22  C   UNL     1      -9.393 -18.122  31.193  1.00  0.00     0.012 A 
ATOM     23  C   UNL     1     -10.776 -17.157  28.947  1.00  0.00     0.161 A 
ATOM     24  C   UNL     1     -10.335 -18.926  30.550  1.00  0.00     0.051 A 
ATOM     25  C   UNL     1     -11.029 -18.452  29.436  1.00  0.00     0.157 A 
BRANCH  23  26
ATOM     26  O   UNL     1     -11.481 -16.711  27.817  1.00  0.00    -0.493 OA
ATOM     27  C   UNL     1     -11.043 -15.671  26.948  1.00  0.00     0.278 C 
ENDBRANCH  23  26
BRANCH  25  28
ATOM     28  O   UNL     1     -11.966 -19.283  28.821  1.00  0.00    -0.504 OA
ATOM     29  H   UNL     1     -12.106 -19.291  27.818  1.00  0.00     0.293 HD
ENDBRANCH  25  28
ENDBRANCH  19  20
ENDBRANCH  16  18
ENDBRANCH   1  16
TORSDOF 10
ENDMDL
MODEL 5
REMARK VINA RESULT:    -7.858      3.147      9.985
REMARK INTER + INTRA:         -12.571
REMARK INTER:                 -11.809
REMARK INTRA:                  -0.762
REMARK UNBOUND:                -0.579
REMARK SMILES COc1cc(C=CC(=O)CC(=O)C=Cc2ccc(O)c(OC)c2)ccc1O
REMARK SMILES IDX 10 1 8 2 9 3 7 4 6 5 5 6 3 7 26 8 4 9 25 10 24 11 2 12 1 13
REMARK SMILES IDX 27 14 11 16 12 17 13 18 14 19 15 20 23 21 16 22 20 23 17 24
REMARK SMILES IDX 18 25 21 26 22 27 19 28
REMARK H PARENT 27 15 19 29
REMARK Flexibility Score: inf
ROOT
ATOM      1  C   UNL     1     -13.845 -21.889  33.928  1.00  0.00     0.160 C 
ENDROOT
BRANCH   1   2
ATOM      2  C   UNL     1     -12.532 -21.155  34.022  1.00  0.00     0.163 C 
ATOM      3  O   UNL     1     -11.748 -21.442  34.966  1.00  0.00    -0.294 OA
BRANCH   2   4
ATOM      4  C   UNL     1     -12.101 -20.129  33.047  1.00  0.00     0.048 C 
ATOM      5  C   UNL     1     -12.950 -19.445  32.264  1.00  0.00     0.012 C 
BRANCH   5   6
ATOM      6  C   UNL     1     -12.513 -18.416  31.290  1.00  0.00    -0.022 A 
ATOM      7  C   UNL     1     -10.797 -17.010  30.249  1.00  0.00     0.161 A 
ATOM      8  C   UNL     1     -11.770 -16.480  29.383  1.00  0.00     0.157 A 
ATOM      9  C   UNL     1     -11.176 -17.983  31.198  1.00  0.00     0.058 A 
ATOM     10  C   UNL     1     -13.093 -16.924  29.462  1.00  0.00     0.051 A 
ATOM     11  C   UNL     1     -13.461 -17.887  30.402  1.00  0.00     0.012 A 
BRANCH   7  12
ATOM     12  O   UNL     1      -9.474 -16.554  30.138  1.00  0.00    -0.493 OA
ATOM     13  C   UNL     1      -8.604 -16.316  31.241  1.00  0.00     0.278 C 
ENDBRANCH   7  12
BRANCH   8  14
ATOM     14  O   UNL     1     -11.440 -15.514  28.433  1.00  0.00    -0.504 OA
ATOM     15  H   UNL     1     -10.488 -15.369  28.118  1.00  0.00     0.293 HD
ENDBRANCH   8  14
ENDBRANCH   5   6
ENDBRANCH   2   4
ENDBRANCH   1   2
BRANCH   1  16
ATOM     16  C   UNL     1     -14.977 -21.055  34.468  1.00  0.00     0.163 C 
ATOM     17  O   UNL     1     -16.109 -21.148  33.923  1.00  0.00    -0.294 OA
BRANCH  16  18
ATOM     18  C   UNL     1     -14.835 -20.145  35.628  1.00  0.00     0.048 C 
ATOM     19  C   UNL     1     -15.816 -19.341  36.066  1.00  0.00     0.012 C 
BRANCH  19  20
ATOM     20  C   UNL     1     -15.671 -18.433  37.230  1.00  0.00    -0.022 A 
ATOM     21  C   UNL     1     -15.499 -17.042  37.084  1.00  0.00     0.058 A 
ATOM     22  C   UNL     1     -15.751 -18.977  38.520  1.00  0.00     0.012 A 
ATOM     23  C   UNL     1     -15.378 -16.210  38.215  1.00  0.00     0.161 A 
ATOM     24  C   UNL     1     -15.631 -18.158  39.643  1.00  0.00     0.051 A 
ATOM     25  C   UNL     1     -15.441 -16.782  39.499  1.00  0.00     0.157 A 
BRANCH  23  26
ATOM     26  O   UNL     1     -15.198 -14.822  38.103  1.00  0.00    -0.493 OA
ATOM     27  C   UNL     1     -15.047 -14.123  36.871  1.00  0.00     0.278 C 
ENDBRANCH  23  26
BRANCH  25  28
ATOM     28  O   UNL     1     -15.322 -15.995  40.645  1.00  0.00    -0.504 OA
ATOM     29  H   UNL     1     -15.352 -14.983  40.612  1.00  0.00     0.293 HD
ENDBRANCH  25  28
ENDBRANCH  19  20
ENDBRANCH  16  18
ENDBRANCH   1  16
TORSDOF 10
ENDMDL
MODEL 6
REMARK VINA RESULT:    -7.776      1.828      9.878
REMARK INTER + INTRA:         -12.446
REMARK INTER:                 -11.828
REMARK INTRA:                  -0.617
REMARK UNBOUND:                -0.579
REMARK SMILES COc1cc(C=CC(=O)CC(=O)C=Cc2ccc(O)c(OC)c2)ccc1O
REMARK SMILES IDX 10 1 8 2 9 3 7 4 6 5 5 6 3 7 26 8 4 9 25 10 24 11 2 12 1 13
REMARK SMILES IDX 27 14 11 16 12 17 13 18 14 19 15 20 23 21 16 22 20 23 17 24
REMARK SMILES IDX 18 25 21 26 22 27 19 28
REMARK H PARENT 27 15 19 29
REMARK Flexibility Score: inf
ROOT
ATOM      1  C   UNL     1     -11.049 -16.636  29.908  1.00  0.00     0.160 C 
ENDROOT
BRANCH   1   2
ATOM      2  C   UNL     1      -9.746 -16.108  29.365  1.00  0.00     0.163 C 
ATOM      3  O   UNL     1      -9.586 -16.069  28.116  1.00  0.00    -0.294 OA
BRANCH   2   4
ATOM      4  C   UNL     1      -8.650 -15.606  30.224  1.00  0.00     0.048 C 
ATOM      5  C   UNL     1      -7.636 -14.854  29.771  1.00  0.00     0.012 C 
BRANCH   5   6
ATOM      6  C   UNL     1      -6.542 -14.352  30.636  1.00  0.00    -0.022 A 
ATOM      7  C   UNL     1      -4.169 -14.007  31.145  1.00  0.00     0.161 A 
ATOM      8  C   UNL     1      -4.531 -13.331  32.324  1.00  0.00     0.157 A 
ATOM      9  C   UNL     1      -5.182 -14.510  30.301  1.00  0.00     0.058 A 
ATOM     10  C   UNL     1      -5.880 -13.157  32.646  1.00  0.00     0.051 A 
ATOM     11  C   UNL     1      -6.877 -13.657  31.807  1.00  0.00     0.012 A 
BRANCH   7  12
ATOM     12  O   UNL     1      -2.807 -14.155  30.842  1.00  0.00    -0.493 OA
ATOM     13  C   UNL     1      -2.252 -15.253  30.125  1.00  0.00     0.278 C 
ENDBRANCH   7  12
BRANCH   8  14
ATOM     14  O   UNL     1      -3.562 -12.821  33.188  1.00  0.00    -0.504 OA
ATOM     15  H   UNL     1      -2.889 -12.122  32.894  1.00  0.00     0.293 HD
ENDBRANCH   8  14
ENDBRANCH   5   6
ENDBRANCH   2   4
ENDBRANCH   1   2
BRANCH   1  16
ATOM     16  C   UNL     1     -10.915 -18.072  30.346  1.00  0.00     0.163 C 
ATOM     17  O   UNL     1     -10.154 -18.834  29.692  1.00  0.00    -0.294 OA
BRANCH  16  18
ATOM     18  C   UNL     1     -11.615 -18.632  31.525  1.00  0.00     0.048 C 
ATOM     19  C   UNL     1     -12.761 -18.135  32.013  1.00  0.00     0.012 C 
BRANCH  19  20
ATOM     20  C   UNL     1     -13.461 -18.700  33.192  1.00  0.00    -0.022 A 
ATOM     21  C   UNL     1     -13.339 -20.055  33.564  1.00  0.00     0.058 A 
ATOM     22  C   UNL     1     -14.236 -17.845  33.988  1.00  0.00     0.012 A 
ATOM     23  C   UNL     1     -14.009 -20.553  34.699  1.00  0.00     0.161 A 
ATOM     24  C   UNL     1     -14.902 -18.333  35.113  1.00  0.00     0.051 A 
ATOM     25  C   UNL     1     -14.797 -19.679  35.470  1.00  0.00     0.157 A 
BRANCH  23  26
ATOM     26  O   UNL     1     -13.913 -21.898  35.090  1.00  0.00    -0.493 OA
ATOM     27  C   UNL     1     -12.827 -22.760  34.764  1.00  0.00     0.278 C 
ENDBRANCH  23  26
BRANCH  25  28
ATOM     28  O   UNL     1     -15.480 -20.131  36.600  1.00  0.00    -0.504 OA
ATOM     29  H   UNL     1     -15.269 -19.792  37.531  1.00  0.00     0.293 HD
ENDBRANCH  25  28
ENDBRANCH  19  20
ENDBRANCH  16  18
ENDBRANCH   1  16
TORSDOF 10
ENDMDL
MODEL 7
REMARK VINA RESULT:    -7.760      4.235      6.780
REMARK INTER + INTRA:         -12.422
REMARK INTER:                 -11.769
REMARK INTRA:                  -0.653
REMARK UNBOUND:                -0.579
REMARK SMILES COc1cc(C=CC(=O)CC(=O)C=Cc2ccc(O)c(OC)c2)ccc1O
REMARK SMILES IDX 10 1 8 2 9 3 7 4 6 5 5 6 3 7 26 8 4 9 25 10 24 11 2 12 1 13
REMARK SMILES IDX 27 14 11 16 12 17 13 18 14 19 15 20 23 21 16 22 20 23 17 24
REMARK SMILES IDX 18 25 21 26 22 27 19 28
REMARK H PARENT 27 15 19 29
REMARK Flexibility Score: inf
ROOT
ATOM      1  C   UNL     1      -6.336 -14.098  32.539  1.00  0.00     0.160 C 
ENDROOT
BRANCH   1   2
ATOM      2  C   UNL     1      -6.701 -14.802  31.257  1.00  0.00     0.163 C 
ATOM      3  O   UNL     1      -5.986 -14.608  30.238  1.00  0.00    -0.294 OA
BRANCH   2   4
ATOM      4  C   UNL     1      -7.846 -15.733  31.137  1.00  0.00     0.048 C 
ATOM      5  C   UNL     1      -8.728 -15.699  30.128  1.00  0.00     0.012 C 
BRANCH   5   6
ATOM      6  C   UNL     1      -9.872 -16.635  30.011  1.00  0.00    -0.022 A 
ATOM      7  C   UNL     1     -11.468 -18.233  30.962  1.00  0.00     0.161 A 
ATOM      8  C   UNL     1     -12.073 -18.366  29.700  1.00  0.00     0.157 A 
ATOM      9  C   UNL     1     -10.370 -17.360  31.111  1.00  0.00     0.058 A 
ATOM     10  C   UNL     1     -11.591 -17.632  28.612  1.00  0.00     0.051 A 
ATOM     11  C   UNL     1     -10.505 -16.770  28.766  1.00  0.00     0.012 A 
BRANCH   7  12
ATOM     12  O   UNL     1     -11.982 -18.974  32.038  1.00  0.00    -0.493 OA
ATOM     13  C   UNL     1     -13.063 -18.556  32.866  1.00  0.00     0.278 C 
ENDBRANCH   7  12
BRANCH   8  14
ATOM     14  O   UNL     1     -13.159 -19.220  29.507  1.00  0.00    -0.504 OA
ATOM     15  H   UNL     1     -13.772 -19.495  30.265  1.00  0.00     0.293 HD
ENDBRANCH   8  14
ENDBRANCH   5   6
ENDBRANCH   2   4
ENDBRANCH   1   2
BRANCH   1  16
ATOM     16  C   UNL     1      -5.892 -12.682  32.276  1.00  0.00     0.163 C 
ATOM     17  O   UNL     1      -6.734 -11.860  31.828  1.00  0.00    -0.294 OA
BRANCH  16  18
ATOM     18  C   UNL     1      -4.518 -12.198  32.541  1.00  0.00     0.048 C 
ATOM     19  C   UNL     1      -3.456 -13.007  32.663  1.00  0.00     0.012 C 
BRANCH  19  20
ATOM     20  C   UNL     1      -2.081 -12.518  32.925  1.00  0.00    -0.022 A 
ATOM     21  C   UNL     1      -1.070 -13.350  33.449  1.00  0.00     0.058 A 
ATOM     22  C   UNL     1      -1.766 -11.191  32.598  1.00  0.00     0.012 A 
ATOM     23  C   UNL     1       0.229 -12.851  33.673  1.00  0.00     0.161 A 
ATOM     24  C   UNL     1      -0.482 -10.692  32.818  1.00  0.00     0.051 A 
ATOM     25  C   UNL     1       0.514 -11.510  33.355  1.00  0.00     0.157 A 
BRANCH  23  26
ATOM     26  O   UNL     1       1.254 -13.653  34.201  1.00  0.00    -0.493 OA
ATOM     27  C   UNL     1       1.073 -14.979  34.688  1.00  0.00     0.278 C 
ENDBRANCH  23  26
BRANCH  25  28
ATOM     28  O   UNL     1       1.786 -10.975  33.564  1.00  0.00    -0.504 OA
ATOM     29  H   UNL     1       2.602 -11.310  33.065  1.00  0.00     0.293 HD
ENDBRANCH  25  28
ENDBRANCH  19  20
ENDBRANCH  16  18
ENDBRANCH   1  16
TORSDOF 10
ENDMDL
MODEL 8
REMARK VINA RESULT:    -7.753      1.515      2.412
REMARK INTER + INTRA:         -12.412
REMARK INTER:                 -11.984
REMARK INTRA:                  -0.428
REMARK UNBOUND:                -0.579
REMARK SMILES COc1cc(C=CC(=O)CC(=O)C=Cc2ccc(O)c(OC)c2)ccc1O
REMARK SMILES IDX 10 1 8 2 9 3 7 4 6 5 5 6 3 7 26 8 4 9 25 10 24 11 2 12 1 13
REMARK SMILES IDX 27 14 11 16 12 17 13 18 14 19 15 20 23 21 16 22 20 23 17 24
REMARK SMILES IDX 18 25 21 26 22 27 19 28
REMARK H PARENT 27 15 19 29
REMARK Flexibility Score: inf
ROOT
ATOM      1  C   UNL     1     -11.587 -18.358  29.029  1.00  0.00     0.160 C 
ENDROOT
BRANCH   1   2
ATOM      2  C   UNL     1     -11.249 -18.609  30.476  1.00  0.00     0.163 C 
ATOM      3  O   UNL     1     -10.035 -18.637  30.815  1.00  0.00    -0.294 OA
BRANCH   2   4
ATOM      4  C   UNL     1     -12.270 -18.800  31.530  1.00  0.00     0.048 C 
ATOM      5  C   UNL     1     -12.089 -19.577  32.608  1.00  0.00     0.012 C 
BRANCH   5   6
ATOM      6  C   UNL     1     -13.114 -19.763  33.663  1.00  0.00    -0.022 A 
ATOM      7  C   UNL     1     -14.898 -18.926  35.120  1.00  0.00     0.161 A 
ATOM      8  C   UNL     1     -15.063 -20.220  35.645  1.00  0.00     0.157 A 
ATOM      9  C   UNL     1     -13.924 -18.706  34.123  1.00  0.00     0.058 A 
ATOM     10  C   UNL     1     -14.273 -21.273  35.174  1.00  0.00     0.051 A 
ATOM     11  C   UNL     1     -13.312 -21.049  34.187  1.00  0.00     0.012 A 
BRANCH   7  12
ATOM     12  O   UNL     1     -15.715 -17.892  35.603  1.00  0.00    -0.493 OA
ATOM     13  C   UNL     1     -15.321 -16.944  36.591  1.00  0.00     0.278 C 
ENDBRANCH   7  12
BRANCH   8  14
ATOM     14  O   UNL     1     -16.012 -20.482  36.633  1.00  0.00    -0.504 OA
ATOM     15  H   UNL     1     -16.760 -19.834  36.849  1.00  0.00     0.293 HD
ENDBRANCH   8  14
ENDBRANCH   5   6
ENDBRANCH   2   4
ENDBRANCH   1   2
BRANCH   1  16
ATOM     16  C   UNL     1     -11.331 -16.921  28.650  1.00  0.00     0.163 C 
ATOM     17  O   UNL     1     -12.285 -16.240  28.190  1.00  0.00    -0.294 OA
BRANCH  16  18
ATOM     18  C   UNL     1     -10.017 -16.258  28.814  1.00  0.00     0.048 C 
ATOM     19  C   UNL     1      -9.345 -15.681  27.806  1.00  0.00     0.012 C 
BRANCH  19  20
ATOM     20  C   UNL     1      -8.031 -15.015  27.976  1.00  0.00    -0.022 A 
ATOM     21  C   UNL     1      -7.531 -14.644  29.240  1.00  0.00     0.058 A 
ATOM     22  C   UNL     1      -7.242 -14.789  26.839  1.00  0.00     0.012 A 
ATOM     23  C   UNL     1      -6.270 -14.025  29.362  1.00  0.00     0.161 A 
ATOM     24  C   UNL     1      -5.993 -14.175  26.954  1.00  0.00     0.051 A 
ATOM     25  C   UNL     1      -5.506 -13.789  28.205  1.00  0.00     0.157 A 
BRANCH  23  26
ATOM     26  O   UNL     1      -5.749 -13.636  30.607  1.00  0.00    -0.493 OA
ATOM     27  C   UNL     1      -6.406 -13.831  31.856  1.00  0.00     0.278 C 
ENDBRANCH  23  26
BRANCH  25  28
ATOM     28  O   UNL     1      -4.255 -13.176  28.280  1.00  0.00    -0.504 OA
ATOM     29  H   UNL     1      -4.149 -12.173  28.374  1.00  0.00     0.293 HD
ENDBRANCH  25  28
ENDBRANCH  19  20
ENDBRANCH  16  18
ENDBRANCH   1  16
TORSDOF 10
ENDMDL
MODEL 9
REMARK VINA RESULT:    -7.622      2.082      3.351
REMARK INTER + INTRA:         -12.212
REMARK INTER:                 -11.599
REMARK INTRA:                  -0.613
REMARK UNBOUND:                -0.579
REMARK SMILES COc1cc(C=CC(=O)CC(=O)C=Cc2ccc(O)c(OC)c2)ccc1O
REMARK SMILES IDX 10 1 8 2 9 3 7 4 6 5 5 6 3 7 26 8 4 9 25 10 24 11 2 12 1 13
REMARK SMILES IDX 27 14 11 16 12 17 13 18 14 19 15 20 23 21 16 22 20 23 17 24
REMARK SMILES IDX 18 25 21 26 22 27 19 28
REMARK H PARENT 27 15 19 29
REMARK Flexibility Score: inf
ROOT
ATOM      1  C   UNL     1     -11.053 -16.494  30.259  1.00  0.00     0.160 C 
ENDROOT
BRANCH   1   2
ATOM      2  C   UNL     1     -12.201 -17.470  30.236  1.00  0.00     0.163 C 
ATOM      3  O   UNL     1     -12.507 -18.013  29.140  1.00  0.00    -0.294 OA
BRANCH   2   4
ATOM      4  C   UNL     1     -12.975 -17.845  31.440  1.00  0.00     0.048 C 
ATOM      5  C   UNL     1     -12.723 -18.939  32.174  1.00  0.00     0.012 C 
BRANCH   5   6
ATOM      6  C   UNL     1     -13.499 -19.309  33.382  1.00  0.00    -0.022 A 
ATOM      7  C   UNL     1     -14.913 -18.747  35.303  1.00  0.00     0.161 A 
ATOM      8  C   UNL     1     -14.982 -20.110  35.639  1.00  0.00     0.157 A 
ATOM      9  C   UNL     1     -14.174 -18.354  34.167  1.00  0.00     0.058 A 
ATOM     10  C   UNL     1     -14.328 -21.060  34.849  1.00  0.00     0.051 A 
ATOM     11  C   UNL     1     -13.599 -20.665  33.727  1.00  0.00     0.012 A 
BRANCH   7  12
ATOM     12  O   UNL     1     -15.590 -17.818  36.109  1.00  0.00    -0.493 OA
ATOM     13  C   UNL     1     -15.207 -16.455  36.269  1.00  0.00     0.278 C 
ENDBRANCH   7  12
BRANCH   8  14
ATOM     14  O   UNL     1     -15.698 -20.542  36.755  1.00  0.00    -0.504 OA
ATOM     15  H   UNL     1     -15.407 -20.327  37.701  1.00  0.00     0.293 HD
ENDBRANCH   8  14
ENDBRANCH   5   6
ENDBRANCH   2   4
ENDBRANCH   1   2
BRANCH   1  16
ATOM     16  C   UNL     1      -9.776 -17.164  30.697  1.00  0.00     0.163 C 
ATOM     17  O   UNL     1      -9.711 -18.422  30.661  1.00  0.00    -0.294 OA
BRANCH  16  18
ATOM     18  C   UNL     1      -8.579 -16.418  31.147  1.00  0.00     0.048 C 
ATOM     19  C   UNL     1      -8.022 -15.416  30.450  1.00  0.00     0.012 C 
BRANCH  19  20
ATOM     20  C   UNL     1      -6.825 -14.669  30.906  1.00  0.00    -0.022 A 
ATOM     21  C   UNL     1      -5.827 -14.226  30.014  1.00  0.00     0.058 A 
ATOM     22  C   UNL     1      -6.706 -14.357  32.268  1.00  0.00     0.012 A 
ATOM     23  C   UNL     1      -4.709 -13.507  30.484  1.00  0.00     0.161 A 
ATOM     24  C   UNL     1      -5.602 -13.646  32.739  1.00  0.00     0.051 A 
ATOM     25  C   UNL     1      -4.603 -13.224  31.859  1.00  0.00     0.157 A 
BRANCH  23  26
ATOM     26  O   UNL     1      -3.696 -13.059  29.622  1.00  0.00    -0.493 OA
ATOM     27  C   UNL     1      -3.169 -13.811  28.533  1.00  0.00     0.278 C 
ENDBRANCH  23  26
BRANCH  25  28
ATOM     28  O   UNL     1      -3.512 -12.518  32.367  1.00  0.00    -0.504 OA
ATOM     29  H   UNL     1      -2.603 -12.534  31.921  1.00  0.00     0.293 HD
ENDBRANCH  25  28
ENDBRANCH  19  20
ENDBRANCH  16  18
ENDBRANCH   1  16
TORSDOF 10
ENDMDL
