MODEL 1
REMARK VINA RESULT:    -1.855      0.000      0.000
REMARK INTER + INTRA:          -5.349
REMARK INTER:                  -3.265
REMARK INTRA:                  -2.084
REMARK UNBOUND:                -2.084
REMARK SMILES CCCCCCCCCCCCCCC(=O)[O-]
REMARK SMILES IDX 9 1 10 2 11 3 12 4 13 5 14 6 15 7 16 8 17 9 8 10 7 11 6 12
REMARK SMILES IDX 5 13 4 14 3 15 2 16 1 17
REMARK H PARENT
REMARK Flexibility Score: inf
ROOT
ATOM      1  C   UNL     1     115.427  12.569  22.701  1.00  0.00     0.000 C 
ENDROOT
BRANCH   1   2
ATOM      2  C   UNL     1     115.041  12.778  24.175  1.00  0.00     0.000 C 
BRANCH   2   3
ATOM      3  C   UNL     1     116.236  13.186  25.055  1.00  0.00     0.000 C 
BRANCH   3   4
ATOM      4  C   UNL     1     115.877  13.620  26.489  1.00  0.00     0.000 C 
BRANCH   4   5
ATOM      5  C   UNL     1     116.460  14.990  26.866  1.00  0.00     0.006 C 
BRANCH   5   6
ATOM      6  C   UNL     1     117.322  14.891  28.127  1.00  0.00     0.053 C 
BRANCH   6   7
ATOM      7  C   UNL     1     118.454  15.869  28.066  1.00  0.00     0.041 C 
ATOM      8  O   UNL     1     119.016  16.254  29.125  1.00  0.00    -0.550 OA
ATOM      9  O   UNL     1     118.920  16.316  26.836  1.00  0.00    -0.550 OA
ENDBRANCH   6   7
ENDBRANCH   5   6
ENDBRANCH   4   5
ENDBRANCH   3   4
ENDBRANCH   2   3
ENDBRANCH   1   2
BRANCH   1  10
ATOM     10  C   UNL     1     116.937  12.725  22.457  1.00  0.00     0.000 C 
BRANCH  10  11
ATOM     11  C   UNL     1     117.261  13.316  21.074  1.00  0.00    -0.000 C 
BRANCH  11  12
ATOM     12  C   UNL     1     118.196  14.540  21.169  1.00  0.00    -0.000 C 
BRANCH  12  13
ATOM     13  C   UNL     1     118.052  15.323  22.485  1.00  0.00    -0.000 C 
BRANCH  13  14
ATOM     14  C   UNL     1     117.075  16.502  22.375  1.00  0.00    -0.000 C 
BRANCH  14  15
ATOM     15  C   UNL     1     116.030  16.456  23.495  1.00  0.00    -0.000 C 
BRANCH  15  16
ATOM     16  C   UNL     1     114.620  16.272  22.923  1.00  0.00    -0.003 C 
ATOM     17  C   UNL     1     114.661  16.041  21.415  1.00  0.00     0.004 C 
ENDBRANCH  15  16
ENDBRANCH  14  15
ENDBRANCH  13  14
ENDBRANCH  12  13
ENDBRANCH  11  12
ENDBRANCH  10  11
ENDBRANCH   1  10
TORSDOF 13
ENDMDL
MODEL 2
REMARK VINA RESULT:    -1.806      2.255      5.087
REMARK INTER + INTRA:          -5.264
REMARK INTER:                  -3.714
REMARK INTRA:                  -1.550
REMARK UNBOUND:                -2.084
REMARK SMILES CCCCCCCCCCCCCCC(=O)[O-]
REMARK SMILES IDX 9 1 10 2 11 3 12 4 13 5 14 6 15 7 16 8 17 9 8 10 7 11 6 12
REMARK SMILES IDX 5 13 4 14 3 15 2 16 1 17
REMARK H PARENT
REMARK Flexibility Score: inf
ROOT
ATOM      1  C   UNL     1     116.211  12.178  24.354  1.00  0.00     0.000 C 
ENDROOT
BRANCH   1   2
ATOM      2  C   UNL     1     116.694  12.210  22.894  1.00  0.00     0.000 C 
BRANCH   2   3
ATOM      3  C   UNL     1     116.517  13.590  22.235  1.00  0.00     0.000 C 
BRANCH   3   4
ATOM      4  C   UNL     1     117.812  14.406  22.063  1.00  0.00     0.000 C 
BRANCH   4   5
ATOM      5  C   UNL     1     117.966  15.518  23.112  1.00  0.00     0.006 C 
BRANCH   5   6
ATOM      6  C   UNL     1     118.822  16.666  22.572  1.00  0.00     0.053 C 
BRANCH   6   7
ATOM      7  C   UNL     1     120.254  16.243  22.460  1.00  0.00     0.041 C 
ATOM      8  O   UNL     1     120.757  16.003  21.331  1.00  0.00    -0.550 OA
ATOM      9  O   UNL     1     121.046  16.163  23.598  1.00  0.00    -0.550 OA
ENDBRANCH   6   7
ENDBRANCH   5   6
ENDBRANCH   4   5
ENDBRANCH   3   4
ENDBRANCH   2   3
ENDBRANCH   1   2
BRANCH   1  10
ATOM     10  C   UNL     1     114.854  12.874  24.544  1.00  0.00     0.000 C 
BRANCH  10  11
ATOM     11  C   UNL     1     114.873  13.921  25.671  1.00  0.00    -0.000 C 
BRANCH  11  12
ATOM     12  C   UNL     1     116.203  13.909  26.454  1.00  0.00    -0.000 C 
BRANCH  12  13
ATOM     13  C   UNL     1     116.742  15.314  26.773  1.00  0.00    -0.000 C 
BRANCH  13  14
ATOM     14  C   UNL     1     117.554  15.361  28.075  1.00  0.00    -0.000 C 
BRANCH  14  15
ATOM     15  C   UNL     1     118.781  16.268  27.925  1.00  0.00    -0.000 C 
BRANCH  15  16
ATOM     16  C   UNL     1     119.015  16.636  26.455  1.00  0.00    -0.003 C 
ATOM     17  C   UNL     1     119.487  18.080  26.315  1.00  0.00     0.004 C 
ENDBRANCH  15  16
ENDBRANCH  14  15
ENDBRANCH  13  14
ENDBRANCH  12  13
ENDBRANCH  11  12
ENDBRANCH  10  11
ENDBRANCH   1  10
TORSDOF 13
ENDMDL
MODEL 3
REMARK VINA RESULT:    -1.778      1.594      3.178
REMARK INTER + INTRA:          -5.214
REMARK INTER:                  -2.920
REMARK INTRA:                  -2.294
REMARK UNBOUND:                -2.084
REMARK SMILES CCCCCCCCCCCCCCC(=O)[O-]
REMARK SMILES IDX 9 1 10 2 11 3 12 4 13 5 14 6 15 7 16 8 17 9 8 10 7 11 6 12
REMARK SMILES IDX 5 13 4 14 3 15 2 16 1 17
REMARK H PARENT
REMARK Flexibility Score: inf
ROOT
ATOM      1  C   UNL     1     116.334  15.743  22.570  1.00  0.00     0.000 C 
ENDROOT
BRANCH   1   2
ATOM      2  C   UNL     1     117.827  15.891  22.914  1.00  0.00     0.000 C 
BRANCH   2   3
ATOM      3  C   UNL     1     118.076  16.107  24.418  1.00  0.00     0.000 C 
BRANCH   3   4
ATOM      4  C   UNL     1     117.067  15.419  25.355  1.00  0.00     0.000 C 
BRANCH   4   5
ATOM      5  C   UNL     1     116.533  16.352  26.453  1.00  0.00     0.006 C 
BRANCH   5   6
ATOM      6  C   UNL     1     116.073  15.553  27.676  1.00  0.00     0.053 C 
BRANCH   6   7
ATOM      7  C   UNL     1     117.245  14.914  28.354  1.00  0.00     0.041 C 
ATOM      8  O   UNL     1     118.274  15.591  28.612  1.00  0.00    -0.550 OA
ATOM      9  O   UNL     1     117.179  13.583  28.747  1.00  0.00    -0.550 OA
ENDBRANCH   6   7
ENDBRANCH   5   6
ENDBRANCH   4   5
ENDBRANCH   3   4
ENDBRANCH   2   3
ENDBRANCH   1   2
BRANCH   1  10
ATOM     10  C   UNL     1     116.060  14.556  21.632  1.00  0.00     0.000 C 
BRANCH  10  11
ATOM     11  C   UNL     1     116.911  13.319  21.969  1.00  0.00    -0.000 C 
BRANCH  11  12
ATOM     12  C   UNL     1     116.084  12.216  22.663  1.00  0.00    -0.000 C 
BRANCH  12  13
ATOM     13  C   UNL     1     116.451  12.011  24.142  1.00  0.00    -0.000 C 
BRANCH  13  14
ATOM     14  C   UNL     1     115.288  12.317  25.095  1.00  0.00    -0.000 C 
BRANCH  14  15
ATOM     15  C   UNL     1     114.174  13.085  24.374  1.00  0.00    -0.000 C 
BRANCH  15  16
ATOM     16  C   UNL     1     113.533  14.122  25.303  1.00  0.00    -0.003 C 
ATOM     17  C   UNL     1     113.336  15.456  24.588  1.00  0.00     0.004 C 
ENDBRANCH  15  16
ENDBRANCH  14  15
ENDBRANCH  13  14
ENDBRANCH  12  13
ENDBRANCH  11  12
ENDBRANCH  10  11
ENDBRANCH   1  10
TORSDOF 13
ENDMDL
MODEL 4
REMARK VINA RESULT:    -1.764      1.474      3.415
REMARK INTER + INTRA:          -5.188
REMARK INTER:                  -2.891
REMARK INTRA:                  -2.297
REMARK UNBOUND:                -2.084
REMARK SMILES CCCCCCCCCCCCCCC(=O)[O-]
REMARK SMILES IDX 9 1 10 2 11 3 12 4 13 5 14 6 15 7 16 8 17 9 8 10 7 11 6 12
REMARK SMILES IDX 5 13 4 14 3 15 2 16 1 17
REMARK H PARENT
REMARK Flexibility Score: inf
ROOT
ATOM      1  C   UNL     1     113.691  15.597  23.917  1.00  0.00     0.000 C 
ENDROOT
BRANCH   1   2
ATOM      2  C   UNL     1     114.424  15.672  25.267  1.00  0.00     0.000 C 
BRANCH   2   3
ATOM      3  C   UNL     1     115.923  15.989  25.119  1.00  0.00     0.000 C 
BRANCH   3   4
ATOM      4  C   UNL     1     116.875  15.002  25.820  1.00  0.00     0.000 C 
BRANCH   4   5
ATOM      5  C   UNL     1     116.223  14.284  27.012  1.00  0.00     0.006 C 
BRANCH   5   6
ATOM      6  C   UNL     1     117.161  14.270  28.223  1.00  0.00     0.053 C 
BRANCH   6   7
ATOM      7  C   UNL     1     117.577  15.664  28.578  1.00  0.00     0.041 C 
ATOM      8  O   UNL     1     116.734  16.479  29.036  1.00  0.00    -0.550 OA
ATOM      9  O   UNL     1     118.907  16.046  28.451  1.00  0.00    -0.550 OA
ENDBRANCH   6   7
ENDBRANCH   5   6
ENDBRANCH   4   5
ENDBRANCH   3   4
ENDBRANCH   2   3
ENDBRANCH   1   2
BRANCH   1  10
ATOM     10  C   UNL     1     113.032  14.228  23.678  1.00  0.00     0.000 C 
BRANCH  10  11
ATOM     11  C   UNL     1     113.524  13.150  24.660  1.00  0.00    -0.000 C 
BRANCH  11  12
ATOM     12  C   UNL     1     114.263  12.002  23.941  1.00  0.00    -0.000 C 
BRANCH  12  13
ATOM     13  C   UNL     1     115.786  12.021  24.156  1.00  0.00    -0.000 C 
BRANCH  13  14
ATOM     14  C   UNL     1     116.577  11.943  22.844  1.00  0.00    -0.000 C 
BRANCH  14  15
ATOM     15  C   UNL     1     115.904  12.774  21.746  1.00  0.00    -0.000 C 
BRANCH  15  16
ATOM     16  C   UNL     1     116.305  14.250  21.851  1.00  0.00    -0.003 C 
ATOM     17  C   UNL     1     117.796  14.397  22.147  1.00  0.00     0.004 C 
ENDBRANCH  15  16
ENDBRANCH  14  15
ENDBRANCH  13  14
ENDBRANCH  12  13
ENDBRANCH  11  12
ENDBRANCH  10  11
ENDBRANCH   1  10
TORSDOF 13
ENDMDL
MODEL 5
REMARK VINA RESULT:    -1.691      3.226      5.897
REMARK INTER + INTRA:          -5.060
REMARK INTER:                  -3.176
REMARK INTRA:                  -1.883
REMARK UNBOUND:                -2.084
REMARK SMILES CCCCCCCCCCCCCCC(=O)[O-]
REMARK SMILES IDX 9 1 10 2 11 3 12 4 13 5 14 6 15 7 16 8 17 9 8 10 7 11 6 12
REMARK SMILES IDX 5 13 4 14 3 15 2 16 1 17
REMARK H PARENT
REMARK Flexibility Score: inf
ROOT
ATOM      1  C   UNL     1     115.585  15.473  24.456  1.00  0.00     0.000 C 
ENDROOT
BRANCH   1   2
ATOM      2  C   UNL     1     116.418  16.730  24.764  1.00  0.00     0.000 C 
BRANCH   2   3
ATOM      3  C   UNL     1     117.934  16.459  24.764  1.00  0.00     0.000 C 
BRANCH   3   4
ATOM      4  C   UNL     1     118.730  17.189  23.667  1.00  0.00     0.000 C 
BRANCH   4   5
ATOM      5  C   UNL     1     119.844  16.324  23.056  1.00  0.00     0.006 C 
BRANCH   5   6
ATOM      6  C   UNL     1     119.311  15.490  21.887  1.00  0.00     0.053 C 
BRANCH   6   7
ATOM      7  C   UNL     1     120.146  15.708  20.665  1.00  0.00     0.041 C 
ATOM      8  O   UNL     1     120.355  14.761  19.863  1.00  0.00    -0.550 OA
ATOM      9  O   UNL     1     120.653  16.972  20.385  1.00  0.00    -0.550 OA
ENDBRANCH   6   7
ENDBRANCH   5   6
ENDBRANCH   4   5
ENDBRANCH   3   4
ENDBRANCH   2   3
ENDBRANCH   1   2
BRANCH   1  10
ATOM     10  C   UNL     1     116.453  14.282  24.019  1.00  0.00     0.000 C 
BRANCH  10  11
ATOM     11  C   UNL     1     116.301  13.062  24.945  1.00  0.00    -0.000 C 
BRANCH  11  12
ATOM     12  C   UNL     1     115.131  13.228  25.938  1.00  0.00    -0.000 C 
BRANCH  12  13
ATOM     13  C   UNL     1     115.582  13.343  27.405  1.00  0.00    -0.000 C 
BRANCH  13  14
ATOM     14  C   UNL     1     115.008  14.578  28.111  1.00  0.00    -0.000 C 
BRANCH  14  15
ATOM     15  C   UNL     1     116.097  15.630  28.350  1.00  0.00    -0.000 C 
BRANCH  15  16
ATOM     16  C   UNL     1     117.494  15.012  28.221  1.00  0.00    -0.003 C 
ATOM     17  C   UNL     1     118.582  16.075  28.353  1.00  0.00     0.004 C 
ENDBRANCH  15  16
ENDBRANCH  14  15
ENDBRANCH  13  14
ENDBRANCH  12  13
ENDBRANCH  11  12
ENDBRANCH  10  11
ENDBRANCH   1  10
TORSDOF 13
ENDMDL
MODEL 6
REMARK VINA RESULT:    -1.688      1.812      2.918
REMARK INTER + INTRA:          -5.055
REMARK INTER:                  -3.241
REMARK INTRA:                  -1.814
REMARK UNBOUND:                -2.084
REMARK SMILES CCCCCCCCCCCCCCC(=O)[O-]
REMARK SMILES IDX 9 1 10 2 11 3 12 4 13 5 14 6 15 7 16 8 17 9 8 10 7 11 6 12
REMARK SMILES IDX 5 13 4 14 3 15 2 16 1 17
REMARK H PARENT
REMARK Flexibility Score: inf
ROOT
ATOM      1  C   UNL     1     114.276  12.267  25.331  1.00  0.00     0.000 C 
ENDROOT
BRANCH   1   2
ATOM      2  C   UNL     1     113.937  12.866  26.707  1.00  0.00     0.000 C 
BRANCH   2   3
ATOM      3  C   UNL     1     114.162  11.876  27.864  1.00  0.00     0.000 C 
BRANCH   3   4
ATOM      4  C   UNL     1     115.235  12.295  28.886  1.00  0.00     0.000 C 
BRANCH   4   5
ATOM      5  C   UNL     1     115.573  13.793  28.824  1.00  0.00     0.006 C 
BRANCH   5   6
ATOM      6  C   UNL     1     117.088  14.011  28.769  1.00  0.00     0.053 C 
BRANCH   6   7
ATOM      7  C   UNL     1     117.399  15.427  28.398  1.00  0.00     0.041 C 
ATOM      8  O   UNL     1     118.575  15.865  28.502  1.00  0.00    -0.550 OA
ATOM      9  O   UNL     1     116.401  16.248  27.889  1.00  0.00    -0.550 OA
ENDBRANCH   6   7
ENDBRANCH   5   6
ENDBRANCH   4   5
ENDBRANCH   3   4
ENDBRANCH   2   3
ENDBRANCH   1   2
BRANCH   1  10
ATOM     10  C   UNL     1     115.744  12.492  24.935  1.00  0.00     0.000 C 
BRANCH  10  11
ATOM     11  C   UNL     1     116.201  13.948  25.140  1.00  0.00    -0.000 C 
BRANCH  11  12
ATOM     12  C   UNL     1     116.779  14.563  23.847  1.00  0.00    -0.000 C 
BRANCH  12  13
ATOM     13  C   UNL     1     116.999  13.537  22.722  1.00  0.00    -0.000 C 
BRANCH  13  14
ATOM     14  C   UNL     1     116.178  13.846  21.463  1.00  0.00    -0.000 C 
BRANCH  14  15
ATOM     15  C   UNL     1     115.360  12.625  21.027  1.00  0.00    -0.000 C 
BRANCH  15  16
ATOM     16  C   UNL     1     113.980  12.623  21.694  1.00  0.00    -0.003 C 
ATOM     17  C   UNL     1     113.507  14.043  21.990  1.00  0.00     0.004 C 
ENDBRANCH  15  16
ENDBRANCH  14  15
ENDBRANCH  13  14
ENDBRANCH  12  13
ENDBRANCH  11  12
ENDBRANCH  10  11
ENDBRANCH   1  10
TORSDOF 13
ENDMDL
MODEL 7
REMARK VINA RESULT:    -1.677      2.047      4.339
REMARK INTER + INTRA:          -5.036
REMARK INTER:                  -2.810
REMARK INTRA:                  -2.226
REMARK UNBOUND:                -2.084
REMARK SMILES CCCCCCCCCCCCCCC(=O)[O-]
REMARK SMILES IDX 9 1 10 2 11 3 12 4 13 5 14 6 15 7 16 8 17 9 8 10 7 11 6 12
REMARK SMILES IDX 5 13 4 14 3 15 2 16 1 17
REMARK H PARENT
REMARK Flexibility Score: inf
ROOT
ATOM      1  C   UNL     1     113.989  15.478  27.321  1.00  0.00     0.000 C 
ENDROOT
BRANCH   1   2
ATOM      2  C   UNL     1     115.234  16.175  27.897  1.00  0.00     0.000 C 
BRANCH   2   3
ATOM      3  C   UNL     1     116.009  15.293  28.893  1.00  0.00     0.000 C 
BRANCH   3   4
ATOM      4  C   UNL     1     117.407  14.848  28.425  1.00  0.00     0.000 C 
BRANCH   4   5
ATOM      5  C   UNL     1     118.443  15.981  28.464  1.00  0.00     0.006 C 
BRANCH   5   6
ATOM      6  C   UNL     1     118.849  16.401  27.048  1.00  0.00     0.053 C 
BRANCH   6   7
ATOM      7  C   UNL     1     118.555  17.852  26.828  1.00  0.00     0.041 C 
ATOM      8  O   UNL     1     118.891  18.410  25.750  1.00  0.00    -0.550 OA
ATOM      9  O   UNL     1     117.865  18.576  27.792  1.00  0.00    -0.550 OA
ENDBRANCH   6   7
ENDBRANCH   5   6
ENDBRANCH   4   5
ENDBRANCH   3   4
ENDBRANCH   2   3
ENDBRANCH   1   2
BRANCH   1  10
ATOM     10  C   UNL     1     113.719  14.115  27.980  1.00  0.00     0.000 C 
BRANCH  10  11
ATOM     11  C   UNL     1     113.718  12.954  26.969  1.00  0.00    -0.000 C 
BRANCH  11  12
ATOM     12  C   UNL     1     115.133  12.650  26.432  1.00  0.00    -0.000 C 
BRANCH  12  13
ATOM     13  C   UNL     1     115.159  12.300  24.934  1.00  0.00    -0.000 C 
BRANCH  13  14
ATOM     14  C   UNL     1     116.195  13.114  24.148  1.00  0.00    -0.000 C 
BRANCH  14  15
ATOM     15  C   UNL     1     116.610  14.370  24.923  1.00  0.00    -0.000 C 
BRANCH  15  16
ATOM     16  C   UNL     1     116.895  15.535  23.968  1.00  0.00    -0.003 C 
ATOM     17  C   UNL     1     116.036  16.750  24.308  1.00  0.00     0.004 C 
ENDBRANCH  15  16
ENDBRANCH  14  15
ENDBRANCH  13  14
ENDBRANCH  12  13
ENDBRANCH  11  12
ENDBRANCH  10  11
ENDBRANCH   1  10
TORSDOF 13
ENDMDL
