MODEL 1
REMARK VINA RESULT:    -1.202      0.000      0.000
REMARK INTER + INTRA:          -4.817
REMARK INTER:                  -3.170
REMARK INTRA:                  -1.647
REMARK UNBOUND:                -1.647
REMARK SMILES CCCCCCCCCCCCCCCCCCCCCCCCCCCCCC(=O)[O-]
REMARK SMILES IDX 16 1 17 2 18 3 19 4 20 5 21 6 22 7 23 8 24 9 25 10 26 11
REMARK SMILES IDX 27 12 28 13 29 14 30 15 31 16 32 17 15 18 14 19 13 20 12 21
REMARK SMILES IDX 11 22 10 23 9 24 8 25 7 26 6 27 5 28 4 29 3 30 2 31 1 32
REMARK H PARENT
REMARK Flexibility Score: inf
ROOT
ATOM      1  C   UNL     1      18.950  -6.124   8.864  1.00  0.00     0.000 C 
ENDROOT
BRANCH   1   2
ATOM      2  C   UNL     1      18.034  -7.056   8.042  1.00  0.00     0.000 C 
BRANCH   2   3
ATOM      3  C   UNL     1      16.866  -6.338   7.334  1.00  0.00     0.000 C 
BRANCH   3   4
ATOM      4  C   UNL     1      16.600  -6.755   5.870  1.00  0.00     0.000 C 
BRANCH   4   5
ATOM      5  C   UNL     1      15.131  -7.033   5.485  1.00  0.00     0.000 C 
BRANCH   5   6
ATOM      6  C   UNL     1      14.723  -8.518   5.509  1.00  0.00     0.000 C 
BRANCH   6   7
ATOM      7  C   UNL     1      14.070  -9.002   4.201  1.00  0.00     0.000 C 
BRANCH   7   8
ATOM      8  C   UNL     1      12.941 -10.014   4.443  1.00  0.00     0.000 C 
BRANCH   8   9
ATOM      9  C   UNL     1      11.583  -9.524   3.910  1.00  0.00     0.000 C 
BRANCH   9  10
ATOM     10  C   UNL     1      10.420  -9.872   4.852  1.00  0.00     0.000 C 
BRANCH  10  11
ATOM     11  C   UNL     1       9.704  -8.622   5.396  1.00  0.00     0.000 C 
BRANCH  11  12
ATOM     12  C   UNL     1      10.024  -7.351   4.587  1.00  0.00     0.000 C 
BRANCH  12  13
ATOM     13  C   UNL     1       8.796  -6.513   4.182  1.00  0.00     0.006 C 
BRANCH  13  14
ATOM     14  C   UNL     1       7.507  -7.344   4.081  1.00  0.00     0.053 C 
BRANCH  14  15
ATOM     15  C   UNL     1       6.673  -7.204   5.316  1.00  0.00     0.041 C 
ATOM     16  O   UNL     1       6.846  -7.984   6.290  1.00  0.00    -0.550 OA
ATOM     17  O   UNL     1       5.675  -6.237   5.377  1.00  0.00    -0.550 OA
ENDBRANCH  14  15
ENDBRANCH  13  14
ENDBRANCH  12  13
ENDBRANCH  11  12
ENDBRANCH  10  11
ENDBRANCH   9  10
ENDBRANCH   8   9
ENDBRANCH   7   8
ENDBRANCH   6   7
ENDBRANCH   5   6
ENDBRANCH   4   5
ENDBRANCH   3   4
ENDBRANCH   2   3
ENDBRANCH   1   2
BRANCH   1  18
ATOM     18  C   UNL     1      19.698  -5.072   8.022  1.00  0.00     0.000 C 
BRANCH  18  19
ATOM     19  C   UNL     1      20.414  -5.646   6.781  1.00  0.00     0.000 C 
BRANCH  19  20
ATOM     20  C   UNL     1      20.837  -4.574   5.753  1.00  0.00     0.000 C 
BRANCH  20  21
ATOM     21  C   UNL     1      21.678  -5.126   4.583  1.00  0.00     0.000 C 
BRANCH  21  22
ATOM     22  C   UNL     1      22.613  -6.291   4.945  1.00  0.00     0.000 C 
BRANCH  22  23
ATOM     23  C   UNL     1      22.184  -7.622   4.304  1.00  0.00     0.000 C 
BRANCH  23  24
ATOM     24  C   UNL     1      20.702  -7.626   3.887  1.00  0.00    -0.000 C 
BRANCH  24  25
ATOM     25  C   UNL     1      20.027  -9.013   3.875  1.00  0.00    -0.000 C 
BRANCH  25  26
ATOM     26  C   UNL     1      18.490  -9.000   3.970  1.00  0.00    -0.000 C 
BRANCH  26  27
ATOM     27  C   UNL     1      17.964  -9.688   5.242  1.00  0.00    -0.000 C 
BRANCH  27  28
ATOM     28  C   UNL     1      19.086 -10.125   6.201  1.00  0.00    -0.000 C 
BRANCH  28  29
ATOM     29  C   UNL     1      19.761  -8.988   6.992  1.00  0.00    -0.000 C 
BRANCH  29  30
ATOM     30  C   UNL     1      20.530  -9.489   8.226  1.00  0.00    -0.000 C 
BRANCH  30  31
ATOM     31  C   UNL     1      19.605 -10.125   9.275  1.00  0.00    -0.003 C 
ATOM     32  C   UNL     1      19.983  -9.745  10.706  1.00  0.00     0.004 C 
ENDBRANCH  30  31
ENDBRANCH  29  30
ENDBRANCH  28  29
ENDBRANCH  27  28
ENDBRANCH  26  27
ENDBRANCH  25  26
ENDBRANCH  24  25
ENDBRANCH  23  24
ENDBRANCH  22  23
ENDBRANCH  21  22
ENDBRANCH  20  21
ENDBRANCH  19  20
ENDBRANCH  18  19
ENDBRANCH   1  18
TORSDOF 28
ENDMDL
MODEL 2
REMARK VINA RESULT:    -0.693      1.691      4.680
REMARK INTER + INTRA:          -3.475
REMARK INTER:                  -3.052
REMARK INTRA:                  -0.423
REMARK UNBOUND:                -1.647
REMARK SMILES CCCCCCCCCCCCCCCCCCCCCCCCCCCCCC(=O)[O-]
REMARK SMILES IDX 16 1 17 2 18 3 19 4 20 5 21 6 22 7 23 8 24 9 25 10 26 11
REMARK SMILES IDX 27 12 28 13 29 14 30 15 31 16 32 17 15 18 14 19 13 20 12 21
REMARK SMILES IDX 11 22 10 23 9 24 8 25 7 26 6 27 5 28 4 29 3 30 2 31 1 32
REMARK H PARENT
REMARK Flexibility Score: inf
ROOT
ATOM      1  C   UNL     1      16.823  -6.922   5.175  1.00  0.00     0.000 C 
ENDROOT
BRANCH   1   2
ATOM      2  C   UNL     1      15.950  -8.067   5.732  1.00  0.00     0.000 C 
BRANCH   2   3
ATOM      3  C   UNL     1      15.153  -8.838   4.660  1.00  0.00     0.000 C 
BRANCH   3   4
ATOM      4  C   UNL     1      13.710  -8.348   4.404  1.00  0.00     0.000 C 
BRANCH   4   5
ATOM      5  C   UNL     1      12.614  -9.433   4.316  1.00  0.00     0.000 C 
BRANCH   5   6
ATOM      6  C   UNL     1      11.322  -9.115   5.092  1.00  0.00     0.000 C 
BRANCH   6   7
ATOM      7  C   UNL     1      10.289  -8.320   4.273  1.00  0.00     0.000 C 
BRANCH   7   8
ATOM      8  C   UNL     1       8.944  -9.051   4.147  1.00  0.00     0.000 C 
BRANCH   8   9
ATOM      9  C   UNL     1       8.011  -8.784   5.342  1.00  0.00     0.000 C 
BRANCH   9  10
ATOM     10  C   UNL     1       7.235 -10.038   5.775  1.00  0.00     0.000 C 
BRANCH  10  11
ATOM     11  C   UNL     1       5.759  -9.738   6.092  1.00  0.00     0.000 C 
BRANCH  11  12
ATOM     12  C   UNL     1       4.858  -9.779   4.844  1.00  0.00     0.000 C 
BRANCH  12  13
ATOM     13  C   UNL     1       4.911  -8.516   3.963  1.00  0.00     0.006 C 
BRANCH  13  14
ATOM     14  C   UNL     1       3.628  -7.675   4.038  1.00  0.00     0.053 C 
BRANCH  14  15
ATOM     15  C   UNL     1       3.934  -6.244   4.356  1.00  0.00     0.041 C 
ATOM     16  O   UNL     1       5.112  -5.894   4.636  1.00  0.00    -0.550 OA
ATOM     17  O   UNL     1       2.911  -5.303   4.384  1.00  0.00    -0.550 OA
ENDBRANCH  14  15
ENDBRANCH  13  14
ENDBRANCH  12  13
ENDBRANCH  11  12
ENDBRANCH  10  11
ENDBRANCH   9  10
ENDBRANCH   8   9
ENDBRANCH   7   8
ENDBRANCH   6   7
ENDBRANCH   5   6
ENDBRANCH   4   5
ENDBRANCH   3   4
ENDBRANCH   2   3
ENDBRANCH   1   2
BRANCH   1  18
ATOM     18  C   UNL     1      18.310  -7.287   5.006  1.00  0.00     0.000 C 
BRANCH  18  19
ATOM     19  C   UNL     1      18.558  -8.558   4.165  1.00  0.00     0.000 C 
BRANCH  19  20
ATOM     20  C   UNL     1      19.410  -9.626   4.886  1.00  0.00     0.000 C 
BRANCH  20  21
ATOM     21  C   UNL     1      19.070  -9.792   6.382  1.00  0.00     0.000 C 
BRANCH  21  22
ATOM     22  C   UNL     1      20.094  -9.185   7.354  1.00  0.00     0.000 C 
BRANCH  22  23
ATOM     23  C   UNL     1      19.439  -8.327   8.452  1.00  0.00     0.000 C 
BRANCH  23  24
ATOM     24  C   UNL     1      18.711  -7.096   7.882  1.00  0.00    -0.000 C 
BRANCH  24  25
ATOM     25  C   UNL     1      19.238  -5.734   8.380  1.00  0.00    -0.000 C 
BRANCH  25  26
ATOM     26  C   UNL     1      20.610  -5.314   7.823  1.00  0.00    -0.000 C 
BRANCH  26  27
ATOM     27  C   UNL     1      20.748  -5.579   6.313  1.00  0.00    -0.000 C 
BRANCH  27  28
ATOM     28  C   UNL     1      20.360  -4.366   5.449  1.00  0.00    -0.000 C 
BRANCH  28  29
ATOM     29  C   UNL     1      21.030  -4.298   4.064  1.00  0.00    -0.000 C 
BRANCH  29  30
ATOM     30  C   UNL     1      22.129  -5.357   3.875  1.00  0.00    -0.000 C 
BRANCH  30  31
ATOM     31  C   UNL     1      21.709  -6.738   4.400  1.00  0.00    -0.003 C 
ATOM     32  C   UNL     1      22.901  -7.613   4.785  1.00  0.00     0.004 C 
ENDBRANCH  30  31
ENDBRANCH  29  30
ENDBRANCH  28  29
ENDBRANCH  27  28
ENDBRANCH  26  27
ENDBRANCH  25  26
ENDBRANCH  24  25
ENDBRANCH  23  24
ENDBRANCH  22  23
ENDBRANCH  21  22
ENDBRANCH  20  21
ENDBRANCH  19  20
ENDBRANCH  18  19
ENDBRANCH   1  18
TORSDOF 28
ENDMDL
MODEL 3
REMARK VINA RESULT:    -0.225      3.150     10.316
REMARK INTER + INTRA:          -2.241
REMARK INTER:                  -0.612
REMARK INTRA:                  -1.629
REMARK UNBOUND:                -1.647
REMARK SMILES CCCCCCCCCCCCCCCCCCCCCCCCCCCCCC(=O)[O-]
REMARK SMILES IDX 16 1 17 2 18 3 19 4 20 5 21 6 22 7 23 8 24 9 25 10 26 11
REMARK SMILES IDX 27 12 28 13 29 14 30 15 31 16 32 17 15 18 14 19 13 20 12 21
REMARK SMILES IDX 11 22 10 23 9 24 8 25 7 26 6 27 5 28 4 29 3 30 2 31 1 32
REMARK H PARENT
REMARK Flexibility Score: inf
ROOT
ATOM      1  C   UNL     1      16.821  -5.982   8.812  1.00  0.00     0.000 C 
ENDROOT
BRANCH   1   2
ATOM      2  C   UNL     1      18.227  -6.621   8.788  1.00  0.00     0.000 C 
BRANCH   2   3
ATOM      3  C   UNL     1      19.329  -5.713   8.204  1.00  0.00     0.000 C 
BRANCH   3   4
ATOM      4  C   UNL     1      19.441  -5.685   6.663  1.00  0.00     0.000 C 
BRANCH   4   5
ATOM      5  C   UNL     1      20.847  -5.440   6.075  1.00  0.00     0.000 C 
BRANCH   5   6
ATOM      6  C   UNL     1      20.881  -5.184   4.556  1.00  0.00     0.000 C 
BRANCH   6   7
ATOM      7  C   UNL     1      22.268  -5.399   3.924  1.00  0.00     0.000 C 
BRANCH   7   8
ATOM      8  C   UNL     1      23.076  -6.499   4.630  1.00  0.00     0.000 C 
BRANCH   8   9
ATOM      9  C   UNL     1      22.996  -7.852   3.902  1.00  0.00     0.000 C 
BRANCH   9  10
ATOM     10  C   UNL     1      21.569  -8.424   3.877  1.00  0.00     0.000 C 
BRANCH  10  11
ATOM     11  C   UNL     1      21.302  -9.398   5.039  1.00  0.00     0.000 C 
BRANCH  11  12
ATOM     12  C   UNL     1      20.722  -8.700   6.283  1.00  0.00     0.000 C 
BRANCH  12  13
ATOM     13  C   UNL     1      19.299  -9.144   6.673  1.00  0.00     0.006 C 
BRANCH  13  14
ATOM     14  C   UNL     1      18.677 -10.124   5.665  1.00  0.00     0.053 C 
BRANCH  14  15
ATOM     15  C   UNL     1      17.917  -9.398   4.600  1.00  0.00     0.041 C 
ATOM     16  O   UNL     1      18.141  -8.177   4.381  1.00  0.00    -0.550 OA
ATOM     17  O   UNL     1      16.931 -10.058   3.875  1.00  0.00    -0.550 OA
ENDBRANCH  14  15
ENDBRANCH  13  14
ENDBRANCH  12  13
ENDBRANCH  11  12
ENDBRANCH  10  11
ENDBRANCH   9  10
ENDBRANCH   8   9
ENDBRANCH   7   8
ENDBRANCH   6   7
ENDBRANCH   5   6
ENDBRANCH   4   5
ENDBRANCH   3   4
ENDBRANCH   2   3
ENDBRANCH   1   2
BRANCH   1  18
ATOM     18  C   UNL     1      15.690  -6.929   8.370  1.00  0.00     0.000 C 
BRANCH  18  19
ATOM     19  C   UNL     1      15.870  -7.512   6.951  1.00  0.00     0.000 C 
BRANCH  19  20
ATOM     20  C   UNL     1      14.630  -8.267   6.426  1.00  0.00     0.000 C 
BRANCH  20  21
ATOM     21  C   UNL     1      14.700  -8.617   4.925  1.00  0.00     0.000 C 
BRANCH  21  22
ATOM     22  C   UNL     1      13.528  -8.094   4.078  1.00  0.00     0.000 C 
BRANCH  22  23
ATOM     23  C   UNL     1      12.387  -7.513   4.932  1.00  0.00     0.000 C 
BRANCH  23  24
ATOM     24  C   UNL     1      11.336  -8.573   5.311  1.00  0.00    -0.000 C 
BRANCH  24  25
ATOM     25  C   UNL     1       9.905  -8.034   5.514  1.00  0.00    -0.000 C 
BRANCH  25  26
ATOM     26  C   UNL     1       9.179  -7.591   4.230  1.00  0.00    -0.000 C 
BRANCH  26  27
ATOM     27  C   UNL     1       7.790  -6.990   4.507  1.00  0.00    -0.000 C 
BRANCH  27  28
ATOM     28  C   UNL     1       7.061  -7.666   5.682  1.00  0.00    -0.000 C 
BRANCH  28  29
ATOM     29  C   UNL     1       5.526  -7.546   5.667  1.00  0.00    -0.000 C 
BRANCH  29  30
ATOM     30  C   UNL     1       4.938  -7.533   4.245  1.00  0.00    -0.000 C 
BRANCH  30  31
ATOM     31  C   UNL     1       3.967  -8.698   4.001  1.00  0.00    -0.003 C 
ATOM     32  C   UNL     1       3.845  -9.629   5.207  1.00  0.00     0.004 C 
ENDBRANCH  30  31
ENDBRANCH  29  30
ENDBRANCH  28  29
ENDBRANCH  27  28
ENDBRANCH  26  27
ENDBRANCH  25  26
ENDBRANCH  24  25
ENDBRANCH  23  24
ENDBRANCH  22  23
ENDBRANCH  21  22
ENDBRANCH  20  21
ENDBRANCH  19  20
ENDBRANCH  18  19
ENDBRANCH   1  18
TORSDOF 28
ENDMDL
MODEL 4
REMARK VINA RESULT:    -0.049      3.788     10.449
REMARK INTER + INTRA:          -1.777
REMARK INTER:                  -2.168
REMARK INTRA:                   0.390
REMARK UNBOUND:                -1.647
REMARK SMILES CCCCCCCCCCCCCCCCCCCCCCCCCCCCCC(=O)[O-]
REMARK SMILES IDX 16 1 17 2 18 3 19 4 20 5 21 6 22 7 23 8 24 9 25 10 26 11
REMARK SMILES IDX 27 12 28 13 29 14 30 15 31 16 32 17 15 18 14 19 13 20 12 21
REMARK SMILES IDX 11 22 10 23 9 24 8 25 7 26 6 27 5 28 4 29 3 30 2 31 1 32
REMARK H PARENT
REMARK Flexibility Score: inf
ROOT
ATOM      1  C   UNL     1      14.986  -7.196   7.615  1.00  0.00     0.000 C 
ENDROOT
BRANCH   1   2
ATOM      2  C   UNL     1      16.193  -7.143   6.653  1.00  0.00     0.000 C 
BRANCH   2   3
ATOM      3  C   UNL     1      15.813  -7.075   5.159  1.00  0.00     0.000 C 
BRANCH   3   4
ATOM      4  C   UNL     1      16.899  -7.536   4.161  1.00  0.00     0.000 C 
BRANCH   4   5
ATOM      5  C   UNL     1      16.978  -9.052   3.875  1.00  0.00     0.000 C 
BRANCH   5   6
ATOM      6  C   UNL     1      18.043  -9.811   4.689  1.00  0.00     0.000 C 
BRANCH   6   7
ATOM      7  C   UNL     1      19.461  -9.713   4.096  1.00  0.00     0.000 C 
BRANCH   7   8
ATOM      8  C   UNL     1      19.909  -8.260   3.875  1.00  0.00     0.000 C 
BRANCH   8   9
ATOM      9  C   UNL     1      19.806  -7.408   5.153  1.00  0.00     0.000 C 
BRANCH   9  10
ATOM     10  C   UNL     1      21.040  -6.519   5.369  1.00  0.00     0.000 C 
BRANCH  10  11
ATOM     11  C   UNL     1      20.698  -5.195   6.076  1.00  0.00     0.000 C 
BRANCH  11  12
ATOM     12  C   UNL     1      19.663  -5.369   7.204  1.00  0.00     0.000 C 
BRANCH  12  13
ATOM     13  C   UNL     1      19.986  -6.486   8.215  1.00  0.00     0.006 C 
BRANCH  13  14
ATOM     14  C   UNL     1      19.007  -7.668   8.139  1.00  0.00     0.053 C 
BRANCH  14  15
ATOM     15  C   UNL     1      19.714  -8.972   8.336  1.00  0.00     0.041 C 
ATOM     16  O   UNL     1      20.261  -9.551   7.360  1.00  0.00    -0.550 OA
ATOM     17  O   UNL     1      19.734  -9.571   9.591  1.00  0.00    -0.550 OA
ENDBRANCH  14  15
ENDBRANCH  13  14
ENDBRANCH  12  13
ENDBRANCH  11  12
ENDBRANCH  10  11
ENDBRANCH   9  10
ENDBRANCH   8   9
ENDBRANCH   7   8
ENDBRANCH   6   7
ENDBRANCH   5   6
ENDBRANCH   4   5
ENDBRANCH   3   4
ENDBRANCH   2   3
ENDBRANCH   1   2
BRANCH   1  18
ATOM     18  C   UNL     1      14.221  -8.534   7.595  1.00  0.00     0.000 C 
BRANCH  18  19
ATOM     19  C   UNL     1      13.257  -8.694   6.400  1.00  0.00     0.000 C 
BRANCH  19  20
ATOM     20  C   UNL     1      13.911  -9.327   5.152  1.00  0.00     0.000 C 
BRANCH  20  21
ATOM     21  C   UNL     1      13.025  -9.280   3.890  1.00  0.00     0.000 C 
BRANCH  21  22
ATOM     22  C   UNL     1      11.821  -8.328   3.973  1.00  0.00     0.000 C 
BRANCH  22  23
ATOM     23  C   UNL     1      10.493  -9.065   4.219  1.00  0.00     0.000 C 
BRANCH  23  24
ATOM     24  C   UNL     1       9.512  -8.244   5.077  1.00  0.00    -0.000 C 
BRANCH  24  25
ATOM     25  C   UNL     1       8.066  -8.183   4.543  1.00  0.00    -0.000 C 
BRANCH  25  26
ATOM     26  C   UNL     1       7.034  -7.567   5.505  1.00  0.00    -0.000 C 
BRANCH  26  27
ATOM     27  C   UNL     1       5.610  -7.546   4.921  1.00  0.00    -0.000 C 
BRANCH  27  28
ATOM     28  C   UNL     1       4.988  -8.948   4.796  1.00  0.00    -0.000 C 
BRANCH  28  29
ATOM     29  C   UNL     1       5.809 -10.094   5.415  1.00  0.00    -0.000 C 
BRANCH  29  30
ATOM     30  C   UNL     1       5.736 -10.125   6.952  1.00  0.00    -0.000 C 
BRANCH  30  31
ATOM     31  C   UNL     1       7.126 -10.117   7.605  1.00  0.00    -0.003 C 
ATOM     32  C   UNL     1       7.228  -9.132   8.769  1.00  0.00     0.004 C 
ENDBRANCH  30  31
ENDBRANCH  29  30
ENDBRANCH  28  29
ENDBRANCH  27  28
ENDBRANCH  26  27
ENDBRANCH  25  26
ENDBRANCH  24  25
ENDBRANCH  23  24
ENDBRANCH  22  23
ENDBRANCH  21  22
ENDBRANCH  20  21
ENDBRANCH  19  20
ENDBRANCH  18  19
ENDBRANCH   1  18
TORSDOF 28
ENDMDL
MODEL 5
REMARK VINA RESULT:     0.674      3.488     10.645
REMARK INTER + INTRA:           0.131
REMARK INTER:                  -0.241
REMARK INTRA:                   0.372
REMARK UNBOUND:                -1.647
REMARK SMILES CCCCCCCCCCCCCCCCCCCCCCCCCCCCCC(=O)[O-]
REMARK SMILES IDX 16 1 17 2 18 3 19 4 20 5 21 6 22 7 23 8 24 9 25 10 26 11
REMARK SMILES IDX 27 12 28 13 29 14 30 15 31 16 32 17 15 18 14 19 13 20 12 21
REMARK SMILES IDX 11 22 10 23 9 24 8 25 7 26 6 27 5 28 4 29 3 30 2 31 1 32
REMARK H PARENT
REMARK Flexibility Score: inf
ROOT
ATOM      1  C   UNL     1      14.959  -7.131   7.735  1.00  0.00     0.000 C 
ENDROOT
BRANCH   1   2
ATOM      2  C   UNL     1      16.198  -7.100   6.814  1.00  0.00     0.000 C 
BRANCH   2   3
ATOM      3  C   UNL     1      15.883  -6.799   5.333  1.00  0.00     0.000 C 
BRANCH   3   4
ATOM      4  C   UNL     1      17.046  -7.003   4.337  1.00  0.00     0.000 C 
BRANCH   4   5
ATOM      5  C   UNL     1      17.380  -8.461   3.951  1.00  0.00     0.000 C 
BRANCH   5   6
ATOM      6  C   UNL     1      18.645  -9.035   4.617  1.00  0.00     0.000 C 
BRANCH   6   7
ATOM      7  C   UNL     1      19.957  -8.511   4.005  1.00  0.00     0.000 C 
BRANCH   7   8
ATOM      8  C   UNL     1      19.980  -6.981   3.876  1.00  0.00     0.000 C 
BRANCH   8   9
ATOM      9  C   UNL     1      19.736  -6.271   5.220  1.00  0.00     0.000 C 
BRANCH   9  10
ATOM     10  C   UNL     1      20.902  -5.354   5.621  1.00  0.00     0.000 C 
BRANCH  10  11
ATOM     11  C   UNL     1      20.447  -4.157   6.476  1.00  0.00     0.000 C 
BRANCH  11  12
ATOM     12  C   UNL     1      20.175  -4.539   7.943  1.00  0.00     0.000 C 
BRANCH  12  13
ATOM     13  C   UNL     1      20.389  -6.028   8.277  1.00  0.00     0.006 C 
BRANCH  13  14
ATOM     14  C   UNL     1      19.099  -6.739   8.713  1.00  0.00     0.053 C 
BRANCH  14  15
ATOM     15  C   UNL     1      19.090  -8.169   8.270  1.00  0.00     0.041 C 
ATOM     16  O   UNL     1      18.200  -8.583   7.481  1.00  0.00    -0.550 OA
ATOM     17  O   UNL     1      20.042  -9.056   8.761  1.00  0.00    -0.550 OA
ENDBRANCH  14  15
ENDBRANCH  13  14
ENDBRANCH  12  13
ENDBRANCH  11  12
ENDBRANCH  10  11
ENDBRANCH   9  10
ENDBRANCH   8   9
ENDBRANCH   7   8
ENDBRANCH   6   7
ENDBRANCH   5   6
ENDBRANCH   4   5
ENDBRANCH   3   4
ENDBRANCH   2   3
ENDBRANCH   1   2
BRANCH   1  18
ATOM     18  C   UNL     1      14.142  -8.435   7.649  1.00  0.00     0.000 C 
BRANCH  18  19
ATOM     19  C   UNL     1      13.146  -8.482   6.470  1.00  0.00     0.000 C 
BRANCH  19  20
ATOM     20  C   UNL     1      13.742  -9.074   5.174  1.00  0.00     0.000 C 
BRANCH  20  21
ATOM     21  C   UNL     1      12.896  -8.798   3.913  1.00  0.00     0.000 C 
BRANCH  21  22
ATOM     22  C   UNL     1      12.213  -7.422   3.875  1.00  0.00     0.000 C 
BRANCH  22  23
ATOM     23  C   UNL     1      10.677  -7.517   3.892  1.00  0.00     0.000 C 
BRANCH  23  24
ATOM     24  C   UNL     1      10.170  -8.737   4.683  1.00  0.00    -0.000 C 
BRANCH  24  25
ATOM     25  C   UNL     1       9.109  -8.426   5.759  1.00  0.00    -0.000 C 
BRANCH  25  26
ATOM     26  C   UNL     1       8.187  -9.601   6.135  1.00  0.00    -0.000 C 
BRANCH  26  27
ATOM     27  C   UNL     1       7.169  -9.235   7.230  1.00  0.00    -0.000 C 
BRANCH  27  28
ATOM     28  C   UNL     1       6.271  -8.045   6.847  1.00  0.00    -0.000 C 
BRANCH  28  29
ATOM     29  C   UNL     1       5.435  -8.232   5.567  1.00  0.00    -0.000 C 
BRANCH  29  30
ATOM     30  C   UNL     1       5.746  -7.181   4.487  1.00  0.00    -0.000 C 
BRANCH  30  31
ATOM     31  C   UNL     1       4.830  -5.952   4.585  1.00  0.00    -0.003 C 
ATOM     32  C   UNL     1       3.382  -6.260   4.204  1.00  0.00     0.004 C 
ENDBRANCH  30  31
ENDBRANCH  29  30
ENDBRANCH  28  29
ENDBRANCH  27  28
ENDBRANCH  26  27
ENDBRANCH  25  26
ENDBRANCH  24  25
ENDBRANCH  23  24
ENDBRANCH  22  23
ENDBRANCH  21  22
ENDBRANCH  20  21
ENDBRANCH  19  20
ENDBRANCH  18  19
ENDBRANCH   1  18
TORSDOF 28
ENDMDL
MODEL 6
REMARK VINA RESULT:     0.827      2.948      9.826
REMARK INTER + INTRA:           0.533
REMARK INTER:                  -0.519
REMARK INTRA:                   1.052
REMARK UNBOUND:                -1.647
REMARK SMILES CCCCCCCCCCCCCCCCCCCCCCCCCCCCCC(=O)[O-]
REMARK SMILES IDX 16 1 17 2 18 3 19 4 20 5 21 6 22 7 23 8 24 9 25 10 26 11
REMARK SMILES IDX 27 12 28 13 29 14 30 15 31 16 32 17 15 18 14 19 13 20 12 21
REMARK SMILES IDX 11 22 10 23 9 24 8 25 7 26 6 27 5 28 4 29 3 30 2 31 1 32
REMARK H PARENT
REMARK Flexibility Score: inf
ROOT
ATOM      1  C   UNL     1      18.614  -9.713   6.768  1.00  0.00     0.000 C 
ENDROOT
BRANCH   1   2
ATOM      2  C   UNL     1      20.021  -9.426   6.202  1.00  0.00     0.000 C 
BRANCH   2   3
ATOM      3  C   UNL     1      20.322 -10.125   4.860  1.00  0.00     0.000 C 
BRANCH   3   4
ATOM      4  C   UNL     1      21.227  -9.347   3.878  1.00  0.00     0.000 C 
BRANCH   4   5
ATOM      5  C   UNL     1      21.342  -7.824   4.101  1.00  0.00     0.000 C 
BRANCH   5   6
ATOM      6  C   UNL     1      20.165  -7.188   4.863  1.00  0.00     0.000 C 
BRANCH   6   7
ATOM      7  C   UNL     1      19.299  -6.254   3.997  1.00  0.00     0.000 C 
BRANCH   7   8
ATOM      8  C   UNL     1      19.893  -4.842   3.875  1.00  0.00     0.000 C 
BRANCH   8   9
ATOM      9  C   UNL     1      21.287  -4.729   4.520  1.00  0.00     0.000 C 
BRANCH   9  10
ATOM     10  C   UNL     1      21.284  -5.131   6.003  1.00  0.00     0.000 C 
BRANCH  10  11
ATOM     11  C   UNL     1      20.467  -4.163   6.876  1.00  0.00     0.000 C 
BRANCH  11  12
ATOM     12  C   UNL     1      19.782  -4.863   8.065  1.00  0.00     0.000 C 
BRANCH  12  13
ATOM     13  C   UNL     1      19.546  -6.375   7.881  1.00  0.00     0.006 C 
BRANCH  13  14
ATOM     14  C   UNL     1      18.332  -6.894   8.667  1.00  0.00     0.053 C 
BRANCH  14  15
ATOM     15  C   UNL     1      17.056  -6.637   7.926  1.00  0.00     0.041 C 
ATOM     16  O   UNL     1      17.081  -6.369   6.695  1.00  0.00    -0.550 OA
ATOM     17  O   UNL     1      15.842  -6.654   8.603  1.00  0.00    -0.550 OA
ENDBRANCH  14  15
ENDBRANCH  13  14
ENDBRANCH  12  13
ENDBRANCH  11  12
ENDBRANCH  10  11
ENDBRANCH   9  10
ENDBRANCH   8   9
ENDBRANCH   7   8
ENDBRANCH   6   7
ENDBRANCH   5   6
ENDBRANCH   4   5
ENDBRANCH   3   4
ENDBRANCH   2   3
ENDBRANCH   1   2
BRANCH   1  18
ATOM     18  C   UNL     1      17.464  -9.119   5.933  1.00  0.00     0.000 C 
BRANCH  18  19
ATOM     19  C   UNL     1      16.275 -10.080   5.718  1.00  0.00     0.000 C 
BRANCH  19  20
ATOM     20  C   UNL     1      15.746 -10.103   4.267  1.00  0.00     0.000 C 
BRANCH  20  21
ATOM     21  C   UNL     1      14.225  -9.873   4.151  1.00  0.00     0.000 C 
BRANCH  21  22
ATOM     22  C   UNL     1      13.756  -8.442   4.464  1.00  0.00     0.000 C 
BRANCH  22  23
ATOM     23  C   UNL     1      13.476  -8.220   5.961  1.00  0.00     0.000 C 
BRANCH  23  24
ATOM     24  C   UNL     1      12.147  -8.853   6.413  1.00  0.00    -0.000 C 
BRANCH  24  25
ATOM     25  C   UNL     1      10.917  -7.925   6.329  1.00  0.00    -0.000 C 
BRANCH  25  26
ATOM     26  C   UNL     1      10.740  -7.183   4.991  1.00  0.00    -0.000 C 
BRANCH  26  27
ATOM     27  C   UNL     1       9.414  -7.525   4.289  1.00  0.00    -0.000 C 
BRANCH  27  28
ATOM     28  C   UNL     1       8.519  -8.466   5.113  1.00  0.00    -0.000 C 
BRANCH  28  29
ATOM     29  C   UNL     1       7.003  -8.293   4.900  1.00  0.00    -0.000 C 
BRANCH  29  30
ATOM     30  C   UNL     1       6.611  -6.859   4.505  1.00  0.00    -0.000 C 
BRANCH  30  31
ATOM     31  C   UNL     1       5.580  -6.248   5.465  1.00  0.00    -0.003 C 
ATOM     32  C   UNL     1       4.418  -5.573   4.735  1.00  0.00     0.004 C 
ENDBRANCH  30  31
ENDBRANCH  29  30
ENDBRANCH  28  29
ENDBRANCH  27  28
ENDBRANCH  26  27
ENDBRANCH  25  26
ENDBRANCH  24  25
ENDBRANCH  23  24
ENDBRANCH  22  23
ENDBRANCH  21  22
ENDBRANCH  20  21
ENDBRANCH  19  20
ENDBRANCH  18  19
ENDBRANCH   1  18
TORSDOF 28
ENDMDL
MODEL 7
REMARK VINA RESULT:     1.397      4.094     10.659
REMARK INTER + INTRA:           2.036
REMARK INTER:                   1.235
REMARK INTRA:                   0.801
REMARK UNBOUND:                -1.647
REMARK SMILES CCCCCCCCCCCCCCCCCCCCCCCCCCCCCC(=O)[O-]
REMARK SMILES IDX 16 1 17 2 18 3 19 4 20 5 21 6 22 7 23 8 24 9 25 10 26 11
REMARK SMILES IDX 27 12 28 13 29 14 30 15 31 16 32 17 15 18 14 19 13 20 12 21
REMARK SMILES IDX 11 22 10 23 9 24 8 25 7 26 6 27 5 28 4 29 3 30 2 31 1 32
REMARK H PARENT
REMARK Flexibility Score: inf
ROOT
ATOM      1  C   UNL     1      14.668  -7.020   7.920  1.00  0.00     0.000 C 
ENDROOT
BRANCH   1   2
ATOM      2  C   UNL     1      16.182  -6.812   8.142  1.00  0.00     0.000 C 
BRANCH   2   3
ATOM      3  C   UNL     1      17.056  -7.133   6.913  1.00  0.00     0.000 C 
BRANCH   3   4
ATOM      4  C   UNL     1      18.369  -7.899   7.195  1.00  0.00     0.000 C 
BRANCH   4   5
ATOM      5  C   UNL     1      18.344  -9.425   6.959  1.00  0.00     0.000 C 
BRANCH   5   6
ATOM      6  C   UNL     1      19.091  -9.899   5.698  1.00  0.00     0.000 C 
BRANCH   6   7
ATOM      7  C   UNL     1      20.384  -9.112   5.412  1.00  0.00     0.000 C 
BRANCH   7   8
ATOM      8  C   UNL     1      21.085  -9.573   4.125  1.00  0.00     0.000 C 
BRANCH   8   9
ATOM      9  C   UNL     1      22.411  -8.832   3.876  1.00  0.00     0.000 C 
BRANCH   9  10
ATOM     10  C   UNL     1      22.858  -8.001   5.088  1.00  0.00     0.000 C 
BRANCH  10  11
ATOM     11  C   UNL     1      22.730  -6.486   4.847  1.00  0.00     0.000 C 
BRANCH  11  12
ATOM     12  C   UNL     1      21.590  -6.130   3.875  1.00  0.00     0.000 C 
BRANCH  12  13
ATOM     13  C   UNL     1      20.388  -5.411   4.519  1.00  0.00     0.006 C 
BRANCH  13  14
ATOM     14  C   UNL     1      20.086  -4.049   3.876  1.00  0.00     0.053 C 
BRANCH  14  15
ATOM     15  C   UNL     1      20.567  -2.923   4.738  1.00  0.00     0.041 C 
ATOM     16  O   UNL     1      20.476  -3.001   5.993  1.00  0.00    -0.550 OA
ATOM     17  O   UNL     1      21.078  -1.769   4.155  1.00  0.00    -0.550 OA
ENDBRANCH  14  15
ENDBRANCH  13  14
ENDBRANCH  12  13
ENDBRANCH  11  12
ENDBRANCH  10  11
ENDBRANCH   9  10
ENDBRANCH   8   9
ENDBRANCH   7   8
ENDBRANCH   6   7
ENDBRANCH   5   6
ENDBRANCH   4   5
ENDBRANCH   3   4
ENDBRANCH   2   3
ENDBRANCH   1   2
BRANCH   1  18
ATOM     18  C   UNL     1      14.238  -8.498   7.846  1.00  0.00     0.000 C 
BRANCH  18  19
ATOM     19  C   UNL     1      14.273  -9.097   6.423  1.00  0.00     0.000 C 
BRANCH  19  20
ATOM     20  C   UNL     1      15.053  -8.238   5.404  1.00  0.00     0.000 C 
BRANCH  20  21
ATOM     21  C   UNL     1      14.203  -7.757   4.210  1.00  0.00     0.000 C 
BRANCH  21  22
ATOM     22  C   UNL     1      12.685  -7.940   4.375  1.00  0.00     0.000 C 
BRANCH  22  23
ATOM     23  C   UNL     1      12.320  -9.202   5.175  1.00  0.00     0.000 C 
BRANCH  23  24
ATOM     24  C   UNL     1      11.124  -9.960   4.569  1.00  0.00    -0.000 C 
BRANCH  24  25
ATOM     25  C   UNL     1       9.807  -9.159   4.500  1.00  0.00    -0.000 C 
BRANCH  25  26
ATOM     26  C   UNL     1       9.037  -9.040   5.829  1.00  0.00    -0.000 C 
BRANCH  26  27
ATOM     27  C   UNL     1       7.683  -9.770   5.801  1.00  0.00    -0.000 C 
BRANCH  27  28
ATOM     28  C   UNL     1       6.625  -9.115   6.707  1.00  0.00    -0.000 C 
BRANCH  28  29
ATOM     29  C   UNL     1       6.523  -7.582   6.604  1.00  0.00    -0.000 C 
BRANCH  29  30
ATOM     30  C   UNL     1       6.232  -7.093   5.175  1.00  0.00    -0.000 C 
BRANCH  30  31
ATOM     31  C   UNL     1       5.390  -8.097   4.373  1.00  0.00    -0.003 C 
ATOM     32  C   UNL     1       3.906  -8.047   4.731  1.00  0.00     0.004 C 
ENDBRANCH  30  31
ENDBRANCH  29  30
ENDBRANCH  28  29
ENDBRANCH  27  28
ENDBRANCH  26  27
ENDBRANCH  25  26
ENDBRANCH  24  25
ENDBRANCH  23  24
ENDBRANCH  22  23
ENDBRANCH  21  22
ENDBRANCH  20  21
ENDBRANCH  19  20
ENDBRANCH  18  19
ENDBRANCH   1  18
TORSDOF 28
ENDMDL
MODEL 8
REMARK VINA RESULT:     1.610      1.865      3.990
REMARK INTER + INTRA:           2.598
REMARK INTER:                   3.308
REMARK INTRA:                  -0.709
REMARK UNBOUND:                -1.647
REMARK SMILES CCCCCCCCCCCCCCCCCCCCCCCCCCCCCC(=O)[O-]
REMARK SMILES IDX 16 1 17 2 18 3 19 4 20 5 21 6 22 7 23 8 24 9 25 10 26 11
REMARK SMILES IDX 27 12 28 13 29 14 30 15 31 16 32 17 15 18 14 19 13 20 12 21
REMARK SMILES IDX 11 22 10 23 9 24 8 25 7 26 6 27 5 28 4 29 3 30 2 31 1 32
REMARK H PARENT
REMARK Flexibility Score: inf
ROOT
ATOM      1  C   UNL     1      15.903  -6.402   8.797  1.00  0.00     0.000 C 
ENDROOT
BRANCH   1   2
ATOM      2  C   UNL     1      14.514  -7.072   8.721  1.00  0.00     0.000 C 
BRANCH   2   3
ATOM      3  C   UNL     1      14.477  -8.367   7.883  1.00  0.00     0.000 C 
BRANCH   3   4
ATOM      4  C   UNL     1      14.012  -8.214   6.417  1.00  0.00     0.000 C 
BRANCH   4   5
ATOM      5  C   UNL     1      12.743  -8.995   6.009  1.00  0.00     0.000 C 
BRANCH   5   6
ATOM      6  C   UNL     1      12.758  -9.552   4.573  1.00  0.00     0.000 C 
BRANCH   6   7
ATOM      7  C   UNL     1      11.365  -9.615   3.919  1.00  0.00     0.000 C 
BRANCH   7   8
ATOM      8  C   UNL     1      10.574  -8.309   4.087  1.00  0.00     0.000 C 
BRANCH   8   9
ATOM      9  C   UNL     1       9.201  -8.530   4.747  1.00  0.00     0.000 C 
BRANCH   9  10
ATOM     10  C   UNL     1       8.479  -9.772   4.203  1.00  0.00     0.000 C 
BRANCH  10  11
ATOM     11  C   UNL     1       6.978  -9.527   3.967  1.00  0.00     0.000 C 
BRANCH  11  12
ATOM     12  C   UNL     1       6.549  -8.084   4.291  1.00  0.00     0.000 C 
BRANCH  12  13
ATOM     13  C   UNL     1       5.502  -7.953   5.414  1.00  0.00     0.006 C 
BRANCH  13  14
ATOM     14  C   UNL     1       4.123  -7.511   4.902  1.00  0.00     0.053 C 
BRANCH  14  15
ATOM     15  C   UNL     1       4.159  -6.103   4.393  1.00  0.00     0.041 C 
ATOM     16  O   UNL     1       3.113  -5.400   4.397  1.00  0.00    -0.550 OA
ATOM     17  O   UNL     1       5.339  -5.580   3.875  1.00  0.00    -0.550 OA
ENDBRANCH  14  15
ENDBRANCH  13  14
ENDBRANCH  12  13
ENDBRANCH  11  12
ENDBRANCH  10  11
ENDBRANCH   9  10
ENDBRANCH   8   9
ENDBRANCH   7   8
ENDBRANCH   6   7
ENDBRANCH   5   6
ENDBRANCH   4   5
ENDBRANCH   3   4
ENDBRANCH   2   3
ENDBRANCH   1   2
BRANCH   1  18
ATOM     18  C   UNL     1      17.043  -7.241   8.189  1.00  0.00     0.000 C 
BRANCH  18  19
ATOM     19  C   UNL     1      17.984  -6.449   7.255  1.00  0.00     0.000 C 
BRANCH  19  20
ATOM     20  C   UNL     1      17.757  -6.734   5.754  1.00  0.00     0.000 C 
BRANCH  20  21
ATOM     21  C   UNL     1      16.435  -7.467   5.449  1.00  0.00     0.000 C 
BRANCH  21  22
ATOM     22  C   UNL     1      16.368  -8.144   4.070  1.00  0.00     0.000 C 
BRANCH  22  23
ATOM     23  C   UNL     1      16.559  -9.669   4.144  1.00  0.00     0.000 C 
BRANCH  23  24
ATOM     24  C   UNL     1      18.014 -10.095   3.875  1.00  0.00    -0.000 C 
BRANCH  24  25
ATOM     25  C   UNL     1      18.999  -9.829   5.032  1.00  0.00    -0.000 C 
BRANCH  25  26
ATOM     26  C   UNL     1      20.485 -10.057   4.699  1.00  0.00    -0.000 C 
BRANCH  26  27
ATOM     27  C   UNL     1      21.110  -8.883   3.923  1.00  0.00    -0.000 C 
BRANCH  27  28
ATOM     28  C   UNL     1      21.706  -7.801   4.841  1.00  0.00    -0.000 C 
BRANCH  28  29
ATOM     29  C   UNL     1      22.448  -6.659   4.123  1.00  0.00    -0.000 C 
BRANCH  29  30
ATOM     30  C   UNL     1      21.597  -5.386   3.980  1.00  0.00    -0.000 C 
BRANCH  30  31
ATOM     31  C   UNL     1      20.466  -5.317   5.018  1.00  0.00    -0.003 C 
ATOM     32  C   UNL     1      20.885  -4.610   6.306  1.00  0.00     0.004 C 
ENDBRANCH  30  31
ENDBRANCH  29  30
ENDBRANCH  28  29
ENDBRANCH  27  28
ENDBRANCH  26  27
ENDBRANCH  25  26
ENDBRANCH  24  25
ENDBRANCH  23  24
ENDBRANCH  22  23
ENDBRANCH  21  22
ENDBRANCH  20  21
ENDBRANCH  19  20
ENDBRANCH  18  19
ENDBRANCH   1  18
TORSDOF 28
ENDMDL
