MODEL 1
REMARK VINA RESULT:    -3.822      0.000      0.000
REMARK INTER + INTRA:          -3.822
REMARK INTER:                  -3.822
REMARK INTRA:                   0.000
REMARK UNBOUND:                 0.000
REMARK SMILES CC1=CC(=O)[C@@H]2C[C@H]1C2(C)C
REMARK SMILES IDX 1 1 2 2 3 3 4 4 5 5 6 6 7 7 8 8 9 9 10 10 11 11
REMARK H PARENT
REMARK Flexibility Score: inf
ROOT
ATOM      1  C   UNL     1      83.177  31.052  64.742  1.00  0.00     0.040 C 
ATOM      2  C   UNL     1      84.506  31.529  65.236  1.00  0.00    -0.066 C 
ATOM      3  C   UNL     1      84.729  31.759  66.559  1.00  0.00     0.047 C 
ATOM      4  C   UNL     1      86.111  32.204  66.931  1.00  0.00     0.159 C 
ATOM      5  O   UNL     1      86.452  32.409  68.125  1.00  0.00    -0.295 OA
ATOM      6  C   UNL     1      87.077  32.387  65.760  1.00  0.00     0.067 C 
ATOM      7  C   UNL     1      86.254  33.167  64.711  1.00  0.00     0.021 C 
ATOM      8  C   UNL     1      85.682  31.800  64.272  1.00  0.00     0.022 C 
ATOM      9  C   UNL     1      86.975  31.142  64.834  1.00  0.00    -0.019 C 
ATOM     10  C   UNL     1      88.114  31.091  63.785  1.00  0.00     0.012 C 
ATOM     11  C   UNL     1      86.858  29.738  65.493  1.00  0.00     0.012 C 
ENDROOT
TORSDOF 0
ENDMDL
MODEL 2
REMARK VINA RESULT:    -3.773      1.709      3.509
REMARK INTER + INTRA:          -3.773
REMARK INTER:                  -3.773
REMARK INTRA:                   0.000
REMARK UNBOUND:                 0.000
REMARK SMILES CC1=CC(=O)[C@@H]2C[C@H]1C2(C)C
REMARK SMILES IDX 1 1 2 2 3 3 4 4 5 5 6 6 7 7 8 8 9 9 10 10 11 11
REMARK H PARENT
REMARK Flexibility Score: inf
ROOT
ATOM      1  C   UNL     1      88.125  34.294  65.137  1.00  0.00     0.040 C 
ATOM      2  C   UNL     1      87.401  32.986  65.105  1.00  0.00    -0.066 C 
ATOM      3  C   UNL     1      88.075  31.804  65.056  1.00  0.00     0.047 C 
ATOM      4  C   UNL     1      87.237  30.561  65.060  1.00  0.00     0.159 C 
ATOM      5  O   UNL     1      87.744  29.409  65.057  1.00  0.00    -0.295 OA
ATOM      6  C   UNL     1      85.726  30.792  65.069  1.00  0.00     0.067 C 
ATOM      7  C   UNL     1      85.505  31.888  64.004  1.00  0.00     0.021 C 
ATOM      8  C   UNL     1      85.859  32.909  65.107  1.00  0.00     0.022 C 
ATOM      9  C   UNL     1      85.393  31.855  66.153  1.00  0.00    -0.019 C 
ATOM     10  C   UNL     1      83.874  31.946  66.445  1.00  0.00     0.012 C 
ATOM     11  C   UNL     1      86.147  31.786  67.512  1.00  0.00     0.012 C 
ENDROOT
TORSDOF 0
ENDMDL
MODEL 3
REMARK VINA RESULT:    -3.702      1.144      2.816
REMARK INTER + INTRA:          -3.702
REMARK INTER:                  -3.702
REMARK INTRA:                   0.000
REMARK UNBOUND:                 0.000
REMARK SMILES CC1=CC(=O)[C@@H]2C[C@H]1C2(C)C
REMARK SMILES IDX 1 1 2 2 3 3 4 4 5 5 6 6 7 7 8 8 9 9 10 10 11 11
REMARK H PARENT
REMARK Flexibility Score: inf
ROOT
ATOM      1  C   UNL     1      87.975  29.663  65.276  1.00  0.00     0.040 C 
ATOM      2  C   UNL     1      86.808  30.548  65.577  1.00  0.00    -0.066 C 
ATOM      3  C   UNL     1      86.549  30.974  66.844  1.00  0.00     0.047 C 
ATOM      4  C   UNL     1      85.369  31.882  67.010  1.00  0.00     0.159 C 
ATOM      5  O   UNL     1      85.051  32.374  68.124  1.00  0.00    -0.295 OA
ATOM      6  C   UNL     1      84.579  32.170  65.733  1.00  0.00     0.067 C 
ATOM      7  C   UNL     1      84.421  30.786  65.067  1.00  0.00     0.021 C 
ATOM      8  C   UNL     1      85.830  31.007  64.473  1.00  0.00     0.022 C 
ATOM      9  C   UNL     1      85.583  32.537  64.603  1.00  0.00    -0.019 C 
ATOM     10  C   UNL     1      84.877  33.129  63.356  1.00  0.00     0.012 C 
ATOM     11  C   UNL     1      86.792  33.450  64.956  1.00  0.00     0.012 C 
ENDROOT
TORSDOF 0
ENDMDL
MODEL 4
REMARK VINA RESULT:    -3.603      1.739      3.148
REMARK INTER + INTRA:          -3.603
REMARK INTER:                  -3.603
REMARK INTRA:                   0.000
REMARK UNBOUND:                 0.000
REMARK SMILES CC1=CC(=O)[C@@H]2C[C@H]1C2(C)C
REMARK SMILES IDX 1 1 2 2 3 3 4 4 5 5 6 6 7 7 8 8 9 9 10 10 11 11
REMARK H PARENT
REMARK Flexibility Score: inf
ROOT
ATOM      1  C   UNL     1      87.977  34.504  65.123  1.00  0.00     0.040 C 
ATOM      2  C   UNL     1      87.145  33.275  65.306  1.00  0.00    -0.066 C 
ATOM      3  C   UNL     1      85.946  33.131  64.675  1.00  0.00     0.047 C 
ATOM      4  C   UNL     1      85.222  31.841  64.914  1.00  0.00     0.159 C 
ATOM      5  O   UNL     1      84.126  31.572  64.356  1.00  0.00    -0.295 OA
ATOM      6  C   UNL     1      85.908  30.874  65.879  1.00  0.00     0.067 C 
ATOM      7  C   UNL     1      86.340  31.766  67.063  1.00  0.00     0.021 C 
ATOM      8  C   UNL     1      87.591  32.120  66.228  1.00  0.00     0.022 C 
ATOM      9  C   UNL     1      87.409  30.764  65.486  1.00  0.00    -0.019 C 
ATOM     10  C   UNL     1      88.125  29.596  66.210  1.00  0.00     0.012 C 
ATOM     11  C   UNL     1      87.775  30.698  63.976  1.00  0.00     0.012 C 
ENDROOT
TORSDOF 0
ENDMDL
MODEL 5
REMARK VINA RESULT:    -3.505      1.612      2.366
REMARK INTER + INTRA:          -3.505
REMARK INTER:                  -3.505
REMARK INTRA:                   0.000
REMARK UNBOUND:                 0.000
REMARK SMILES CC1=CC(=O)[C@@H]2C[C@H]1C2(C)C
REMARK SMILES IDX 1 1 2 2 3 3 4 4 5 5 6 6 7 7 8 8 9 9 10 10 11 11
REMARK H PARENT
REMARK Flexibility Score: inf
ROOT
ATOM      1  C   UNL     1      83.311  30.371  64.647  1.00  0.00     0.040 C 
ATOM      2  C   UNL     1      84.600  31.125  64.727  1.00  0.00    -0.066 C 
ATOM      3  C   UNL     1      84.669  32.447  64.411  1.00  0.00     0.047 C 
ATOM      4  C   UNL     1      86.012  33.096  64.561  1.00  0.00     0.159 C 
ATOM      5  O   UNL     1      86.194  34.321  64.339  1.00  0.00    -0.295 OA
ATOM      6  C   UNL     1      87.142  32.167  65.005  1.00  0.00     0.067 C 
ATOM      7  C   UNL     1      86.967  30.912  64.122  1.00  0.00     0.021 C 
ATOM      8  C   UNL     1      85.917  30.439  65.152  1.00  0.00     0.022 C 
ATOM      9  C   UNL     1      86.642  31.320  66.210  1.00  0.00    -0.019 C 
ATOM     10  C   UNL     1      87.793  30.563  66.918  1.00  0.00     0.012 C 
ATOM     11  C   UNL     1      85.779  32.021  67.298  1.00  0.00     0.012 C 
ENDROOT
TORSDOF 0
ENDMDL
MODEL 6
REMARK VINA RESULT:    -3.485      1.465      3.298
REMARK INTER + INTRA:          -3.485
REMARK INTER:                  -3.485
REMARK INTRA:                   0.000
REMARK UNBOUND:                 0.000
REMARK SMILES CC1=CC(=O)[C@@H]2C[C@H]1C2(C)C
REMARK SMILES IDX 1 1 2 2 3 3 4 4 5 5 6 6 7 7 8 8 9 9 10 10 11 11
REMARK H PARENT
REMARK Flexibility Score: inf
ROOT
ATOM      1  C   UNL     1      87.981  29.494  64.003  1.00  0.00     0.040 C 
ATOM      2  C   UNL     1      87.482  30.676  64.772  1.00  0.00    -0.066 C 
ATOM      3  C   UNL     1      88.125  31.875  64.725  1.00  0.00     0.047 C 
ATOM      4  C   UNL     1      87.509  32.990  65.515  1.00  0.00     0.159 C 
ATOM      5  O   UNL     1      87.987  34.154  65.519  1.00  0.00    -0.295 OA
ATOM      6  C   UNL     1      86.260  32.614  66.312  1.00  0.00     0.067 C 
ATOM      7  C   UNL     1      86.634  31.279  66.992  1.00  0.00     0.021 C 
ATOM      8  C   UNL     1      86.228  30.591  65.670  1.00  0.00     0.022 C 
ATOM      9  C   UNL     1      85.304  31.810  65.385  1.00  0.00    -0.019 C 
ATOM     10  C   UNL     1      83.893  31.636  66.001  1.00  0.00     0.012 C 
ATOM     11  C   UNL     1      85.137  32.277  63.911  1.00  0.00     0.012 C 
ENDROOT
TORSDOF 0
ENDMDL
MODEL 7
REMARK VINA RESULT:    -3.261      1.378      2.581
REMARK INTER + INTRA:          -3.261
REMARK INTER:                  -3.261
REMARK INTRA:                   0.000
REMARK UNBOUND:                 0.000
REMARK SMILES CC1=CC(=O)[C@@H]2C[C@H]1C2(C)C
REMARK SMILES IDX 1 1 2 2 3 3 4 4 5 5 6 6 7 7 8 8 9 9 10 10 11 11
REMARK H PARENT
REMARK Flexibility Score: inf
ROOT
ATOM      1  C   UNL     1      87.650  29.165  64.724  1.00  0.00     0.040 C 
ATOM      2  C   UNL     1      86.885  30.407  65.053  1.00  0.00    -0.066 C 
ATOM      3  C   UNL     1      85.851  30.390  65.939  1.00  0.00     0.047 C 
ATOM      4  C   UNL     1      85.185  31.705  66.207  1.00  0.00     0.159 C 
ATOM      5  O   UNL     1      84.245  31.825  67.035  1.00  0.00    -0.295 OA
ATOM      6  C   UNL     1      85.728  32.889  65.407  1.00  0.00     0.067 C 
ATOM      7  C   UNL     1      85.849  32.346  63.966  1.00  0.00     0.021 C 
ATOM      8  C   UNL     1      87.215  31.764  64.394  1.00  0.00     0.022 C 
ATOM      9  C   UNL     1      87.281  32.870  65.486  1.00  0.00    -0.019 C 
ATOM     10  C   UNL     1      87.915  34.182  64.960  1.00  0.00     0.012 C 
ATOM     11  C   UNL     1      87.947  32.519  66.847  1.00  0.00     0.012 C 
ENDROOT
TORSDOF 0
ENDMDL
MODEL 8
REMARK VINA RESULT:    -3.110      1.924      2.899
REMARK INTER + INTRA:          -3.110
REMARK INTER:                  -3.110
REMARK INTRA:                   0.000
REMARK UNBOUND:                 0.000
REMARK SMILES CC1=CC(=O)[C@@H]2C[C@H]1C2(C)C
REMARK SMILES IDX 1 1 2 2 3 3 4 4 5 5 6 6 7 7 8 8 9 9 10 10 11 11
REMARK H PARENT
REMARK Flexibility Score: inf
ROOT
ATOM      1  C   UNL     1      84.235  31.986  67.573  1.00  0.00     0.040 C 
ATOM      2  C   UNL     1      85.459  31.749  66.746  1.00  0.00    -0.066 C 
ATOM      3  C   UNL     1      85.589  30.632  65.977  1.00  0.00     0.047 C 
ATOM      4  C   UNL     1      86.847  30.525  65.171  1.00  0.00     0.159 C 
ATOM      5  O   UNL     1      87.066  29.561  64.392  1.00  0.00    -0.295 OA
ATOM      6  C   UNL     1      87.844  31.669  65.358  1.00  0.00     0.067 C 
ATOM      7  C   UNL     1      87.903  31.871  66.888  1.00  0.00     0.021 C 
ATOM      8  C   UNL     1      86.639  32.745  66.735  1.00  0.00     0.022 C 
ATOM      9  C   UNL     1      87.073  33.017  65.266  1.00  0.00    -0.019 C 
ATOM     10  C   UNL     1      88.025  34.234  65.149  1.00  0.00     0.012 C 
ATOM     11  C   UNL     1      85.964  33.162  64.186  1.00  0.00     0.012 C 
ENDROOT
TORSDOF 0
ENDMDL
MODEL 9
REMARK VINA RESULT:    -2.643      1.834      2.704
REMARK INTER + INTRA:          -2.643
REMARK INTER:                  -2.643
REMARK INTRA:                   0.000
REMARK UNBOUND:                 0.000
REMARK SMILES CC1=CC(=O)[C@@H]2C[C@H]1C2(C)C
REMARK SMILES IDX 1 1 2 2 3 3 4 4 5 5 6 6 7 7 8 8 9 9 10 10 11 11
REMARK H PARENT
REMARK Flexibility Score: inf
ROOT
ATOM      1  C   UNL     1      84.749  33.469  63.266  1.00  0.00     0.040 C 
ATOM      2  C   UNL     1      85.206  32.463  64.275  1.00  0.00    -0.066 C 
ATOM      3  C   UNL     1      84.993  31.131  64.094  1.00  0.00     0.047 C 
ATOM      4  C   UNL     1      85.525  30.223  65.161  1.00  0.00     0.159 C 
ATOM      5  O   UNL     1      85.427  28.970  65.088  1.00  0.00    -0.295 OA
ATOM      6  C   UNL     1      86.199  30.924  66.341  1.00  0.00     0.067 C 
ATOM      7  C   UNL     1      85.233  32.076  66.696  1.00  0.00     0.021 C 
ATOM      8  C   UNL     1      85.924  32.884  65.576  1.00  0.00     0.022 C 
ATOM      9  C   UNL     1      87.182  31.993  65.786  1.00  0.00    -0.019 C 
ATOM     10  C   UNL     1      88.125  32.553  66.880  1.00  0.00     0.012 C 
ATOM     11  C   UNL     1      88.042  31.632  64.541  1.00  0.00     0.012 C 
ENDROOT
TORSDOF 0
ENDMDL
