MODEL 1
REMARK VINA RESULT:    -4.895      0.000      0.000
REMARK INTER + INTRA:          -5.757
REMARK INTER:                  -5.610
REMARK INTRA:                  -0.147
REMARK UNBOUND:                -0.147
REMARK SMILES O=C([O-])C=Cc1ccc(O)cc1
REMARK SMILES IDX 6 1 7 2 12 3 8 4 11 5 9 6 5 7 4 8 2 9 1 10 3 11 10 12
REMARK H PARENT 10 13
REMARK Flexibility Score: inf
ROOT
ATOM      1  C   UNL     1       5.679   3.517  -6.855  1.00  0.00    -0.025 A 
ATOM      2  C   UNL     1       4.385   4.055  -6.756  1.00  0.00     0.012 A 
ATOM      3  C   UNL     1       6.446   3.798  -8.005  1.00  0.00     0.012 A 
ATOM      4  C   UNL     1       3.876   4.876  -7.766  1.00  0.00     0.047 A 
ATOM      5  C   UNL     1       5.932   4.619  -9.014  1.00  0.00     0.047 A 
ATOM      6  C   UNL     1       4.648   5.162  -8.896  1.00  0.00     0.115 A 
ENDROOT
BRANCH   1   7
ATOM      7  C   UNL     1       6.170   2.643  -5.761  1.00  0.00     0.010 C 
ATOM      8  C   UNL     1       5.772   2.749  -4.486  1.00  0.00     0.025 C 
BRANCH   8   9
ATOM      9  C   UNL     1       6.279   1.852  -3.436  1.00  0.00     0.064 C 
ATOM     10  O   UNL     1       7.433   2.032  -2.968  1.00  0.00    -0.545 OA
ATOM     11  O   UNL     1       5.502   0.805  -2.950  1.00  0.00    -0.545 OA
ENDBRANCH   8   9
ENDBRANCH   1   7
BRANCH   6  12
ATOM     12  O   UNL     1       4.128   5.982  -9.896  1.00  0.00    -0.508 OA
ATOM     13  H   UNL     1       4.729   6.556 -10.474  1.00  0.00     0.293 HD
ENDBRANCH   6  12
TORSDOF 3
ENDMDL
MODEL 2
REMARK VINA RESULT:    -4.810     18.917     20.178
REMARK INTER + INTRA:          -5.661
REMARK INTER:                  -5.508
REMARK INTRA:                  -0.152
REMARK UNBOUND:                -0.147
REMARK SMILES O=C([O-])C=Cc1ccc(O)cc1
REMARK SMILES IDX 6 1 7 2 12 3 8 4 11 5 9 6 5 7 4 8 2 9 1 10 3 11 10 12
REMARK H PARENT 10 13
REMARK Flexibility Score: inf
ROOT
ATOM      1  C   UNL     1      20.140  -0.716 -20.031  1.00  0.00    -0.025 A 
ATOM      2  C   UNL     1      20.725   0.550 -19.867  1.00  0.00     0.012 A 
ATOM      3  C   UNL     1      20.305  -1.389 -21.259  1.00  0.00     0.012 A 
ATOM      4  C   UNL     1      21.480   1.123 -20.895  1.00  0.00     0.047 A 
ATOM      5  C   UNL     1      21.061  -0.812 -22.285  1.00  0.00     0.047 A 
ATOM      6  C   UNL     1      21.652   0.444 -22.105  1.00  0.00     0.115 A 
ENDROOT
BRANCH   1   7
ATOM      7  C   UNL     1      19.338  -1.278 -18.914  1.00  0.00     0.010 C 
ATOM      8  C   UNL     1      19.030  -0.597 -17.802  1.00  0.00     0.025 C 
BRANCH   8   9
ATOM      9  C   UNL     1      18.222  -1.191 -16.726  1.00  0.00     0.064 C 
ATOM     10  O   UNL     1      17.492  -0.451 -16.016  1.00  0.00    -0.545 OA
ATOM     11  O   UNL     1      18.253  -2.559 -16.476  1.00  0.00    -0.545 OA
ENDBRANCH   8   9
ENDBRANCH   1   7
BRANCH   6  12
ATOM     12  O   UNL     1      22.408   1.026 -23.120  1.00  0.00    -0.508 OA
ATOM     13  H   UNL     1      23.141   1.695 -22.917  1.00  0.00     0.293 HD
ENDBRANCH   6  12
TORSDOF 3
ENDMDL
MODEL 3
REMARK VINA RESULT:    -4.666      9.853     11.650
REMARK INTER + INTRA:          -5.495
REMARK INTER:                  -5.360
REMARK INTRA:                  -0.136
REMARK UNBOUND:                -0.147
REMARK SMILES O=C([O-])C=Cc1ccc(O)cc1
REMARK SMILES IDX 6 1 7 2 12 3 8 4 11 5 9 6 5 7 4 8 2 9 1 10 3 11 10 12
REMARK H PARENT 10 13
REMARK Flexibility Score: inf
ROOT
ATOM      1  C   UNL     1       8.671  -5.402 -10.594  1.00  0.00    -0.025 A 
ATOM      2  C   UNL     1      10.032  -5.752 -10.614  1.00  0.00     0.012 A 
ATOM      3  C   UNL     1       8.002  -5.341  -9.354  1.00  0.00     0.012 A 
ATOM      4  C   UNL     1      10.717  -6.011  -9.424  1.00  0.00     0.047 A 
ATOM      5  C   UNL     1       8.692  -5.603  -8.165  1.00  0.00     0.047 A 
ATOM      6  C   UNL     1      10.051  -5.936  -8.197  1.00  0.00     0.115 A 
ENDROOT
BRANCH   1   7
ATOM      7  C   UNL     1       7.985  -5.145 -11.885  1.00  0.00     0.010 C 
ATOM      8  C   UNL     1       7.789  -3.922 -12.395  1.00  0.00     0.025 C 
BRANCH   8   9
ATOM      9  C   UNL     1       7.113  -3.717 -13.686  1.00  0.00     0.064 C 
ATOM     10  O   UNL     1       7.136  -4.630 -14.551  1.00  0.00    -0.545 OA
ATOM     11  O   UNL     1       6.449  -2.527 -13.967  1.00  0.00    -0.545 OA
ENDBRANCH   8   9
ENDBRANCH   1   7
BRANCH   6  12
ATOM     12  O   UNL     1      10.747  -6.196  -7.018  1.00  0.00    -0.508 OA
ATOM     13  H   UNL     1      11.734  -6.424  -7.026  1.00  0.00     0.293 HD
ENDBRANCH   6  12
TORSDOF 3
ENDMDL
MODEL 4
REMARK VINA RESULT:    -4.658     10.969     12.526
REMARK INTER + INTRA:          -5.487
REMARK INTER:                  -5.342
REMARK INTRA:                  -0.144
REMARK UNBOUND:                -0.147
REMARK SMILES O=C([O-])C=Cc1ccc(O)cc1
REMARK SMILES IDX 6 1 7 2 12 3 8 4 11 5 9 6 5 7 4 8 2 9 1 10 3 11 10 12
REMARK H PARENT 10 13
REMARK Flexibility Score: inf
ROOT
ATOM      1  C   UNL     1       8.411  -7.235  -8.356  1.00  0.00    -0.025 A 
ATOM      2  C   UNL     1       9.802  -7.055  -8.428  1.00  0.00     0.012 A 
ATOM      3  C   UNL     1       7.695  -6.600  -7.320  1.00  0.00     0.012 A 
ATOM      4  C   UNL     1      10.462  -6.239  -7.505  1.00  0.00     0.047 A 
ATOM      5  C   UNL     1       8.360  -5.786  -6.398  1.00  0.00     0.047 A 
ATOM      6  C   UNL     1       9.744  -5.602  -6.489  1.00  0.00     0.115 A 
ENDROOT
BRANCH   1   7
ATOM      7  C   UNL     1       7.757  -8.119  -9.354  1.00  0.00     0.010 C 
ATOM      8  C   UNL     1       7.947  -8.019 -10.676  1.00  0.00     0.025 C 
BRANCH   8   9
ATOM      9  C   UNL     1       7.286  -8.926 -11.628  1.00  0.00     0.064 C 
ATOM     10  O   UNL     1       6.217  -9.503 -11.296  1.00  0.00    -0.545 OA
ATOM     11  O   UNL     1       7.822  -9.158 -12.890  1.00  0.00    -0.545 OA
ENDBRANCH   8   9
ENDBRANCH   1   7
BRANCH   6  12
ATOM     12  O   UNL     1      10.415  -4.791  -5.576  1.00  0.00    -0.508 OA
ATOM     13  H   UNL     1      10.642  -3.828  -5.790  1.00  0.00     0.293 HD
ENDBRANCH   6  12
TORSDOF 3
ENDMDL
MODEL 5
REMARK VINA RESULT:    -4.512      2.273      6.612
REMARK INTER + INTRA:          -5.319
REMARK INTER:                  -5.184
REMARK INTRA:                  -0.135
REMARK UNBOUND:                -0.147
REMARK SMILES O=C([O-])C=Cc1ccc(O)cc1
REMARK SMILES IDX 6 1 7 2 12 3 8 4 11 5 9 6 5 7 4 8 2 9 1 10 3 11 10 12
REMARK H PARENT 10 13
REMARK Flexibility Score: inf
ROOT
ATOM      1  C   UNL     1       5.474   5.293  -8.871  1.00  0.00    -0.025 A 
ATOM      2  C   UNL     1       6.678   4.568  -8.860  1.00  0.00     0.012 A 
ATOM      3  C   UNL     1       4.482   4.979  -7.919  1.00  0.00     0.012 A 
ATOM      4  C   UNL     1       6.898   3.571  -7.906  1.00  0.00     0.047 A 
ATOM      5  C   UNL     1       4.707   3.980  -6.967  1.00  0.00     0.047 A 
ATOM      6  C   UNL     1       5.916   3.275  -6.957  1.00  0.00     0.115 A 
ENDROOT
BRANCH   1   7
ATOM      7  C   UNL     1       5.282   6.336  -9.910  1.00  0.00     0.010 C 
ATOM      8  C   UNL     1       4.814   7.565  -9.656  1.00  0.00     0.025 C 
BRANCH   8   9
ATOM      9  C   UNL     1       4.651   8.571 -10.717  1.00  0.00     0.064 C 
ATOM     10  O   UNL     1       5.156   9.715 -10.571  1.00  0.00    -0.545 OA
ATOM     11  O   UNL     1       3.947   8.280 -11.880  1.00  0.00    -0.545 OA
ENDBRANCH   8   9
ENDBRANCH   1   7
BRANCH   6  12
ATOM     12  O   UNL     1       6.150   2.278  -6.011  1.00  0.00    -0.508 OA
ATOM     13  H   UNL     1       6.985   1.706  -6.042  1.00  0.00     0.293 HD
ENDBRANCH   6  12
TORSDOF 3
ENDMDL
MODEL 6
REMARK VINA RESULT:    -4.485      9.845     11.678
REMARK INTER + INTRA:          -5.288
REMARK INTER:                  -5.150
REMARK INTRA:                  -0.138
REMARK UNBOUND:                -0.147
REMARK SMILES O=C([O-])C=Cc1ccc(O)cc1
REMARK SMILES IDX 6 1 7 2 12 3 8 4 11 5 9 6 5 7 4 8 2 9 1 10 3 11 10 12
REMARK H PARENT 10 13
REMARK Flexibility Score: inf
ROOT
ATOM      1  C   UNL     1       8.483  -6.481  -7.413  1.00  0.00    -0.025 A 
ATOM      2  C   UNL     1       8.021  -7.798  -7.247  1.00  0.00     0.012 A 
ATOM      3  C   UNL     1       8.527  -5.629  -6.290  1.00  0.00     0.012 A 
ATOM      4  C   UNL     1       7.636  -8.263  -5.987  1.00  0.00     0.047 A 
ATOM      5  C   UNL     1       8.139  -6.099  -5.031  1.00  0.00     0.047 A 
ATOM      6  C   UNL     1       7.695  -7.417  -4.876  1.00  0.00     0.115 A 
ENDROOT
BRANCH   1   7
ATOM      7  C   UNL     1       8.872  -6.030  -8.773  1.00  0.00     0.010 C 
ATOM      8  C   UNL     1       8.071  -5.324  -9.581  1.00  0.00     0.025 C 
BRANCH   8   9
ATOM      9  C   UNL     1       8.503  -4.888 -10.918  1.00  0.00     0.064 C 
ATOM     10  O   UNL     1       9.731  -4.868 -11.198  1.00  0.00    -0.545 OA
ATOM     11  O   UNL     1       7.578  -4.496 -11.880  1.00  0.00    -0.545 OA
ENDBRANCH   8   9
ENDBRANCH   1   7
BRANCH   6  12
ATOM     12  O   UNL     1       7.308  -7.895  -3.625  1.00  0.00    -0.508 OA
ATOM     13  H   UNL     1       6.721  -8.714  -3.531  1.00  0.00     0.293 HD
ENDBRANCH   6  12
TORSDOF 3
ENDMDL
MODEL 7
REMARK VINA RESULT:    -4.440     10.036     11.905
REMARK INTER + INTRA:          -5.236
REMARK INTER:                  -5.097
REMARK INTRA:                  -0.139
REMARK UNBOUND:                -0.147
REMARK SMILES O=C([O-])C=Cc1ccc(O)cc1
REMARK SMILES IDX 6 1 7 2 12 3 8 4 11 5 9 6 5 7 4 8 2 9 1 10 3 11 10 12
REMARK H PARENT 10 13
REMARK Flexibility Score: inf
ROOT
ATOM      1  C   UNL     1       8.379  -6.866  -7.639  1.00  0.00    -0.025 A 
ATOM      2  C   UNL     1       8.369  -6.035  -6.506  1.00  0.00     0.012 A 
ATOM      3  C   UNL     1       8.013  -8.220  -7.492  1.00  0.00     0.012 A 
ATOM      4  C   UNL     1       7.978  -6.534  -5.261  1.00  0.00     0.047 A 
ATOM      5  C   UNL     1       7.623  -8.715  -6.243  1.00  0.00     0.047 A 
ATOM      6  C   UNL     1       7.602  -7.873  -5.125  1.00  0.00     0.115 A 
ENDROOT
BRANCH   1   7
ATOM      7  C   UNL     1       8.812  -6.293  -8.938  1.00  0.00     0.010 C 
ATOM      8  C   UNL     1       8.074  -5.436  -9.657  1.00  0.00     0.025 C 
BRANCH   8   9
ATOM      9  C   UNL     1       8.549  -4.883 -10.935  1.00  0.00     0.064 C 
ATOM     10  O   UNL     1       9.786  -4.816 -11.161  1.00  0.00    -0.545 OA
ATOM     11  O   UNL     1       7.655  -4.432 -11.899  1.00  0.00    -0.545 OA
ENDBRANCH   8   9
ENDBRANCH   1   7
BRANCH   6  12
ATOM     12  O   UNL     1       7.214  -8.357  -3.877  1.00  0.00    -0.508 OA
ATOM     13  H   UNL     1       7.488  -9.278  -3.559  1.00  0.00     0.293 HD
ENDBRANCH   6  12
TORSDOF 3
ENDMDL
MODEL 8
REMARK VINA RESULT:    -4.388      9.989     10.492
REMARK INTER + INTRA:          -5.176
REMARK INTER:                  -5.027
REMARK INTRA:                  -0.149
REMARK UNBOUND:                -0.147
REMARK SMILES O=C([O-])C=Cc1ccc(O)cc1
REMARK SMILES IDX 6 1 7 2 12 3 8 4 11 5 9 6 5 7 4 8 2 9 1 10 3 11 10 12
REMARK H PARENT 10 13
REMARK Flexibility Score: inf
ROOT
ATOM      1  C   UNL     1       8.434  -6.084 -10.371  1.00  0.00    -0.025 A 
ATOM      2  C   UNL     1       8.089  -4.782 -10.773  1.00  0.00     0.012 A 
ATOM      3  C   UNL     1       8.376  -7.126 -11.319  1.00  0.00     0.012 A 
ATOM      4  C   UNL     1       7.719  -4.521 -12.096  1.00  0.00     0.047 A 
ATOM      5  C   UNL     1       8.004  -6.860 -12.641  1.00  0.00     0.047 A 
ATOM      6  C   UNL     1       7.677  -5.557 -13.033  1.00  0.00     0.115 A 
ENDROOT
BRANCH   1   7
ATOM      7  C   UNL     1       8.811  -6.313  -8.954  1.00  0.00     0.010 C 
ATOM      8  C   UNL     1       8.409  -5.534  -7.940  1.00  0.00     0.025 C 
BRANCH   8   9
ATOM      9  C   UNL     1       8.798  -5.807  -6.548  1.00  0.00     0.064 C 
ATOM     10  O   UNL     1       9.939  -5.463  -6.143  1.00  0.00    -0.545 OA
ATOM     11  O   UNL     1       7.926  -6.440  -5.670  1.00  0.00    -0.545 OA
ENDBRANCH   8   9
ENDBRANCH   1   7
BRANCH   6  12
ATOM     12  O   UNL     1       7.307  -5.282 -14.348  1.00  0.00    -0.508 OA
ATOM     13  H   UNL     1       6.908  -4.389 -14.609  1.00  0.00     0.293 HD
ENDBRANCH   6  12
TORSDOF 3
ENDMDL
