MODEL 1
REMARK VINA RESULT:    -4.607      0.000      0.000
REMARK INTER + INTRA:          -6.363
REMARK INTER:                  -5.954
REMARK INTRA:                  -0.409
REMARK UNBOUND:                -0.409
REMARK SMILES CO[C@]1(CO)O[C@@H](CO)[C@@H](O)[C@@H]1O
REMARK SMILES IDX 3 1 12 2 10 3 7 4 6 5 2 6 1 7 4 8 5 9 13 11 11 13 8 15 9 16
REMARK H PARENT 5 10 13 12 11 14 9 17
REMARK Flexibility Score: inf
ROOT
ATOM      1  C   UNL     1     106.965  53.847  -0.606  1.00  0.00     0.221 C 
ATOM      2  C   UNL     1     108.398  53.564  -0.138  1.00  0.00     0.207 C 
ATOM      3  C   UNL     1     108.492  52.071  -0.299  1.00  0.00     0.180 C 
ATOM      4  C   UNL     1     107.554  51.805  -1.485  1.00  0.00     0.179 C 
ATOM      5  O   UNL     1     106.666  52.897  -1.616  1.00  0.00    -0.337 OA
ENDROOT
BRANCH   1   6
ATOM      6  O   UNL     1     106.086  53.715   0.512  1.00  0.00    -0.349 OA
ATOM      7  C   UNL     1     105.472  54.935   0.876  1.00  0.00     0.198 C 
ENDBRANCH   1   6
BRANCH   1   8
ATOM      8  C   UNL     1     106.871  55.271  -1.199  1.00  0.00     0.224 C 
BRANCH   8   9
ATOM      9  O   UNL     1     106.849  55.232  -2.602  1.00  0.00    -0.391 OA
ATOM     10  H   UNL     1     106.729  56.168  -2.910  1.00  0.00     0.210 HD
ENDBRANCH   8   9
ENDBRANCH   1   8
BRANCH   2  11
ATOM     11  O   UNL     1     108.596  53.953   1.197  1.00  0.00    -0.385 OA
ATOM     12  H   UNL     1     108.081  53.315   1.757  1.00  0.00     0.211 HD
ENDBRANCH   2  11
BRANCH   3  13
ATOM     13  O   UNL     1     109.815  51.663  -0.541  1.00  0.00    -0.387 OA
ATOM     14  H   UNL     1     109.857  51.388  -1.493  1.00  0.00     0.211 HD
ENDBRANCH   3  13
BRANCH   4  15
ATOM     15  C   UNL     1     108.279  51.605  -2.826  1.00  0.00     0.191 C 
BRANCH  15  16
ATOM     16  O   UNL     1     107.896  52.598  -3.737  1.00  0.00    -0.394 OA
ATOM     17  H   UNL     1     108.643  53.250  -3.764  1.00  0.00     0.210 HD
ENDBRANCH  15  16
ENDBRANCH   4  15
TORSDOF 7
ENDMDL
MODEL 2
REMARK VINA RESULT:    -4.602      1.373      4.615
REMARK INTER + INTRA:          -6.357
REMARK INTER:                  -6.009
REMARK INTRA:                  -0.348
REMARK UNBOUND:                -0.409
REMARK SMILES CO[C@]1(CO)O[C@@H](CO)[C@@H](O)[C@@H]1O
REMARK SMILES IDX 3 1 12 2 10 3 7 4 6 5 2 6 1 7 4 8 5 9 13 11 11 13 8 15 9 16
REMARK H PARENT 5 10 13 12 11 14 9 17
REMARK Flexibility Score: inf
ROOT
ATOM      1  C   UNL     1     106.841  53.845  -0.411  1.00  0.00     0.221 C 
ATOM      2  C   UNL     1     106.759  55.173  -1.172  1.00  0.00     0.207 C 
ATOM      3  C   UNL     1     105.327  55.575  -0.950  1.00  0.00     0.180 C 
ATOM      4  C   UNL     1     105.025  54.975   0.431  1.00  0.00     0.179 C 
ATOM      5  O   UNL     1     105.959  53.948   0.696  1.00  0.00    -0.337 OA
ENDROOT
BRANCH   1   6
ATOM      6  O   UNL     1     106.455  52.790  -1.292  1.00  0.00    -0.349 OA
ATOM      7  C   UNL     1     107.491  51.857  -1.522  1.00  0.00     0.198 C 
ENDBRANCH   1   6
BRANCH   1   8
ATOM      8  C   UNL     1     108.281  53.616   0.104  1.00  0.00     0.224 C 
BRANCH   8   9
ATOM      9  O   UNL     1     108.331  53.676   1.505  1.00  0.00    -0.391 OA
ATOM     10  H   UNL     1     108.639  52.786   1.817  1.00  0.00     0.210 HD
ENDBRANCH   8   9
ENDBRANCH   1   8
BRANCH   2  11
ATOM     11  O   UNL     1     107.043  55.008  -2.538  1.00  0.00    -0.385 OA
ATOM     12  H   UNL     1     106.768  55.849  -2.988  1.00  0.00     0.211 HD
ENDBRANCH   2  11
BRANCH   3  13
ATOM     13  O   UNL     1     105.173  56.972  -0.989  1.00  0.00    -0.387 OA
ATOM     14  H   UNL     1     104.340  57.179  -0.490  1.00  0.00     0.211 HD
ENDBRANCH   3  13
BRANCH   4  15
ATOM     15  C   UNL     1     105.082  55.992   1.583  1.00  0.00     0.191 C 
BRANCH  15  16
ATOM     16  O   UNL     1     105.885  55.502   2.622  1.00  0.00    -0.394 OA
ATOM     17  H   UNL     1     106.334  56.293   3.019  1.00  0.00     0.210 HD
ENDBRANCH  15  16
ENDBRANCH   4  15
TORSDOF 7
ENDMDL
MODEL 3
REMARK VINA RESULT:    -4.581      1.347      3.326
REMARK INTER + INTRA:          -6.329
REMARK INTER:                  -5.966
REMARK INTRA:                  -0.363
REMARK UNBOUND:                -0.409
REMARK SMILES CO[C@]1(CO)O[C@@H](CO)[C@@H](O)[C@@H]1O
REMARK SMILES IDX 3 1 12 2 10 3 7 4 6 5 2 6 1 7 4 8 5 9 13 11 11 13 8 15 9 16
REMARK H PARENT 5 10 13 12 11 14 9 17
REMARK Flexibility Score: inf
ROOT
ATOM      1  C   UNL     1     107.634  53.576  -0.401  1.00  0.00     0.221 C 
ATOM      2  C   UNL     1     107.525  52.136  -0.916  1.00  0.00     0.207 C 
ATOM      3  C   UNL     1     108.969  51.728  -1.016  1.00  0.00     0.180 C 
ATOM      4  C   UNL     1     109.624  52.542   0.109  1.00  0.00     0.179 C 
ATOM      5  O   UNL     1     108.782  53.631   0.431  1.00  0.00    -0.337 OA
ENDROOT
BRANCH   1   6
ATOM      6  O   UNL     1     107.758  54.452  -1.522  1.00  0.00    -0.349 OA
ATOM      7  C   UNL     1     106.665  55.340  -1.649  1.00  0.00     0.198 C 
ENDBRANCH   1   6
BRANCH   1   8
ATOM      8  C   UNL     1     106.382  53.939   0.431  1.00  0.00     0.224 C 
BRANCH   8   9
ATOM      9  O   UNL     1     106.697  54.047   1.794  1.00  0.00    -0.391 OA
ATOM     10  H   UNL     1     106.232  54.857   2.130  1.00  0.00     0.210 HD
ENDBRANCH   8   9
ENDBRANCH   1   8
BRANCH   2  11
ATOM     11  O   UNL     1     106.883  52.076  -2.164  1.00  0.00    -0.385 OA
ATOM     12  H   UNL     1     105.908  52.078  -1.980  1.00  0.00     0.211 HD
ENDBRANCH   2  11
BRANCH   3  13
ATOM     13  O   UNL     1     109.124  50.340  -0.854  1.00  0.00    -0.387 OA
ATOM     14  H   UNL     1     109.345  49.973  -1.749  1.00  0.00     0.211 HD
ENDBRANCH   3  13
BRANCH   4  15
ATOM     15  C   UNL     1     109.890  51.738   1.392  1.00  0.00     0.191 C 
BRANCH  15  16
ATOM     16  O   UNL     1     109.345  52.400   2.501  1.00  0.00    -0.394 OA
ATOM     17  H   UNL     1     109.075  53.300   2.179  1.00  0.00     0.210 HD
ENDBRANCH  15  16
ENDBRANCH   4  15
TORSDOF 7
ENDMDL
MODEL 4
REMARK VINA RESULT:    -4.548      1.420      4.076
REMARK INTER + INTRA:          -6.286
REMARK INTER:                  -6.196
REMARK INTRA:                  -0.091
REMARK UNBOUND:                -0.409
REMARK SMILES CO[C@]1(CO)O[C@@H](CO)[C@@H](O)[C@@H]1O
REMARK SMILES IDX 3 1 12 2 10 3 7 4 6 5 2 6 1 7 4 8 5 9 13 11 11 13 8 15 9 16
REMARK H PARENT 5 10 13 12 11 14 9 17
REMARK Flexibility Score: inf
ROOT
ATOM      1  C   UNL     1     108.012  52.853  -0.252  1.00  0.00     0.221 C 
ATOM      2  C   UNL     1     108.285  53.838  -1.394  1.00  0.00     0.207 C 
ATOM      3  C   UNL     1     106.895  54.152  -1.876  1.00  0.00     0.180 C 
ATOM      4  C   UNL     1     106.061  54.019  -0.594  1.00  0.00     0.179 C 
ATOM      5  O   UNL     1     106.778  53.232   0.336  1.00  0.00    -0.337 OA
ENDROOT
BRANCH   1   6
ATOM      6  O   UNL     1     107.950  51.533  -0.794  1.00  0.00    -0.349 OA
ATOM      7  C   UNL     1     109.175  50.836  -0.687  1.00  0.00     0.198 C 
ENDBRANCH   1   6
BRANCH   1   8
ATOM      8  C   UNL     1     109.133  52.946   0.809  1.00  0.00     0.224 C 
BRANCH   8   9
ATOM      9  O   UNL     1     108.722  53.715   1.909  1.00  0.00    -0.391 OA
ATOM     10  H   UNL     1     108.351  53.081   2.577  1.00  0.00     0.210 HD
ENDBRANCH   8   9
ENDBRANCH   1   8
BRANCH   2  11
ATOM     11  O   UNL     1     109.065  53.257  -2.408  1.00  0.00    -0.385 OA
ATOM     12  H   UNL     1     109.086  52.282  -2.224  1.00  0.00     0.211 HD
ENDBRANCH   2  11
BRANCH   3  13
ATOM     13  O   UNL     1     106.826  55.435  -2.447  1.00  0.00    -0.387 OA
ATOM     14  H   UNL     1     105.880  55.726  -2.376  1.00  0.00     0.211 HD
ENDBRANCH   3  13
BRANCH   4  15
ATOM     15  C   UNL     1     105.713  55.361   0.071  1.00  0.00     0.191 C 
BRANCH  15  16
ATOM     16  O   UNL     1     106.015  55.316   1.438  1.00  0.00    -0.394 OA
ATOM     17  H   UNL     1     106.816  54.737   1.525  1.00  0.00     0.210 HD
ENDBRANCH  15  16
ENDBRANCH   4  15
TORSDOF 7
ENDMDL
MODEL 5
REMARK VINA RESULT:    -4.435      1.518      3.761
REMARK INTER + INTRA:          -6.140
REMARK INTER:                  -5.721
REMARK INTRA:                  -0.419
REMARK UNBOUND:                -0.409
REMARK SMILES CO[C@]1(CO)O[C@@H](CO)[C@@H](O)[C@@H]1O
REMARK SMILES IDX 3 1 12 2 10 3 7 4 6 5 2 6 1 7 4 8 5 9 13 11 11 13 8 15 9 16
REMARK H PARENT 5 10 13 12 11 14 9 17
REMARK Flexibility Score: inf
ROOT
ATOM      1  C   UNL     1     107.058  53.902  -0.719  1.00  0.00     0.221 C 
ATOM      2  C   UNL     1     105.755  54.377  -0.066  1.00  0.00     0.207 C 
ATOM      3  C   UNL     1     105.749  55.843  -0.404  1.00  0.00     0.180 C 
ATOM      4  C   UNL     1     106.485  55.875  -1.752  1.00  0.00     0.179 C 
ATOM      5  O   UNL     1     107.250  54.693  -1.881  1.00  0.00    -0.337 OA
ENDROOT
BRANCH   1   6
ATOM      6  O   UNL     1     108.125  54.076   0.215  1.00  0.00    -0.349 OA
ATOM      7  C   UNL     1     108.810  52.873   0.499  1.00  0.00     0.198 C 
ENDBRANCH   1   6
BRANCH   1   8
ATOM      8  C   UNL     1     106.937  52.416  -1.126  1.00  0.00     0.224 C 
BRANCH   8   9
ATOM      9  O   UNL     1     107.061  52.263  -2.516  1.00  0.00    -0.391 OA
ATOM     10  H   UNL     1     106.498  52.967  -2.930  1.00  0.00     0.210 HD
ENDBRANCH   8   9
ENDBRANCH   1   8
BRANCH   2  11
ATOM     11  O   UNL     1     105.762  54.168   1.323  1.00  0.00    -0.385 OA
ATOM     12  H   UNL     1     106.554  53.603   1.520  1.00  0.00     0.211 HD
ENDBRANCH   2  11
BRANCH   3  13
ATOM     13  O   UNL     1     104.440  56.349  -0.480  1.00  0.00    -0.387 OA
ATOM     14  H   UNL     1     104.358  56.789  -1.366  1.00  0.00     0.211 HD
ENDBRANCH   3  13
BRANCH   4  15
ATOM     15  C   UNL     1     105.557  55.988  -2.972  1.00  0.00     0.191 C 
BRANCH  15  16
ATOM     16  O   UNL     1     105.476  54.756  -3.635  1.00  0.00    -0.394 OA
ATOM     17  H   UNL     1     105.011  54.138  -3.013  1.00  0.00     0.210 HD
ENDBRANCH  15  16
ENDBRANCH   4  15
TORSDOF 7
ENDMDL
MODEL 6
REMARK VINA RESULT:    -4.294      1.517      3.151
REMARK INTER + INTRA:          -5.958
REMARK INTER:                  -5.883
REMARK INTRA:                  -0.075
REMARK UNBOUND:                -0.409
REMARK SMILES CO[C@]1(CO)O[C@@H](CO)[C@@H](O)[C@@H]1O
REMARK SMILES IDX 3 1 12 2 10 3 7 4 6 5 2 6 1 7 4 8 5 9 13 11 11 13 8 15 9 16
REMARK H PARENT 5 10 13 12 11 14 9 17
REMARK Flexibility Score: inf
ROOT
ATOM      1  C   UNL     1     106.696  54.369  -0.058  1.00  0.00     0.221 C 
ATOM      2  C   UNL     1     106.130  53.194  -0.865  1.00  0.00     0.207 C 
ATOM      3  C   UNL     1     107.325  52.763  -1.671  1.00  0.00     0.180 C 
ATOM      4  C   UNL     1     108.496  53.113  -0.742  1.00  0.00     0.179 C 
ATOM      5  O   UNL     1     108.061  54.077   0.196  1.00  0.00    -0.337 OA
ENDROOT
BRANCH   1   6
ATOM      6  O   UNL     1     106.551  55.563  -0.828  1.00  0.00    -0.349 OA
ATOM      7  C   UNL     1     105.386  56.292  -0.501  1.00  0.00     0.198 C 
ENDBRANCH   1   6
BRANCH   1   8
ATOM      8  C   UNL     1     105.943  54.502   1.286  1.00  0.00     0.224 C 
BRANCH   8   9
ATOM      9  O   UNL     1     106.770  54.149   2.364  1.00  0.00    -0.391 OA
ATOM     10  H   UNL     1     107.401  53.462   2.024  1.00  0.00     0.210 HD
ENDBRANCH   8   9
ENDBRANCH   1   8
BRANCH   2  11
ATOM     11  O   UNL     1     105.066  53.595  -1.691  1.00  0.00    -0.385 OA
ATOM     12  H   UNL     1     104.502  52.791  -1.834  1.00  0.00     0.211 HD
ENDBRANCH   2  11
BRANCH   3  13
ATOM     13  O   UNL     1     107.264  51.395  -1.988  1.00  0.00    -0.387 OA
ATOM     14  H   UNL     1     107.412  51.325  -2.967  1.00  0.00     0.211 HD
ENDBRANCH   3  13
BRANCH   4  15
ATOM     15  C   UNL     1     109.069  51.911   0.027  1.00  0.00     0.191 C 
BRANCH  15  16
ATOM     16  O   UNL     1     109.114  52.190   1.399  1.00  0.00    -0.394 OA
ATOM     17  H   UNL     1     109.692  52.991   1.498  1.00  0.00     0.210 HD
ENDBRANCH  15  16
ENDBRANCH   4  15
TORSDOF 7
ENDMDL
MODEL 7
REMARK VINA RESULT:    -4.186      1.747      3.792
REMARK INTER + INTRA:          -5.819
REMARK INTER:                  -5.210
REMARK INTRA:                  -0.609
REMARK UNBOUND:                -0.409
REMARK SMILES CO[C@]1(CO)O[C@@H](CO)[C@@H](O)[C@@H]1O
REMARK SMILES IDX 3 1 12 2 10 3 7 4 6 5 2 6 1 7 4 8 5 9 13 11 11 13 8 15 9 16
REMARK H PARENT 5 10 13 12 11 14 9 17
REMARK Flexibility Score: inf
ROOT
ATOM      1  C   UNL     1     107.175  53.690  -0.365  1.00  0.00     0.221 C 
ATOM      2  C   UNL     1     108.296  52.796   0.180  1.00  0.00     0.207 C 
ATOM      3  C   UNL     1     108.725  53.545   1.412  1.00  0.00     0.180 C 
ATOM      4  C   UNL     1     107.422  54.223   1.858  1.00  0.00     0.179 C 
ATOM      5  O   UNL     1     106.539  54.283   0.756  1.00  0.00    -0.337 OA
ENDROOT
BRANCH   1   6
ATOM      6  O   UNL     1     107.754  54.677  -1.220  1.00  0.00    -0.349 OA
ATOM      7  C   UNL     1     106.788  55.452  -1.900  1.00  0.00     0.198 C 
ENDBRANCH   1   6
BRANCH   1   8
ATOM      8  C   UNL     1     106.148  52.839  -1.145  1.00  0.00     0.224 C 
BRANCH   8   9
ATOM      9  O   UNL     1     106.787  51.840  -1.895  1.00  0.00    -0.391 OA
ATOM     10  H   UNL     1     107.533  52.282  -2.379  1.00  0.00     0.210 HD
ENDBRANCH   8   9
ENDBRANCH   1   8
BRANCH   2  11
ATOM     11  O   UNL     1     109.350  52.666  -0.739  1.00  0.00    -0.385 OA
ATOM     12  H   UNL     1     109.902  53.486  -0.654  1.00  0.00     0.211 HD
ENDBRANCH   2  11
BRANCH   3  13
ATOM     13  O   UNL     1     109.255  52.677   2.382  1.00  0.00    -0.387 OA
ATOM     14  H   UNL     1     109.616  53.250   3.107  1.00  0.00     0.211 HD
ENDBRANCH   3  13
BRANCH   4  15
ATOM     15  C   UNL     1     106.706  53.508   3.016  1.00  0.00     0.191 C 
BRANCH  15  16
ATOM     16  O   UNL     1     107.317  53.828   4.235  1.00  0.00    -0.394 OA
ATOM     17  H   UNL     1     107.009  54.743   4.465  1.00  0.00     0.210 HD
ENDBRANCH  15  16
ENDBRANCH   4  15
TORSDOF 7
ENDMDL
MODEL 8
REMARK VINA RESULT:    -4.011      1.766      4.202
REMARK INTER + INTRA:          -5.592
REMARK INTER:                  -4.993
REMARK INTRA:                  -0.599
REMARK UNBOUND:                -0.409
REMARK SMILES CO[C@]1(CO)O[C@@H](CO)[C@@H](O)[C@@H]1O
REMARK SMILES IDX 3 1 12 2 10 3 7 4 6 5 2 6 1 7 4 8 5 9 13 11 11 13 8 15 9 16
REMARK H PARENT 5 10 13 12 11 14 9 17
REMARK Flexibility Score: inf
ROOT
ATOM      1  C   UNL     1     107.229  53.777  -0.321  1.00  0.00     0.221 C 
ATOM      2  C   UNL     1     106.254  54.789   0.291  1.00  0.00     0.207 C 
ATOM      3  C   UNL     1     106.119  54.282   1.701  1.00  0.00     0.180 C 
ATOM      4  C   UNL     1     107.494  53.650   1.960  1.00  0.00     0.179 C 
ATOM      5  O   UNL     1     108.106  53.369   0.717  1.00  0.00    -0.337 OA
ENDROOT
BRANCH   1   6
ATOM      6  O   UNL     1     106.480  52.676  -0.836  1.00  0.00    -0.349 OA
ATOM      7  C   UNL     1     107.255  51.812  -1.642  1.00  0.00     0.198 C 
ENDBRANCH   1   6
BRANCH   1   8
ATOM      8  C   UNL     1     108.049  54.445  -1.449  1.00  0.00     0.224 C 
BRANCH   8   9
ATOM      9  O   UNL     1     107.241  55.288  -2.227  1.00  0.00    -0.391 OA
ATOM     10  H   UNL     1     107.527  56.218  -2.029  1.00  0.00     0.210 HD
ENDBRANCH   8   9
ENDBRANCH   1   8
BRANCH   2  11
ATOM     11  O   UNL     1     105.018  54.791  -0.378  1.00  0.00    -0.385 OA
ATOM     12  H   UNL     1     104.946  55.670  -0.834  1.00  0.00     0.211 HD
ENDBRANCH   2  11
BRANCH   3  13
ATOM     13  O   UNL     1     105.815  55.323   2.595  1.00  0.00    -0.387 OA
ATOM     14  H   UNL     1     106.681  55.722   2.870  1.00  0.00     0.211 HD
ENDBRANCH   3  13
BRANCH   4  15
ATOM     15  C   UNL     1     108.446  54.533   2.782  1.00  0.00     0.191 C 
BRANCH  15  16
ATOM     16  O   UNL     1     108.180  54.389   4.150  1.00  0.00    -0.394 OA
ATOM     17  H   UNL     1     107.228  54.639   4.273  1.00  0.00     0.210 HD
ENDBRANCH  15  16
ENDBRANCH   4  15
TORSDOF 7
ENDMDL
MODEL 9
REMARK VINA RESULT:    -3.802      9.387     11.009
REMARK INTER + INTRA:          -5.323
REMARK INTER:                  -4.725
REMARK INTRA:                  -0.598
REMARK UNBOUND:                -0.409
REMARK SMILES CO[C@]1(CO)O[C@@H](CO)[C@@H](O)[C@@H]1O
REMARK SMILES IDX 3 1 12 2 10 3 7 4 6 5 2 6 1 7 4 8 5 9 13 11 11 13 8 15 9 16
REMARK H PARENT 5 10 13 12 11 14 9 17
REMARK Flexibility Score: inf
ROOT
ATOM      1  C   UNL     1     116.132  47.932  -5.320  1.00  0.00     0.221 C 
ATOM      2  C   UNL     1     115.450  48.474  -4.059  1.00  0.00     0.207 C 
ATOM      3  C   UNL     1     116.158  49.786  -3.858  1.00  0.00     0.180 C 
ATOM      4  C   UNL     1     116.503  50.201  -5.296  1.00  0.00     0.179 C 
ATOM      5  O   UNL     1     116.473  49.053  -6.120  1.00  0.00    -0.337 OA
ENDROOT
BRANCH   1   6
ATOM      6  O   UNL     1     117.292  47.195  -4.930  1.00  0.00    -0.349 OA
ATOM      7  C   UNL     1     118.123  46.858  -6.022  1.00  0.00     0.198 C 
ENDBRANCH   1   6
BRANCH   1   8
ATOM      8  C   UNL     1     115.157  47.023  -6.104  1.00  0.00     0.224 C 
BRANCH   8   9
ATOM      9  O   UNL     1     114.025  46.717  -5.332  1.00  0.00    -0.391 OA
ATOM     10  H   UNL     1     114.358  46.379  -4.461  1.00  0.00     0.210 HD
ENDBRANCH   8   9
ENDBRANCH   1   8
BRANCH   2  11
ATOM     11  O   UNL     1     115.629  47.616  -2.961  1.00  0.00    -0.385 OA
ATOM     12  H   UNL     1     116.442  47.931  -2.487  1.00  0.00     0.211 HD
ENDBRANCH   2  11
BRANCH   3  13
ATOM     13  O   UNL     1     115.338  50.717  -3.198  1.00  0.00    -0.387 OA
ATOM     14  H   UNL     1     115.937  51.432  -2.860  1.00  0.00     0.211 HD
ENDBRANCH   3  13
BRANCH   4  15
ATOM     15  C   UNL     1     115.550  51.251  -5.891  1.00  0.00     0.191 C 
BRANCH  15  16
ATOM     16  O   UNL     1     115.939  52.537  -5.496  1.00  0.00    -0.394 OA
ATOM     17  H   UNL     1     116.915  52.595  -5.667  1.00  0.00     0.210 HD
ENDBRANCH  15  16
ENDBRANCH   4  15
TORSDOF 7
ENDMDL
