MODEL 1
REMARK VINA RESULT:    -6.641      0.000      0.000
REMARK INTER + INTRA:          -8.058
REMARK INTER:                  -7.805
REMARK INTRA:                  -0.253
REMARK UNBOUND:                -0.253
REMARK SMILES O=c1c(O)c(-c2ccc(O)c(O)c2)oc2cc(O)ccc12
REMARK SMILES IDX 5 1 3 2 2 3 1 4 21 5 15 6 14 7 16 8 17 9 19 10 20 11 6 12
REMARK SMILES IDX 7 13 8 14 9 15 13 16 11 17 10 18 12 20 4 22 18 24
REMARK H PARENT 10 19 12 21 4 23 18 25
REMARK Flexibility Score: inf
ROOT
ATOM      1  C   UNL     1      -2.784  -6.496 -11.515  1.00  0.00     0.180 A 
ATOM      2  C   UNL     1      -2.953  -7.660 -12.293  1.00  0.00     0.208 A 
ATOM      3  C   UNL     1      -2.121  -8.764 -12.047  1.00  0.00     0.235 A 
ATOM      4  O   UNL     1      -2.260  -9.821 -12.723  1.00  0.00    -0.285 OA
ATOM      5  C   UNL     1      -1.134  -8.677 -11.053  1.00  0.00     0.069 A 
ATOM      6  C   UNL     1      -1.013  -7.467 -10.334  1.00  0.00     0.142 A 
ATOM      7  O   UNL     1      -1.826  -6.450 -10.591  1.00  0.00    -0.452 OA
ATOM      8  C   UNL     1      -0.035  -7.338  -9.342  1.00  0.00     0.094 A 
ATOM      9  C   UNL     1       0.826  -8.403  -9.056  1.00  0.00     0.119 A 
ATOM     10  C   UNL     1       0.708  -9.605  -9.766  1.00  0.00     0.047 A 
ATOM     11  C   UNL     1      -0.265  -9.744 -10.761  1.00  0.00     0.020 A 
ENDROOT
BRANCH   1  12
ATOM     12  C   UNL     1      -3.633  -5.297 -11.701  1.00  0.00     0.025 A 
ATOM     13  C   UNL     1      -3.159  -4.163 -12.385  1.00  0.00     0.016 A 
ATOM     14  C   UNL     1      -3.986  -3.053 -12.569  1.00  0.00     0.051 A 
ATOM     15  C   UNL     1      -5.302  -3.063 -12.087  1.00  0.00     0.157 A 
ATOM     16  C   UNL     1      -4.959  -5.311 -11.239  1.00  0.00     0.062 A 
ATOM     17  C   UNL     1      -5.790  -4.195 -11.422  1.00  0.00     0.158 A 
BRANCH  15  18
ATOM     18  O   UNL     1      -6.128  -1.957 -12.267  1.00  0.00    -0.504 OA
ATOM     19  H   UNL     1      -7.077  -1.941 -11.910  1.00  0.00     0.293 HD
ENDBRANCH  15  18
BRANCH  17  20
ATOM     20  O   UNL     1      -7.100  -4.206 -10.949  1.00  0.00    -0.504 OA
ATOM     21  H   UNL     1      -7.421  -3.536 -10.260  1.00  0.00     0.293 HD
ENDBRANCH  17  20
ENDBRANCH   1  12
BRANCH   2  22
ATOM     22  O   UNL     1      -3.910  -7.701 -13.309  1.00  0.00    -0.502 OA
ATOM     23  H   UNL     1      -4.837  -7.308 -13.197  1.00  0.00     0.293 HD
ENDBRANCH   2  22
BRANCH   9  24
ATOM     24  O   UNL     1       1.793  -8.257  -8.066  1.00  0.00    -0.508 OA
ATOM     25  H   UNL     1       1.717  -7.543  -7.350  1.00  0.00     0.293 HD
ENDBRANCH   9  24
TORSDOF 5
ENDMDL
MODEL 2
REMARK VINA RESULT:    -6.382      1.627      2.529
REMARK INTER + INTRA:          -7.755
REMARK INTER:                  -7.863
REMARK INTRA:                   0.108
REMARK UNBOUND:                -0.253
REMARK SMILES O=c1c(O)c(-c2ccc(O)c(O)c2)oc2cc(O)ccc12
REMARK SMILES IDX 5 1 3 2 2 3 1 4 21 5 15 6 14 7 16 8 17 9 19 10 20 11 6 12
REMARK SMILES IDX 7 13 8 14 9 15 13 16 11 17 10 18 12 20 4 22 18 24
REMARK H PARENT 10 19 12 21 4 23 18 25
REMARK Flexibility Score: inf
ROOT
ATOM      1  C   UNL     1      -2.655  -6.826 -10.707  1.00  0.00     0.180 A 
ATOM      2  C   UNL     1      -2.724  -7.293  -9.379  1.00  0.00     0.208 A 
ATOM      3  C   UNL     1      -1.940  -8.397  -9.009  1.00  0.00     0.235 A 
ATOM      4  O   UNL     1      -1.976  -8.827  -7.823  1.00  0.00    -0.285 OA
ATOM      5  C   UNL     1      -1.128  -9.020  -9.969  1.00  0.00     0.069 A 
ATOM      6  C   UNL     1      -1.134  -8.507 -11.285  1.00  0.00     0.142 A 
ATOM      7  O   UNL     1      -1.882  -7.454 -11.591  1.00  0.00    -0.452 OA
ATOM      8  C   UNL     1      -0.345  -9.106 -12.273  1.00  0.00     0.094 A 
ATOM      9  C   UNL     1       0.453 -10.212 -11.965  1.00  0.00     0.119 A 
ATOM     10  C   UNL     1       0.463 -10.724 -10.660  1.00  0.00     0.047 A 
ATOM     11  C   UNL     1      -0.324 -10.134  -9.665  1.00  0.00     0.020 A 
ENDROOT
BRANCH   1  12
ATOM     12  C   UNL     1      -3.436  -5.656 -11.171  1.00  0.00     0.025 A 
ATOM     13  C   UNL     1      -2.860  -4.668 -11.988  1.00  0.00     0.016 A 
ATOM     14  C   UNL     1      -3.623  -3.586 -12.432  1.00  0.00     0.051 A 
ATOM     15  C   UNL     1      -4.975  -3.482 -12.080  1.00  0.00     0.157 A 
ATOM     16  C   UNL     1      -4.798  -5.559 -10.838  1.00  0.00     0.062 A 
ATOM     17  C   UNL     1      -5.564  -4.472 -11.284  1.00  0.00     0.158 A 
BRANCH  15  18
ATOM     18  O   UNL     1      -5.739  -2.403 -12.520  1.00  0.00    -0.504 OA
ATOM     19  H   UNL     1      -6.743  -2.477 -12.636  1.00  0.00     0.293 HD
ENDBRANCH  15  18
BRANCH  17  20
ATOM     20  O   UNL     1      -6.910  -4.370 -10.940  1.00  0.00    -0.504 OA
ATOM     21  H   UNL     1      -7.296  -4.875 -10.150  1.00  0.00     0.293 HD
ENDBRANCH  17  20
ENDBRANCH   1  12
BRANCH   2  22
ATOM     22  O   UNL     1      -3.579  -6.684  -8.457  1.00  0.00    -0.502 OA
ATOM     23  H   UNL     1      -3.331  -6.569  -7.482  1.00  0.00     0.293 HD
ENDBRANCH   2  22
BRANCH   9  24
ATOM     24  O   UNL     1       1.232 -10.796 -12.960  1.00  0.00    -0.508 OA
ATOM     25  H   UNL     1       1.444 -10.308 -13.823  1.00  0.00     0.293 HD
ENDBRANCH   9  24
TORSDOF 5
ENDMDL
MODEL 3
REMARK VINA RESULT:    -6.246      0.659      1.496
REMARK INTER + INTRA:          -7.595
REMARK INTER:                  -7.276
REMARK INTRA:                  -0.319
REMARK UNBOUND:                -0.253
REMARK SMILES O=c1c(O)c(-c2ccc(O)c(O)c2)oc2cc(O)ccc12
REMARK SMILES IDX 5 1 3 2 2 3 1 4 21 5 15 6 14 7 16 8 17 9 19 10 20 11 6 12
REMARK SMILES IDX 7 13 8 14 9 15 13 16 11 17 10 18 12 20 4 22 18 24
REMARK H PARENT 10 19 12 21 4 23 18 25
REMARK Flexibility Score: inf
ROOT
ATOM      1  C   UNL     1      -3.006  -6.517 -11.463  1.00  0.00     0.180 A 
ATOM      2  C   UNL     1      -3.113  -7.662 -12.279  1.00  0.00     0.208 A 
ATOM      3  C   UNL     1      -2.278  -8.759 -12.015  1.00  0.00     0.235 A 
ATOM      4  O   UNL     1      -2.362  -9.800 -12.725  1.00  0.00    -0.285 OA
ATOM      5  C   UNL     1      -1.349  -8.684 -10.967  1.00  0.00     0.069 A 
ATOM      6  C   UNL     1      -1.287  -7.493 -10.212  1.00  0.00     0.142 A 
ATOM      7  O   UNL     1      -2.102  -6.480 -10.487  1.00  0.00    -0.452 OA
ATOM      8  C   UNL     1      -0.367  -7.376  -9.164  1.00  0.00     0.094 A 
ATOM      9  C   UNL     1       0.493  -8.434  -8.858  1.00  0.00     0.119 A 
ATOM     10  C   UNL     1       0.435  -9.619  -9.605  1.00  0.00     0.047 A 
ATOM     11  C   UNL     1      -0.480  -9.746 -10.655  1.00  0.00     0.020 A 
ENDROOT
BRANCH   1  12
ATOM     12  C   UNL     1      -3.863  -5.325 -11.664  1.00  0.00     0.025 A 
ATOM     13  C   UNL     1      -5.142  -5.237 -11.087  1.00  0.00     0.016 A 
ATOM     14  C   UNL     1      -5.923  -4.094 -11.271  1.00  0.00     0.051 A 
ATOM     15  C   UNL     1      -5.432  -3.016 -12.021  1.00  0.00     0.157 A 
ATOM     16  C   UNL     1      -3.368  -4.234 -12.397  1.00  0.00     0.062 A 
ATOM     17  C   UNL     1      -4.152  -3.086 -12.583  1.00  0.00     0.158 A 
BRANCH  15  18
ATOM     18  O   UNL     1      -6.209  -1.875 -12.208  1.00  0.00    -0.504 OA
ATOM     19  H   UNL     1      -7.203  -1.935 -12.396  1.00  0.00     0.293 HD
ENDBRANCH  15  18
BRANCH  17  20
ATOM     20  O   UNL     1      -3.664  -2.011 -13.323  1.00  0.00    -0.504 OA
ATOM     21  H   UNL     1      -2.892  -2.120 -13.971  1.00  0.00     0.293 HD
ENDBRANCH  17  20
ENDBRANCH   1  12
BRANCH   2  22
ATOM     22  O   UNL     1      -4.013  -7.690 -13.347  1.00  0.00    -0.502 OA
ATOM     23  H   UNL     1      -4.277  -8.550 -13.810  1.00  0.00     0.293 HD
ENDBRANCH   2  22
BRANCH   9  24
ATOM     24  O   UNL     1       1.403  -8.301  -7.812  1.00  0.00    -0.508 OA
ATOM     25  H   UNL     1       1.125  -7.924  -6.913  1.00  0.00     0.293 HD
ENDBRANCH   9  24
TORSDOF 5
ENDMDL
MODEL 4
REMARK VINA RESULT:    -6.218      2.246      6.902
REMARK INTER + INTRA:          -7.562
REMARK INTER:                  -7.244
REMARK INTRA:                  -0.317
REMARK UNBOUND:                -0.253
REMARK SMILES O=c1c(O)c(-c2ccc(O)c(O)c2)oc2cc(O)ccc12
REMARK SMILES IDX 5 1 3 2 2 3 1 4 21 5 15 6 14 7 16 8 17 9 19 10 20 11 6 12
REMARK SMILES IDX 7 13 8 14 9 15 13 16 11 17 10 18 12 20 4 22 18 24
REMARK H PARENT 10 19 12 21 4 23 18 25
REMARK Flexibility Score: inf
ROOT
ATOM      1  C   UNL     1      -1.500  -7.770 -11.449  1.00  0.00     0.180 A 
ATOM      2  C   UNL     1      -2.464  -8.212 -10.520  1.00  0.00     0.208 A 
ATOM      3  C   UNL     1      -3.604  -7.423 -10.302  1.00  0.00     0.235 A 
ATOM      4  O   UNL     1      -4.486  -7.802  -9.483  1.00  0.00    -0.285 OA
ATOM      5  C   UNL     1      -3.747  -6.210 -10.993  1.00  0.00     0.069 A 
ATOM      6  C   UNL     1      -2.725  -5.827 -11.889  1.00  0.00     0.142 A 
ATOM      7  O   UNL     1      -1.667  -6.607 -12.074  1.00  0.00    -0.452 OA
ATOM      8  C   UNL     1      -2.827  -4.621 -12.591  1.00  0.00     0.094 A 
ATOM      9  C   UNL     1      -3.938  -3.791 -12.411  1.00  0.00     0.119 A 
ATOM     10  C   UNL     1      -4.955  -4.168 -11.524  1.00  0.00     0.047 A 
ATOM     11  C   UNL     1      -4.862  -5.371 -10.817  1.00  0.00     0.020 A 
ENDROOT
BRANCH   1  12
ATOM     12  C   UNL     1      -0.279  -8.554 -11.748  1.00  0.00     0.025 A 
ATOM     13  C   UNL     1       0.900  -8.388 -10.999  1.00  0.00     0.016 A 
ATOM     14  C   UNL     1       2.031  -9.156 -11.284  1.00  0.00     0.051 A 
ATOM     15  C   UNL     1       1.998 -10.110 -12.309  1.00  0.00     0.157 A 
ATOM     16  C   UNL     1      -0.314  -9.527 -12.760  1.00  0.00     0.062 A 
ATOM     17  C   UNL     1       0.823 -10.298 -13.048  1.00  0.00     0.158 A 
BRANCH  15  18
ATOM     18  O   UNL     1       3.125 -10.876 -12.598  1.00  0.00    -0.504 OA
ATOM     19  H   UNL     1       3.305 -11.754 -12.123  1.00  0.00     0.293 HD
ENDBRANCH  15  18
BRANCH  17  20
ATOM     20  O   UNL     1       0.790 -11.252 -14.062  1.00  0.00    -0.504 OA
ATOM     21  H   UNL     1       1.614 -11.475 -14.608  1.00  0.00     0.293 HD
ENDBRANCH  17  20
ENDBRANCH   1  12
BRANCH   2  22
ATOM     22  O   UNL     1      -2.271  -9.399  -9.808  1.00  0.00    -0.502 OA
ATOM     23  H   UNL     1      -1.483  -9.537  -9.187  1.00  0.00     0.293 HD
ENDBRANCH   2  22
BRANCH   9  24
ATOM     24  O   UNL     1      -4.023  -2.594 -13.118  1.00  0.00    -0.508 OA
ATOM     25  H   UNL     1      -3.283  -1.901 -13.079  1.00  0.00     0.293 HD
ENDBRANCH   9  24
TORSDOF 5
ENDMDL
MODEL 5
REMARK VINA RESULT:    -5.987      1.608      2.275
REMARK INTER + INTRA:          -7.290
REMARK INTER:                  -7.741
REMARK INTRA:                   0.451
REMARK UNBOUND:                -0.253
REMARK SMILES O=c1c(O)c(-c2ccc(O)c(O)c2)oc2cc(O)ccc12
REMARK SMILES IDX 5 1 3 2 2 3 1 4 21 5 15 6 14 7 16 8 17 9 19 10 20 11 6 12
REMARK SMILES IDX 7 13 8 14 9 15 13 16 11 17 10 18 12 20 4 22 18 24
REMARK H PARENT 10 19 12 21 4 23 18 25
REMARK Flexibility Score: inf
ROOT
ATOM      1  C   UNL     1      -2.398  -6.134 -11.396  1.00  0.00     0.180 A 
ATOM      2  C   UNL     1      -1.053  -5.970 -11.788  1.00  0.00     0.208 A 
ATOM      3  C   UNL     1      -0.148  -7.017 -11.553  1.00  0.00     0.235 A 
ATOM      4  O   UNL     1       1.059  -6.899 -11.904  1.00  0.00    -0.285 OA
ATOM      5  C   UNL     1      -0.594  -8.186 -10.918  1.00  0.00     0.069 A 
ATOM      6  C   UNL     1      -1.951  -8.263 -10.534  1.00  0.00     0.142 A 
ATOM      7  O   UNL     1      -2.777  -7.254 -10.784  1.00  0.00    -0.452 OA
ATOM      8  C   UNL     1      -2.432  -9.409  -9.891  1.00  0.00     0.094 A 
ATOM      9  C   UNL     1      -1.576 -10.482  -9.625  1.00  0.00     0.119 A 
ATOM     10  C   UNL     1      -0.229 -10.410 -10.006  1.00  0.00     0.047 A 
ATOM     11  C   UNL     1       0.262  -9.269 -10.648  1.00  0.00     0.020 A 
ENDROOT
BRANCH   1  12
ATOM     12  C   UNL     1      -3.417  -5.084 -11.625  1.00  0.00     0.025 A 
ATOM     13  C   UNL     1      -3.127  -3.936 -12.382  1.00  0.00     0.016 A 
ATOM     14  C   UNL     1      -4.112  -2.970 -12.606  1.00  0.00     0.051 A 
ATOM     15  C   UNL     1      -5.403  -3.145 -12.090  1.00  0.00     0.157 A 
ATOM     16  C   UNL     1      -4.718  -5.265 -11.128  1.00  0.00     0.062 A 
ATOM     17  C   UNL     1      -5.707  -4.295 -11.352  1.00  0.00     0.158 A 
BRANCH  15  18
ATOM     18  O   UNL     1      -6.386  -2.183 -12.309  1.00  0.00    -0.504 OA
ATOM     19  H   UNL     1      -7.199  -2.377 -12.883  1.00  0.00     0.293 HD
ENDBRANCH  15  18
BRANCH  17  20
ATOM     20  O   UNL     1      -6.993  -4.470 -10.845  1.00  0.00    -0.504 OA
ATOM     21  H   UNL     1      -7.755  -3.856 -11.109  1.00  0.00     0.293 HD
ENDBRANCH  17  20
ENDBRANCH   1  12
BRANCH   2  22
ATOM     22  O   UNL     1      -0.626  -4.776 -12.373  1.00  0.00    -0.502 OA
ATOM     23  H   UNL     1       0.212  -4.295 -12.072  1.00  0.00     0.293 HD
ENDBRANCH   2  22
BRANCH   9  24
ATOM     24  O   UNL     1      -2.072 -11.614  -8.984  1.00  0.00    -0.508 OA
ATOM     25  H   UNL     1      -2.988 -11.620  -8.551  1.00  0.00     0.293 HD
ENDBRANCH   9  24
TORSDOF 5
ENDMDL
MODEL 6
REMARK VINA RESULT:    -5.963      1.784      6.995
REMARK INTER + INTRA:          -7.262
REMARK INTER:                  -7.229
REMARK INTRA:                  -0.033
REMARK UNBOUND:                -0.253
REMARK SMILES O=c1c(O)c(-c2ccc(O)c(O)c2)oc2cc(O)ccc12
REMARK SMILES IDX 5 1 3 2 2 3 1 4 21 5 15 6 14 7 16 8 17 9 19 10 20 11 6 12
REMARK SMILES IDX 7 13 8 14 9 15 13 16 11 17 10 18 12 20 4 22 18 24
REMARK H PARENT 10 19 12 21 4 23 18 25
REMARK Flexibility Score: inf
ROOT
ATOM      1  C   UNL     1      -1.545  -6.907 -11.246  1.00  0.00     0.180 A 
ATOM      2  C   UNL     1      -0.885  -5.930 -12.018  1.00  0.00     0.208 A 
ATOM      3  C   UNL     1      -1.600  -4.791 -12.422  1.00  0.00     0.235 A 
ATOM      4  O   UNL     1      -1.028  -3.896 -13.105  1.00  0.00    -0.285 OA
ATOM      5  C   UNL     1      -2.952  -4.664 -12.069  1.00  0.00     0.069 A 
ATOM      6  C   UNL     1      -3.547  -5.699 -11.315  1.00  0.00     0.142 A 
ATOM      7  O   UNL     1      -2.833  -6.755 -10.944  1.00  0.00    -0.452 OA
ATOM      8  C   UNL     1      -4.896  -5.613 -10.952  1.00  0.00     0.094 A 
ATOM      9  C   UNL     1      -5.660  -4.504 -11.330  1.00  0.00     0.119 A 
ATOM     10  C   UNL     1      -5.073  -3.474 -12.077  1.00  0.00     0.047 A 
ATOM     11  C   UNL     1      -3.726  -3.551 -12.447  1.00  0.00     0.020 A 
ENDROOT
BRANCH   1  12
ATOM     12  C   UNL     1      -0.856  -8.127 -10.766  1.00  0.00     0.025 A 
ATOM     13  C   UNL     1      -0.859  -8.482  -9.405  1.00  0.00     0.016 A 
ATOM     14  C   UNL     1      -0.222  -9.650  -8.979  1.00  0.00     0.051 A 
ATOM     15  C   UNL     1       0.413 -10.487  -9.905  1.00  0.00     0.157 A 
ATOM     16  C   UNL     1      -0.236  -8.981 -11.693  1.00  0.00     0.062 A 
ATOM     17  C   UNL     1       0.405 -10.153 -11.265  1.00  0.00     0.158 A 
BRANCH  15  18
ATOM     18  O   UNL     1       1.051 -11.652  -9.483  1.00  0.00    -0.504 OA
ATOM     19  H   UNL     1       1.293 -11.801  -8.510  1.00  0.00     0.293 HD
ENDBRANCH  15  18
BRANCH  17  20
ATOM     20  O   UNL     1       1.032 -10.990 -12.185  1.00  0.00    -0.504 OA
ATOM     21  H   UNL     1       1.120 -10.734 -13.161  1.00  0.00     0.293 HD
ENDBRANCH  17  20
ENDBRANCH   1  12
BRANCH   2  22
ATOM     22  O   UNL     1       0.448  -6.107 -12.397  1.00  0.00    -0.502 OA
ATOM     23  H   UNL     1       1.001  -6.894 -12.082  1.00  0.00     0.293 HD
ENDBRANCH   2  22
BRANCH   9  24
ATOM     24  O   UNL     1      -7.000  -4.435 -10.959  1.00  0.00    -0.508 OA
ATOM     25  H   UNL     1      -7.609  -3.702 -11.304  1.00  0.00     0.293 HD
ENDBRANCH   9  24
TORSDOF 5
ENDMDL
MODEL 7
REMARK VINA RESULT:    -5.942      2.347      2.401
REMARK INTER + INTRA:          -7.237
REMARK INTER:                  -7.039
REMARK INTRA:                  -0.198
REMARK UNBOUND:                -0.253
REMARK SMILES O=c1c(O)c(-c2ccc(O)c(O)c2)oc2cc(O)ccc12
REMARK SMILES IDX 5 1 3 2 2 3 1 4 21 5 15 6 14 7 16 8 17 9 19 10 20 11 6 12
REMARK SMILES IDX 7 13 8 14 9 15 13 16 11 17 10 18 12 20 4 22 18 24
REMARK H PARENT 10 19 12 21 4 23 18 25
REMARK Flexibility Score: inf
ROOT
ATOM      1  C   UNL     1      -3.184  -6.628 -10.549  1.00  0.00     0.180 A 
ATOM      2  C   UNL     1      -2.923  -7.842 -11.215  1.00  0.00     0.208 A 
ATOM      3  C   UNL     1      -2.608  -8.978 -10.452  1.00  0.00     0.235 A 
ATOM      4  O   UNL     1      -2.380 -10.079 -11.026  1.00  0.00    -0.285 OA
ATOM      5  C   UNL     1      -2.541  -8.874  -9.055  1.00  0.00     0.069 A 
ATOM      6  C   UNL     1      -2.793  -7.616  -8.464  1.00  0.00     0.142 A 
ATOM      7  O   UNL     1      -3.097  -6.568  -9.221  1.00  0.00    -0.452 OA
ATOM      8  C   UNL     1      -2.727  -7.470  -7.075  1.00  0.00     0.094 A 
ATOM      9  C   UNL     1      -2.413  -8.565  -6.263  1.00  0.00     0.119 A 
ATOM     10  C   UNL     1      -2.164  -9.815  -6.845  1.00  0.00     0.047 A 
ATOM     11  C   UNL     1      -2.226  -9.972  -8.234  1.00  0.00     0.020 A 
ENDROOT
BRANCH   1  12
ATOM     12  C   UNL     1      -3.541  -5.390 -11.280  1.00  0.00     0.025 A 
ATOM     13  C   UNL     1      -2.607  -4.727 -12.095  1.00  0.00     0.016 A 
ATOM     14  C   UNL     1      -2.973  -3.575 -12.795  1.00  0.00     0.051 A 
ATOM     15  C   UNL     1      -4.280  -3.077 -12.704  1.00  0.00     0.157 A 
ATOM     16  C   UNL     1      -4.856  -4.900 -11.209  1.00  0.00     0.062 A 
ATOM     17  C   UNL     1      -5.223  -3.743 -11.911  1.00  0.00     0.158 A 
BRANCH  15  18
ATOM     18  O   UNL     1      -4.648  -1.928 -13.398  1.00  0.00    -0.504 OA
ATOM     19  H   UNL     1      -4.071  -1.550 -14.142  1.00  0.00     0.293 HD
ENDBRANCH  15  18
BRANCH  17  20
ATOM     20  O   UNL     1      -6.524  -3.250 -11.826  1.00  0.00    -0.504 OA
ATOM     21  H   UNL     1      -7.209  -3.436 -12.549  1.00  0.00     0.293 HD
ENDBRANCH  17  20
ENDBRANCH   1  12
BRANCH   2  22
ATOM     22  O   UNL     1      -2.948  -7.905 -12.611  1.00  0.00    -0.502 OA
ATOM     23  H   UNL     1      -3.042  -7.079 -13.189  1.00  0.00     0.293 HD
ENDBRANCH   2  22
BRANCH   9  24
ATOM     24  O   UNL     1      -2.352  -8.401  -4.882  1.00  0.00    -0.508 OA
ATOM     25  H   UNL     1      -1.549  -8.710  -4.346  1.00  0.00     0.293 HD
ENDBRANCH   9  24
TORSDOF 5
ENDMDL
MODEL 8
REMARK VINA RESULT:    -5.908      1.627      3.258
REMARK INTER + INTRA:          -7.197
REMARK INTER:                  -6.940
REMARK INTRA:                  -0.257
REMARK UNBOUND:                -0.253
REMARK SMILES O=c1c(O)c(-c2ccc(O)c(O)c2)oc2cc(O)ccc12
REMARK SMILES IDX 5 1 3 2 2 3 1 4 21 5 15 6 14 7 16 8 17 9 19 10 20 11 6 12
REMARK SMILES IDX 7 13 8 14 9 15 13 16 11 17 10 18 12 20 4 22 18 24
REMARK H PARENT 10 19 12 21 4 23 18 25
REMARK Flexibility Score: inf
ROOT
ATOM      1  C   UNL     1      -1.908  -6.868 -10.898  1.00  0.00     0.180 A 
ATOM      2  C   UNL     1      -1.224  -6.843  -9.665  1.00  0.00     0.208 A 
ATOM      3  C   UNL     1      -0.147  -7.722  -9.472  1.00  0.00     0.235 A 
ATOM      4  O   UNL     1       0.489  -7.711  -8.382  1.00  0.00    -0.285 OA
ATOM      5  C   UNL     1       0.208  -8.614 -10.496  1.00  0.00     0.069 A 
ATOM      6  C   UNL     1      -0.542  -8.593 -11.692  1.00  0.00     0.142 A 
ATOM      7  O   UNL     1      -1.548  -7.739 -11.838  1.00  0.00    -0.452 OA
ATOM      8  C   UNL     1      -0.225  -9.473 -12.732  1.00  0.00     0.094 A 
ATOM      9  C   UNL     1       0.835 -10.375 -12.596  1.00  0.00     0.119 A 
ATOM     10  C   UNL     1       1.583 -10.398 -11.411  1.00  0.00     0.047 A 
ATOM     11  C   UNL     1       1.273  -9.524 -10.364  1.00  0.00     0.020 A 
ENDROOT
BRANCH   1  12
ATOM     12  C   UNL     1      -3.042  -5.960 -11.185  1.00  0.00     0.025 A 
ATOM     13  C   UNL     1      -4.312  -6.171 -10.618  1.00  0.00     0.016 A 
ATOM     14  C   UNL     1      -5.360  -5.288 -10.885  1.00  0.00     0.051 A 
ATOM     15  C   UNL     1      -5.154  -4.173 -11.709  1.00  0.00     0.157 A 
ATOM     16  C   UNL     1      -2.835  -4.829 -11.993  1.00  0.00     0.062 A 
ATOM     17  C   UNL     1      -3.888  -3.942 -12.262  1.00  0.00     0.158 A 
BRANCH  15  18
ATOM     18  O   UNL     1      -6.197  -3.291 -11.978  1.00  0.00    -0.504 OA
ATOM     19  H   UNL     1      -6.490  -2.593 -11.303  1.00  0.00     0.293 HD
ENDBRANCH  15  18
BRANCH  17  20
ATOM     20  O   UNL     1      -3.683  -2.830 -13.076  1.00  0.00    -0.504 OA
ATOM     21  H   UNL     1      -4.365  -2.547 -13.769  1.00  0.00     0.293 HD
ENDBRANCH  17  20
ENDBRANCH   1  12
BRANCH   2  22
ATOM     22  O   UNL     1      -1.631  -5.979  -8.646  1.00  0.00    -0.502 OA
ATOM     23  H   UNL     1      -1.409  -6.147  -7.672  1.00  0.00     0.293 HD
ENDBRANCH   2  22
BRANCH   9  24
ATOM     24  O   UNL     1       1.137 -11.244 -13.641  1.00  0.00    -0.508 OA
ATOM     25  H   UNL     1       1.266 -12.237 -13.485  1.00  0.00     0.293 HD
ENDBRANCH   9  24
TORSDOF 5
ENDMDL
MODEL 9
REMARK VINA RESULT:    -5.830      2.273      6.912
REMARK INTER + INTRA:          -7.105
REMARK INTER:                  -6.793
REMARK INTRA:                  -0.312
REMARK UNBOUND:                -0.253
REMARK SMILES O=c1c(O)c(-c2ccc(O)c(O)c2)oc2cc(O)ccc12
REMARK SMILES IDX 5 1 3 2 2 3 1 4 21 5 15 6 14 7 16 8 17 9 19 10 20 11 6 12
REMARK SMILES IDX 7 13 8 14 9 15 13 16 11 17 10 18 12 20 4 22 18 24
REMARK H PARENT 10 19 12 21 4 23 18 25
REMARK Flexibility Score: inf
ROOT
ATOM      1  C   UNL     1      -2.115  -7.457  -9.857  1.00  0.00     0.180 A 
ATOM      2  C   UNL     1      -1.178  -6.915 -10.761  1.00  0.00     0.208 A 
ATOM      3  C   UNL     1      -1.577  -5.861 -11.597  1.00  0.00     0.235 A 
ATOM      4  O   UNL     1      -0.753  -5.351 -12.407  1.00  0.00    -0.285 OA
ATOM      5  C   UNL     1      -2.897  -5.388 -11.531  1.00  0.00     0.069 A 
ATOM      6  C   UNL     1      -3.782  -6.001 -10.616  1.00  0.00     0.142 A 
ATOM      7  O   UNL     1      -3.361  -6.989  -9.835  1.00  0.00    -0.452 OA
ATOM      8  C   UNL     1      -5.108  -5.564 -10.527  1.00  0.00     0.094 A 
ATOM      9  C   UNL     1      -5.564  -4.521 -11.338  1.00  0.00     0.119 A 
ATOM     10  C   UNL     1      -4.689  -3.910 -12.246  1.00  0.00     0.047 A 
ATOM     11  C   UNL     1      -3.362  -4.340 -12.345  1.00  0.00     0.020 A 
ENDROOT
BRANCH   1  12
ATOM     12  C   UNL     1      -1.766  -8.557  -8.929  1.00  0.00     0.025 A 
ATOM     13  C   UNL     1      -1.376  -8.300  -7.603  1.00  0.00     0.016 A 
ATOM     14  C   UNL     1      -1.075  -9.356  -6.738  1.00  0.00     0.051 A 
ATOM     15  C   UNL     1      -1.173 -10.682  -7.181  1.00  0.00     0.157 A 
ATOM     16  C   UNL     1      -1.883  -9.889  -9.361  1.00  0.00     0.062 A 
ATOM     17  C   UNL     1      -1.580 -10.949  -8.494  1.00  0.00     0.158 A 
BRANCH  15  18
ATOM     18  O   UNL     1      -0.872 -11.736  -6.322  1.00  0.00    -0.504 OA
ATOM     19  H   UNL     1      -1.551 -12.458  -6.110  1.00  0.00     0.293 HD
ENDBRANCH  15  18
BRANCH  17  20
ATOM     20  O   UNL     1      -1.682 -12.268  -8.930  1.00  0.00    -0.504 OA
ATOM     21  H   UNL     1      -1.162 -13.015  -8.486  1.00  0.00     0.293 HD
ENDBRANCH  17  20
ENDBRANCH   1  12
BRANCH   2  22
ATOM     22  O   UNL     1       0.115  -7.438 -10.840  1.00  0.00    -0.502 OA
ATOM     23  H   UNL     1       0.296  -8.397 -11.110  1.00  0.00     0.293 HD
ENDBRANCH   2  22
BRANCH   9  24
ATOM     24  O   UNL     1      -6.887  -4.100 -11.236  1.00  0.00    -0.508 OA
ATOM     25  H   UNL     1      -7.168  -3.393 -10.566  1.00  0.00     0.293 HD
ENDBRANCH   9  24
TORSDOF 5
ENDMDL
