MODEL 1
REMARK VINA RESULT:    -4.520      0.000      0.000
REMARK INTER + INTRA:          -7.851
REMARK INTER:                  -7.162
REMARK INTRA:                  -0.689
REMARK UNBOUND:                -0.689
REMARK SMILES CCCCCCCCCCCC(=O)[O-]
REMARK SMILES IDX 7 1 8 2 9 3 10 4 11 5 12 6 13 7 14 8 6 9 5 10 4 11 3 12 2 13
REMARK SMILES IDX 1 14
REMARK H PARENT
REMARK Flexibility Score: inf
ROOT
ATOM      1  C   UNL     1       8.522  28.673 -12.447  1.00  0.00     0.000 C 
ENDROOT
BRANCH   1   2
ATOM      2  C   UNL     1       7.732  29.797 -13.139  1.00  0.00     0.000 C 
BRANCH   2   3
ATOM      3  C   UNL     1       7.744  29.702 -14.680  1.00  0.00     0.000 C 
BRANCH   3   4
ATOM      4  C   UNL     1       6.324  29.670 -15.272  1.00  0.00     0.006 C 
BRANCH   4   5
ATOM      5  C   UNL     1       5.610  31.022 -15.144  1.00  0.00     0.053 C 
BRANCH   5   6
ATOM      6  C   UNL     1       6.156  32.033 -16.105  1.00  0.00     0.041 C 
ATOM      7  O   UNL     1       6.790  33.034 -15.681  1.00  0.00    -0.550 OA
ATOM      8  O   UNL     1       5.931  31.889 -17.469  1.00  0.00    -0.550 OA
ENDBRANCH   5   6
ENDBRANCH   4   5
ENDBRANCH   3   4
ENDBRANCH   2   3
ENDBRANCH   1   2
BRANCH   1   9
ATOM      9  C   UNL     1       8.415  27.327 -13.185  1.00  0.00     0.000 C 
BRANCH   9  10
ATOM     10  C   UNL     1       7.138  26.553 -12.825  1.00  0.00    -0.000 C 
BRANCH  10  11
ATOM     11  C   UNL     1       7.423  25.090 -12.442  1.00  0.00    -0.000 C 
BRANCH  11  12
ATOM     12  C   UNL     1       8.816  24.896 -11.813  1.00  0.00    -0.000 C 
BRANCH  12  13
ATOM     13  C   UNL     1       8.806  24.392 -10.358  1.00  0.00    -0.003 C 
ATOM     14  C   UNL     1       7.646  23.444 -10.060  1.00  0.00     0.004 C 
ENDBRANCH  12  13
ENDBRANCH  11  12
ENDBRANCH  10  11
ENDBRANCH   9  10
ENDBRANCH   1   9
TORSDOF 10
ENDMDL
MODEL 2
REMARK VINA RESULT:    -4.451      1.400      2.007
REMARK INTER + INTRA:          -7.742
REMARK INTER:                  -6.835
REMARK INTRA:                  -0.907
REMARK UNBOUND:                -0.689
REMARK SMILES CCCCCCCCCCCC(=O)[O-]
REMARK SMILES IDX 7 1 8 2 9 3 10 4 11 5 12 6 13 7 14 8 6 9 5 10 4 11 3 12 2 13
REMARK SMILES IDX 1 14
REMARK H PARENT
REMARK Flexibility Score: inf
ROOT
ATOM      1  C   UNL     1       9.257  28.711 -12.734  1.00  0.00     0.000 C 
ENDROOT
BRANCH   1   2
ATOM      2  C   UNL     1       7.732  28.916 -12.758  1.00  0.00     0.000 C 
BRANCH   2   3
ATOM      3  C   UNL     1       7.003  28.010 -13.773  1.00  0.00     0.000 C 
BRANCH   3   4
ATOM      4  C   UNL     1       6.333  28.818 -14.898  1.00  0.00     0.006 C 
BRANCH   4   5
ATOM      5  C   UNL     1       6.854  30.260 -14.968  1.00  0.00     0.053 C 
BRANCH   5   6
ATOM      6  C   UNL     1       5.785  31.219 -15.393  1.00  0.00     0.041 C 
ATOM      7  O   UNL     1       5.892  31.845 -16.480  1.00  0.00    -0.550 OA
ATOM      8  O   UNL     1       4.689  31.448 -14.571  1.00  0.00    -0.550 OA
ENDBRANCH   5   6
ENDBRANCH   4   5
ENDBRANCH   3   4
ENDBRANCH   2   3
ENDBRANCH   1   2
BRANCH   1   9
ATOM      9  C   UNL     1       9.684  27.351 -13.312  1.00  0.00     0.000 C 
BRANCH   9  10
ATOM     10  C   UNL     1      10.651  26.592 -12.389  1.00  0.00    -0.000 C 
BRANCH  10  11
ATOM     11  C   UNL     1       9.921  25.642 -11.424  1.00  0.00    -0.000 C 
BRANCH  11  12
ATOM     12  C   UNL     1       9.062  24.590 -12.152  1.00  0.00    -0.000 C 
BRANCH  12  13
ATOM     13  C   UNL     1       7.679  24.335 -11.527  1.00  0.00    -0.003 C 
ATOM     14  C   UNL     1       6.525  24.804 -12.412  1.00  0.00     0.004 C 
ENDBRANCH  12  13
ENDBRANCH  11  12
ENDBRANCH  10  11
ENDBRANCH   9  10
ENDBRANCH   1   9
TORSDOF 10
ENDMDL
MODEL 3
REMARK VINA RESULT:    -4.444     11.364     13.886
REMARK INTER + INTRA:          -7.731
REMARK INTER:                  -6.689
REMARK INTRA:                  -1.042
REMARK UNBOUND:                -0.689
REMARK SMILES CCCCCCCCCCCC(=O)[O-]
REMARK SMILES IDX 7 1 8 2 9 3 10 4 11 5 12 6 13 7 14 8 6 9 5 10 4 11 3 12 2 13
REMARK SMILES IDX 1 14
REMARK H PARENT
REMARK Flexibility Score: inf
ROOT
ATOM      1  C   UNL     1      -4.047  32.679 -19.094  1.00  0.00     0.000 C 
ENDROOT
BRANCH   1   2
ATOM      2  C   UNL     1      -4.316  34.071 -18.497  1.00  0.00     0.000 C 
BRANCH   2   3
ATOM      3  C   UNL     1      -3.129  34.635 -17.687  1.00  0.00     0.000 C 
BRANCH   3   4
ATOM      4  C   UNL     1      -1.838  33.827 -17.908  1.00  0.00     0.006 C 
BRANCH   4   5
ATOM      5  C   UNL     1      -0.676  34.706 -18.388  1.00  0.00     0.053 C 
BRANCH   5   6
ATOM      6  C   UNL     1       0.199  33.987 -19.368  1.00  0.00     0.041 C 
ATOM      7  O   UNL     1      -0.086  32.817 -19.733  1.00  0.00    -0.550 OA
ATOM      8  O   UNL     1       1.351  34.597 -19.850  1.00  0.00    -0.550 OA
ENDBRANCH   5   6
ENDBRANCH   4   5
ENDBRANCH   3   4
ENDBRANCH   2   3
ENDBRANCH   1   2
BRANCH   1   9
ATOM      9  C   UNL     1      -4.974  31.594 -18.518  1.00  0.00     0.000 C 
BRANCH   9  10
ATOM     10  C   UNL     1      -5.011  31.602 -16.981  1.00  0.00    -0.000 C 
BRANCH  10  11
ATOM     11  C   UNL     1      -6.445  31.638 -16.426  1.00  0.00    -0.000 C 
BRANCH  11  12
ATOM     12  C   UNL     1      -6.933  33.067 -16.120  1.00  0.00    -0.000 C 
BRANCH  12  13
ATOM     13  C   UNL     1      -8.241  33.470 -16.823  1.00  0.00    -0.003 C 
ATOM     14  C   UNL     1      -8.079  33.658 -18.331  1.00  0.00     0.004 C 
ENDBRANCH  12  13
ENDBRANCH  11  12
ENDBRANCH  10  11
ENDBRANCH   9  10
ENDBRANCH   1   9
TORSDOF 10
ENDMDL
MODEL 4
REMARK VINA RESULT:    -4.395      3.791      6.836
REMARK INTER + INTRA:          -7.653
REMARK INTER:                  -6.774
REMARK INTRA:                  -0.879
REMARK UNBOUND:                -0.689
REMARK SMILES CCCCCCCCCCCC(=O)[O-]
REMARK SMILES IDX 7 1 8 2 9 3 10 4 11 5 12 6 13 7 14 8 6 9 5 10 4 11 3 12 2 13
REMARK SMILES IDX 1 14
REMARK H PARENT
REMARK Flexibility Score: inf
ROOT
ATOM      1  C   UNL     1       9.728  28.767 -12.701  1.00  0.00     0.000 C 
ENDROOT
BRANCH   1   2
ATOM      2  C   UNL     1       9.908  27.354 -13.283  1.00  0.00     0.000 C 
BRANCH   2   3
ATOM      3  C   UNL     1      10.618  26.376 -12.323  1.00  0.00     0.000 C 
BRANCH   3   4
ATOM      4  C   UNL     1       9.623  25.476 -11.570  1.00  0.00     0.006 C 
BRANCH   4   5
ATOM      5  C   UNL     1       8.726  24.675 -12.523  1.00  0.00     0.053 C 
BRANCH   5   6
ATOM      6  C   UNL     1       7.371  24.428 -11.937  1.00  0.00     0.041 C 
ATOM      7  O   UNL     1       6.336  24.781 -12.561  1.00  0.00    -0.550 OA
ATOM      8  O   UNL     1       7.251  23.841 -10.683  1.00  0.00    -0.550 OA
ENDBRANCH   5   6
ENDBRANCH   4   5
ENDBRANCH   3   4
ENDBRANCH   2   3
ENDBRANCH   1   2
BRANCH   1   9
ATOM      9  C   UNL     1       8.254  29.206 -12.650  1.00  0.00     0.000 C 
BRANCH   9  10
ATOM     10  C   UNL     1       7.298  28.140 -13.206  1.00  0.00    -0.000 C 
BRANCH  10  11
ATOM     11  C   UNL     1       6.641  28.569 -14.529  1.00  0.00    -0.000 C 
BRANCH  11  12
ATOM     12  C   UNL     1       6.980  30.018 -14.924  1.00  0.00    -0.000 C 
BRANCH  12  13
ATOM     13  C   UNL     1       5.766  30.952 -15.074  1.00  0.00    -0.003 C 
ATOM     14  C   UNL     1       5.911  31.943 -16.228  1.00  0.00     0.004 C 
ENDBRANCH  12  13
ENDBRANCH  11  12
ENDBRANCH  10  11
ENDBRANCH   9  10
ENDBRANCH   1   9
TORSDOF 10
ENDMDL
MODEL 5
REMARK VINA RESULT:    -4.389      4.162      6.536
REMARK INTER + INTRA:          -7.643
REMARK INTER:                  -6.529
REMARK INTRA:                  -1.115
REMARK UNBOUND:                -0.689
REMARK SMILES CCCCCCCCCCCC(=O)[O-]
REMARK SMILES IDX 7 1 8 2 9 3 10 4 11 5 12 6 13 7 14 8 6 9 5 10 4 11 3 12 2 13
REMARK SMILES IDX 1 14
REMARK H PARENT
REMARK Flexibility Score: inf
ROOT
ATOM      1  C   UNL     1      10.529  27.659 -14.853  1.00  0.00     0.000 C 
ENDROOT
BRANCH   1   2
ATOM      2  C   UNL     1      11.125  26.258 -14.632  1.00  0.00     0.000 C 
BRANCH   2   3
ATOM      3  C   UNL     1      10.065  25.176 -14.334  1.00  0.00     0.000 C 
BRANCH   3   4
ATOM      4  C   UNL     1       9.401  25.375 -12.961  1.00  0.00     0.006 C 
BRANCH   4   5
ATOM      5  C   UNL     1       8.934  24.051 -12.343  1.00  0.00     0.053 C 
BRANCH   5   6
ATOM      6  C   UNL     1       7.654  24.211 -11.583  1.00  0.00     0.041 C 
ATOM      7  O   UNL     1       6.646  24.719 -12.140  1.00  0.00    -0.550 OA
ATOM      8  O   UNL     1       7.585  23.831 -10.249  1.00  0.00    -0.550 OA
ENDBRANCH   5   6
ENDBRANCH   4   5
ENDBRANCH   3   4
ENDBRANCH   2   3
ENDBRANCH   1   2
BRANCH   1   9
ATOM      9  C   UNL     1      11.096  28.707 -13.879  1.00  0.00     0.000 C 
BRANCH   9  10
ATOM     10  C   UNL     1      10.234  28.871 -12.617  1.00  0.00    -0.000 C 
BRANCH  10  11
ATOM     11  C   UNL     1       8.898  29.578 -12.903  1.00  0.00    -0.000 C 
BRANCH  11  12
ATOM     12  C   UNL     1       7.675  28.678 -12.641  1.00  0.00    -0.000 C 
BRANCH  12  13
ATOM     13  C   UNL     1       7.048  28.052 -13.899  1.00  0.00    -0.003 C 
ATOM     14  C   UNL     1       6.515  29.092 -14.884  1.00  0.00     0.004 C 
ENDBRANCH  12  13
ENDBRANCH  11  12
ENDBRANCH  10  11
ENDBRANCH   9  10
ENDBRANCH   1   9
TORSDOF 10
ENDMDL
MODEL 6
REMARK VINA RESULT:    -4.369      4.240      7.617
REMARK INTER + INTRA:          -7.612
REMARK INTER:                  -7.046
REMARK INTRA:                  -0.566
REMARK UNBOUND:                -0.689
REMARK SMILES CCCCCCCCCCCC(=O)[O-]
REMARK SMILES IDX 7 1 8 2 9 3 10 4 11 5 12 6 13 7 14 8 6 9 5 10 4 11 3 12 2 13
REMARK SMILES IDX 1 14
REMARK H PARENT
REMARK Flexibility Score: inf
ROOT
ATOM      1  C   UNL     1       8.987  28.207 -12.884  1.00  0.00     0.000 C 
ENDROOT
BRANCH   1   2
ATOM      2  C   UNL     1       8.644  26.721 -13.082  1.00  0.00     0.000 C 
BRANCH   2   3
ATOM      3  C   UNL     1       7.149  26.399 -12.869  1.00  0.00     0.000 C 
BRANCH   3   4
ATOM      4  C   UNL     1       6.927  24.945 -12.415  1.00  0.00     0.006 C 
BRANCH   4   5
ATOM      5  C   UNL     1       8.239  24.246 -12.038  1.00  0.00     0.053 C 
BRANCH   5   6
ATOM      6  C   UNL     1       8.314  23.953 -10.572  1.00  0.00     0.041 C 
ATOM      7  O   UNL     1       9.083  24.620  -9.830  1.00  0.00    -0.550 OA
ATOM      8  O   UNL     1       7.562  22.919 -10.029  1.00  0.00    -0.550 OA
ENDBRANCH   5   6
ENDBRANCH   4   5
ENDBRANCH   3   4
ENDBRANCH   2   3
ENDBRANCH   1   2
BRANCH   1   9
ATOM      9  C   UNL     1       7.738  29.090 -12.718  1.00  0.00     0.000 C 
BRANCH   9  10
ATOM     10  C   UNL     1       7.680  30.234 -13.743  1.00  0.00    -0.000 C 
BRANCH  10  11
ATOM     11  C   UNL     1       6.770  29.908 -14.939  1.00  0.00    -0.000 C 
BRANCH  11  12
ATOM     12  C   UNL     1       5.795  31.051 -15.280  1.00  0.00    -0.000 C 
BRANCH  12  13
ATOM     13  C   UNL     1       6.389  32.175 -16.148  1.00  0.00    -0.003 C 
ATOM     14  C   UNL     1       5.779  32.237 -17.547  1.00  0.00     0.004 C 
ENDBRANCH  12  13
ENDBRANCH  11  12
ENDBRANCH  10  11
ENDBRANCH   9  10
ENDBRANCH   1   9
TORSDOF 10
ENDMDL
MODEL 7
REMARK VINA RESULT:    -4.346      9.977     12.111
REMARK INTER + INTRA:          -7.576
REMARK INTER:                  -6.117
REMARK INTRA:                  -1.459
REMARK UNBOUND:                -0.689
REMARK SMILES CCCCCCCCCCCC(=O)[O-]
REMARK SMILES IDX 7 1 8 2 9 3 10 4 11 5 12 6 13 7 14 8 6 9 5 10 4 11 3 12 2 13
REMARK SMILES IDX 1 14
REMARK H PARENT
REMARK Flexibility Score: inf
ROOT
ATOM      1  C   UNL     1       0.641  21.392  -6.375  1.00  0.00     0.000 C 
ENDROOT
BRANCH   1   2
ATOM      2  C   UNL     1       1.212  21.691  -7.773  1.00  0.00     0.000 C 
BRANCH   2   3
ATOM      3  C   UNL     1       2.698  21.304  -7.929  1.00  0.00     0.000 C 
BRANCH   3   4
ATOM      4  C   UNL     1       3.129  21.237  -9.404  1.00  0.00     0.006 C 
BRANCH   4   5
ATOM      5  C   UNL     1       2.010  20.713 -10.314  1.00  0.00     0.053 C 
BRANCH   5   6
ATOM      6  C   UNL     1       2.555  20.008 -11.517  1.00  0.00     0.041 C 
ATOM      7  O   UNL     1       2.384  20.490 -12.667  1.00  0.00    -0.550 OA
ATOM      8  O   UNL     1       3.221  18.797 -11.372  1.00  0.00    -0.550 OA
ENDBRANCH   5   6
ENDBRANCH   4   5
ENDBRANCH   3   4
ENDBRANCH   2   3
ENDBRANCH   1   2
BRANCH   1   9
ATOM      9  C   UNL     1       1.656  20.692  -5.455  1.00  0.00     0.000 C 
BRANCH   9  10
ATOM     10  C   UNL     1       1.129  19.361  -4.895  1.00  0.00    -0.000 C 
BRANCH  10  11
ATOM     11  C   UNL     1      -0.163  18.899  -5.590  1.00  0.00    -0.000 C 
BRANCH  11  12
ATOM     12  C   UNL     1       0.052  17.676  -6.503  1.00  0.00    -0.000 C 
BRANCH  12  13
ATOM     13  C   UNL     1       0.533  18.006  -7.927  1.00  0.00    -0.003 C 
ATOM     14  C   UNL     1       2.002  17.652  -8.160  1.00  0.00     0.004 C 
ENDBRANCH  12  13
ENDBRANCH  11  12
ENDBRANCH  10  11
ENDBRANCH   9  10
ENDBRANCH   1   9
TORSDOF 10
ENDMDL
MODEL 8
REMARK VINA RESULT:    -4.321      1.962      2.921
REMARK INTER + INTRA:          -7.536
REMARK INTER:                  -6.490
REMARK INTRA:                  -1.047
REMARK UNBOUND:                -0.689
REMARK SMILES CCCCCCCCCCCC(=O)[O-]
REMARK SMILES IDX 7 1 8 2 9 3 10 4 11 5 12 6 13 7 14 8 6 9 5 10 4 11 3 12 2 13
REMARK SMILES IDX 1 14
REMARK H PARENT
REMARK Flexibility Score: inf
ROOT
ATOM      1  C   UNL     1      10.689  26.624 -12.618  1.00  0.00     0.000 C 
ENDROOT
BRANCH   1   2
ATOM      2  C   UNL     1      10.611  28.138 -12.354  1.00  0.00     0.000 C 
BRANCH   2   3
ATOM      3  C   UNL     1       9.591  28.870 -13.253  1.00  0.00     0.000 C 
BRANCH   3   4
ATOM      4  C   UNL     1       8.153  28.750 -12.717  1.00  0.00     0.006 C 
BRANCH   4   5
ATOM      5  C   UNL     1       7.197  28.141 -13.751  1.00  0.00     0.053 C 
BRANCH   5   6
ATOM      6  C   UNL     1       6.598  29.187 -14.640  1.00  0.00     0.041 C 
ATOM      7  O   UNL     1       6.078  28.862 -15.739  1.00  0.00    -0.550 OA
ATOM      8  O   UNL     1       6.648  30.526 -14.271  1.00  0.00    -0.550 OA
ENDBRANCH   5   6
ENDBRANCH   4   5
ENDBRANCH   3   4
ENDBRANCH   2   3
ENDBRANCH   1   2
BRANCH   1   9
ATOM      9  C   UNL     1      10.439  26.263 -14.092  1.00  0.00     0.000 C 
BRANCH   9  10
ATOM     10  C   UNL     1       9.816  24.868 -14.264  1.00  0.00    -0.000 C 
BRANCH  10  11
ATOM     11  C   UNL     1       9.268  24.300 -12.944  1.00  0.00    -0.000 C 
BRANCH  11  12
ATOM     12  C   UNL     1       7.802  24.696 -12.685  1.00  0.00    -0.000 C 
BRANCH  12  13
ATOM     13  C   UNL     1       7.269  24.333 -11.287  1.00  0.00    -0.003 C 
ATOM     14  C   UNL     1       8.376  23.965 -10.300  1.00  0.00     0.004 C 
ENDBRANCH  12  13
ENDBRANCH  11  12
ENDBRANCH  10  11
ENDBRANCH   9  10
ENDBRANCH   1   9
TORSDOF 10
ENDMDL
MODEL 9
REMARK VINA RESULT:    -4.284     10.329     12.536
REMARK INTER + INTRA:          -7.478
REMARK INTER:                  -6.076
REMARK INTRA:                  -1.402
REMARK UNBOUND:                -0.689
REMARK SMILES CCCCCCCCCCCC(=O)[O-]
REMARK SMILES IDX 7 1 8 2 9 3 10 4 11 5 12 6 13 7 14 8 6 9 5 10 4 11 3 12 2 13
REMARK SMILES IDX 1 14
REMARK H PARENT
REMARK Flexibility Score: inf
ROOT
ATOM      1  C   UNL     1       0.672  17.592  -6.516  1.00  0.00     0.000 C 
ENDROOT
BRANCH   1   2
ATOM      2  C   UNL     1       1.551  17.944  -7.730  1.00  0.00     0.000 C 
BRANCH   2   3
ATOM      3  C   UNL     1       0.743  18.315  -8.991  1.00  0.00     0.000 C 
BRANCH   3   4
ATOM      4  C   UNL     1       1.556  18.116 -10.282  1.00  0.00     0.006 C 
BRANCH   4   5
ATOM      5  C   UNL     1       2.642  19.185 -10.456  1.00  0.00     0.053 C 
BRANCH   5   6
ATOM      6  C   UNL     1       2.294  20.164 -11.535  1.00  0.00     0.041 C 
ATOM      7  O   UNL     1       1.971  19.755 -12.681  1.00  0.00    -0.550 OA
ATOM      8  O   UNL     1       2.361  21.529 -11.284  1.00  0.00    -0.550 OA
ENDBRANCH   5   6
ENDBRANCH   4   5
ENDBRANCH   3   4
ENDBRANCH   2   3
ENDBRANCH   1   2
BRANCH   1   9
ATOM      9  C   UNL     1      -0.116  18.801  -5.981  1.00  0.00     0.000 C 
BRANCH   9  10
ATOM     10  C   UNL     1       0.660  19.589  -4.914  1.00  0.00    -0.000 C 
BRANCH  10  11
ATOM     11  C   UNL     1       1.084  20.984  -5.403  1.00  0.00    -0.000 C 
BRANCH  11  12
ATOM     12  C   UNL     1       0.450  21.364  -6.754  1.00  0.00    -0.000 C 
BRANCH  12  13
ATOM     13  C   UNL     1       1.455  21.706  -7.869  1.00  0.00    -0.003 C 
ATOM     14  C   UNL     1       2.897  21.358  -7.504  1.00  0.00     0.004 C 
ENDBRANCH  12  13
ENDBRANCH  11  12
ENDBRANCH  10  11
ENDBRANCH   9  10
ENDBRANCH   1   9
TORSDOF 10
ENDMDL
