MODEL 1
REMARK VINA RESULT:     6.201      0.000      0.000
REMARK INTER + INTRA:          15.435
REMARK INTER:                  16.352
REMARK INTRA:                  -0.917
REMARK UNBOUND:                -0.917
REMARK SMILES CCCCCCCCCCCCCCCCCCCCCCCCCCCCCC(=O)[O-]
REMARK SMILES IDX 16 1 17 2 18 3 19 4 20 5 21 6 22 7 23 8 24 9 25 10 26 11
REMARK SMILES IDX 27 12 28 13 29 14 30 15 31 16 32 17 15 18 14 19 13 20 12 21
REMARK SMILES IDX 11 22 10 23 9 24 8 25 7 26 6 27 5 28 4 29 3 30 2 31 1 32
REMARK H PARENT
REMARK Flexibility Score: inf
ROOT
ATOM      1  C   UNL     1     -23.272   0.600 -33.487  1.00  0.00     0.000 C 
ENDROOT
BRANCH   1   2
ATOM      2  C   UNL     1     -23.038  -0.206 -32.197  1.00  0.00     0.000 C 
BRANCH   2   3
ATOM      3  C   UNL     1     -23.048  -1.726 -32.433  1.00  0.00     0.000 C 
BRANCH   3   4
ATOM      4  C   UNL     1     -22.459  -2.507 -31.246  1.00  0.00     0.000 C 
BRANCH   4   5
ATOM      5  C   UNL     1     -22.977  -3.951 -31.169  1.00  0.00     0.000 C 
BRANCH   5   6
ATOM      6  C   UNL     1     -21.870  -4.904 -30.702  1.00  0.00     0.000 C 
BRANCH   6   7
ATOM      7  C   UNL     1     -22.444  -6.283 -30.344  1.00  0.00     0.000 C 
BRANCH   7   8
ATOM      8  C   UNL     1     -21.393  -7.401 -30.436  1.00  0.00     0.000 C 
BRANCH   8   9
ATOM      9  C   UNL     1     -21.048  -8.004 -29.063  1.00  0.00     0.000 C 
BRANCH   9  10
ATOM     10  C   UNL     1     -20.216  -7.041 -28.189  1.00  0.00     0.000 C 
BRANCH  10  11
ATOM     11  C   UNL     1     -21.065  -6.178 -27.237  1.00  0.00     0.000 C 
BRANCH  11  12
ATOM     12  C   UNL     1     -22.135  -6.948 -26.438  1.00  0.00     0.000 C 
BRANCH  12  13
ATOM     13  C   UNL     1     -22.552  -8.300 -27.045  1.00  0.00     0.006 C 
BRANCH  13  14
ATOM     14  C   UNL     1     -24.041  -8.360 -27.406  1.00  0.00     0.053 C 
BRANCH  14  15
ATOM     15  C   UNL     1     -24.840  -8.873 -26.248  1.00  0.00     0.041 C 
ATOM     16  O   UNL     1     -26.097  -8.785 -26.259  1.00  0.00    -0.550 OA
ATOM     17  O   UNL     1     -24.203  -9.493 -25.183  1.00  0.00    -0.550 OA
ENDBRANCH  14  15
ENDBRANCH  13  14
ENDBRANCH  12  13
ENDBRANCH  11  12
ENDBRANCH  10  11
ENDBRANCH   9  10
ENDBRANCH   8   9
ENDBRANCH   7   8
ENDBRANCH   6   7
ENDBRANCH   5   6
ENDBRANCH   4   5
ENDBRANCH   3   4
ENDBRANCH   2   3
ENDBRANCH   1   2
BRANCH   1  18
ATOM     18  C   UNL     1     -22.306   1.782 -33.713  1.00  0.00     0.000 C 
BRANCH  18  19
ATOM     19  C   UNL     1     -22.659   2.710 -34.891  1.00  0.00     0.000 C 
BRANCH  19  20
ATOM     20  C   UNL     1     -22.435   2.052 -36.263  1.00  0.00     0.000 C 
BRANCH  20  21
ATOM     21  C   UNL     1     -22.939   2.920 -37.430  1.00  0.00     0.000 C 
BRANCH  21  22
ATOM     22  C   UNL     1     -22.974   4.434 -37.151  1.00  0.00     0.000 C 
BRANCH  22  23
ATOM     23  C   UNL     1     -24.209   5.124 -37.749  1.00  0.00     0.000 C 
BRANCH  23  24
ATOM     24  C   UNL     1     -25.498   4.438 -37.282  1.00  0.00    -0.000 C 
BRANCH  24  25
ATOM     25  C   UNL     1     -26.628   4.632 -38.303  1.00  0.00    -0.000 C 
BRANCH  25  26
ATOM     26  C   UNL     1     -27.953   5.068 -37.653  1.00  0.00    -0.000 C 
BRANCH  26  27
ATOM     27  C   UNL     1     -27.940   5.124 -36.111  1.00  0.00    -0.000 C 
BRANCH  27  28
ATOM     28  C   UNL     1     -28.040   3.759 -35.407  1.00  0.00    -0.000 C 
BRANCH  28  29
ATOM     29  C   UNL     1     -27.691   3.831 -33.912  1.00  0.00    -0.000 C 
BRANCH  29  30
ATOM     30  C   UNL     1     -26.202   3.532 -33.684  1.00  0.00    -0.000 C 
BRANCH  30  31
ATOM     31  C   UNL     1     -25.497   4.633 -32.878  1.00  0.00    -0.003 C 
ATOM     32  C   UNL     1     -24.407   4.082 -31.957  1.00  0.00     0.004 C 
ENDBRANCH  30  31
ENDBRANCH  29  30
ENDBRANCH  28  29
ENDBRANCH  27  28
ENDBRANCH  26  27
ENDBRANCH  25  26
ENDBRANCH  24  25
ENDBRANCH  23  24
ENDBRANCH  22  23
ENDBRANCH  21  22
ENDBRANCH  20  21
ENDBRANCH  19  20
ENDBRANCH  18  19
ENDBRANCH   1  18
TORSDOF 28
ENDMDL
MODEL 2
REMARK VINA RESULT:     6.555      2.009      4.097
REMARK INTER + INTRA:          16.367
REMARK INTER:                  17.848
REMARK INTRA:                  -1.481
REMARK UNBOUND:                -0.917
REMARK SMILES CCCCCCCCCCCCCCCCCCCCCCCCCCCCCC(=O)[O-]
REMARK SMILES IDX 16 1 17 2 18 3 19 4 20 5 21 6 22 7 23 8 24 9 25 10 26 11
REMARK SMILES IDX 27 12 28 13 29 14 30 15 31 16 32 17 15 18 14 19 13 20 12 21
REMARK SMILES IDX 11 22 10 23 9 24 8 25 7 26 6 27 5 28 4 29 3 30 2 31 1 32
REMARK H PARENT
REMARK Flexibility Score: inf
ROOT
ATOM      1  C   UNL     1     -24.825   1.876 -32.945  1.00  0.00     0.000 C 
ENDROOT
BRANCH   1   2
ATOM      2  C   UNL     1     -24.239   0.936 -31.876  1.00  0.00     0.000 C 
BRANCH   2   3
ATOM      3  C   UNL     1     -23.308  -0.135 -32.468  1.00  0.00     0.000 C 
BRANCH   3   4
ATOM      4  C   UNL     1     -22.930  -1.216 -31.442  1.00  0.00     0.000 C 
BRANCH   4   5
ATOM      5  C   UNL     1     -22.667  -2.584 -32.089  1.00  0.00     0.000 C 
BRANCH   5   6
ATOM      6  C   UNL     1     -23.152  -3.720 -31.180  1.00  0.00     0.000 C 
BRANCH   6   7
ATOM      7  C   UNL     1     -21.973  -4.400 -30.470  1.00  0.00     0.000 C 
BRANCH   7   8
ATOM      8  C   UNL     1     -21.707  -5.821 -30.996  1.00  0.00     0.000 C 
BRANCH   8   9
ATOM      9  C   UNL     1     -22.216  -6.911 -30.037  1.00  0.00     0.000 C 
BRANCH   9  10
ATOM     10  C   UNL     1     -21.129  -7.956 -29.703  1.00  0.00     0.000 C 
BRANCH  10  11
ATOM     11  C   UNL     1     -20.514  -7.785 -28.301  1.00  0.00     0.000 C 
BRANCH  11  12
ATOM     12  C   UNL     1     -21.020  -6.562 -27.512  1.00  0.00     0.000 C 
BRANCH  12  13
ATOM     13  C   UNL     1     -21.699  -6.891 -26.170  1.00  0.00     0.006 C 
BRANCH  13  14
ATOM     14  C   UNL     1     -23.227  -6.969 -26.276  1.00  0.00     0.053 C 
BRANCH  14  15
ATOM     15  C   UNL     1     -23.671  -8.393 -26.404  1.00  0.00     0.041 C 
ATOM     16  O   UNL     1     -24.460  -8.888 -25.555  1.00  0.00    -0.550 OA
ATOM     17  O   UNL     1     -23.256  -9.158 -27.485  1.00  0.00    -0.550 OA
ENDBRANCH  14  15
ENDBRANCH  13  14
ENDBRANCH  12  13
ENDBRANCH  11  12
ENDBRANCH  10  11
ENDBRANCH   9  10
ENDBRANCH   8   9
ENDBRANCH   7   8
ENDBRANCH   6   7
ENDBRANCH   5   6
ENDBRANCH   4   5
ENDBRANCH   3   4
ENDBRANCH   2   3
ENDBRANCH   1   2
BRANCH   1  18
ATOM     18  C   UNL     1     -24.784   3.379 -32.599  1.00  0.00     0.000 C 
BRANCH  18  19
ATOM     19  C   UNL     1     -23.765   4.215 -33.395  1.00  0.00     0.000 C 
BRANCH  19  20
ATOM     20  C   UNL     1     -22.745   3.353 -34.157  1.00  0.00     0.000 C 
BRANCH  20  21
ATOM     21  C   UNL     1     -22.410   3.917 -35.551  1.00  0.00     0.000 C 
BRANCH  21  22
ATOM     22  C   UNL     1     -23.279   5.106 -36.000  1.00  0.00     0.000 C 
BRANCH  22  23
ATOM     23  C   UNL     1     -24.357   4.707 -37.019  1.00  0.00     0.000 C 
BRANCH  23  24
ATOM     24  C   UNL     1     -23.950   5.125 -38.437  1.00  0.00    -0.000 C 
BRANCH  24  25
ATOM     25  C   UNL     1     -22.926   4.145 -39.028  1.00  0.00    -0.000 C 
BRANCH  25  26
ATOM     26  C   UNL     1     -23.430   2.690 -39.044  1.00  0.00    -0.000 C 
BRANCH  26  27
ATOM     27  C   UNL     1     -23.038   1.846 -37.814  1.00  0.00    -0.000 C 
BRANCH  27  28
ATOM     28  C   UNL     1     -23.233   0.328 -37.975  1.00  0.00    -0.000 C 
BRANCH  28  29
ATOM     29  C   UNL     1     -22.184  -0.315 -38.895  1.00  0.00    -0.000 C 
BRANCH  29  30
ATOM     30  C   UNL     1     -21.954  -1.785 -38.517  1.00  0.00    -0.000 C 
BRANCH  30  31
ATOM     31  C   UNL     1     -20.859  -1.956 -37.453  1.00  0.00    -0.003 C 
ATOM     32  C   UNL     1     -20.611  -3.420 -37.093  1.00  0.00     0.004 C 
ENDBRANCH  30  31
ENDBRANCH  29  30
ENDBRANCH  28  29
ENDBRANCH  27  28
ENDBRANCH  26  27
ENDBRANCH  25  26
ENDBRANCH  24  25
ENDBRANCH  23  24
ENDBRANCH  22  23
ENDBRANCH  21  22
ENDBRANCH  20  21
ENDBRANCH  19  20
ENDBRANCH  18  19
ENDBRANCH   1  18
TORSDOF 28
ENDMDL
MODEL 3
REMARK VINA RESULT:     6.657      1.247      3.986
REMARK INTER + INTRA:          16.635
REMARK INTER:                  16.872
REMARK INTRA:                  -0.237
REMARK UNBOUND:                -0.917
REMARK SMILES CCCCCCCCCCCCCCCCCCCCCCCCCCCCCC(=O)[O-]
REMARK SMILES IDX 16 1 17 2 18 3 19 4 20 5 21 6 22 7 23 8 24 9 25 10 26 11
REMARK SMILES IDX 27 12 28 13 29 14 30 15 31 16 32 17 15 18 14 19 13 20 12 21
REMARK SMILES IDX 11 22 10 23 9 24 8 25 7 26 6 27 5 28 4 29 3 30 2 31 1 32
REMARK H PARENT
REMARK Flexibility Score: inf
ROOT
ATOM      1  C   UNL     1     -25.909   2.435 -33.739  1.00  0.00     0.000 C 
ENDROOT
BRANCH   1   2
ATOM      2  C   UNL     1     -25.137   2.102 -32.449  1.00  0.00     0.000 C 
BRANCH   2   3
ATOM      3  C   UNL     1     -23.838   1.323 -32.715  1.00  0.00     0.000 C 
BRANCH   3   4
ATOM      4  C   UNL     1     -23.537   0.291 -31.615  1.00  0.00     0.000 C 
BRANCH   4   5
ATOM      5  C   UNL     1     -22.501  -0.755 -32.050  1.00  0.00     0.000 C 
BRANCH   5   6
ATOM      6  C   UNL     1     -23.165  -2.119 -32.279  1.00  0.00     0.000 C 
BRANCH   6   7
ATOM      7  C   UNL     1     -23.013  -3.020 -31.045  1.00  0.00     0.000 C 
BRANCH   7   8
ATOM      8  C   UNL     1     -22.102  -4.231 -31.306  1.00  0.00     0.000 C 
BRANCH   8   9
ATOM      9  C   UNL     1     -21.934  -5.125 -30.066  1.00  0.00     0.000 C 
BRANCH   9  10
ATOM     10  C   UNL     1     -21.979  -6.629 -30.414  1.00  0.00     0.000 C 
BRANCH  10  11
ATOM     11  C   UNL     1     -21.350  -7.533 -29.337  1.00  0.00     0.000 C 
BRANCH  11  12
ATOM     12  C   UNL     1     -21.022  -6.830 -28.005  1.00  0.00     0.000 C 
BRANCH  12  13
ATOM     13  C   UNL     1     -22.039  -7.072 -26.875  1.00  0.00     0.006 C 
BRANCH  13  14
ATOM     14  C   UNL     1     -22.451  -8.543 -26.746  1.00  0.00     0.053 C 
BRANCH  14  15
ATOM     15  C   UNL     1     -23.929  -8.657 -26.535  1.00  0.00     0.041 C 
ATOM     16  O   UNL     1     -24.728  -8.184 -27.387  1.00  0.00    -0.550 OA
ATOM     17  O   UNL     1     -24.425  -9.327 -25.426  1.00  0.00    -0.550 OA
ENDBRANCH  14  15
ENDBRANCH  13  14
ENDBRANCH  12  13
ENDBRANCH  11  12
ENDBRANCH  10  11
ENDBRANCH   9  10
ENDBRANCH   8   9
ENDBRANCH   7   8
ENDBRANCH   6   7
ENDBRANCH   5   6
ENDBRANCH   4   5
ENDBRANCH   3   4
ENDBRANCH   2   3
ENDBRANCH   1   2
BRANCH   1  18
ATOM     18  C   UNL     1     -27.118   3.378 -33.562  1.00  0.00     0.000 C 
BRANCH  18  19
ATOM     19  C   UNL     1     -26.841   4.869 -33.832  1.00  0.00     0.000 C 
BRANCH  19  20
ATOM     20  C   UNL     1     -25.511   5.110 -34.566  1.00  0.00     0.000 C 
BRANCH  20  21
ATOM     21  C   UNL     1     -25.669   5.125 -36.097  1.00  0.00     0.000 C 
BRANCH  21  22
ATOM     22  C   UNL     1     -27.122   5.100 -36.605  1.00  0.00     0.000 C 
BRANCH  22  23
ATOM     23  C   UNL     1     -27.236   4.666 -38.074  1.00  0.00     0.000 C 
BRANCH  23  24
ATOM     24  C   UNL     1     -26.012   5.124 -38.875  1.00  0.00    -0.000 C 
BRANCH  24  25
ATOM     25  C   UNL     1     -24.741   4.401 -38.404  1.00  0.00    -0.000 C 
BRANCH  25  26
ATOM     26  C   UNL     1     -23.472   4.892 -39.124  1.00  0.00    -0.000 C 
BRANCH  26  27
ATOM     27  C   UNL     1     -22.245   3.966 -38.997  1.00  0.00    -0.000 C 
BRANCH  27  28
ATOM     28  C   UNL     1     -21.881   3.558 -37.558  1.00  0.00    -0.000 C 
BRANCH  28  29
ATOM     29  C   UNL     1     -23.085   3.024 -36.766  1.00  0.00    -0.000 C 
BRANCH  29  30
ATOM     30  C   UNL     1     -22.875   1.553 -36.380  1.00  0.00    -0.000 C 
BRANCH  30  31
ATOM     31  C   UNL     1     -22.131   0.759 -37.464  1.00  0.00    -0.003 C 
ATOM     32  C   UNL     1     -23.062  -0.133 -38.285  1.00  0.00     0.004 C 
ENDBRANCH  30  31
ENDBRANCH  29  30
ENDBRANCH  28  29
ENDBRANCH  27  28
ENDBRANCH  26  27
ENDBRANCH  25  26
ENDBRANCH  24  25
ENDBRANCH  23  24
ENDBRANCH  22  23
ENDBRANCH  21  22
ENDBRANCH  20  21
ENDBRANCH  19  20
ENDBRANCH  18  19
ENDBRANCH   1  18
TORSDOF 28
ENDMDL
MODEL 4
REMARK VINA RESULT:     6.665      3.854     12.399
REMARK INTER + INTRA:          16.658
REMARK INTER:                  17.751
REMARK INTRA:                  -1.093
REMARK UNBOUND:                -0.917
REMARK SMILES CCCCCCCCCCCCCCCCCCCCCCCCCCCCCC(=O)[O-]
REMARK SMILES IDX 16 1 17 2 18 3 19 4 20 5 21 6 22 7 23 8 24 9 25 10 26 11
REMARK SMILES IDX 27 12 28 13 29 14 30 15 31 16 32 17 15 18 14 19 13 20 12 21
REMARK SMILES IDX 11 22 10 23 9 24 8 25 7 26 6 27 5 28 4 29 3 30 2 31 1 32
REMARK H PARENT
REMARK Flexibility Score: inf
ROOT
ATOM      1  C   UNL     1     -25.026   1.851 -33.644  1.00  0.00     0.000 C 
ENDROOT
BRANCH   1   2
ATOM      2  C   UNL     1     -26.247   2.774 -33.491  1.00  0.00     0.000 C 
BRANCH   2   3
ATOM      3  C   UNL     1     -25.881   4.163 -32.941  1.00  0.00     0.000 C 
BRANCH   3   4
ATOM      4  C   UNL     1     -25.310   5.092 -34.026  1.00  0.00     0.000 C 
BRANCH   4   5
ATOM      5  C   UNL     1     -26.029   4.942 -35.375  1.00  0.00     0.000 C 
BRANCH   5   6
ATOM      6  C   UNL     1     -25.020   4.885 -36.528  1.00  0.00     0.000 C 
BRANCH   6   7
ATOM      7  C   UNL     1     -23.789   4.052 -36.144  1.00  0.00     0.000 C 
BRANCH   7   8
ATOM      8  C   UNL     1     -22.467   4.773 -36.455  1.00  0.00     0.000 C 
BRANCH   8   9
ATOM      9  C   UNL     1     -22.321   5.125 -37.946  1.00  0.00     0.000 C 
BRANCH   9  10
ATOM     10  C   UNL     1     -22.265   3.870 -38.844  1.00  0.00     0.000 C 
BRANCH  10  11
ATOM     11  C   UNL     1     -23.399   2.863 -38.574  1.00  0.00     0.000 C 
BRANCH  11  12
ATOM     12  C   UNL     1     -23.156   1.444 -39.125  1.00  0.00     0.000 C 
BRANCH  12  13
ATOM     13  C   UNL     1     -23.219   0.320 -38.075  1.00  0.00     0.006 C 
BRANCH  13  14
ATOM     14  C   UNL     1     -21.837  -0.080 -37.544  1.00  0.00     0.053 C 
BRANCH  14  15
ATOM     15  C   UNL     1     -21.563  -1.523 -37.829  1.00  0.00     0.041 C 
ATOM     16  O   UNL     1     -22.165  -2.108 -38.768  1.00  0.00    -0.550 OA
ATOM     17  O   UNL     1     -20.607  -2.209 -37.093  1.00  0.00    -0.550 OA
ENDBRANCH  14  15
ENDBRANCH  13  14
ENDBRANCH  12  13
ENDBRANCH  11  12
ENDBRANCH  10  11
ENDBRANCH   9  10
ENDBRANCH   8   9
ENDBRANCH   7   8
ENDBRANCH   6   7
ENDBRANCH   5   6
ENDBRANCH   4   5
ENDBRANCH   3   4
ENDBRANCH   2   3
ENDBRANCH   1   2
BRANCH   1  18
ATOM     18  C   UNL     1     -24.007   1.902 -32.486  1.00  0.00     0.000 C 
BRANCH  18  19
ATOM     19  C   UNL     1     -24.061   0.718 -31.503  1.00  0.00     0.000 C 
BRANCH  19  20
ATOM     20  C   UNL     1     -23.082  -0.411 -31.866  1.00  0.00     0.000 C 
BRANCH  20  21
ATOM     21  C   UNL     1     -23.405  -1.734 -31.149  1.00  0.00     0.000 C 
BRANCH  21  22
ATOM     22  C   UNL     1     -22.582  -2.949 -31.616  1.00  0.00     0.000 C 
BRANCH  22  23
ATOM     23  C   UNL     1     -22.642  -4.127 -30.632  1.00  0.00     0.000 C 
BRANCH  23  24
ATOM     24  C   UNL     1     -22.107  -5.408 -31.282  1.00  0.00    -0.000 C 
BRANCH  24  25
ATOM     25  C   UNL     1     -22.559  -6.652 -30.502  1.00  0.00    -0.000 C 
BRANCH  25  26
ATOM     26  C   UNL     1     -21.380  -7.460 -29.931  1.00  0.00    -0.000 C 
BRANCH  26  27
ATOM     27  C   UNL     1     -20.631  -6.790 -28.760  1.00  0.00    -0.000 C 
BRANCH  27  28
ATOM     28  C   UNL     1     -20.719  -7.535 -27.416  1.00  0.00    -0.000 C 
BRANCH  28  29
ATOM     29  C   UNL     1     -22.127  -7.498 -26.804  1.00  0.00    -0.000 C 
BRANCH  29  30
ATOM     30  C   UNL     1     -22.954  -8.706 -27.264  1.00  0.00    -0.000 C 
BRANCH  30  31
ATOM     31  C   UNL     1     -24.455  -8.536 -26.981  1.00  0.00    -0.003 C 
ATOM     32  C   UNL     1     -24.856  -9.047 -25.598  1.00  0.00     0.004 C 
ENDBRANCH  30  31
ENDBRANCH  29  30
ENDBRANCH  28  29
ENDBRANCH  27  28
ENDBRANCH  26  27
ENDBRANCH  25  26
ENDBRANCH  24  25
ENDBRANCH  23  24
ENDBRANCH  22  23
ENDBRANCH  21  22
ENDBRANCH  20  21
ENDBRANCH  19  20
ENDBRANCH  18  19
ENDBRANCH   1  18
TORSDOF 28
ENDMDL
MODEL 5
REMARK VINA RESULT:     6.691      1.682      5.188
REMARK INTER + INTRA:          16.726
REMARK INTER:                  18.538
REMARK INTRA:                  -1.812
REMARK UNBOUND:                -0.917
REMARK SMILES CCCCCCCCCCCCCCCCCCCCCCCCCCCCCC(=O)[O-]
REMARK SMILES IDX 16 1 17 2 18 3 19 4 20 5 21 6 22 7 23 8 24 9 25 10 26 11
REMARK SMILES IDX 27 12 28 13 29 14 30 15 31 16 32 17 15 18 14 19 13 20 12 21
REMARK SMILES IDX 11 22 10 23 9 24 8 25 7 26 6 27 5 28 4 29 3 30 2 31 1 32
REMARK H PARENT
REMARK Flexibility Score: inf
ROOT
ATOM      1  C   UNL     1     -26.367   3.877 -34.100  1.00  0.00     0.000 C 
ENDROOT
BRANCH   1   2
ATOM      2  C   UNL     1     -25.432   4.434 -33.011  1.00  0.00     0.000 C 
BRANCH   2   3
ATOM      3  C   UNL     1     -24.770   3.329 -32.171  1.00  0.00     0.000 C 
BRANCH   3   4
ATOM      4  C   UNL     1     -24.412   2.090 -33.009  1.00  0.00     0.000 C 
BRANCH   4   5
ATOM      5  C   UNL     1     -23.805   0.958 -32.167  1.00  0.00     0.000 C 
BRANCH   5   6
ATOM      6  C   UNL     1     -22.506   0.444 -32.798  1.00  0.00     0.000 C 
BRANCH   6   7
ATOM      7  C   UNL     1     -21.964  -0.772 -32.034  1.00  0.00     0.000 C 
BRANCH   7   8
ATOM      8  C   UNL     1     -23.047  -1.829 -31.761  1.00  0.00     0.000 C 
BRANCH   8   9
ATOM      9  C   UNL     1     -22.498  -3.265 -31.804  1.00  0.00     0.000 C 
BRANCH   9  10
ATOM     10  C   UNL     1     -22.773  -4.040 -30.497  1.00  0.00     0.000 C 
BRANCH  10  11
ATOM     11  C   UNL     1     -22.004  -5.371 -30.392  1.00  0.00     0.000 C 
BRANCH  11  12
ATOM     12  C   UNL     1     -21.825  -5.909 -28.958  1.00  0.00     0.000 C 
BRANCH  12  13
ATOM     13  C   UNL     1     -20.695  -6.941 -28.788  1.00  0.00     0.006 C 
BRANCH  13  14
ATOM     14  C   UNL     1     -20.946  -7.917 -27.632  1.00  0.00     0.053 C 
BRANCH  14  15
ATOM     15  C   UNL     1     -22.358  -7.804 -27.148  1.00  0.00     0.041 C 
ATOM     16  O   UNL     1     -22.609  -7.222 -26.059  1.00  0.00    -0.550 OA
ATOM     17  O   UNL     1     -23.400  -8.295 -27.922  1.00  0.00    -0.550 OA
ENDBRANCH  14  15
ENDBRANCH  13  14
ENDBRANCH  12  13
ENDBRANCH  11  12
ENDBRANCH  10  11
ENDBRANCH   9  10
ENDBRANCH   8   9
ENDBRANCH   7   8
ENDBRANCH   6   7
ENDBRANCH   5   6
ENDBRANCH   4   5
ENDBRANCH   3   4
ENDBRANCH   2   3
ENDBRANCH   1   2
BRANCH   1  18
ATOM     18  C   UNL     1     -27.761   3.430 -33.612  1.00  0.00     0.000 C 
BRANCH  18  19
ATOM     19  C   UNL     1     -28.924   3.712 -34.582  1.00  0.00     0.000 C 
BRANCH  19  20
ATOM     20  C   UNL     1     -28.547   4.692 -35.705  1.00  0.00     0.000 C 
BRANCH  20  21
ATOM     21  C   UNL     1     -29.121   4.280 -37.074  1.00  0.00     0.000 C 
BRANCH  21  22
ATOM     22  C   UNL     1     -28.583   5.079 -38.275  1.00  0.00     0.000 C 
BRANCH  22  23
ATOM     23  C   UNL     1     -27.430   4.368 -38.998  1.00  0.00     0.000 C 
BRANCH  23  24
ATOM     24  C   UNL     1     -26.111   5.124 -38.797  1.00  0.00    -0.000 C 
BRANCH  24  25
ATOM     25  C   UNL     1     -24.906   4.224 -39.110  1.00  0.00    -0.000 C 
BRANCH  25  26
ATOM     26  C   UNL     1     -23.771   4.365 -38.080  1.00  0.00    -0.000 C 
BRANCH  26  27
ATOM     27  C   UNL     1     -23.994   3.615 -36.750  1.00  0.00    -0.000 C 
BRANCH  27  28
ATOM     28  C   UNL     1     -23.930   2.080 -36.848  1.00  0.00    -0.000 C 
BRANCH  28  29
ATOM     29  C   UNL     1     -22.541   1.565 -37.257  1.00  0.00    -0.000 C 
BRANCH  29  30
ATOM     30  C   UNL     1     -22.661   0.311 -38.134  1.00  0.00    -0.000 C 
BRANCH  30  31
ATOM     31  C   UNL     1     -21.711  -0.811 -37.691  1.00  0.00    -0.003 C 
ATOM     32  C   UNL     1     -22.102  -2.174 -38.262  1.00  0.00     0.004 C 
ENDBRANCH  30  31
ENDBRANCH  29  30
ENDBRANCH  28  29
ENDBRANCH  27  28
ENDBRANCH  26  27
ENDBRANCH  25  26
ENDBRANCH  24  25
ENDBRANCH  23  24
ENDBRANCH  22  23
ENDBRANCH  21  22
ENDBRANCH  20  21
ENDBRANCH  19  20
ENDBRANCH  18  19
ENDBRANCH   1  18
TORSDOF 28
ENDMDL
MODEL 6
REMARK VINA RESULT:     6.807      9.033     10.858
REMARK INTER + INTRA:          17.032
REMARK INTER:                  18.705
REMARK INTRA:                  -1.674
REMARK UNBOUND:                -0.917
REMARK SMILES CCCCCCCCCCCCCCCCCCCCCCCCCCCCCC(=O)[O-]
REMARK SMILES IDX 16 1 17 2 18 3 19 4 20 5 21 6 22 7 23 8 24 9 25 10 26 11
REMARK SMILES IDX 27 12 28 13 29 14 30 15 31 16 32 17 15 18 14 19 13 20 12 21
REMARK SMILES IDX 11 22 10 23 9 24 8 25 7 26 6 27 5 28 4 29 3 30 2 31 1 32
REMARK H PARENT
REMARK Flexibility Score: inf
ROOT
ATOM      1  C   UNL     1     -19.899  -2.891 -36.412  1.00  0.00     0.000 C 
ENDROOT
BRANCH   1   2
ATOM      2  C   UNL     1     -18.490  -2.559 -35.889  1.00  0.00     0.000 C 
BRANCH   2   3
ATOM      3  C   UNL     1     -18.111  -3.370 -34.639  1.00  0.00     0.000 C 
BRANCH   3   4
ATOM      4  C   UNL     1     -16.742  -2.963 -34.068  1.00  0.00     0.000 C 
BRANCH   4   5
ATOM      5  C   UNL     1     -15.732  -4.119 -34.065  1.00  0.00     0.000 C 
BRANCH   5   6
ATOM      6  C   UNL     1     -14.440  -3.714 -33.344  1.00  0.00     0.000 C 
BRANCH   6   7
ATOM      7  C   UNL     1     -13.207  -4.293 -34.052  1.00  0.00     0.000 C 
BRANCH   7   8
ATOM      8  C   UNL     1     -12.049  -3.285 -34.140  1.00  0.00     0.000 C 
BRANCH   8   9
ATOM      9  C   UNL     1     -11.559  -3.071 -35.582  1.00  0.00     0.000 C 
BRANCH   9  10
ATOM     10  C   UNL     1     -10.917  -1.681 -35.786  1.00  0.00     0.000 C 
BRANCH  10  11
ATOM     11  C   UNL     1      -9.699  -1.693 -36.730  1.00  0.00     0.000 C 
BRANCH  11  12
ATOM     12  C   UNL     1      -9.664  -0.550 -37.763  1.00  0.00     0.000 C 
BRANCH  12  13
ATOM     13  C   UNL     1      -8.992   0.747 -37.275  1.00  0.00     0.006 C 
BRANCH  13  14
ATOM     14  C   UNL     1      -9.930   1.628 -36.441  1.00  0.00     0.053 C 
BRANCH  14  15
ATOM     15  C   UNL     1     -10.656   2.599 -37.318  1.00  0.00     0.041 C 
ATOM     16  O   UNL     1     -10.049   3.589 -37.805  1.00  0.00    -0.550 OA
ATOM     17  O   UNL     1     -11.989   2.384 -37.640  1.00  0.00    -0.550 OA
ENDBRANCH  14  15
ENDBRANCH  13  14
ENDBRANCH  12  13
ENDBRANCH  11  12
ENDBRANCH  10  11
ENDBRANCH   9  10
ENDBRANCH   8   9
ENDBRANCH   7   8
ENDBRANCH   6   7
ENDBRANCH   5   6
ENDBRANCH   4   5
ENDBRANCH   3   4
ENDBRANCH   2   3
ENDBRANCH   1   2
BRANCH   1  18
ATOM     18  C   UNL     1     -20.707  -1.689 -36.948  1.00  0.00     0.000 C 
BRANCH  18  19
ATOM     19  C   UNL     1     -21.722  -2.017 -38.059  1.00  0.00     0.000 C 
BRANCH  19  20
ATOM     20  C   UNL     1     -21.911  -0.864 -39.059  1.00  0.00     0.000 C 
BRANCH  20  21
ATOM     21  C   UNL     1     -23.262  -0.144 -38.892  1.00  0.00     0.000 C 
BRANCH  21  22
ATOM     22  C   UNL     1     -23.168   1.364 -38.597  1.00  0.00     0.000 C 
BRANCH  22  23
ATOM     23  C   UNL     1     -22.573   1.667 -37.214  1.00  0.00     0.000 C 
BRANCH  23  24
ATOM     24  C   UNL     1     -22.518   3.178 -36.962  1.00  0.00    -0.000 C 
BRANCH  24  25
ATOM     25  C   UNL     1     -23.526   3.923 -37.852  1.00  0.00    -0.000 C 
BRANCH  25  26
ATOM     26  C   UNL     1     -24.233   5.076 -37.118  1.00  0.00    -0.000 C 
BRANCH  26  27
ATOM     27  C   UNL     1     -25.503   4.678 -36.338  1.00  0.00    -0.000 C 
BRANCH  27  28
ATOM     28  C   UNL     1     -25.306   4.487 -34.823  1.00  0.00    -0.000 C 
BRANCH  28  29
ATOM     29  C   UNL     1     -25.657   3.068 -34.349  1.00  0.00    -0.000 C 
BRANCH  29  30
ATOM     30  C   UNL     1     -24.761   2.647 -33.176  1.00  0.00    -0.000 C 
BRANCH  30  31
ATOM     31  C   UNL     1     -23.265   2.807 -33.489  1.00  0.00    -0.003 C 
ATOM     32  C   UNL     1     -22.602   1.488 -33.886  1.00  0.00     0.004 C 
ENDBRANCH  30  31
ENDBRANCH  29  30
ENDBRANCH  28  29
ENDBRANCH  27  28
ENDBRANCH  26  27
ENDBRANCH  25  26
ENDBRANCH  24  25
ENDBRANCH  23  24
ENDBRANCH  22  23
ENDBRANCH  21  22
ENDBRANCH  20  21
ENDBRANCH  19  20
ENDBRANCH  18  19
ENDBRANCH   1  18
TORSDOF 28
ENDMDL
MODEL 7
REMARK VINA RESULT:     6.847      1.113      3.804
REMARK INTER + INTRA:          17.137
REMARK INTER:                  18.733
REMARK INTRA:                  -1.596
REMARK UNBOUND:                -0.917
REMARK SMILES CCCCCCCCCCCCCCCCCCCCCCCCCCCCCC(=O)[O-]
REMARK SMILES IDX 16 1 17 2 18 3 19 4 20 5 21 6 22 7 23 8 24 9 25 10 26 11
REMARK SMILES IDX 27 12 28 13 29 14 30 15 31 16 32 17 15 18 14 19 13 20 12 21
REMARK SMILES IDX 11 22 10 23 9 24 8 25 7 26 6 27 5 28 4 29 3 30 2 31 1 32
REMARK H PARENT
REMARK Flexibility Score: inf
ROOT
ATOM      1  C   UNL     1     -23.579   2.268 -33.954  1.00  0.00     0.000 C 
ENDROOT
BRANCH   1   2
ATOM      2  C   UNL     1     -22.842   1.127 -33.230  1.00  0.00     0.000 C 
BRANCH   2   3
ATOM      3  C   UNL     1     -23.764   0.308 -32.311  1.00  0.00     0.000 C 
BRANCH   3   4
ATOM      4  C   UNL     1     -23.383  -1.181 -32.275  1.00  0.00     0.000 C 
BRANCH   4   5
ATOM      5  C   UNL     1     -22.488  -1.537 -31.078  1.00  0.00     0.000 C 
BRANCH   5   6
ATOM      6  C   UNL     1     -21.909  -2.949 -31.230  1.00  0.00     0.000 C 
BRANCH   6   7
ATOM      7  C   UNL     1     -22.714  -3.967 -30.409  1.00  0.00     0.000 C 
BRANCH   7   8
ATOM      8  C   UNL     1     -21.851  -5.138 -29.910  1.00  0.00     0.000 C 
BRANCH   8   9
ATOM      9  C   UNL     1     -21.987  -6.391 -30.792  1.00  0.00     0.000 C 
BRANCH   9  10
ATOM     10  C   UNL     1     -21.697  -7.693 -30.013  1.00  0.00     0.000 C 
BRANCH  10  11
ATOM     11  C   UNL     1     -20.978  -7.464 -28.670  1.00  0.00     0.000 C 
BRANCH  11  12
ATOM     12  C   UNL     1     -20.968  -8.679 -27.721  1.00  0.00     0.000 C 
BRANCH  12  13
ATOM     13  C   UNL     1     -22.297  -9.453 -27.642  1.00  0.00     0.006 C 
BRANCH  13  14
ATOM     14  C   UNL     1     -23.525  -8.534 -27.647  1.00  0.00     0.053 C 
BRANCH  14  15
ATOM     15  C   UNL     1     -24.158  -8.497 -26.291  1.00  0.00     0.041 C 
ATOM     16  O   UNL     1     -23.603  -7.868 -25.350  1.00  0.00    -0.550 OA
ATOM     17  O   UNL     1     -25.382  -9.114 -26.077  1.00  0.00    -0.550 OA
ENDBRANCH  14  15
ENDBRANCH  13  14
ENDBRANCH  12  13
ENDBRANCH  11  12
ENDBRANCH  10  11
ENDBRANCH   9  10
ENDBRANCH   8   9
ENDBRANCH   7   8
ENDBRANCH   6   7
ENDBRANCH   5   6
ENDBRANCH   4   5
ENDBRANCH   3   4
ENDBRANCH   2   3
ENDBRANCH   1   2
BRANCH   1  18
ATOM     18  C   UNL     1     -24.936   2.673 -33.341  1.00  0.00     0.000 C 
BRANCH  18  19
ATOM     19  C   UNL     1     -25.006   4.103 -32.773  1.00  0.00     0.000 C 
BRANCH  19  20
ATOM     20  C   UNL     1     -26.446   4.571 -32.498  1.00  0.00     0.000 C 
BRANCH  20  21
ATOM     21  C   UNL     1     -27.212   4.926 -33.786  1.00  0.00     0.000 C 
BRANCH  21  22
ATOM     22  C   UNL     1     -28.076   3.791 -34.366  1.00  0.00     0.000 C 
BRANCH  22  23
ATOM     23  C   UNL     1     -28.881   4.223 -35.601  1.00  0.00     0.000 C 
BRANCH  23  24
ATOM     24  C   UNL     1     -27.984   4.945 -36.612  1.00  0.00    -0.000 C 
BRANCH  24  25
ATOM     25  C   UNL     1     -26.651   4.204 -36.796  1.00  0.00    -0.000 C 
BRANCH  25  26
ATOM     26  C   UNL     1     -25.532   5.112 -37.336  1.00  0.00    -0.000 C 
BRANCH  26  27
ATOM     27  C   UNL     1     -24.836   4.605 -38.617  1.00  0.00    -0.000 C 
BRANCH  27  28
ATOM     28  C   UNL     1     -23.300   4.717 -38.613  1.00  0.00    -0.000 C 
BRANCH  28  29
ATOM     29  C   UNL     1     -22.602   3.352 -38.704  1.00  0.00    -0.000 C 
BRANCH  29  30
ATOM     30  C   UNL     1     -22.531   2.683 -37.324  1.00  0.00    -0.000 C 
BRANCH  30  31
ATOM     31  C   UNL     1     -22.718   1.159 -37.398  1.00  0.00    -0.003 C 
ATOM     32  C   UNL     1     -23.457   0.716 -38.660  1.00  0.00     0.004 C 
ENDBRANCH  30  31
ENDBRANCH  29  30
ENDBRANCH  28  29
ENDBRANCH  27  28
ENDBRANCH  26  27
ENDBRANCH  25  26
ENDBRANCH  24  25
ENDBRANCH  23  24
ENDBRANCH  22  23
ENDBRANCH  21  22
ENDBRANCH  20  21
ENDBRANCH  19  20
ENDBRANCH  18  19
ENDBRANCH   1  18
TORSDOF 28
ENDMDL
MODEL 8
REMARK VINA RESULT:     7.255      8.833     13.565
REMARK INTER + INTRA:          18.213
REMARK INTER:                  19.496
REMARK INTRA:                  -1.283
REMARK UNBOUND:                -0.917
REMARK SMILES CCCCCCCCCCCCCCCCCCCCCCCCCCCCCC(=O)[O-]
REMARK SMILES IDX 16 1 17 2 18 3 19 4 20 5 21 6 22 7 23 8 24 9 25 10 26 11
REMARK SMILES IDX 27 12 28 13 29 14 30 15 31 16 32 17 15 18 14 19 13 20 12 21
REMARK SMILES IDX 11 22 10 23 9 24 8 25 7 26 6 27 5 28 4 29 3 30 2 31 1 32
REMARK H PARENT
REMARK Flexibility Score: inf
ROOT
ATOM      1  C   UNL     1     -17.768  -2.843 -35.458  1.00  0.00     0.000 C 
ENDROOT
BRANCH   1   2
ATOM      2  C   UNL     1     -19.300  -2.980 -35.509  1.00  0.00     0.000 C 
BRANCH   2   3
ATOM      3  C   UNL     1     -19.868  -2.806 -36.928  1.00  0.00     0.000 C 
BRANCH   3   4
ATOM      4  C   UNL     1     -20.888  -1.658 -37.014  1.00  0.00     0.000 C 
BRANCH   4   5
ATOM      5  C   UNL     1     -21.966  -1.899 -38.081  1.00  0.00     0.000 C 
BRANCH   5   6
ATOM      6  C   UNL     1     -22.209  -0.630 -38.908  1.00  0.00     0.000 C 
BRANCH   6   7
ATOM      7  C   UNL     1     -22.504   0.572 -38.000  1.00  0.00     0.000 C 
BRANCH   7   8
ATOM      8  C   UNL     1     -22.754   1.865 -38.795  1.00  0.00     0.000 C 
BRANCH   8   9
ATOM      9  C   UNL     1     -22.508   3.132 -37.958  1.00  0.00     0.000 C 
BRANCH   9  10
ATOM     10  C   UNL     1     -23.735   3.522 -37.105  1.00  0.00     0.000 C 
BRANCH  10  11
ATOM     11  C   UNL     1     -23.375   4.015 -35.690  1.00  0.00     0.000 C 
BRANCH  11  12
ATOM     12  C   UNL     1     -22.731   2.956 -34.775  1.00  0.00     0.000 C 
BRANCH  12  13
ATOM     13  C   UNL     1     -23.539   2.612 -33.510  1.00  0.00     0.006 C 
BRANCH  13  14
ATOM     14  C   UNL     1     -25.046   2.509 -33.773  1.00  0.00     0.053 C 
BRANCH  14  15
ATOM     15  C   UNL     1     -25.770   3.648 -33.125  1.00  0.00     0.041 C 
ATOM     16  O   UNL     1     -25.253   4.252 -32.148  1.00  0.00    -0.550 OA
ATOM     17  O   UNL     1     -26.991   4.074 -33.629  1.00  0.00    -0.550 OA
ENDBRANCH  14  15
ENDBRANCH  13  14
ENDBRANCH  12  13
ENDBRANCH  11  12
ENDBRANCH  10  11
ENDBRANCH   9  10
ENDBRANCH   8   9
ENDBRANCH   7   8
ENDBRANCH   6   7
ENDBRANCH   5   6
ENDBRANCH   4   5
ENDBRANCH   3   4
ENDBRANCH   2   3
ENDBRANCH   1   2
BRANCH   1  18
ATOM     18  C   UNL     1     -17.110  -3.259 -34.125  1.00  0.00     0.000 C 
BRANCH  18  19
ATOM     19  C   UNL     1     -15.902  -4.207 -34.250  1.00  0.00     0.000 C 
BRANCH  19  20
ATOM     20  C   UNL     1     -14.658  -3.696 -33.503  1.00  0.00     0.000 C 
BRANCH  20  21
ATOM     21  C   UNL     1     -13.348  -4.297 -34.046  1.00  0.00     0.000 C 
BRANCH  21  22
ATOM     22  C   UNL     1     -12.255  -3.272 -34.400  1.00  0.00     0.000 C 
BRANCH  22  23
ATOM     23  C   UNL     1     -11.485  -3.636 -35.677  1.00  0.00     0.000 C 
BRANCH  23  24
ATOM     24  C   UNL     1     -10.723  -2.421 -36.220  1.00  0.00    -0.000 C 
BRANCH  24  25
ATOM     25  C   UNL     1     -10.016  -2.758 -37.541  1.00  0.00    -0.000 C 
BRANCH  25  26
ATOM     26  C   UNL     1      -9.083  -1.632 -38.024  1.00  0.00    -0.000 C 
BRANCH  26  27
ATOM     27  C   UNL     1      -9.001  -0.404 -37.093  1.00  0.00    -0.000 C 
BRANCH  27  28
ATOM     28  C   UNL     1      -8.875   0.952 -37.812  1.00  0.00    -0.000 C 
BRANCH  28  29
ATOM     29  C   UNL     1     -10.219   1.685 -37.944  1.00  0.00    -0.000 C 
BRANCH  29  30
ATOM     30  C   UNL     1     -10.138   3.088 -37.328  1.00  0.00    -0.000 C 
BRANCH  30  31
ATOM     31  C   UNL     1     -11.501   3.796 -37.290  1.00  0.00    -0.003 C 
ATOM     32  C   UNL     1     -12.622   2.947 -37.890  1.00  0.00     0.004 C 
ENDBRANCH  30  31
ENDBRANCH  29  30
ENDBRANCH  28  29
ENDBRANCH  27  28
ENDBRANCH  26  27
ENDBRANCH  25  26
ENDBRANCH  24  25
ENDBRANCH  23  24
ENDBRANCH  22  23
ENDBRANCH  21  22
ENDBRANCH  20  21
ENDBRANCH  19  20
ENDBRANCH  18  19
ENDBRANCH   1  18
TORSDOF 28
ENDMDL
MODEL 9
REMARK VINA RESULT:     7.321      5.463     15.460
REMARK INTER + INTRA:          18.389
REMARK INTER:                  19.363
REMARK INTRA:                  -0.975
REMARK UNBOUND:                -0.917
REMARK SMILES CCCCCCCCCCCCCCCCCCCCCCCCCCCCCC(=O)[O-]
REMARK SMILES IDX 16 1 17 2 18 3 19 4 20 5 21 6 22 7 23 8 24 9 25 10 26 11
REMARK SMILES IDX 27 12 28 13 29 14 30 15 31 16 32 17 15 18 14 19 13 20 12 21
REMARK SMILES IDX 11 22 10 23 9 24 8 25 7 26 6 27 5 28 4 29 3 30 2 31 1 32
REMARK H PARENT
REMARK Flexibility Score: inf
ROOT
ATOM      1  C   UNL     1     -22.726  -5.688 -30.873  1.00  0.00     0.000 C 
ENDROOT
BRANCH   1   2
ATOM      2  C   UNL     1     -21.978  -4.347 -30.983  1.00  0.00     0.000 C 
BRANCH   2   3
ATOM      3  C   UNL     1     -22.909  -3.131 -30.853  1.00  0.00     0.000 C 
BRANCH   3   4
ATOM      4  C   UNL     1     -22.758  -2.149 -32.027  1.00  0.00     0.000 C 
BRANCH   4   5
ATOM      5  C   UNL     1     -22.811  -0.680 -31.583  1.00  0.00     0.000 C 
BRANCH   5   6
ATOM      6  C   UNL     1     -23.381   0.207 -32.697  1.00  0.00     0.000 C 
BRANCH   6   7
ATOM      7  C   UNL     1     -24.260   1.325 -32.118  1.00  0.00     0.000 C 
BRANCH   7   8
ATOM      8  C   UNL     1     -25.023   2.100 -33.205  1.00  0.00     0.000 C 
BRANCH   8   9
ATOM      9  C   UNL     1     -25.135   3.602 -32.893  1.00  0.00     0.000 C 
BRANCH   9  10
ATOM     10  C   UNL     1     -25.378   4.450 -34.160  1.00  0.00     0.000 C 
BRANCH  10  11
ATOM     11  C   UNL     1     -24.096   4.752 -34.960  1.00  0.00     0.000 C 
BRANCH  11  12
ATOM     12  C   UNL     1     -22.939   3.759 -34.735  1.00  0.00     0.000 C 
BRANCH  12  13
ATOM     13  C   UNL     1     -22.616   2.855 -35.939  1.00  0.00     0.006 C 
BRANCH  13  14
ATOM     14  C   UNL     1     -22.225   3.646 -37.193  1.00  0.00     0.053 C 
BRANCH  14  15
ATOM     15  C   UNL     1     -23.317   3.583 -38.214  1.00  0.00     0.041 C 
ATOM     16  O   UNL     1     -23.361   2.629 -39.036  1.00  0.00    -0.550 OA
ATOM     17  O   UNL     1     -24.314   4.549 -38.227  1.00  0.00    -0.550 OA
ENDBRANCH  14  15
ENDBRANCH  13  14
ENDBRANCH  12  13
ENDBRANCH  11  12
ENDBRANCH  10  11
ENDBRANCH   9  10
ENDBRANCH   8   9
ENDBRANCH   7   8
ENDBRANCH   6   7
ENDBRANCH   5   6
ENDBRANCH   4   5
ENDBRANCH   3   4
ENDBRANCH   2   3
ENDBRANCH   1   2
BRANCH   1  18
ATOM     18  C   UNL     1     -21.959  -6.818 -30.154  1.00  0.00     0.000 C 
BRANCH  18  19
ATOM     19  C   UNL     1     -21.167  -6.391 -28.904  1.00  0.00     0.000 C 
BRANCH  19  20
ATOM     20  C   UNL     1     -21.123  -7.480 -27.819  1.00  0.00     0.000 C 
BRANCH  20  21
ATOM     21  C   UNL     1     -22.378  -8.372 -27.819  1.00  0.00     0.000 C 
BRANCH  21  22
ATOM     22  C   UNL     1     -23.220  -8.315 -26.531  1.00  0.00     0.000 C 
BRANCH  22  23
ATOM     23  C   UNL     1     -24.682  -8.730 -26.753  1.00  0.00     0.000 C 
BRANCH  23  24
ATOM     24  C   UNL     1     -25.217  -9.509 -25.546  1.00  0.00    -0.000 C 
BRANCH  24  25
ATOM     25  C   UNL     1     -25.763 -10.880 -25.972  1.00  0.00    -0.000 C 
BRANCH  25  26
ATOM     26  C   UNL     1     -24.966 -12.054 -25.374  1.00  0.00    -0.000 C 
BRANCH  26  27
ATOM     27  C   UNL     1     -25.752 -13.374 -25.228  1.00  0.00    -0.000 C 
BRANCH  27  28
ATOM     28  C   UNL     1     -25.534 -14.119 -23.899  1.00  0.00    -0.000 C 
BRANCH  28  29
ATOM     29  C   UNL     1     -24.069 -14.099 -23.436  1.00  0.00    -0.000 C 
BRANCH  29  30
ATOM     30  C   UNL     1     -23.902 -14.870 -22.119  1.00  0.00    -0.000 C 
BRANCH  30  31
ATOM     31  C   UNL     1     -23.098 -14.084 -21.073  1.00  0.00    -0.003 C 
ATOM     32  C   UNL     1     -22.934 -14.848 -19.759  1.00  0.00     0.004 C 
ENDBRANCH  30  31
ENDBRANCH  29  30
ENDBRANCH  28  29
ENDBRANCH  27  28
ENDBRANCH  26  27
ENDBRANCH  25  26
ENDBRANCH  24  25
ENDBRANCH  23  24
ENDBRANCH  22  23
ENDBRANCH  21  22
ENDBRANCH  20  21
ENDBRANCH  19  20
ENDBRANCH  18  19
ENDBRANCH   1  18
TORSDOF 28
ENDMDL
