MODEL 1
REMARK VINA RESULT:    -4.925      0.000      0.000
REMARK INTER + INTRA:          -5.298
REMARK INTER:                  -5.213
REMARK INTRA:                  -0.085
REMARK UNBOUND:                -0.085
REMARK SMILES CC1=C[C@H]2C(=C(C)CC[C@@H]2C(C)C)CC1
REMARK SMILES IDX 1 1 2 2 3 3 4 4 10 5 9 6 8 7 6 8 5 9 14 10 15 11 7 12 11 13
REMARK SMILES IDX 12 14 13 15
REMARK H PARENT
REMARK Flexibility Score: inf
ROOT
ATOM      1  C   UNL     1      26.866  24.121  13.141  1.00  0.00     0.039 C 
ATOM      2  C   UNL     1      28.325  23.960  12.814  1.00  0.00    -0.076 C 
ATOM      3  C   UNL     1      28.983  24.985  12.227  1.00  0.00    -0.020 C 
ATOM      4  C   UNL     1      30.470  24.947  11.892  1.00  0.00     0.041 C 
ATOM      5  C   UNL     1      30.775  25.776  10.607  1.00  0.00     0.003 C 
ATOM      6  C   UNL     1      32.124  25.344  10.000  1.00  0.00     0.009 C 
ATOM      7  C   UNL     1      32.078  23.868   9.631  1.00  0.00     0.031 C 
ATOM      8  C   UNL     1      31.707  23.004  10.814  1.00  0.00    -0.073 C 
ATOM      9  C   UNL     1      30.945  23.498  11.832  1.00  0.00    -0.064 C 
ATOM     10  C   UNL     1      30.500  22.662  13.012  1.00  0.00     0.036 C 
ATOM     11  C   UNL     1      28.972  22.605  13.027  1.00  0.00     0.035 C 
ATOM     12  C   UNL     1      32.125  21.554  10.766  1.00  0.00     0.039 C 
ENDROOT
BRANCH   5  13
ATOM     13  C   UNL     1      30.705  27.324  10.854  1.00  0.00    -0.013 C 
ATOM     14  C   UNL     1      31.313  27.704  12.212  1.00  0.00     0.007 C 
ATOM     15  C   UNL     1      29.290  27.917  10.730  1.00  0.00     0.007 C 
ENDBRANCH   5  13
TORSDOF 1
ENDMDL
MODEL 2
REMARK VINA RESULT:    -4.765      1.782      4.683
REMARK INTER + INTRA:          -5.129
REMARK INTER:                  -4.856
REMARK INTRA:                  -0.273
REMARK UNBOUND:                -0.085
REMARK SMILES CC1=C[C@H]2C(=C(C)CC[C@@H]2C(C)C)CC1
REMARK SMILES IDX 1 1 2 2 3 3 4 4 10 5 9 6 8 7 6 8 5 9 14 10 15 11 7 12 11 13
REMARK SMILES IDX 12 14 13 15
REMARK H PARENT
REMARK Flexibility Score: inf
ROOT
ATOM      1  C   UNL     1      26.488  23.989  11.697  1.00  0.00     0.039 C 
ATOM      2  C   UNL     1      27.978  24.146  11.824  1.00  0.00    -0.076 C 
ATOM      3  C   UNL     1      28.706  23.121  12.323  1.00  0.00    -0.020 C 
ATOM      4  C   UNL     1      30.224  23.156  12.456  1.00  0.00     0.041 C 
ATOM      5  C   UNL     1      30.696  22.332  13.693  1.00  0.00     0.003 C 
ATOM      6  C   UNL     1      32.116  22.762  14.111  1.00  0.00     0.009 C 
ATOM      7  C   UNL     1      32.125  24.240  14.475  1.00  0.00     0.031 C 
ATOM      8  C   UNL     1      31.600  25.100  13.348  1.00  0.00    -0.073 C 
ATOM      9  C   UNL     1      30.707  24.604  12.445  1.00  0.00    -0.064 C 
ATOM     10  C   UNL     1      30.110  25.435  11.330  1.00  0.00     0.036 C 
ATOM     11  C   UNL     1      28.595  25.498  11.520  1.00  0.00     0.035 C 
ATOM     12  C   UNL     1      32.025  26.549  13.333  1.00  0.00     0.039 C 
ENDROOT
BRANCH   5  13
ATOM     13  C   UNL     1      30.590  20.784  13.466  1.00  0.00    -0.013 C 
ATOM     14  C   UNL     1      30.575  20.019  14.798  1.00  0.00     0.007 C 
ATOM     15  C   UNL     1      31.679  20.207  12.544  1.00  0.00     0.007 C 
ENDBRANCH   5  13
TORSDOF 1
ENDMDL
MODEL 3
REMARK VINA RESULT:    -3.833      1.651      1.907
REMARK INTER + INTRA:          -4.143
REMARK INTER:                  -4.069
REMARK INTRA:                  -0.074
REMARK UNBOUND:                -0.085
REMARK SMILES CC1=C[C@H]2C(=C(C)CC[C@@H]2C(C)C)CC1
REMARK SMILES IDX 1 1 2 2 3 3 4 4 10 5 9 6 8 7 6 8 5 9 14 10 15 11 7 12 11 13
REMARK SMILES IDX 12 14 13 15
REMARK H PARENT
REMARK Flexibility Score: inf
ROOT
ATOM      1  C   UNL     1      26.125  23.372  11.506  1.00  0.00     0.039 C 
ATOM      2  C   UNL     1      27.409  23.864  12.115  1.00  0.00    -0.076 C 
ATOM      3  C   UNL     1      27.940  25.028  11.676  1.00  0.00    -0.020 C 
ATOM      4  C   UNL     1      29.212  25.641  12.252  1.00  0.00     0.041 C 
ATOM      5  C   UNL     1      30.005  26.417  11.155  1.00  0.00     0.003 C 
ATOM      6  C   UNL     1      31.473  26.596  11.585  1.00  0.00     0.009 C 
ATOM      7  C   UNL     1      32.125  25.236  11.789  1.00  0.00     0.031 C 
ATOM      8  C   UNL     1      31.362  24.391  12.783  1.00  0.00    -0.073 C 
ATOM      9  C   UNL     1      30.022  24.563  12.968  1.00  0.00    -0.064 C 
ATOM     10  C   UNL     1      29.200  23.710  13.909  1.00  0.00     0.036 C 
ATOM     11  C   UNL     1      28.136  22.969  13.101  1.00  0.00     0.035 C 
ATOM     12  C   UNL     1      32.125  23.288  13.477  1.00  0.00     0.039 C 
ENDROOT
BRANCH   5  13
ATOM     13  C   UNL     1      29.329  27.779  10.771  1.00  0.00    -0.013 C 
ATOM     14  C   UNL     1      30.376  28.871  10.507  1.00  0.00     0.007 C 
ATOM     15  C   UNL     1      28.297  28.281  11.797  1.00  0.00     0.007 C 
ENDBRANCH   5  13
TORSDOF 1
ENDMDL
MODEL 4
REMARK VINA RESULT:    -3.809      1.837      4.453
REMARK INTER + INTRA:          -4.117
REMARK INTER:                  -3.823
REMARK INTRA:                  -0.295
REMARK UNBOUND:                -0.085
REMARK SMILES CC1=C[C@H]2C(=C(C)CC[C@@H]2C(C)C)CC1
REMARK SMILES IDX 1 1 2 2 3 3 4 4 10 5 9 6 8 7 6 8 5 9 14 10 15 11 7 12 11 13
REMARK SMILES IDX 12 14 13 15
REMARK H PARENT
REMARK Flexibility Score: inf
ROOT
ATOM      1  C   UNL     1      26.014  23.725  12.456  1.00  0.00     0.039 C 
ATOM      2  C   UNL     1      27.465  24.073  12.264  1.00  0.00    -0.076 C 
ATOM      3  C   UNL     1      28.411  23.223  12.725  1.00  0.00    -0.020 C 
ATOM      4  C   UNL     1      29.907  23.454  12.547  1.00  0.00     0.041 C 
ATOM      5  C   UNL     1      30.709  22.877  13.754  1.00  0.00     0.003 C 
ATOM      6  C   UNL     1      32.105  23.527  13.826  1.00  0.00     0.009 C 
ATOM      7  C   UNL     1      31.969  25.032  14.003  1.00  0.00     0.031 C 
ATOM      8  C   UNL     1      31.131  25.653  12.909  1.00  0.00    -0.073 C 
ATOM      9  C   UNL     1      30.168  24.931  12.267  1.00  0.00    -0.064 C 
ATOM     10  C   UNL     1      29.266  25.518  11.204  1.00  0.00     0.036 C 
ATOM     11  C   UNL     1      27.817  25.430  11.683  1.00  0.00     0.035 C 
ATOM     12  C   UNL     1      31.335  27.125  12.637  1.00  0.00     0.039 C 
ENDROOT
BRANCH   5  13
ATOM     13  C   UNL     1      30.785  21.311  13.738  1.00  0.00    -0.013 C 
ATOM     14  C   UNL     1      31.705  20.780  14.848  1.00  0.00     0.007 C 
ATOM     15  C   UNL     1      31.205  20.716  12.382  1.00  0.00     0.007 C 
ENDBRANCH   5  13
TORSDOF 1
ENDMDL
MODEL 5
REMARK VINA RESULT:    -3.530      1.316      4.114
REMARK INTER + INTRA:          -3.822
REMARK INTER:                  -3.772
REMARK INTRA:                  -0.050
REMARK UNBOUND:                -0.085
REMARK SMILES CC1=C[C@H]2C(=C(C)CC[C@@H]2C(C)C)CC1
REMARK SMILES IDX 1 1 2 2 3 3 4 4 10 5 9 6 8 7 6 8 5 9 14 10 15 11 7 12 11 13
REMARK SMILES IDX 12 14 13 15
REMARK H PARENT
REMARK Flexibility Score: inf
ROOT
ATOM      1  C   UNL     1      26.721  23.395  12.746  1.00  0.00     0.039 C 
ATOM      2  C   UNL     1      27.585  24.530  12.269  1.00  0.00    -0.076 C 
ATOM      3  C   UNL     1      28.883  24.289  11.977  1.00  0.00    -0.020 C 
ATOM      4  C   UNL     1      29.837  25.353  11.445  1.00  0.00     0.041 C 
ATOM      5  C   UNL     1      31.292  25.100  11.945  1.00  0.00     0.003 C 
ATOM      6  C   UNL     1      32.125  26.392  11.839  1.00  0.00     0.009 C 
ATOM      7  C   UNL     1      31.498  27.485  12.692  1.00  0.00     0.031 C 
ATOM      8  C   UNL     1      30.054  27.731  12.319  1.00  0.00    -0.073 C 
ATOM      9  C   UNL     1      29.292  26.740  11.775  1.00  0.00    -0.064 C 
ATOM     10  C   UNL     1      27.829  26.916  11.433  1.00  0.00     0.036 C 
ATOM     11  C   UNL     1      27.006  25.932  12.265  1.00  0.00     0.035 C 
ATOM     12  C   UNL     1      29.473  29.080  12.671  1.00  0.00     0.039 C 
ENDROOT
BRANCH   5  13
ATOM     13  C   UNL     1      31.979  23.891  11.219  1.00  0.00    -0.013 C 
ATOM     14  C   UNL     1      31.733  23.931   9.703  1.00  0.00     0.007 C 
ATOM     15  C   UNL     1      31.580  22.513  11.777  1.00  0.00     0.007 C 
ENDBRANCH   5  13
TORSDOF 1
ENDMDL
MODEL 6
REMARK VINA RESULT:    -3.454      1.211      5.037
REMARK INTER + INTRA:          -3.742
REMARK INTER:                  -3.475
REMARK INTRA:                  -0.267
REMARK UNBOUND:                -0.085
REMARK SMILES CC1=C[C@H]2C(=C(C)CC[C@@H]2C(C)C)CC1
REMARK SMILES IDX 1 1 2 2 3 3 4 4 10 5 9 6 8 7 6 8 5 9 14 10 15 11 7 12 11 13
REMARK SMILES IDX 12 14 13 15
REMARK H PARENT
REMARK Flexibility Score: inf
ROOT
ATOM      1  C   UNL     1      32.125  27.549   8.979  1.00  0.00     0.039 C 
ATOM      2  C   UNL     1      31.264  27.049  10.106  1.00  0.00    -0.076 C 
ATOM      3  C   UNL     1      31.491  25.814  10.608  1.00  0.00    -0.020 C 
ATOM      4  C   UNL     1      30.710  25.224  11.776  1.00  0.00     0.041 C 
ATOM      5  C   UNL     1      30.568  23.677  11.631  1.00  0.00     0.003 C 
ATOM      6  C   UNL     1      29.400  23.165  12.495  1.00  0.00     0.009 C 
ATOM      7  C   UNL     1      28.099  23.819  12.051  1.00  0.00     0.031 C 
ATOM      8  C   UNL     1      28.188  25.327  12.087  1.00  0.00    -0.073 C 
ATOM      9  C   UNL     1      29.384  25.964  11.931  1.00  0.00    -0.064 C 
ATOM     10  C   UNL     1      29.521  27.470  11.905  1.00  0.00     0.036 C 
ATOM     11  C   UNL     1      30.082  27.891  10.547  1.00  0.00     0.035 C 
ATOM     12  C   UNL     1      26.889  26.090  12.197  1.00  0.00     0.039 C 
ENDROOT
BRANCH   5  13
ATOM     13  C   UNL     1      31.907  22.917  11.932  1.00  0.00    -0.013 C 
ATOM     14  C   UNL     1      32.049  21.661  11.058  1.00  0.00     0.007 C 
ATOM     15  C   UNL     1      32.099  22.547  13.413  1.00  0.00     0.007 C 
ENDBRANCH   5  13
TORSDOF 1
ENDMDL
MODEL 7
REMARK VINA RESULT:    -3.303      1.804      4.105
REMARK INTER + INTRA:          -3.582
REMARK INTER:                  -3.787
REMARK INTRA:                   0.205
REMARK UNBOUND:                -0.085
REMARK SMILES CC1=C[C@H]2C(=C(C)CC[C@@H]2C(C)C)CC1
REMARK SMILES IDX 1 1 2 2 3 3 4 4 10 5 9 6 8 7 6 8 5 9 14 10 15 11 7 12 11 13
REMARK SMILES IDX 12 14 13 15
REMARK H PARENT
REMARK Flexibility Score: inf
ROOT
ATOM      1  C   UNL     1      31.043  20.590  13.546  1.00  0.00     0.039 C 
ATOM      2  C   UNL     1      30.878  22.083  13.464  1.00  0.00    -0.076 C 
ATOM      3  C   UNL     1      29.657  22.595  13.187  1.00  0.00    -0.020 C 
ATOM      4  C   UNL     1      29.368  24.090  13.123  1.00  0.00     0.041 C 
ATOM      5  C   UNL     1      28.257  24.400  12.073  1.00  0.00     0.003 C 
ATOM      6  C   UNL     1      28.317  25.882  11.655  1.00  0.00     0.009 C 
ATOM      7  C   UNL     1      29.674  26.194  11.039  1.00  0.00     0.031 C 
ATOM      8  C   UNL     1      30.809  25.840  11.972  1.00  0.00    -0.073 C 
ATOM      9  C   UNL     1      30.671  24.855  12.905  1.00  0.00    -0.064 C 
ATOM     10  C   UNL     1      31.790  24.425  13.827  1.00  0.00     0.036 C 
ATOM     11  C   UNL     1      32.115  22.956  13.557  1.00  0.00     0.035 C 
ATOM     12  C   UNL     1      32.125  26.549  11.754  1.00  0.00     0.039 C 
ENDROOT
BRANCH   5  13
ATOM     13  C   UNL     1      26.828  23.980  12.563  1.00  0.00    -0.013 C 
ATOM     14  C   UNL     1      26.871  23.381  13.976  1.00  0.00     0.007 C 
ATOM     15  C   UNL     1      26.094  23.020  11.610  1.00  0.00     0.007 C 
ENDBRANCH   5  13
TORSDOF 1
ENDMDL
