MODEL 1
REMARK VINA RESULT:    -7.824      0.000      0.000
REMARK INTER + INTRA:         -10.862
REMARK INTER:                  -9.883
REMARK INTRA:                  -0.980
REMARK UNBOUND:                -0.980
REMARK SMILES CC(C)[C@H](C)C=C[C@H](C)[C@H]1CC[C@H]2C3=CC=C4C[C@H](O)CC[C@]4(C)[C@H]3CC[C@@]12C
REMARK SMILES IDX 8 1 9 2 7 3 6 4 4 5 5 6 2 7 1 8 3 9 10 10 11 11 28 12 12 13
REMARK SMILES IDX 13 14 27 15 29 16 14 17 26 18 25 19 15 20 23 21 16 22 17 23
REMARK SMILES IDX 22 24 24 25 18 26 21 27 19 28 20 29
REMARK H PARENT 20 30
REMARK Flexibility Score: inf
ROOT
ATOM      1  C   UNL     1      17.534 -36.072  20.859  1.00  0.00     0.012 C 
ATOM      2  C   UNL     1      17.528 -36.528  19.387  1.00  0.00     0.012 C 
ENDROOT
BRANCH   1   3
ATOM      3  C   UNL     1      18.465 -36.982  21.633  1.00  0.00    -0.028 C 
ATOM      4  C   UNL     1      19.457 -36.485  22.395  1.00  0.00    -0.028 C 
BRANCH   4   5
ATOM      5  C   UNL     1      20.400 -37.347  23.212  1.00  0.00     0.011 C 
ATOM      6  C   UNL     1      21.878 -37.046  22.898  1.00  0.00     0.012 C 
BRANCH   5   7
ATOM      7  C   UNL     1      20.042 -37.334  24.730  1.00  0.00    -0.011 C 
ATOM      8  C   UNL     1      18.676 -37.953  25.069  1.00  0.00     0.008 C 
ATOM      9  C   UNL     1      20.135 -35.917  25.320  1.00  0.00     0.008 C 
ENDBRANCH   5   7
ENDBRANCH   4   5
ENDBRANCH   1   3
BRANCH   1  10
ATOM     10  C   UNL     1      17.917 -34.568  21.102  1.00  0.00     0.002 C 
ATOM     11  C   UNL     1      17.998 -33.681  19.856  1.00  0.00     0.005 C 
ATOM     12  C   UNL     1      17.069 -33.768  22.132  1.00  0.00    -0.023 C 
ATOM     13  C   UNL     1      17.842 -32.246  20.357  1.00  0.00     0.009 C 
ATOM     14  C   UNL     1      17.511 -32.316  21.861  1.00  0.00     0.021 C 
ATOM     15  C   UNL     1      15.548 -33.902  21.872  1.00  0.00     0.008 C 
ATOM     16  C   UNL     1      17.426 -34.193  23.580  1.00  0.00     0.012 C 
ATOM     17  C   UNL     1      16.513 -31.240  22.264  1.00  0.00    -0.063 C 
ATOM     18  C   UNL     1      14.711 -33.033  22.811  1.00  0.00     0.009 C 
ATOM     19  C   UNL     1      15.143 -31.537  22.871  1.00  0.00     0.025 C 
ATOM     20  C   UNL     1      16.878 -29.956  22.125  1.00  0.00    -0.000 C 
ATOM     21  C   UNL     1      14.055 -30.519  22.352  1.00  0.00    -0.005 C 
ATOM     22  C   UNL     1      15.924 -28.860  22.342  1.00  0.00    -0.000 C 
ATOM     23  C   UNL     1      14.608 -29.091  22.482  1.00  0.00    -0.061 C 
ATOM     24  C   UNL     1      12.755 -30.661  23.210  1.00  0.00     0.014 C 
ATOM     25  C   UNL     1      13.739 -30.781  20.859  1.00  0.00     0.017 C 
ATOM     26  C   UNL     1      13.669 -27.905  22.494  1.00  0.00     0.063 C 
ATOM     27  C   UNL     1      11.778 -29.487  23.068  1.00  0.00     0.033 C 
ATOM     28  C   UNL     1      12.442 -28.143  23.385  1.00  0.00     0.118 C 
BRANCH  28  29
ATOM     29  O   UNL     1      12.758 -28.038  24.754  1.00  0.00    -0.393 OA
ATOM     30  H   UNL     1      13.478 -28.687  24.963  1.00  0.00     0.210 HD
ENDBRANCH  28  29
ENDBRANCH   1  10
TORSDOF 5
ENDMDL
MODEL 2
REMARK VINA RESULT:    -7.634      3.694      8.089
REMARK INTER + INTRA:         -10.622
REMARK INTER:                  -9.549
REMARK INTRA:                  -1.073
REMARK UNBOUND:                -0.980
REMARK SMILES CC(C)[C@H](C)C=C[C@H](C)[C@H]1CC[C@H]2C3=CC=C4C[C@H](O)CC[C@]4(C)[C@H]3CC[C@@]12C
REMARK SMILES IDX 8 1 9 2 7 3 6 4 4 5 5 6 2 7 1 8 3 9 10 10 11 11 28 12 12 13
REMARK SMILES IDX 13 14 27 15 29 16 14 17 26 18 25 19 15 20 23 21 16 22 17 23
REMARK SMILES IDX 22 24 24 25 18 26 21 27 19 28 20 29
REMARK H PARENT 20 30
REMARK Flexibility Score: inf
ROOT
ATOM      1  C   UNL     1      15.173 -32.375  21.193  1.00  0.00     0.012 C 
ATOM      2  C   UNL     1      14.712 -33.775  20.744  1.00  0.00     0.012 C 
ENDROOT
BRANCH   1   3
ATOM      3  C   UNL     1      14.019 -31.413  21.006  1.00  0.00    -0.028 C 
ATOM      4  C   UNL     1      13.331 -30.931  22.057  1.00  0.00    -0.028 C 
BRANCH   4   5
ATOM      5  C   UNL     1      12.186 -29.945  21.931  1.00  0.00     0.011 C 
ATOM      6  C   UNL     1      10.901 -30.614  21.405  1.00  0.00     0.012 C 
BRANCH   5   7
ATOM      7  C   UNL     1      11.994 -29.097  23.225  1.00  0.00    -0.011 C 
ATOM      8  C   UNL     1      10.875 -28.046  23.139  1.00  0.00     0.008 C 
ATOM      9  C   UNL     1      13.307 -28.428  23.663  1.00  0.00     0.008 C 
ENDBRANCH   5   7
ENDBRANCH   4   5
ENDBRANCH   1   3
BRANCH   1  10
ATOM     10  C   UNL     1      15.728 -32.281  22.660  1.00  0.00     0.002 C 
ATOM     11  C   UNL     1      16.007 -33.612  23.364  1.00  0.00     0.005 C 
ATOM     12  C   UNL     1      16.993 -31.409  22.895  1.00  0.00    -0.023 C 
ATOM     13  C   UNL     1      16.995 -33.291  24.483  1.00  0.00     0.009 C 
ATOM     14  C   UNL     1      17.409 -31.815  24.324  1.00  0.00     0.021 C 
ATOM     15  C   UNL     1      18.137 -31.752  21.908  1.00  0.00     0.008 C 
ATOM     16  C   UNL     1      16.637 -29.901  22.830  1.00  0.00     0.012 C 
ATOM     17  C   UNL     1      18.877 -31.606  24.665  1.00  0.00    -0.063 C 
ATOM     18  C   UNL     1      19.421 -30.978  22.201  1.00  0.00     0.009 C 
ATOM     19  C   UNL     1      19.908 -31.061  23.679  1.00  0.00     0.025 C 
ATOM     20  C   UNL     1      19.277 -31.866  25.920  1.00  0.00    -0.000 C 
ATOM     21  C   UNL     1      21.308 -31.765  23.869  1.00  0.00    -0.005 C 
ATOM     22  C   UNL     1      20.697 -31.840  26.292  1.00  0.00    -0.000 C 
ATOM     23  C   UNL     1      21.666 -31.763  25.364  1.00  0.00    -0.061 C 
ATOM     24  C   UNL     1      22.399 -30.985  23.065  1.00  0.00     0.014 C 
ATOM     25  C   UNL     1      21.242 -33.236  23.390  1.00  0.00     0.017 C 
ATOM     26  C   UNL     1      23.100 -31.950  25.806  1.00  0.00     0.063 C 
ATOM     27  C   UNL     1      23.839 -31.326  23.468  1.00  0.00     0.033 C 
ATOM     28  C   UNL     1      24.082 -31.121  24.966  1.00  0.00     0.118 C 
BRANCH  28  29
ATOM     29  O   UNL     1      24.045 -29.756  25.310  1.00  0.00    -0.393 OA
ATOM     30  H   UNL     1      23.755 -29.675  26.255  1.00  0.00     0.210 HD
ENDBRANCH  28  29
ENDBRANCH   1  10
TORSDOF 5
ENDMDL
MODEL 3
REMARK VINA RESULT:    -7.388      1.528      2.790
REMARK INTER + INTRA:         -10.312
REMARK INTER:                  -9.893
REMARK INTRA:                  -0.418
REMARK UNBOUND:                -0.980
REMARK SMILES CC(C)[C@H](C)C=C[C@H](C)[C@H]1CC[C@H]2C3=CC=C4C[C@H](O)CC[C@]4(C)[C@H]3CC[C@@]12C
REMARK SMILES IDX 8 1 9 2 7 3 6 4 4 5 5 6 2 7 1 8 3 9 10 10 11 11 28 12 12 13
REMARK SMILES IDX 13 14 27 15 29 16 14 17 26 18 25 19 15 20 23 21 16 22 17 23
REMARK SMILES IDX 22 24 24 25 18 26 21 27 19 28 20 29
REMARK H PARENT 20 30
REMARK Flexibility Score: inf
ROOT
ATOM      1  C   UNL     1      19.160 -34.972  21.641  1.00  0.00     0.012 C 
ATOM      2  C   UNL     1      19.889 -33.807  22.339  1.00  0.00     0.012 C 
ENDROOT
BRANCH   1   3
ATOM      3  C   UNL     1      18.840 -36.023  22.682  1.00  0.00    -0.028 C 
ATOM      4  C   UNL     1      18.925 -35.756  23.998  1.00  0.00    -0.028 C 
BRANCH   4   5
ATOM      5  C   UNL     1      18.589 -36.761  25.082  1.00  0.00     0.011 C 
ATOM      6  C   UNL     1      19.762 -36.974  26.058  1.00  0.00     0.012 C 
BRANCH   5   7
ATOM      7  C   UNL     1      17.222 -36.453  25.767  1.00  0.00    -0.011 C 
ATOM      8  C   UNL     1      16.830 -34.966  25.768  1.00  0.00     0.008 C 
ATOM      9  C   UNL     1      17.169 -37.009  27.199  1.00  0.00     0.008 C 
ENDBRANCH   5   7
ENDBRANCH   4   5
ENDBRANCH   1   3
BRANCH   1  10
ATOM     10  C   UNL     1      17.863 -34.580  20.846  1.00  0.00     0.002 C 
ATOM     11  C   UNL     1      16.658 -35.510  21.016  1.00  0.00     0.005 C 
ATOM     12  C   UNL     1      17.311 -33.140  21.037  1.00  0.00    -0.023 C 
ATOM     13  C   UNL     1      15.435 -34.681  20.626  1.00  0.00     0.009 C 
ATOM     14  C   UNL     1      15.914 -33.236  20.389  1.00  0.00     0.021 C 
ATOM     15  C   UNL     1      17.161 -32.760  22.531  1.00  0.00     0.008 C 
ATOM     16  C   UNL     1      18.197 -32.111  20.288  1.00  0.00     0.012 C 
ATOM     17  C   UNL     1      14.891 -32.221  20.879  1.00  0.00    -0.063 C 
ATOM     18  C   UNL     1      16.517 -31.388  22.730  1.00  0.00     0.009 C 
ATOM     19  C   UNL     1      15.179 -31.180  21.959  1.00  0.00     0.025 C 
ATOM     20  C   UNL     1      13.685 -32.207  20.292  1.00  0.00    -0.000 C 
ATOM     21  C   UNL     1      13.920 -30.951  22.882  1.00  0.00    -0.005 C 
ATOM     22  C   UNL     1      12.593 -31.370  20.805  1.00  0.00    -0.000 C 
ATOM     23  C   UNL     1      12.682 -30.747  21.993  1.00  0.00    -0.061 C 
ATOM     24  C   UNL     1      14.146 -29.683  23.769  1.00  0.00     0.014 C 
ATOM     25  C   UNL     1      13.673 -32.191  23.776  1.00  0.00     0.017 C 
ATOM     26  C   UNL     1      11.445 -30.076  22.547  1.00  0.00     0.063 C 
ATOM     27  C   UNL     1      12.868 -29.134  24.416  1.00  0.00     0.033 C 
ATOM     28  C   UNL     1      11.781 -28.831  23.380  1.00  0.00     0.118 C 
BRANCH  28  29
ATOM     29  O   UNL     1      12.137 -27.737  22.568  1.00  0.00    -0.393 OA
ATOM     30  H   UNL     1      12.490 -28.082  21.708  1.00  0.00     0.210 HD
ENDBRANCH  28  29
ENDBRANCH   1  10
TORSDOF 5
ENDMDL
MODEL 4
REMARK VINA RESULT:    -7.384      3.534      8.552
REMARK INTER + INTRA:         -10.306
REMARK INTER:                  -9.613
REMARK INTRA:                  -0.693
REMARK UNBOUND:                -0.980
REMARK SMILES CC(C)[C@H](C)C=C[C@H](C)[C@H]1CC[C@H]2C3=CC=C4C[C@H](O)CC[C@]4(C)[C@H]3CC[C@@]12C
REMARK SMILES IDX 8 1 9 2 7 3 6 4 4 5 5 6 2 7 1 8 3 9 10 10 11 11 28 12 12 13
REMARK SMILES IDX 13 14 27 15 29 16 14 17 26 18 25 19 15 20 23 21 16 22 17 23
REMARK SMILES IDX 22 24 24 25 18 26 21 27 19 28 20 29
REMARK H PARENT 20 30
REMARK Flexibility Score: inf
ROOT
ATOM      1  C   UNL     1      15.027 -32.517  22.874  1.00  0.00     0.012 C 
ATOM      2  C   UNL     1      15.004 -33.363  24.162  1.00  0.00     0.012 C 
ENDROOT
BRANCH   1   3
ATOM      3  C   UNL     1      13.812 -31.612  22.880  1.00  0.00    -0.028 C 
ATOM      4  C   UNL     1      13.567 -30.761  21.868  1.00  0.00    -0.028 C 
BRANCH   4   5
ATOM      5  C   UNL     1      12.353 -29.854  21.809  1.00  0.00     0.011 C 
ATOM      6  C   UNL     1      11.086 -30.612  21.368  1.00  0.00     0.012 C 
BRANCH   5   7
ATOM      7  C   UNL     1      12.187 -29.009  23.108  1.00  0.00    -0.011 C 
ATOM      8  C   UNL     1      10.878 -28.206  23.183  1.00  0.00     0.008 C 
ATOM      9  C   UNL     1      13.387 -28.074  23.332  1.00  0.00     0.008 C 
ENDBRANCH   5   7
ENDBRANCH   4   5
ENDBRANCH   1   3
BRANCH   1  10
ATOM     10  C   UNL     1      16.332 -31.674  22.639  1.00  0.00     0.002 C 
ATOM     11  C   UNL     1      16.859 -30.891  23.845  1.00  0.00     0.005 C 
ATOM     12  C   UNL     1      17.566 -32.411  22.046  1.00  0.00    -0.023 C 
ATOM     13  C   UNL     1      18.334 -30.622  23.554  1.00  0.00     0.009 C 
ATOM     14  C   UNL     1      18.696 -31.385  22.264  1.00  0.00     0.021 C 
ATOM     15  C   UNL     1      17.898 -33.715  22.814  1.00  0.00     0.008 C 
ATOM     16  C   UNL     1      17.360 -32.693  20.535  1.00  0.00     0.012 C 
ATOM     17  C   UNL     1      20.103 -31.960  22.332  1.00  0.00    -0.063 C 
ATOM     18  C   UNL     1      19.173 -34.389  22.309  1.00  0.00     0.009 C 
ATOM     19  C   UNL     1      20.415 -33.452  22.225  1.00  0.00     0.025 C 
ATOM     20  C   UNL     1      21.131 -31.104  22.439  1.00  0.00    -0.000 C 
ATOM     21  C   UNL     1      21.606 -33.855  23.179  1.00  0.00    -0.005 C 
ATOM     22  C   UNL     1      22.502 -31.579  22.666  1.00  0.00    -0.000 C 
ATOM     23  C   UNL     1      22.760 -32.860  22.982  1.00  0.00    -0.061 C 
ATOM     24  C   UNL     1      22.091 -35.300  22.827  1.00  0.00     0.014 C 
ATOM     25  C   UNL     1      21.158 -33.789  24.660  1.00  0.00     0.017 C 
ATOM     26  C   UNL     1      24.166 -33.226  23.403  1.00  0.00     0.063 C 
ATOM     27  C   UNL     1      23.466 -35.658  23.403  1.00  0.00     0.033 C 
ATOM     28  C   UNL     1      24.545 -34.654  22.986  1.00  0.00     0.118 C 
BRANCH  28  29
ATOM     29  O   UNL     1      24.823 -34.743  21.608  1.00  0.00    -0.393 OA
ATOM     30  H   UNL     1      25.390 -33.972  21.349  1.00  0.00     0.210 HD
ENDBRANCH  28  29
ENDBRANCH   1  10
TORSDOF 5
ENDMDL
MODEL 5
REMARK VINA RESULT:    -7.263      3.140      8.689
REMARK INTER + INTRA:         -10.153
REMARK INTER:                  -9.112
REMARK INTRA:                  -1.041
REMARK UNBOUND:                -0.980
REMARK SMILES CC(C)[C@H](C)C=C[C@H](C)[C@H]1CC[C@H]2C3=CC=C4C[C@H](O)CC[C@]4(C)[C@H]3CC[C@@]12C
REMARK SMILES IDX 8 1 9 2 7 3 6 4 4 5 5 6 2 7 1 8 3 9 10 10 11 11 28 12 12 13
REMARK SMILES IDX 13 14 27 15 29 16 14 17 26 18 25 19 15 20 23 21 16 22 17 23
REMARK SMILES IDX 22 24 24 25 18 26 21 27 19 28 20 29
REMARK H PARENT 20 30
REMARK Flexibility Score: inf
ROOT
ATOM      1  C   UNL     1      16.999 -30.107  22.462  1.00  0.00     0.012 C 
ATOM      2  C   UNL     1      17.504 -29.134  21.379  1.00  0.00     0.012 C 
ENDROOT
BRANCH   1   3
ATOM      3  C   UNL     1      15.548 -29.786  22.749  1.00  0.00    -0.028 C 
ATOM      4  C   UNL     1      14.624 -30.757  22.861  1.00  0.00    -0.028 C 
BRANCH   4   5
ATOM      5  C   UNL     1      13.163 -30.494  23.175  1.00  0.00     0.011 C 
ATOM      6  C   UNL     1      12.926 -29.050  23.657  1.00  0.00     0.012 C 
BRANCH   5   7
ATOM      7  C   UNL     1      12.221 -30.959  22.023  1.00  0.00    -0.011 C 
ATOM      8  C   UNL     1      12.945 -31.326  20.717  1.00  0.00     0.008 C 
ATOM      9  C   UNL     1      11.123 -29.921  21.738  1.00  0.00     0.008 C 
ENDBRANCH   5   7
ENDBRANCH   4   5
ENDBRANCH   1   3
BRANCH   1  10
ATOM     10  C   UNL     1      17.163 -31.634  22.131  1.00  0.00     0.002 C 
ATOM     11  C   UNL     1      17.796 -31.969  20.777  1.00  0.00     0.005 C 
ATOM     12  C   UNL     1      17.907 -32.519  23.171  1.00  0.00    -0.023 C 
ATOM     13  C   UNL     1      18.329 -33.395  20.908  1.00  0.00     0.009 C 
ATOM     14  C   UNL     1      18.151 -33.820  22.379  1.00  0.00     0.021 C 
ATOM     15  C   UNL     1      19.267 -31.911  23.596  1.00  0.00     0.008 C 
ATOM     16  C   UNL     1      17.007 -32.784  24.405  1.00  0.00     0.012 C 
ATOM     17  C   UNL     1      19.316 -34.673  22.859  1.00  0.00    -0.063 C 
ATOM     18  C   UNL     1      20.054 -32.826  24.534  1.00  0.00     0.009 C 
ATOM     19  C   UNL     1      20.225 -34.289  24.025  1.00  0.00     0.025 C 
ATOM     20  C   UNL     1      19.523 -35.855  22.258  1.00  0.00    -0.000 C 
ATOM     21  C   UNL     1      21.719 -34.716  23.748  1.00  0.00    -0.005 C 
ATOM     22  C   UNL     1      20.711 -36.666  22.552  1.00  0.00    -0.000 C 
ATOM     23  C   UNL     1      21.737 -36.177  23.269  1.00  0.00    -0.061 C 
ATOM     24  C   UNL     1      22.552 -34.583  25.065  1.00  0.00     0.014 C 
ATOM     25  C   UNL     1      22.336 -33.834  22.635  1.00  0.00     0.017 C 
ATOM     26  C   UNL     1      23.008 -36.993  23.354  1.00  0.00     0.063 C 
ATOM     27  C   UNL     1      23.896 -35.322  25.034  1.00  0.00     0.033 C 
ATOM     28  C   UNL     1      23.731 -36.807  24.695  1.00  0.00     0.118 C 
BRANCH  28  29
ATOM     29  O   UNL     1      23.091 -37.502  25.739  1.00  0.00    -0.393 OA
ATOM     30  H   UNL     1      22.233 -37.864  25.398  1.00  0.00     0.210 HD
ENDBRANCH  28  29
ENDBRANCH   1  10
TORSDOF 5
ENDMDL
MODEL 6
REMARK VINA RESULT:    -7.045      2.005      3.220
REMARK INTER + INTRA:          -9.878
REMARK INTER:                  -8.678
REMARK INTRA:                  -1.200
REMARK UNBOUND:                -0.980
REMARK SMILES CC(C)[C@H](C)C=C[C@H](C)[C@H]1CC[C@H]2C3=CC=C4C[C@H](O)CC[C@]4(C)[C@H]3CC[C@@]12C
REMARK SMILES IDX 8 1 9 2 7 3 6 4 4 5 5 6 2 7 1 8 3 9 10 10 11 11 28 12 12 13
REMARK SMILES IDX 13 14 27 15 29 16 14 17 26 18 25 19 15 20 23 21 16 22 17 23
REMARK SMILES IDX 22 24 24 25 18 26 21 27 19 28 20 29
REMARK H PARENT 20 30
REMARK Flexibility Score: inf
ROOT
ATOM      1  C   UNL     1      19.495 -36.849  24.486  1.00  0.00     0.012 C 
ATOM      2  C   UNL     1      19.409 -38.124  23.625  1.00  0.00     0.012 C 
ENDROOT
BRANCH   1   3
ATOM      3  C   UNL     1      20.658 -37.000  25.443  1.00  0.00    -0.028 C 
ATOM      4  C   UNL     1      21.742 -36.208  25.361  1.00  0.00    -0.028 C 
BRANCH   4   5
ATOM      5  C   UNL     1      22.922 -36.296  26.309  1.00  0.00     0.011 C 
ATOM      6  C   UNL     1      23.869 -37.457  25.948  1.00  0.00     0.012 C 
BRANCH   5   7
ATOM      7  C   UNL     1      23.626 -34.919  26.502  1.00  0.00    -0.011 C 
ATOM      8  C   UNL     1      22.911 -33.737  25.828  1.00  0.00     0.008 C 
ATOM      9  C   UNL     1      25.095 -34.967  26.051  1.00  0.00     0.008 C 
ENDBRANCH   5   7
ENDBRANCH   4   5
ENDBRANCH   1   3
BRANCH   1  10
ATOM     10  C   UNL     1      19.617 -35.500  23.690  1.00  0.00     0.002 C 
ATOM     11  C   UNL     1      19.506 -35.600  22.166  1.00  0.00     0.005 C 
ATOM     12  C   UNL     1      18.675 -34.334  24.103  1.00  0.00    -0.023 C 
ATOM     13  C   UNL     1      19.118 -34.203  21.684  1.00  0.00     0.009 C 
ATOM     14  C   UNL     1      18.848 -33.343  22.935  1.00  0.00     0.021 C 
ATOM     15  C   UNL     1      17.192 -34.777  24.187  1.00  0.00     0.008 C 
ATOM     16  C   UNL     1      19.142 -33.701  25.439  1.00  0.00     0.012 C 
ATOM     17  C   UNL     1      17.691 -32.380  22.711  1.00  0.00    -0.063 C 
ATOM     18  C   UNL     1      16.246 -33.615  24.486  1.00  0.00     0.009 C 
ATOM     19  C   UNL     1      16.413 -32.382  23.547  1.00  0.00     0.025 C 
ATOM     20  C   UNL     1      17.824 -31.443  21.760  1.00  0.00    -0.000 C 
ATOM     21  C   UNL     1      15.149 -32.058  22.659  1.00  0.00    -0.005 C 
ATOM     22  C   UNL     1      16.701 -30.578  21.375  1.00  0.00    -0.000 C 
ATOM     23  C   UNL     1      15.449 -30.819  21.801  1.00  0.00    -0.061 C 
ATOM     24  C   UNL     1      13.920 -31.774  23.583  1.00  0.00     0.014 C 
ATOM     25  C   UNL     1      14.839 -33.241  21.708  1.00  0.00     0.017 C 
ATOM     26  C   UNL     1      14.319 -30.014  21.199  1.00  0.00     0.063 C 
ATOM     27  C   UNL     1      12.750 -31.079  22.875  1.00  0.00     0.033 C 
ATOM     28  C   UNL     1      13.179 -29.773  22.199  1.00  0.00     0.118 C 
BRANCH  28  29
ATOM     29  O   UNL     1      13.513 -28.789  23.150  1.00  0.00    -0.393 OA
ATOM     30  H   UNL     1      13.856 -29.240  23.964  1.00  0.00     0.210 HD
ENDBRANCH  28  29
ENDBRANCH   1  10
TORSDOF 5
ENDMDL
MODEL 7
REMARK VINA RESULT:    -6.988      3.949      6.816
REMARK INTER + INTRA:          -9.806
REMARK INTER:                  -9.426
REMARK INTRA:                  -0.381
REMARK UNBOUND:                -0.980
REMARK SMILES CC(C)[C@H](C)C=C[C@H](C)[C@H]1CC[C@H]2C3=CC=C4C[C@H](O)CC[C@]4(C)[C@H]3CC[C@@]12C
REMARK SMILES IDX 8 1 9 2 7 3 6 4 4 5 5 6 2 7 1 8 3 9 10 10 11 11 28 12 12 13
REMARK SMILES IDX 13 14 27 15 29 16 14 17 26 18 25 19 15 20 23 21 16 22 17 23
REMARK SMILES IDX 22 24 24 25 18 26 21 27 19 28 20 29
REMARK H PARENT 20 30
REMARK Flexibility Score: inf
ROOT
ATOM      1  C   UNL     1      16.293 -33.588  20.806  1.00  0.00     0.012 C 
ATOM      2  C   UNL     1      16.394 -35.124  20.736  1.00  0.00     0.012 C 
ENDROOT
BRANCH   1   3
ATOM      3  C   UNL     1      15.489 -33.220  22.035  1.00  0.00    -0.028 C 
ATOM      4  C   UNL     1      14.535 -32.273  21.991  1.00  0.00    -0.028 C 
BRANCH   4   5
ATOM      5  C   UNL     1      13.681 -31.885  23.183  1.00  0.00     0.011 C 
ATOM      6  C   UNL     1      13.843 -32.871  24.356  1.00  0.00     0.012 C 
BRANCH   5   7
ATOM      7  C   UNL     1      13.854 -30.384  23.567  1.00  0.00    -0.011 C 
ATOM      8  C   UNL     1      12.753 -29.456  23.027  1.00  0.00     0.008 C 
ATOM      9  C   UNL     1      15.236 -29.851  23.154  1.00  0.00     0.008 C 
ENDBRANCH   5   7
ENDBRANCH   4   5
ENDBRANCH   1   3
BRANCH   1  10
ATOM     10  C   UNL     1      17.663 -32.817  20.801  1.00  0.00     0.002 C 
ATOM     11  C   UNL     1      17.583 -31.296  20.648  1.00  0.00     0.005 C 
ATOM     12  C   UNL     1      18.631 -33.068  21.992  1.00  0.00    -0.023 C 
ATOM     13  C   UNL     1      18.901 -30.753  21.198  1.00  0.00     0.009 C 
ATOM     14  C   UNL     1      19.667 -31.940  21.814  1.00  0.00     0.021 C 
ATOM     15  C   UNL     1      17.930 -32.913  23.364  1.00  0.00     0.008 C 
ATOM     16  C   UNL     1      19.303 -34.460  21.865  1.00  0.00     0.012 C 
ATOM     17  C   UNL     1      20.414 -31.528  23.074  1.00  0.00    -0.063 C 
ATOM     18  C   UNL     1      18.897 -33.049  24.540  1.00  0.00     0.009 C 
ATOM     19  C   UNL     1      20.164 -32.146  24.448  1.00  0.00     0.025 C 
ATOM     20  C   UNL     1      21.384 -30.608  22.961  1.00  0.00    -0.000 C 
ATOM     21  C   UNL     1      20.281 -31.064  25.591  1.00  0.00    -0.005 C 
ATOM     22  C   UNL     1      22.046 -30.043  24.145  1.00  0.00    -0.000 C 
ATOM     23  C   UNL     1      21.576 -30.261  25.385  1.00  0.00    -0.061 C 
ATOM     24  C   UNL     1      20.318 -31.775  26.983  1.00  0.00     0.014 C 
ATOM     25  C   UNL     1      19.087 -30.080  25.527  1.00  0.00     0.017 C 
ATOM     26  C   UNL     1      22.183 -29.482  26.530  1.00  0.00     0.063 C 
ATOM     27  C   UNL     1      20.812 -30.885  28.130  1.00  0.00     0.033 C 
ATOM     28  C   UNL     1      22.191 -30.282  27.840  1.00  0.00     0.118 C 
BRANCH  28  29
ATOM     29  O   UNL     1      23.194 -31.271  27.845  1.00  0.00    -0.393 OA
ATOM     30  H   UNL     1      23.032 -31.882  28.609  1.00  0.00     0.210 HD
ENDBRANCH  28  29
ENDBRANCH   1  10
TORSDOF 5
ENDMDL
MODEL 8
REMARK VINA RESULT:    -6.943      3.684      7.858
REMARK INTER + INTRA:          -9.750
REMARK INTER:                  -9.573
REMARK INTRA:                  -0.176
REMARK UNBOUND:                -0.980
REMARK SMILES CC(C)[C@H](C)C=C[C@H](C)[C@H]1CC[C@H]2C3=CC=C4C[C@H](O)CC[C@]4(C)[C@H]3CC[C@@]12C
REMARK SMILES IDX 8 1 9 2 7 3 6 4 4 5 5 6 2 7 1 8 3 9 10 10 11 11 28 12 12 13
REMARK SMILES IDX 13 14 27 15 29 16 14 17 26 18 25 19 15 20 23 21 16 22 17 23
REMARK SMILES IDX 22 24 24 25 18 26 21 27 19 28 20 29
REMARK H PARENT 20 30
REMARK Flexibility Score: inf
ROOT
ATOM      1  C   UNL     1      14.441 -32.764  22.946  1.00  0.00     0.012 C 
ATOM      2  C   UNL     1      13.893 -32.864  24.383  1.00  0.00     0.012 C 
ENDROOT
BRANCH   1   3
ATOM      3  C   UNL     1      14.650 -31.300  22.619  1.00  0.00    -0.028 C 
ATOM      4  C   UNL     1      14.065 -30.329  23.343  1.00  0.00    -0.028 C 
BRANCH   4   5
ATOM      5  C   UNL     1      14.263 -28.849  23.079  1.00  0.00     0.011 C 
ATOM      6  C   UNL     1      15.008 -28.592  21.755  1.00  0.00     0.012 C 
BRANCH   5   7
ATOM      7  C   UNL     1      12.940 -28.040  23.248  1.00  0.00    -0.011 C 
ATOM      8  C   UNL     1      12.739 -27.432  24.645  1.00  0.00     0.008 C 
ATOM      9  C   UNL     1      11.711 -28.879  22.860  1.00  0.00     0.008 C 
ENDBRANCH   5   7
ENDBRANCH   4   5
ENDBRANCH   1   3
BRANCH   1  10
ATOM     10  C   UNL     1      15.754 -33.578  22.663  1.00  0.00     0.002 C 
ATOM     11  C   UNL     1      16.313 -33.488  21.239  1.00  0.00     0.005 C 
ATOM     12  C   UNL     1      16.967 -33.334  23.604  1.00  0.00    -0.023 C 
ATOM     13  C   UNL     1      17.787 -33.874  21.346  1.00  0.00     0.009 C 
ATOM     14  C   UNL     1      18.116 -34.026  22.844  1.00  0.00     0.021 C 
ATOM     15  C   UNL     1      17.291 -31.828  23.769  1.00  0.00     0.008 C 
ATOM     16  C   UNL     1      16.732 -34.006  24.982  1.00  0.00     0.012 C 
ATOM     17  C   UNL     1      19.515 -33.519  23.163  1.00  0.00    -0.063 C 
ATOM     18  C   UNL     1      18.548 -31.583  24.605  1.00  0.00     0.009 C 
ATOM     19  C   UNL     1      19.803 -32.383  24.142  1.00  0.00     0.025 C 
ATOM     20  C   UNL     1      20.558 -34.141  22.591  1.00  0.00    -0.000 C 
ATOM     21  C   UNL     1      21.002 -31.488  23.642  1.00  0.00    -0.005 C 
ATOM     22  C   UNL     1      21.925 -33.620  22.721  1.00  0.00    -0.000 C 
ATOM     23  C   UNL     1      22.169 -32.402  23.234  1.00  0.00    -0.061 C 
ATOM     24  C   UNL     1      21.459 -30.534  24.794  1.00  0.00     0.014 C 
ATOM     25  C   UNL     1      20.580 -30.662  22.402  1.00  0.00     0.017 C 
ATOM     26  C   UNL     1      23.575 -31.854  23.145  1.00  0.00     0.063 C 
ATOM     27  C   UNL     1      22.838 -29.900  24.574  1.00  0.00     0.033 C 
ATOM     28  C   UNL     1      23.926 -30.952  24.337  1.00  0.00     0.118 C 
BRANCH  28  29
ATOM     29  O   UNL     1      24.180 -31.699  25.504  1.00  0.00    -0.393 OA
ATOM     30  H   UNL     1      23.314 -32.005  25.878  1.00  0.00     0.210 HD
ENDBRANCH  28  29
ENDBRANCH   1  10
TORSDOF 5
ENDMDL
MODEL 9
REMARK VINA RESULT:    -6.943      3.204      8.240
REMARK INTER + INTRA:          -9.749
REMARK INTER:                  -8.903
REMARK INTRA:                  -0.846
REMARK UNBOUND:                -0.980
REMARK SMILES CC(C)[C@H](C)C=C[C@H](C)[C@H]1CC[C@H]2C3=CC=C4C[C@H](O)CC[C@]4(C)[C@H]3CC[C@@]12C
REMARK SMILES IDX 8 1 9 2 7 3 6 4 4 5 5 6 2 7 1 8 3 9 10 10 11 11 28 12 12 13
REMARK SMILES IDX 13 14 27 15 29 16 14 17 26 18 25 19 15 20 23 21 16 22 17 23
REMARK SMILES IDX 22 24 24 25 18 26 21 27 19 28 20 29
REMARK H PARENT 20 30
REMARK Flexibility Score: inf
ROOT
ATOM      1  C   UNL     1      16.430 -33.759  20.582  1.00  0.00     0.012 C 
ATOM      2  C   UNL     1      16.107 -34.336  19.190  1.00  0.00     0.012 C 
ENDROOT
BRANCH   1   3
ATOM      3  C   UNL     1      15.220 -32.988  21.068  1.00  0.00    -0.028 C 
ATOM      4  C   UNL     1      15.271 -31.659  21.270  1.00  0.00    -0.028 C 
BRANCH   4   5
ATOM      5  C   UNL     1      14.084 -30.834  21.728  1.00  0.00     0.011 C 
ATOM      6  C   UNL     1      12.769 -31.294  21.068  1.00  0.00     0.012 C 
BRANCH   5   7
ATOM      7  C   UNL     1      14.021 -30.706  23.281  1.00  0.00    -0.011 C 
ATOM      8  C   UNL     1      13.584 -31.987  24.010  1.00  0.00     0.008 C 
ATOM      9  C   UNL     1      13.132 -29.529  23.715  1.00  0.00     0.008 C 
ENDBRANCH   5   7
ENDBRANCH   4   5
ENDBRANCH   1   3
BRANCH   1  10
ATOM     10  C   UNL     1      16.877 -34.807  21.663  1.00  0.00     0.002 C 
ATOM     11  C   UNL     1      17.522 -36.092  21.134  1.00  0.00     0.005 C 
ATOM     12  C   UNL     1      17.808 -34.310  22.804  1.00  0.00    -0.023 C 
ATOM     13  C   UNL     1      18.326 -36.664  22.301  1.00  0.00     0.009 C 
ATOM     14  C   UNL     1      18.277 -35.632  23.445  1.00  0.00     0.021 C 
ATOM     15  C   UNL     1      19.037 -33.534  22.265  1.00  0.00     0.008 C 
ATOM     16  C   UNL     1      17.014 -33.453  23.823  1.00  0.00     0.012 C 
ATOM     17  C   UNL     1      19.599 -35.567  24.195  1.00  0.00    -0.063 C 
ATOM     18  C   UNL     1      20.014 -33.135  23.371  1.00  0.00     0.009 C 
ATOM     19  C   UNL     1      20.450 -34.303  24.306  1.00  0.00     0.025 C 
ATOM     20  C   UNL     1      20.014 -36.668  24.841  1.00  0.00    -0.000 C 
ATOM     21  C   UNL     1      21.990 -34.646  24.252  1.00  0.00    -0.005 C 
ATOM     22  C   UNL     1      21.345 -36.738  25.456  1.00  0.00    -0.000 C 
ATOM     23  C   UNL     1      22.278 -35.798  25.228  1.00  0.00    -0.061 C 
ATOM     24  C   UNL     1      22.820 -33.386  24.665  1.00  0.00     0.014 C 
ATOM     25  C   UNL     1      22.392 -35.106  22.829  1.00  0.00     0.017 C 
ATOM     26  C   UNL     1      23.684 -36.045  25.726  1.00  0.00     0.063 C 
ATOM     27  C   UNL     1      24.280 -33.687  25.024  1.00  0.00     0.033 C 
ATOM     28  C   UNL     1      24.397 -34.746  26.126  1.00  0.00     0.118 C 
BRANCH  28  29
ATOM     29  O   UNL     1      23.935 -34.252  27.361  1.00  0.00    -0.393 OA
ATOM     30  H   UNL     1      24.405 -33.401  27.558  1.00  0.00     0.210 HD
ENDBRANCH  28  29
ENDBRANCH   1  10
TORSDOF 5
ENDMDL
