MODEL 1
REMARK VINA RESULT:    -4.495      0.000      0.000
REMARK INTER + INTRA:          -5.867
REMARK INTER:                  -5.546
REMARK INTRA:                  -0.321
REMARK UNBOUND:                -0.321
REMARK SMILES C=CC[C@H](C)C(=O)CC
REMARK SMILES IDX 4 1 5 2 6 3 7 4 8 5 9 6 3 7 2 8 1 9
REMARK H PARENT
REMARK Flexibility Score: inf
ROOT
ATOM      1  C   UNL     1     142.298 144.759 113.486  1.00  0.00     0.057 C 
ATOM      2  C   UNL     1     142.311 143.583 114.475  1.00  0.00     0.016 C 
ENDROOT
BRANCH   1   3
ATOM      3  C   UNL     1     141.063 144.771 112.604  1.00  0.00     0.135 C 
ATOM      4  O   UNL     1     140.606 143.702 112.222  1.00  0.00    -0.299 OA
BRANCH   3   5
ATOM      5  C   UNL     1     140.342 146.041 112.221  1.00  0.00     0.072 C 
ATOM      6  C   UNL     1     140.787 147.204 113.100  1.00  0.00     0.012 C 
ENDBRANCH   3   5
ENDBRANCH   1   3
BRANCH   1   7
ATOM      7  C   UNL     1     143.601 144.863 112.665  1.00  0.00     0.038 C 
BRANCH   7   8
ATOM      8  C   UNL     1     144.484 146.012 113.081  1.00  0.00    -0.034 C 
ATOM      9  C   UNL     1     145.666 145.814 113.674  1.00  0.00     0.004 C 
ENDBRANCH   7   8
ENDBRANCH   1   7
TORSDOF 4
ENDMDL
MODEL 2
REMARK VINA RESULT:    -4.155      1.488      3.653
REMARK INTER + INTRA:          -5.448
REMARK INTER:                  -5.275
REMARK INTRA:                  -0.173
REMARK UNBOUND:                -0.321
REMARK SMILES C=CC[C@H](C)C(=O)CC
REMARK SMILES IDX 4 1 5 2 6 3 7 4 8 5 9 6 3 7 2 8 1 9
REMARK H PARENT
REMARK Flexibility Score: inf
ROOT
ATOM      1  C   UNL     1     141.768 145.066 112.861  1.00  0.00     0.057 C 
ATOM      2  C   UNL     1     140.903 143.802 112.976  1.00  0.00     0.016 C 
ENDROOT
BRANCH   1   3
ATOM      3  C   UNL     1     143.194 144.847 113.335  1.00  0.00     0.135 C 
ATOM      4  O   UNL     1     143.446 143.847 113.991  1.00  0.00    -0.299 OA
BRANCH   3   5
ATOM      5  C   UNL     1     144.326 145.783 112.984  1.00  0.00     0.072 C 
ATOM      6  C   UNL     1     145.580 145.438 113.780  1.00  0.00     0.012 C 
ENDBRANCH   3   5
ENDBRANCH   1   3
BRANCH   1   7
ATOM      7  C   UNL     1     141.117 146.298 113.524  1.00  0.00     0.038 C 
BRANCH   7   8
ATOM      8  C   UNL     1     141.081 147.513 112.632  1.00  0.00    -0.034 C 
ATOM      9  C   UNL     1     140.780 148.727 113.105  1.00  0.00     0.004 C 
ENDBRANCH   7   8
ENDBRANCH   1   7
TORSDOF 4
ENDMDL
MODEL 3
REMARK VINA RESULT:    -4.040      1.189      3.607
REMARK INTER + INTRA:          -5.305
REMARK INTER:                  -5.151
REMARK INTRA:                  -0.154
REMARK UNBOUND:                -0.321
REMARK SMILES C=CC[C@H](C)C(=O)CC
REMARK SMILES IDX 4 1 5 2 6 3 7 4 8 5 9 6 3 7 2 8 1 9
REMARK H PARENT
REMARK Flexibility Score: inf
ROOT
ATOM      1  C   UNL     1     141.748 145.403 113.510  1.00  0.00     0.057 C 
ATOM      2  C   UNL     1     143.225 145.694 113.205  1.00  0.00     0.016 C 
ENDROOT
BRANCH   1   3
ATOM      3  C   UNL     1     141.400 143.932 113.381  1.00  0.00     0.135 C 
ATOM      4  O   UNL     1     140.687 143.578 112.452  1.00  0.00    -0.299 OA
BRANCH   3   5
ATOM      5  C   UNL     1     141.939 142.877 114.316  1.00  0.00     0.072 C 
ATOM      6  C   UNL     1     140.842 141.899 114.723  1.00  0.00     0.012 C 
ENDBRANCH   3   5
ENDBRANCH   1   3
BRANCH   1   7
ATOM      7  C   UNL     1     140.783 146.302 112.707  1.00  0.00     0.038 C 
BRANCH   7   8
ATOM      8  C   UNL     1     140.502 147.626 113.370  1.00  0.00    -0.034 C 
ATOM      9  C   UNL     1     140.952 148.779 112.863  1.00  0.00     0.004 C 
ENDBRANCH   7   8
ENDBRANCH   1   7
TORSDOF 4
ENDMDL
MODEL 4
REMARK VINA RESULT:    -4.037      1.189      3.059
REMARK INTER + INTRA:          -5.302
REMARK INTER:                  -5.112
REMARK INTRA:                  -0.190
REMARK UNBOUND:                -0.321
REMARK SMILES C=CC[C@H](C)C(=O)CC
REMARK SMILES IDX 4 1 5 2 6 3 7 4 8 5 9 6 3 7 2 8 1 9
REMARK H PARENT
REMARK Flexibility Score: inf
ROOT
ATOM      1  C   UNL     1     142.465 144.521 113.047  1.00  0.00     0.057 C 
ATOM      2  C   UNL     1     143.766 145.337 113.097  1.00  0.00     0.016 C 
ENDROOT
BRANCH   1   3
ATOM      3  C   UNL     1     141.239 145.384 112.812  1.00  0.00     0.135 C 
ATOM      4  O   UNL     1     140.462 145.068 111.921  1.00  0.00    -0.299 OA
BRANCH   3   5
ATOM      5  C   UNL     1     140.906 146.585 113.664  1.00  0.00     0.072 C 
ATOM      6  C   UNL     1     140.904 147.860 112.828  1.00  0.00     0.012 C 
ENDBRANCH   3   5
ENDBRANCH   1   3
BRANCH   1   7
ATOM      7  C   UNL     1     142.296 143.590 114.266  1.00  0.00     0.038 C 
BRANCH   7   8
ATOM      8  C   UNL     1     141.160 142.611 114.124  1.00  0.00    -0.034 C 
ATOM      9  C   UNL     1     140.905 141.685 115.054  1.00  0.00     0.004 C 
ENDBRANCH   7   8
ENDBRANCH   1   7
TORSDOF 4
ENDMDL
MODEL 5
REMARK VINA RESULT:    -3.765      1.075      2.636
REMARK INTER + INTRA:          -4.966
REMARK INTER:                  -4.803
REMARK INTRA:                  -0.162
REMARK UNBOUND:                -0.321
REMARK SMILES C=CC[C@H](C)C(=O)CC
REMARK SMILES IDX 4 1 5 2 6 3 7 4 8 5 9 6 3 7 2 8 1 9
REMARK H PARENT
REMARK Flexibility Score: inf
ROOT
ATOM      1  C   UNL     1     142.251 145.163 113.035  1.00  0.00     0.057 C 
ATOM      2  C   UNL     1     141.354 146.405 113.142  1.00  0.00     0.016 C 
ENDROOT
BRANCH   1   3
ATOM      3  C   UNL     1     141.508 143.873 113.334  1.00  0.00     0.135 C 
ATOM      4  O   UNL     1     140.551 143.574 112.634  1.00  0.00    -0.299 OA
BRANCH   3   5
ATOM      5  C   UNL     1     141.931 142.918 114.423  1.00  0.00     0.072 C 
ATOM      6  C   UNL     1     140.847 141.876 114.682  1.00  0.00     0.012 C 
ENDBRANCH   3   5
ENDBRANCH   1   3
BRANCH   1   7
ATOM      7  C   UNL     1     143.549 145.290 113.861  1.00  0.00     0.038 C 
BRANCH   7   8
ATOM      8  C   UNL     1     144.645 146.039 113.147  1.00  0.00    -0.034 C 
ATOM      9  C   UNL     1     145.901 146.058 113.606  1.00  0.00     0.004 C 
ENDBRANCH   7   8
ENDBRANCH   1   7
TORSDOF 4
ENDMDL
MODEL 6
REMARK VINA RESULT:    -3.573      1.685      3.955
REMARK INTER + INTRA:          -4.729
REMARK INTER:                  -4.516
REMARK INTRA:                  -0.214
REMARK UNBOUND:                -0.321
REMARK SMILES C=CC[C@H](C)C(=O)CC
REMARK SMILES IDX 4 1 5 2 6 3 7 4 8 5 9 6 3 7 2 8 1 9
REMARK H PARENT
REMARK Flexibility Score: inf
ROOT
ATOM      1  C   UNL     1     142.180 145.168 113.549  1.00  0.00     0.057 C 
ATOM      2  C   UNL     1     141.622 146.555 113.192  1.00  0.00     0.016 C 
ENDROOT
BRANCH   1   3
ATOM      3  C   UNL     1     143.696 145.113 113.493  1.00  0.00     0.135 C 
ATOM      4  O   UNL     1     144.257 144.079 113.827  1.00  0.00    -0.299 OA
BRANCH   3   5
ATOM      5  C   UNL     1     144.539 146.260 112.993  1.00  0.00     0.072 C 
ATOM      6  C   UNL     1     145.914 146.252 113.652  1.00  0.00     0.012 C 
ENDBRANCH   3   5
ENDBRANCH   1   3
BRANCH   1   7
ATOM      7  C   UNL     1     141.526 144.033 112.732  1.00  0.00     0.038 C 
BRANCH   7   8
ATOM      8  C   UNL     1     140.758 143.050 113.577  1.00  0.00    -0.034 C 
ATOM      9  C   UNL     1     141.374 142.184 114.389  1.00  0.00     0.004 C 
ENDBRANCH   7   8
ENDBRANCH   1   7
TORSDOF 4
ENDMDL
MODEL 7
REMARK VINA RESULT:    -3.194     13.947     15.260
REMARK INTER + INTRA:          -4.262
REMARK INTER:                  -3.809
REMARK INTRA:                  -0.453
REMARK UNBOUND:                -0.321
REMARK SMILES C=CC[C@H](C)C(=O)CC
REMARK SMILES IDX 4 1 5 2 6 3 7 4 8 5 9 6 3 7 2 8 1 9
REMARK H PARENT
REMARK Flexibility Score: inf
ROOT
ATOM      1  C   UNL     1     128.407 137.235 114.717  1.00  0.00     0.057 C 
ATOM      2  C   UNL     1     128.561 136.368 113.458  1.00  0.00     0.016 C 
ENDROOT
BRANCH   1   3
ATOM      3  C   UNL     1     127.640 138.519 114.456  1.00  0.00     0.135 C 
ATOM      4  O   UNL     1     127.058 138.646 113.387  1.00  0.00    -0.299 OA
BRANCH   3   5
ATOM      5  C   UNL     1     127.517 139.622 115.478  1.00  0.00     0.072 C 
ATOM      6  C   UNL     1     128.169 140.905 114.974  1.00  0.00     0.012 C 
ENDBRANCH   3   5
ENDBRANCH   1   3
BRANCH   1   7
ATOM      7  C   UNL     1     129.751 137.496 115.431  1.00  0.00     0.038 C 
BRANCH   7   8
ATOM      8  C   UNL     1     130.831 138.008 114.513  1.00  0.00    -0.034 C 
ATOM      9  C   UNL     1     131.642 139.009 114.868  1.00  0.00     0.004 C 
ENDBRANCH   7   8
ENDBRANCH   1   7
TORSDOF 4
ENDMDL
MODEL 8
REMARK VINA RESULT:    -3.194     15.389     16.633
REMARK INTER + INTRA:          -4.262
REMARK INTER:                  -3.804
REMARK INTRA:                  -0.458
REMARK UNBOUND:                -0.321
REMARK SMILES C=CC[C@H](C)C(=O)CC
REMARK SMILES IDX 4 1 5 2 6 3 7 4 8 5 9 6 3 7 2 8 1 9
REMARK H PARENT
REMARK Flexibility Score: inf
ROOT
ATOM      1  C   UNL     1     127.453 136.773 114.060  1.00  0.00     0.057 C 
ATOM      2  C   UNL     1     126.509 135.631 114.469  1.00  0.00     0.016 C 
ENDROOT
BRANCH   1   3
ATOM      3  C   UNL     1     126.890 137.627 112.938  1.00  0.00     0.135 C 
ATOM      4  O   UNL     1     126.742 137.121 111.835  1.00  0.00    -0.299 OA
BRANCH   3   5
ATOM      5  C   UNL     1     126.453 139.058 113.138  1.00  0.00     0.072 C 
ATOM      6  C   UNL     1     127.135 139.668 114.358  1.00  0.00     0.012 C 
ENDBRANCH   3   5
ENDBRANCH   1   3
BRANCH   1   7
ATOM      7  C   UNL     1     128.885 136.284 113.757  1.00  0.00     0.038 C 
BRANCH   7   8
ATOM      8  C   UNL     1     129.942 136.963 114.591  1.00  0.00    -0.034 C 
ATOM      9  C   UNL     1     129.689 137.406 115.826  1.00  0.00     0.004 C 
ENDBRANCH   7   8
ENDBRANCH   1   7
TORSDOF 4
ENDMDL
MODEL 9
REMARK VINA RESULT:    -3.165     12.339     13.654
REMARK INTER + INTRA:          -4.226
REMARK INTER:                  -4.006
REMARK INTRA:                  -0.220
REMARK UNBOUND:                -0.321
REMARK SMILES C=CC[C@H](C)C(=O)CC
REMARK SMILES IDX 4 1 5 2 6 3 7 4 8 5 9 6 3 7 2 8 1 9
REMARK H PARENT
REMARK Flexibility Score: inf
ROOT
ATOM      1  C   UNL     1     130.100 143.127 114.989  1.00  0.00     0.057 C 
ATOM      2  C   UNL     1     130.748 141.739 115.117  1.00  0.00     0.016 C 
ENDROOT
BRANCH   1   3
ATOM      3  C   UNL     1     130.330 143.998 116.211  1.00  0.00     0.135 C 
ATOM      4  O   UNL     1     131.188 143.663 117.016  1.00  0.00    -0.299 OA
BRANCH   3   5
ATOM      5  C   UNL     1     129.583 145.288 116.449  1.00  0.00     0.072 C 
ATOM      6  C   UNL     1     130.462 146.491 116.126  1.00  0.00     0.012 C 
ENDBRANCH   3   5
ENDBRANCH   1   3
BRANCH   1   7
ATOM      7  C   UNL     1     128.608 143.055 114.598  1.00  0.00     0.038 C 
BRANCH   7   8
ATOM      8  C   UNL     1     127.975 141.717 114.880  1.00  0.00    -0.034 C 
ATOM      9  C   UNL     1     127.002 141.220 114.110  1.00  0.00     0.004 C 
ENDBRANCH   7   8
ENDBRANCH   1   7
TORSDOF 4
ENDMDL
