MODEL 1
REMARK VINA RESULT:    -3.260      0.000      0.000
REMARK INTER + INTRA:          -4.356
REMARK INTER:                  -4.213
REMARK INTRA:                  -0.143
REMARK UNBOUND:                -0.143
REMARK SMILES CCCCCCC(=O)[O-]
REMARK SMILES IDX 5 1 6 2 7 3 8 4 9 5 4 6 3 7 2 8 1 9
REMARK H PARENT
REMARK Flexibility Score: inf
ROOT
ATOM      1  C   UNL     1      11.500  -1.784 -26.463  1.00  0.00     0.006 C 
ENDROOT
BRANCH   1   2
ATOM      2  C   UNL     1      12.616  -0.754 -26.688  1.00  0.00     0.053 C 
BRANCH   2   3
ATOM      3  C   UNL     1      12.530  -0.126 -28.046  1.00  0.00     0.041 C 
ATOM      4  O   UNL     1      13.492  -0.224 -28.850  1.00  0.00    -0.550 OA
ATOM      5  O   UNL     1      11.374   0.540 -28.433  1.00  0.00    -0.550 OA
ENDBRANCH   2   3
ENDBRANCH   1   2
BRANCH   1   6
ATOM      6  C   UNL     1      11.663  -2.533 -25.129  1.00  0.00     0.000 C 
BRANCH   6   7
ATOM      7  C   UNL     1      12.976  -2.186 -24.412  1.00  0.00    -0.000 C 
BRANCH   7   8
ATOM      8  C   UNL     1      12.972  -2.606 -22.934  1.00  0.00    -0.003 C 
ATOM      9  C   UNL     1      13.382  -4.068 -22.778  1.00  0.00     0.004 C 
ENDBRANCH   7   8
ENDBRANCH   6   7
ENDBRANCH   1   6
TORSDOF 5
ENDMDL
MODEL 2
REMARK VINA RESULT:    -3.249      3.490      5.182
REMARK INTER + INTRA:          -4.342
REMARK INTER:                  -4.201
REMARK INTRA:                  -0.141
REMARK UNBOUND:                -0.143
REMARK SMILES CCCCCCC(=O)[O-]
REMARK SMILES IDX 5 1 6 2 7 3 8 4 9 5 4 6 3 7 2 8 1 9
REMARK H PARENT
REMARK Flexibility Score: inf
ROOT
ATOM      1  C   UNL     1      11.583  -2.795 -24.930  1.00  0.00     0.006 C 
ENDROOT
BRANCH   1   2
ATOM      2  C   UNL     1      12.807  -2.326 -24.132  1.00  0.00     0.053 C 
BRANCH   2   3
ATOM      3  C   UNL     1      12.840  -2.922 -22.758  1.00  0.00     0.041 C 
ATOM      4  O   UNL     1      13.658  -3.838 -22.485  1.00  0.00    -0.550 OA
ATOM      5  O   UNL     1      11.987  -2.444 -21.771  1.00  0.00    -0.550 OA
ENDBRANCH   2   3
ENDBRANCH   1   2
BRANCH   1   6
ATOM      6  C   UNL     1      11.416  -2.017 -26.247  1.00  0.00     0.000 C 
BRANCH   6   7
ATOM      7  C   UNL     1      12.515  -0.964 -26.456  1.00  0.00    -0.000 C 
BRANCH   7   8
ATOM      8  C   UNL     1      12.303  -0.132 -27.731  1.00  0.00    -0.003 C 
ATOM      9  C   UNL     1      13.395  -0.416 -28.759  1.00  0.00     0.004 C 
ENDBRANCH   7   8
ENDBRANCH   6   7
ENDBRANCH   1   6
TORSDOF 5
ENDMDL
MODEL 3
REMARK VINA RESULT:    -3.236     20.315     21.359
REMARK INTER + INTRA:          -4.325
REMARK INTER:                  -4.201
REMARK INTRA:                  -0.124
REMARK UNBOUND:                -0.143
REMARK SMILES CCCCCCC(=O)[O-]
REMARK SMILES IDX 5 1 6 2 7 3 8 4 9 5 4 6 3 7 2 8 1 9
REMARK H PARENT
REMARK Flexibility Score: inf
ROOT
ATOM      1  C   UNL     1      -4.179 -10.428 -16.479  1.00  0.00     0.006 C 
ENDROOT
BRANCH   1   2
ATOM      2  C   UNL     1      -5.398 -11.358 -16.405  1.00  0.00     0.053 C 
BRANCH   2   3
ATOM      3  C   UNL     1      -5.370 -12.401 -17.481  1.00  0.00     0.041 C 
ATOM      4  O   UNL     1      -5.047 -12.089 -18.656  1.00  0.00    -0.550 OA
ATOM      5  O   UNL     1      -5.671 -13.723 -17.177  1.00  0.00    -0.550 OA
ENDBRANCH   2   3
ENDBRANCH   1   2
BRANCH   1   6
ATOM      6  C   UNL     1      -2.888 -11.125 -16.018  1.00  0.00     0.000 C 
BRANCH   6   7
ATOM      7  C   UNL     1      -1.816 -10.131 -15.545  1.00  0.00    -0.000 C 
BRANCH   7   8
ATOM      8  C   UNL     1      -0.936 -10.700 -14.421  1.00  0.00    -0.003 C 
ATOM      9  C   UNL     1      -0.026  -9.623 -13.838  1.00  0.00     0.004 C 
ENDBRANCH   7   8
ENDBRANCH   6   7
ENDBRANCH   1   6
TORSDOF 5
ENDMDL
MODEL 4
REMARK VINA RESULT:    -3.201     21.137     22.517
REMARK INTER + INTRA:          -4.279
REMARK INTER:                  -4.095
REMARK INTRA:                  -0.184
REMARK UNBOUND:                -0.143
REMARK SMILES CCCCCCC(=O)[O-]
REMARK SMILES IDX 5 1 6 2 7 3 8 4 9 5 4 6 3 7 2 8 1 9
REMARK H PARENT
REMARK Flexibility Score: inf
ROOT
ATOM      1  C   UNL     1      -2.708 -14.041 -14.947  1.00  0.00     0.006 C 
ENDROOT
BRANCH   1   2
ATOM      2  C   UNL     1      -1.503 -14.607 -14.182  1.00  0.00     0.053 C 
BRANCH   2   3
ATOM      3  C   UNL     1      -1.913 -15.249 -12.892  1.00  0.00     0.041 C 
ATOM      4  O   UNL     1      -1.227 -16.184 -12.404  1.00  0.00    -0.550 OA
ATOM      5  O   UNL     1      -3.036 -14.792 -12.213  1.00  0.00    -0.550 OA
ENDBRANCH   2   3
ENDBRANCH   1   2
BRANCH   1   6
ATOM      6  C   UNL     1      -2.528 -12.553 -15.296  1.00  0.00     0.000 C 
BRANCH   6   7
ATOM      7  C   UNL     1      -1.279 -11.940 -14.644  1.00  0.00    -0.000 C 
BRANCH   7   8
ATOM      8  C   UNL     1      -1.216 -10.413 -14.806  1.00  0.00    -0.003 C 
ATOM      9  C   UNL     1      -0.169  -9.805 -13.876  1.00  0.00     0.004 C 
ENDBRANCH   7   8
ENDBRANCH   6   7
ENDBRANCH   1   6
TORSDOF 5
ENDMDL
MODEL 5
REMARK VINA RESULT:    -3.199     12.028     13.447
REMARK INTER + INTRA:          -4.277
REMARK INTER:                  -4.101
REMARK INTRA:                  -0.176
REMARK UNBOUND:                -0.143
REMARK SMILES CCCCCCC(=O)[O-]
REMARK SMILES IDX 5 1 6 2 7 3 8 4 9 5 4 6 3 7 2 8 1 9
REMARK H PARENT
REMARK Flexibility Score: inf
ROOT
ATOM      1  C   UNL     1      11.285 -12.173 -20.244  1.00  0.00     0.006 C 
ENDROOT
BRANCH   1   2
ATOM      2  C   UNL     1      12.213 -13.323 -19.829  1.00  0.00     0.053 C 
BRANCH   2   3
ATOM      3  C   UNL     1      11.719 -14.022 -18.600  1.00  0.00     0.041 C 
ATOM      4  O   UNL     1      10.528 -14.421 -18.534  1.00  0.00    -0.550 OA
ATOM      5  O   UNL     1      12.585 -14.261 -17.539  1.00  0.00    -0.550 OA
ENDBRANCH   2   3
ENDBRANCH   1   2
BRANCH   1   6
ATOM      6  C   UNL     1      11.664 -11.588 -21.616  1.00  0.00     0.000 C 
BRANCH   6   7
ATOM      7  C   UNL     1      13.028 -12.089 -22.116  1.00  0.00    -0.000 C 
BRANCH   7   8
ATOM      8  C   UNL     1      13.390 -11.533 -23.502  1.00  0.00    -0.003 C 
ATOM      9  C   UNL     1      12.157 -11.449 -24.399  1.00  0.00     0.004 C 
ENDBRANCH   7   8
ENDBRANCH   6   7
ENDBRANCH   1   6
TORSDOF 5
ENDMDL
MODEL 6
REMARK VINA RESULT:    -3.157      4.282      5.952
REMARK INTER + INTRA:          -4.222
REMARK INTER:                  -4.032
REMARK INTRA:                  -0.190
REMARK UNBOUND:                -0.143
REMARK SMILES CCCCCCC(=O)[O-]
REMARK SMILES IDX 5 1 6 2 7 3 8 4 9 5 4 6 3 7 2 8 1 9
REMARK H PARENT
REMARK Flexibility Score: inf
ROOT
ATOM      1  C   UNL     1      13.779  -2.968 -23.274  1.00  0.00     0.006 C 
ENDROOT
BRANCH   1   2
ATOM      2  C   UNL     1      12.833  -3.708 -22.318  1.00  0.00     0.053 C 
BRANCH   2   3
ATOM      3  C   UNL     1      13.329  -5.084 -21.997  1.00  0.00     0.041 C 
ATOM      4  O   UNL     1      13.399  -5.958 -22.900  1.00  0.00    -0.550 OA
ATOM      5  O   UNL     1      13.743  -5.392 -20.707  1.00  0.00    -0.550 OA
ENDBRANCH   2   3
ENDBRANCH   1   2
BRANCH   1   6
ATOM      6  C   UNL     1      13.021  -2.039 -24.238  1.00  0.00     0.000 C 
BRANCH   6   7
ATOM      7  C   UNL     1      11.820  -2.729 -24.903  1.00  0.00    -0.000 C 
BRANCH   7   8
ATOM      8  C   UNL     1      11.378  -2.029 -26.197  1.00  0.00    -0.003 C 
ATOM      9  C   UNL     1      12.403  -0.986 -26.635  1.00  0.00     0.004 C 
ENDBRANCH   7   8
ENDBRANCH   6   7
ENDBRANCH   1   6
TORSDOF 5
ENDMDL
MODEL 7
REMARK VINA RESULT:    -3.156      9.912     11.615
REMARK INTER + INTRA:          -4.221
REMARK INTER:                  -4.099
REMARK INTRA:                  -0.122
REMARK UNBOUND:                -0.143
REMARK SMILES CCCCCCC(=O)[O-]
REMARK SMILES IDX 5 1 6 2 7 3 8 4 9 5 4 6 3 7 2 8 1 9
REMARK H PARENT
REMARK Flexibility Score: inf
ROOT
ATOM      1  C   UNL     1      12.342 -11.906 -21.711  1.00  0.00     0.006 C 
ENDROOT
BRANCH   1   2
ATOM      2  C   UNL     1      13.426 -11.913 -22.798  1.00  0.00     0.053 C 
BRANCH   2   3
ATOM      3  C   UNL     1      12.980 -11.192 -24.034  1.00  0.00     0.041 C 
ATOM      4  O   UNL     1      12.103 -11.698 -24.780  1.00  0.00    -0.550 OA
ATOM      5  O   UNL     1      13.512  -9.946 -24.343  1.00  0.00    -0.550 OA
ENDBRANCH   2   3
ENDBRANCH   1   2
BRANCH   1   6
ATOM      6  C   UNL     1      12.730 -12.772 -20.500  1.00  0.00     0.000 C 
BRANCH   6   7
ATOM      7  C   UNL     1      11.537 -13.072 -19.580  1.00  0.00    -0.000 C 
BRANCH   7   8
ATOM      8  C   UNL     1      11.966 -13.656 -18.225  1.00  0.00    -0.003 C 
ATOM      9  C   UNL     1      13.466 -13.479 -18.002  1.00  0.00     0.004 C 
ENDBRANCH   7   8
ENDBRANCH   6   7
ENDBRANCH   1   6
TORSDOF 5
ENDMDL
MODEL 8
REMARK VINA RESULT:    -3.154     15.145     16.304
REMARK INTER + INTRA:          -4.220
REMARK INTER:                  -4.009
REMARK INTRA:                  -0.210
REMARK UNBOUND:                -0.143
REMARK SMILES CCCCCCC(=O)[O-]
REMARK SMILES IDX 5 1 6 2 7 3 8 4 9 5 4 6 3 7 2 8 1 9
REMARK H PARENT
REMARK Flexibility Score: inf
ROOT
ATOM      1  C   UNL     1      -4.307  -3.887 -26.352  1.00  0.00     0.006 C 
ENDROOT
BRANCH   1   2
ATOM      2  C   UNL     1      -4.698  -2.527 -26.948  1.00  0.00     0.053 C 
BRANCH   2   3
ATOM      3  C   UNL     1      -4.888  -1.487 -25.886  1.00  0.00     0.041 C 
ATOM      4  O   UNL     1      -4.630  -1.754 -24.684  1.00  0.00    -0.550 OA
ATOM      5  O   UNL     1      -5.320  -0.212 -26.230  1.00  0.00    -0.550 OA
ENDBRANCH   2   3
ENDBRANCH   1   2
BRANCH   1   6
ATOM      6  C   UNL     1      -2.949  -4.381 -26.878  1.00  0.00     0.000 C 
BRANCH   6   7
ATOM      7  C   UNL     1      -2.066  -3.239 -27.403  1.00  0.00    -0.000 C 
BRANCH   7   8
ATOM      8  C   UNL     1      -0.767  -3.745 -28.050  1.00  0.00    -0.003 C 
ATOM      9  C   UNL     1      -0.552  -5.228 -27.763  1.00  0.00     0.004 C 
ENDBRANCH   7   8
ENDBRANCH   6   7
ENDBRANCH   1   6
TORSDOF 5
ENDMDL
MODEL 9
REMARK VINA RESULT:    -3.129      4.705      6.003
REMARK INTER + INTRA:          -4.186
REMARK INTER:                  -4.053
REMARK INTRA:                  -0.134
REMARK UNBOUND:                -0.143
REMARK SMILES CCCCCCC(=O)[O-]
REMARK SMILES IDX 5 1 6 2 7 3 8 4 9 5 4 6 3 7 2 8 1 9
REMARK H PARENT
REMARK Flexibility Score: inf
ROOT
ATOM      1  C   UNL     1      11.261  -2.822 -21.047  1.00  0.00     0.006 C 
ENDROOT
BRANCH   1   2
ATOM      2  C   UNL     1      11.656  -2.839 -22.531  1.00  0.00     0.053 C 
BRANCH   2   3
ATOM      3  C   UNL     1      13.113  -3.132 -22.717  1.00  0.00     0.041 C 
ATOM      4  O   UNL     1      13.877  -2.259 -23.205  1.00  0.00    -0.550 OA
ATOM      5  O   UNL     1      13.633  -4.358 -22.322  1.00  0.00    -0.550 OA
ENDBRANCH   2   3
ENDBRANCH   1   2
BRANCH   1   6
ATOM      6  C   UNL     1      10.561  -1.511 -20.648  1.00  0.00     0.000 C 
BRANCH   6   7
ATOM      7  C   UNL     1      11.047  -0.970 -19.294  1.00  0.00    -0.000 C 
BRANCH   7   8
ATOM      8  C   UNL     1      10.550   0.457 -19.015  1.00  0.00    -0.003 C 
ATOM      9  C   UNL     1       9.569   0.917 -20.091  1.00  0.00     0.004 C 
ENDBRANCH   7   8
ENDBRANCH   6   7
ENDBRANCH   1   6
TORSDOF 5
ENDMDL
