MODEL 1
REMARK VINA RESULT:    -6.971      0.000      0.000
REMARK INTER + INTRA:         -10.778
REMARK INTER:                  -9.416
REMARK INTRA:                  -1.362
REMARK UNBOUND:                -1.362
REMARK SMILES O=c1c(-c2ccc(O)cc2)coc2c([C@@H]3O[C@@H](CO)[C@@H](O)[C@@H](O)[C@@H]3O)c(O)ccc12
REMARK SMILES IDX 3 1 11 2 12 3 13 4 30 5 2 6 1 7 29 8 28 9 26 10 14 11 4 12
REMARK SMILES IDX 5 13 6 14 7 15 10 16 9 17 8 18 15 20 24 21 16 22 22 23 17 24
REMARK SMILES IDX 20 25 25 26 23 28 18 30 19 31 21 33 27 35
REMARK H PARENT 8 19 25 27 23 29 19 32 21 34 27 36
REMARK Flexibility Score: inf
ROOT
ATOM      1  C   UNL     1     -25.701  57.314 152.477  1.00  0.00     0.065 A 
ATOM      2  C   UNL     1     -25.362  57.892 153.708  1.00  0.00     0.208 A 
ATOM      3  O   UNL     1     -24.097  57.966 154.101  1.00  0.00    -0.463 OA
ATOM      4  C   UNL     1     -23.079  57.510 153.375  1.00  0.00     0.147 A 
ATOM      5  C   UNL     1     -23.329  56.927 152.111  1.00  0.00     0.066 A 
ATOM      6  C   UNL     1     -24.659  56.833 151.662  1.00  0.00     0.200 A 
ATOM      7  O   UNL     1     -24.915  56.341 150.527  1.00  0.00    -0.288 OA
ATOM      8  C   UNL     1     -22.254  56.474 151.334  1.00  0.00     0.020 A 
ATOM      9  C   UNL     1     -20.946  56.634 151.786  1.00  0.00     0.047 A 
ATOM     10  C   UNL     1     -20.680  57.230 153.022  1.00  0.00     0.125 A 
ATOM     11  C   UNL     1     -21.754  57.622 153.866  1.00  0.00     0.069 A 
ENDROOT
BRANCH   1  12
ATOM     12  C   UNL     1     -27.125  57.230 152.065  1.00  0.00    -0.011 A 
ATOM     13  C   UNL     1     -27.756  58.324 151.447  1.00  0.00     0.013 A 
ATOM     14  C   UNL     1     -29.094  58.238 151.052  1.00  0.00     0.047 A 
ATOM     15  C   UNL     1     -29.816  57.059 151.262  1.00  0.00     0.115 A 
ATOM     16  C   UNL     1     -27.854  56.044 152.264  1.00  0.00     0.013 A 
ATOM     17  C   UNL     1     -29.192  55.961 151.869  1.00  0.00     0.047 A 
BRANCH  15  18
ATOM     18  O   UNL     1     -31.150  56.989 150.866  1.00  0.00    -0.508 OA
ATOM     19  H   UNL     1     -31.736  57.815 150.831  1.00  0.00     0.293 HD
ENDBRANCH  15  18
ENDBRANCH   1  12
BRANCH  11  20
ATOM     20  C   UNL     1     -21.509  58.215 155.252  1.00  0.00     0.188 C 
ATOM     21  C   UNL     1     -21.360  57.093 156.356  1.00  0.00     0.179 C 
ATOM     22  O   UNL     1     -20.453  59.162 155.151  1.00  0.00    -0.362 OA
ATOM     23  C   UNL     1     -20.037  57.065 157.187  1.00  0.00     0.177 C 
ATOM     24  C   UNL     1     -19.850  59.493 156.385  1.00  0.00     0.176 C 
ATOM     25  C   UNL     1     -19.103  58.261 156.912  1.00  0.00     0.177 C 
BRANCH  21  26
ATOM     26  O   UNL     1     -21.648  55.807 155.857  1.00  0.00    -0.387 OA
ATOM     27  H   UNL     1     -22.298  55.912 155.113  1.00  0.00     0.211 HD
ENDBRANCH  21  26
BRANCH  23  28
ATOM     28  O   UNL     1     -20.347  56.991 158.559  1.00  0.00    -0.387 OA
ATOM     29  H   UNL     1     -21.177  56.452 158.636  1.00  0.00     0.211 HD
ENDBRANCH  23  28
BRANCH  24  30
ATOM     30  C   UNL     1     -20.832  60.169 157.373  1.00  0.00     0.191 C 
BRANCH  30  31
ATOM     31  O   UNL     1     -20.378  60.007 158.691  1.00  0.00    -0.394 OA
ATOM     32  H   UNL     1     -21.059  59.473 159.177  1.00  0.00     0.210 HD
ENDBRANCH  30  31
ENDBRANCH  24  30
BRANCH  25  33
ATOM     33  O   UNL     1     -18.267  58.563 158.005  1.00  0.00    -0.388 OA
ATOM     34  H   UNL     1     -18.143  57.737 158.540  1.00  0.00     0.211 HD
ENDBRANCH  25  33
ENDBRANCH  11  20
BRANCH  10  35
ATOM     35  O   UNL     1     -19.339  57.434 153.357  1.00  0.00    -0.507 OA
ATOM     36  H   UNL     1     -18.703  58.013 152.826  1.00  0.00     0.293 HD
ENDBRANCH  10  35
TORSDOF 9
ENDMDL
MODEL 2
REMARK VINA RESULT:    -6.569     12.501     16.362
REMARK INTER + INTRA:         -10.234
REMARK INTER:                  -8.864
REMARK INTRA:                  -1.370
REMARK UNBOUND:                -1.362
REMARK SMILES O=c1c(-c2ccc(O)cc2)coc2c([C@@H]3O[C@@H](CO)[C@@H](O)[C@@H](O)[C@@H]3O)c(O)ccc12
REMARK SMILES IDX 3 1 11 2 12 3 13 4 30 5 2 6 1 7 29 8 28 9 26 10 14 11 4 12
REMARK SMILES IDX 5 13 6 14 7 15 10 16 9 17 8 18 15 20 24 21 16 22 22 23 17 24
REMARK SMILES IDX 20 25 25 26 23 28 18 30 19 31 21 33 27 35
REMARK H PARENT 8 19 25 27 23 29 19 32 21 34 27 36
REMARK Flexibility Score: inf
ROOT
ATOM      1  C   UNL     1     -26.446  71.475 159.942  1.00  0.00     0.065 A 
ATOM      2  C   UNL     1     -26.854  71.393 158.604  1.00  0.00     0.208 A 
ATOM      3  O   UNL     1     -27.801  70.541 158.232  1.00  0.00    -0.463 OA
ATOM      4  C   UNL     1     -28.420  69.721 159.078  1.00  0.00     0.147 A 
ATOM      5  C   UNL     1     -28.083  69.752 160.451  1.00  0.00     0.066 A 
ATOM      6  C   UNL     1     -27.084  70.643 160.881  1.00  0.00     0.200 A 
ATOM      7  O   UNL     1     -26.777  70.714 162.104  1.00  0.00    -0.288 OA
ATOM      8  C   UNL     1     -28.757  68.910 161.346  1.00  0.00     0.020 A 
ATOM      9  C   UNL     1     -29.779  68.079 160.894  1.00  0.00     0.047 A 
ATOM     10  C   UNL     1     -30.142  68.055 159.544  1.00  0.00     0.125 A 
ATOM     11  C   UNL     1     -29.419  68.836 158.602  1.00  0.00     0.069 A 
ENDROOT
BRANCH   1  12
ATOM     12  C   UNL     1     -25.375  72.427 160.333  1.00  0.00    -0.011 A 
ATOM     13  C   UNL     1     -24.055  71.980 160.522  1.00  0.00     0.013 A 
ATOM     14  C   UNL     1     -23.049  72.881 160.880  1.00  0.00     0.047 A 
ATOM     15  C   UNL     1     -23.344  74.236 161.050  1.00  0.00     0.115 A 
ATOM     16  C   UNL     1     -25.664  73.793 160.496  1.00  0.00     0.013 A 
ATOM     17  C   UNL     1     -24.655  74.691 160.855  1.00  0.00     0.047 A 
BRANCH  15  18
ATOM     18  O   UNL     1     -22.331  75.122 161.411  1.00  0.00    -0.508 OA
ATOM     19  H   UNL     1     -22.439  75.761 162.190  1.00  0.00     0.293 HD
ENDBRANCH  15  18
ENDBRANCH   1  12
BRANCH  11  20
ATOM     20  C   UNL     1     -29.739  68.788 157.109  1.00  0.00     0.188 C 
ATOM     21  C   UNL     1     -29.049  67.556 156.397  1.00  0.00     0.179 C 
ATOM     22  O   UNL     1     -31.146  68.918 156.949  1.00  0.00    -0.362 OA
ATOM     23  C   UNL     1     -29.971  66.542 155.649  1.00  0.00     0.177 C 
ATOM     24  C   UNL     1     -31.628  68.497 155.690  1.00  0.00     0.176 C 
ATOM     25  C   UNL     1     -31.448  66.978 155.578  1.00  0.00     0.177 C 
BRANCH  21  26
ATOM     26  O   UNL     1     -28.163  66.870 157.251  1.00  0.00    -0.387 OA
ATOM     27  H   UNL     1     -27.252  67.237 157.098  1.00  0.00     0.211 HD
ENDBRANCH  21  26
BRANCH  23  28
ATOM     28  O   UNL     1     -29.465  66.313 154.355  1.00  0.00    -0.387 OA
ATOM     29  H   UNL     1     -28.691  65.700 154.455  1.00  0.00     0.211 HD
ENDBRANCH  23  28
BRANCH  24  30
ATOM     30  C   UNL     1     -31.065  69.338 154.518  1.00  0.00     0.191 C 
BRANCH  30  31
ATOM     31  O   UNL     1     -31.224  68.647 153.307  1.00  0.00    -0.394 OA
ATOM     32  H   UNL     1     -30.356  68.683 152.828  1.00  0.00     0.210 HD
ENDBRANCH  30  31
ENDBRANCH  24  30
BRANCH  25  33
ATOM     33  O   UNL     1     -32.125  66.435 154.468  1.00  0.00    -0.388 OA
ATOM     34  H   UNL     1     -33.013  66.870 154.401  1.00  0.00     0.211 HD
ENDBRANCH  25  33
ENDBRANCH  11  20
BRANCH  10  35
ATOM     35  O   UNL     1     -31.237  67.262 159.191  1.00  0.00    -0.507 OA
ATOM     36  H   UNL     1     -31.934  66.934 159.845  1.00  0.00     0.293 HD
ENDBRANCH  10  35
TORSDOF 9
ENDMDL
MODEL 3
REMARK VINA RESULT:    -6.212     14.455     17.763
REMARK INTER + INTRA:          -9.753
REMARK INTER:                  -8.419
REMARK INTRA:                  -1.334
REMARK UNBOUND:                -1.362
REMARK SMILES O=c1c(-c2ccc(O)cc2)coc2c([C@@H]3O[C@@H](CO)[C@@H](O)[C@@H](O)[C@@H]3O)c(O)ccc12
REMARK SMILES IDX 3 1 11 2 12 3 13 4 30 5 2 6 1 7 29 8 28 9 26 10 14 11 4 12
REMARK SMILES IDX 5 13 6 14 7 15 10 16 9 17 8 18 15 20 24 21 16 22 22 23 17 24
REMARK SMILES IDX 20 25 25 26 23 28 18 30 19 31 21 33 27 35
REMARK H PARENT 8 19 25 27 23 29 19 32 21 34 27 36
REMARK Flexibility Score: inf
ROOT
ATOM      1  C   UNL     1     -22.040  70.089 163.069  1.00  0.00     0.065 A 
ATOM      2  C   UNL     1     -23.295  69.685 162.593  1.00  0.00     0.208 A 
ATOM      3  O   UNL     1     -23.995  70.460 161.776  1.00  0.00    -0.463 OA
ATOM      4  C   UNL     1     -23.572  71.650 161.355  1.00  0.00     0.147 A 
ATOM      5  C   UNL     1     -22.308  72.128 161.772  1.00  0.00     0.066 A 
ATOM      6  C   UNL     1     -21.537  71.331 162.638  1.00  0.00     0.200 A 
ATOM      7  O   UNL     1     -20.393  71.717 163.009  1.00  0.00    -0.288 OA
ATOM      8  C   UNL     1     -21.849  73.367 161.304  1.00  0.00     0.020 A 
ATOM      9  C   UNL     1     -22.615  74.104 160.404  1.00  0.00     0.047 A 
ATOM     10  C   UNL     1     -23.856  73.635 159.963  1.00  0.00     0.125 A 
ATOM     11  C   UNL     1     -24.382  72.422 160.485  1.00  0.00     0.069 A 
ENDROOT
BRANCH   1  12
ATOM     12  C   UNL     1     -21.279  69.210 163.993  1.00  0.00    -0.011 A 
ATOM     13  C   UNL     1     -20.196  68.446 163.524  1.00  0.00     0.013 A 
ATOM     14  C   UNL     1     -19.477  67.628 164.400  1.00  0.00     0.047 A 
ATOM     15  C   UNL     1     -19.825  67.565 165.752  1.00  0.00     0.115 A 
ATOM     16  C   UNL     1     -21.618  69.150 165.356  1.00  0.00     0.013 A 
ATOM     17  C   UNL     1     -20.898  68.330 166.229  1.00  0.00     0.047 A 
BRANCH  15  18
ATOM     18  O   UNL     1     -19.101  66.742 166.612  1.00  0.00    -0.508 OA
ATOM     19  H   UNL     1     -18.257  66.270 166.308  1.00  0.00     0.293 HD
ENDBRANCH  15  18
ENDBRANCH   1  12
BRANCH  11  20
ATOM     20  C   UNL     1     -25.762  71.907 160.081  1.00  0.00     0.188 C 
ATOM     21  C   UNL     1     -26.911  72.545 160.961  1.00  0.00     0.179 C 
ATOM     22  O   UNL     1     -25.889  72.031 158.670  1.00  0.00    -0.362 OA
ATOM     23  C   UNL     1     -28.042  73.326 160.220  1.00  0.00     0.177 C 
ATOM     24  C   UNL     1     -27.220  71.979 158.200  1.00  0.00     0.176 C 
ATOM     25  C   UNL     1     -27.961  73.232 158.684  1.00  0.00     0.177 C 
BRANCH  21  26
ATOM     26  O   UNL     1     -26.404  73.316 162.026  1.00  0.00    -0.387 OA
ATOM     27  H   UNL     1     -27.128  73.926 162.327  1.00  0.00     0.211 HD
ENDBRANCH  21  26
BRANCH  23  28
ATOM     28  O   UNL     1     -29.297  72.875 160.673  1.00  0.00    -0.387 OA
ATOM     29  H   UNL     1     -29.306  71.889 160.557  1.00  0.00     0.211 HD
ENDBRANCH  23  28
BRANCH  24  30
ATOM     30  C   UNL     1     -27.909  70.624 158.494  1.00  0.00     0.191 C 
BRANCH  30  31
ATOM     31  O   UNL     1     -29.300  70.749 158.352  1.00  0.00    -0.394 OA
ATOM     32  H   UNL     1     -29.539  70.402 157.454  1.00  0.00     0.210 HD
ENDBRANCH  30  31
ENDBRANCH  24  30
BRANCH  25  33
ATOM     33  O   UNL     1     -29.215  73.392 158.060  1.00  0.00    -0.388 OA
ATOM     34  H   UNL     1     -29.413  74.362 158.005  1.00  0.00     0.211 HD
ENDBRANCH  25  33
ENDBRANCH  11  20
BRANCH  10  35
ATOM     35  O   UNL     1     -24.516  74.391 158.991  1.00  0.00    -0.507 OA
ATOM     36  H   UNL     1     -25.387  74.120 158.556  1.00  0.00     0.293 HD
ENDBRANCH  10  35
TORSDOF 9
ENDMDL
MODEL 4
REMARK VINA RESULT:    -6.015     12.940     17.019
REMARK INTER + INTRA:          -9.486
REMARK INTER:                  -8.322
REMARK INTRA:                  -1.164
REMARK UNBOUND:                -1.362
REMARK SMILES O=c1c(-c2ccc(O)cc2)coc2c([C@@H]3O[C@@H](CO)[C@@H](O)[C@@H](O)[C@@H]3O)c(O)ccc12
REMARK SMILES IDX 3 1 11 2 12 3 13 4 30 5 2 6 1 7 29 8 28 9 26 10 14 11 4 12
REMARK SMILES IDX 5 13 6 14 7 15 10 16 9 17 8 18 15 20 24 21 16 22 22 23 17 24
REMARK SMILES IDX 20 25 25 26 23 28 18 30 19 31 21 33 27 35
REMARK H PARENT 8 19 25 27 23 29 19 32 21 34 27 36
REMARK Flexibility Score: inf
ROOT
ATOM      1  C   UNL     1     -24.584  71.738 161.437  1.00  0.00     0.065 A 
ATOM      2  C   UNL     1     -24.866  70.461 160.933  1.00  0.00     0.208 A 
ATOM      3  O   UNL     1     -25.842  70.276 160.054  1.00  0.00    -0.463 OA
ATOM      4  C   UNL     1     -26.609  71.263 159.594  1.00  0.00     0.147 A 
ATOM      5  C   UNL     1     -26.381  72.586 160.036  1.00  0.00     0.066 A 
ATOM      6  C   UNL     1     -25.353  72.820 160.968  1.00  0.00     0.200 A 
ATOM      7  O   UNL     1     -25.106  73.994 161.363  1.00  0.00    -0.288 OA
ATOM      8  C   UNL     1     -27.168  73.629 159.529  1.00  0.00     0.020 A 
ATOM      9  C   UNL     1     -28.140  73.369 158.566  1.00  0.00     0.047 A 
ATOM     10  C   UNL     1     -28.362  72.069 158.100  1.00  0.00     0.125 A 
ATOM     11  C   UNL     1     -27.636  70.983 158.658  1.00  0.00     0.069 A 
ENDROOT
BRANCH   1  12
ATOM     12  C   UNL     1     -23.495  71.919 162.430  1.00  0.00    -0.011 A 
ATOM     13  C   UNL     1     -22.159  72.049 162.010  1.00  0.00     0.013 A 
ATOM     14  C   UNL     1     -21.138  72.229 162.948  1.00  0.00     0.047 A 
ATOM     15  C   UNL     1     -21.437  72.287 164.312  1.00  0.00     0.115 A 
ATOM     16  C   UNL     1     -23.790  71.988 163.803  1.00  0.00     0.013 A 
ATOM     17  C   UNL     1     -22.766  72.168 164.738  1.00  0.00     0.047 A 
BRANCH  15  18
ATOM     18  O   UNL     1     -20.408  72.463 165.236  1.00  0.00    -0.508 OA
ATOM     19  H   UNL     1     -19.816  73.286 165.219  1.00  0.00     0.293 HD
ENDBRANCH  15  18
ENDBRANCH   1  12
BRANCH  11  20
ATOM     20  C   UNL     1     -27.894  69.540 158.227  1.00  0.00     0.188 C 
ATOM     21  C   UNL     1     -29.305  69.021 158.716  1.00  0.00     0.179 C 
ATOM     22  O   UNL     1     -27.617  69.435 156.836  1.00  0.00    -0.362 OA
ATOM     23  C   UNL     1     -30.307  68.514 157.631  1.00  0.00     0.177 C 
ATOM     24  C   UNL     1     -28.179  68.297 156.217  1.00  0.00     0.176 C 
ATOM     25  C   UNL     1     -29.706  68.444 156.213  1.00  0.00     0.177 C 
BRANCH  21  26
ATOM     26  O   UNL     1     -29.943  69.935 159.578  1.00  0.00    -0.387 OA
ATOM     27  H   UNL     1     -29.708  70.851 159.273  1.00  0.00     0.211 HD
ENDBRANCH  21  26
BRANCH  23  28
ATOM     28  O   UNL     1     -30.812  67.255 158.011  1.00  0.00    -0.387 OA
ATOM     29  H   UNL     1     -30.248  66.936 158.763  1.00  0.00     0.211 HD
ENDBRANCH  23  28
BRANCH  24  30
ATOM     30  C   UNL     1     -27.625  66.967 156.785  1.00  0.00     0.191 C 
BRANCH  30  31
ATOM     31  O   UNL     1     -27.655  65.970 155.797  1.00  0.00    -0.394 OA
ATOM     32  H   UNL     1     -26.718  65.794 155.524  1.00  0.00     0.210 HD
ENDBRANCH  30  31
ENDBRANCH  24  30
BRANCH  25  33
ATOM     33  O   UNL     1     -30.339  67.484 155.398  1.00  0.00    -0.388 OA
ATOM     34  H   UNL     1     -31.011  67.948 154.836  1.00  0.00     0.211 HD
ENDBRANCH  25  33
ENDBRANCH  11  20
BRANCH  10  35
ATOM     35  O   UNL     1     -29.291  71.910 157.069  1.00  0.00    -0.507 OA
ATOM     36  H   UNL     1     -29.656  71.017 156.768  1.00  0.00     0.293 HD
ENDBRANCH  10  35
TORSDOF 9
ENDMDL
MODEL 5
REMARK VINA RESULT:    -6.012     12.742     15.155
REMARK INTER + INTRA:          -9.482
REMARK INTER:                  -8.106
REMARK INTRA:                  -1.376
REMARK UNBOUND:                -1.362
REMARK SMILES O=c1c(-c2ccc(O)cc2)coc2c([C@@H]3O[C@@H](CO)[C@@H](O)[C@@H](O)[C@@H]3O)c(O)ccc12
REMARK SMILES IDX 3 1 11 2 12 3 13 4 30 5 2 6 1 7 29 8 28 9 26 10 14 11 4 12
REMARK SMILES IDX 5 13 6 14 7 15 10 16 9 17 8 18 15 20 24 21 16 22 22 23 17 24
REMARK SMILES IDX 20 25 25 26 23 28 18 30 19 31 21 33 27 35
REMARK H PARENT 8 19 25 27 23 29 19 32 21 34 27 36
REMARK Flexibility Score: inf
ROOT
ATOM      1  C   UNL     1     -28.633  68.752 158.537  1.00  0.00     0.065 A 
ATOM      2  C   UNL     1     -27.362  69.321 158.378  1.00  0.00     0.208 A 
ATOM      3  O   UNL     1     -26.775  69.967 159.377  1.00  0.00    -0.463 OA
ATOM      4  C   UNL     1     -27.333  70.121 160.576  1.00  0.00     0.147 A 
ATOM      5  C   UNL     1     -28.607  69.562 160.829  1.00  0.00     0.066 A 
ATOM      6  C   UNL     1     -29.259  68.869 159.792  1.00  0.00     0.200 A 
ATOM      7  O   UNL     1     -30.386  68.337 159.993  1.00  0.00    -0.288 OA
ATOM      8  C   UNL     1     -29.181  69.698 162.100  1.00  0.00     0.020 A 
ATOM      9  C   UNL     1     -28.483  70.343 163.119  1.00  0.00     0.047 A 
ATOM     10  C   UNL     1     -27.212  70.879 162.893  1.00  0.00     0.125 A 
ATOM     11  C   UNL     1     -26.643  70.829 161.592  1.00  0.00     0.069 A 
ENDROOT
BRANCH   1  12
ATOM     12  C   UNL     1     -29.276  68.045 157.400  1.00  0.00    -0.011 A 
ATOM     13  C   UNL     1     -30.170  68.721 156.551  1.00  0.00     0.013 A 
ATOM     14  C   UNL     1     -30.766  68.054 155.477  1.00  0.00     0.047 A 
ATOM     15  C   UNL     1     -30.473  66.709 155.234  1.00  0.00     0.115 A 
ATOM     16  C   UNL     1     -28.979  66.695 157.144  1.00  0.00     0.013 A 
ATOM     17  C   UNL     1     -29.577  66.031 156.070  1.00  0.00     0.047 A 
BRANCH  15  18
ATOM     18  O   UNL     1     -31.077  66.057 154.161  1.00  0.00    -0.508 OA
ATOM     19  H   UNL     1     -31.584  66.568 153.447  1.00  0.00     0.293 HD
ENDBRANCH  15  18
ENDBRANCH   1  12
BRANCH  11  20
ATOM     20  C   UNL     1     -25.286  71.461 161.285  1.00  0.00     0.188 C 
ATOM     21  C   UNL     1     -25.425  72.976 160.855  1.00  0.00     0.179 C 
ATOM     22  O   UNL     1     -24.408  71.178 162.367  1.00  0.00    -0.362 OA
ATOM     23  C   UNL     1     -24.656  74.042 161.698  1.00  0.00     0.177 C 
ATOM     24  C   UNL     1     -23.269  72.012 162.424  1.00  0.00     0.176 C 
ATOM     25  C   UNL     1     -23.722  73.438 162.765  1.00  0.00     0.177 C 
BRANCH  21  26
ATOM     26  O   UNL     1     -26.769  73.365 160.688  1.00  0.00    -0.387 OA
ATOM     27  H   UNL     1     -27.144  73.547 161.589  1.00  0.00     0.211 HD
ENDBRANCH  21  26
BRANCH  23  28
ATOM     28  O   UNL     1     -23.932  74.888 160.836  1.00  0.00    -0.387 OA
ATOM     29  H   UNL     1     -24.507  75.049 160.043  1.00  0.00     0.211 HD
ENDBRANCH  23  28
BRANCH  24  30
ATOM     30  C   UNL     1     -22.354  71.866 161.184  1.00  0.00     0.191 C 
BRANCH  30  31
ATOM     31  O   UNL     1     -21.453  72.940 161.120  1.00  0.00    -0.394 OA
ATOM     32  H   UNL     1     -21.979  73.760 160.933  1.00  0.00     0.210 HD
ENDBRANCH  30  31
ENDBRANCH  24  30
BRANCH  25  33
ATOM     33  O   UNL     1     -22.643  74.284 163.089  1.00  0.00    -0.388 OA
ATOM     34  H   UNL     1     -22.571  74.331 164.076  1.00  0.00     0.211 HD
ENDBRANCH  25  33
ENDBRANCH  11  20
BRANCH  10  35
ATOM     35  O   UNL     1     -26.545  71.427 163.991  1.00  0.00    -0.507 OA
ATOM     36  H   UNL     1     -26.857  72.246 164.494  1.00  0.00     0.293 HD
ENDBRANCH  10  35
TORSDOF 9
ENDMDL
MODEL 6
REMARK VINA RESULT:    -5.849      2.909      5.272
REMARK INTER + INTRA:          -9.263
REMARK INTER:                  -8.376
REMARK INTRA:                  -0.887
REMARK UNBOUND:                -1.362
REMARK SMILES O=c1c(-c2ccc(O)cc2)coc2c([C@@H]3O[C@@H](CO)[C@@H](O)[C@@H](O)[C@@H]3O)c(O)ccc12
REMARK SMILES IDX 3 1 11 2 12 3 13 4 30 5 2 6 1 7 29 8 28 9 26 10 14 11 4 12
REMARK SMILES IDX 5 13 6 14 7 15 10 16 9 17 8 18 15 20 24 21 16 22 22 23 17 24
REMARK SMILES IDX 20 25 25 26 23 28 18 30 19 31 21 33 27 35
REMARK H PARENT 8 19 25 27 23 29 19 32 21 34 27 36
REMARK Flexibility Score: inf
ROOT
ATOM      1  C   UNL     1     -23.763  57.351 152.621  1.00  0.00     0.065 A 
ATOM      2  C   UNL     1     -22.923  57.156 151.515  1.00  0.00     0.208 A 
ATOM      3  O   UNL     1     -21.619  57.381 151.603  1.00  0.00    -0.463 OA
ATOM      4  C   UNL     1     -21.022  57.797 152.718  1.00  0.00     0.147 A 
ATOM      5  C   UNL     1     -21.792  58.001 153.886  1.00  0.00     0.066 A 
ATOM      6  C   UNL     1     -23.179  57.772 153.830  1.00  0.00     0.200 A 
ATOM      7  O   UNL     1     -23.891  57.920 154.862  1.00  0.00    -0.288 OA
ATOM      8  C   UNL     1     -21.159  58.410 155.068  1.00  0.00     0.020 A 
ATOM      9  C   UNL     1     -19.777  58.575 155.103  1.00  0.00     0.047 A 
ATOM     10  C   UNL     1     -18.997  58.353 153.963  1.00  0.00     0.125 A 
ATOM     11  C   UNL     1     -19.622  58.019 152.731  1.00  0.00     0.069 A 
ENDROOT
BRANCH   1  12
ATOM     12  C   UNL     1     -25.222  57.105 152.495  1.00  0.00    -0.011 A 
ATOM     13  C   UNL     1     -26.136  58.171 152.575  1.00  0.00     0.013 A 
ATOM     14  C   UNL     1     -27.508  57.937 152.447  1.00  0.00     0.047 A 
ATOM     15  C   UNL     1     -27.984  56.640 152.232  1.00  0.00     0.115 A 
ATOM     16  C   UNL     1     -25.707  55.805 152.270  1.00  0.00     0.013 A 
ATOM     17  C   UNL     1     -27.079  55.574 152.143  1.00  0.00     0.047 A 
BRANCH  15  18
ATOM     18  O   UNL     1     -29.355  56.421 152.110  1.00  0.00    -0.508 OA
ATOM     19  H   UNL     1     -30.014  57.191 152.092  1.00  0.00     0.293 HD
ENDBRANCH  15  18
ENDBRANCH   1  12
BRANCH  11  20
ATOM     20  C   UNL     1     -18.815  57.834 151.447  1.00  0.00     0.188 C 
ATOM     21  C   UNL     1     -18.686  59.183 150.632  1.00  0.00     0.179 C 
ATOM     22  O   UNL     1     -17.606  57.162 151.774  1.00  0.00    -0.362 OA
ATOM     23  C   UNL     1     -17.248  59.709 150.324  1.00  0.00     0.177 C 
ATOM     24  C   UNL     1     -16.596  57.274 150.792  1.00  0.00     0.176 C 
ATOM     25  C   UNL     1     -16.127  58.733 150.735  1.00  0.00     0.177 C 
BRANCH  21  26
ATOM     26  O   UNL     1     -19.475  60.216 151.176  1.00  0.00    -0.387 OA
ATOM     27  H   UNL     1     -19.330  60.220 152.159  1.00  0.00     0.211 HD
ENDBRANCH  21  26
BRANCH  23  28
ATOM     28  O   UNL     1     -17.146  60.022 148.955  1.00  0.00    -0.387 OA
ATOM     29  H   UNL     1     -16.344  59.549 148.611  1.00  0.00     0.211 HD
ENDBRANCH  23  28
BRANCH  24  30
ATOM     30  C   UNL     1     -16.997  56.634 149.441  1.00  0.00     0.191 C 
BRANCH  30  31
ATOM     31  O   UNL     1     -17.345  55.287 149.629  1.00  0.00    -0.394 OA
ATOM     32  H   UNL     1     -17.931  55.022 148.873  1.00  0.00     0.210 HD
ENDBRANCH  30  31
ENDBRANCH  24  30
BRANCH  25  33
ATOM     33  O   UNL     1     -14.955  58.894 149.969  1.00  0.00    -0.388 OA
ATOM     34  H   UNL     1     -14.410  59.612 150.381  1.00  0.00     0.211 HD
ENDBRANCH  25  33
ENDBRANCH  11  20
BRANCH  10  35
ATOM     35  O   UNL     1     -17.611  58.451 154.108  1.00  0.00    -0.507 OA
ATOM     36  H   UNL     1     -16.946  58.166 153.403  1.00  0.00     0.293 HD
ENDBRANCH  10  35
TORSDOF 9
ENDMDL
MODEL 7
REMARK VINA RESULT:    -5.803      4.551      8.250
REMARK INTER + INTRA:          -9.200
REMARK INTER:                  -7.826
REMARK INTRA:                  -1.374
REMARK UNBOUND:                -1.362
REMARK SMILES O=c1c(-c2ccc(O)cc2)coc2c([C@@H]3O[C@@H](CO)[C@@H](O)[C@@H](O)[C@@H]3O)c(O)ccc12
REMARK SMILES IDX 3 1 11 2 12 3 13 4 30 5 2 6 1 7 29 8 28 9 26 10 14 11 4 12
REMARK SMILES IDX 5 13 6 14 7 15 10 16 9 17 8 18 15 20 24 21 16 22 22 23 17 24
REMARK SMILES IDX 20 25 25 26 23 28 18 30 19 31 21 33 27 35
REMARK H PARENT 8 19 25 27 23 29 19 32 21 34 27 36
REMARK Flexibility Score: inf
ROOT
ATOM      1  C   UNL     1     -17.546  59.541 153.907  1.00  0.00     0.065 A 
ATOM      2  C   UNL     1     -17.156  58.996 155.138  1.00  0.00     0.208 A 
ATOM      3  O   UNL     1     -18.022  58.338 155.897  1.00  0.00    -0.463 OA
ATOM      4  C   UNL     1     -19.295  58.147 155.557  1.00  0.00     0.147 A 
ATOM      5  C   UNL     1     -19.769  58.648 154.322  1.00  0.00     0.066 A 
ATOM      6  C   UNL     1     -18.877  59.351 153.491  1.00  0.00     0.200 A 
ATOM      7  O   UNL     1     -19.262  59.789 152.371  1.00  0.00    -0.288 OA
ATOM      8  C   UNL     1     -21.101  58.421 153.951  1.00  0.00     0.020 A 
ATOM      9  C   UNL     1     -21.941  57.673 154.773  1.00  0.00     0.047 A 
ATOM     10  C   UNL     1     -21.481  57.150 155.986  1.00  0.00     0.125 A 
ATOM     11  C   UNL     1     -20.160  57.436 156.425  1.00  0.00     0.069 A 
ENDROOT
BRANCH   1  12
ATOM     12  C   UNL     1     -16.563  60.285 153.080  1.00  0.00    -0.011 A 
ATOM     13  C   UNL     1     -16.485  61.688 153.152  1.00  0.00     0.013 A 
ATOM     14  C   UNL     1     -15.551  62.384 152.379  1.00  0.00     0.047 A 
ATOM     15  C   UNL     1     -14.682  61.692 151.531  1.00  0.00     0.115 A 
ATOM     16  C   UNL     1     -15.679  59.594 152.233  1.00  0.00     0.013 A 
ATOM     17  C   UNL     1     -14.747  60.294 151.461  1.00  0.00     0.047 A 
BRANCH  15  18
ATOM     18  O   UNL     1     -13.759  62.399 150.765  1.00  0.00    -0.508 OA
ATOM     19  H   UNL     1     -13.867  63.392 150.587  1.00  0.00     0.293 HD
ENDBRANCH  15  18
ENDBRANCH   1  12
BRANCH  11  20
ATOM     20  C   UNL     1     -19.639  56.941 157.773  1.00  0.00     0.188 C 
ATOM     21  C   UNL     1     -20.176  57.821 158.972  1.00  0.00     0.179 C 
ATOM     22  O   UNL     1     -19.867  55.539 157.852  1.00  0.00    -0.362 OA
ATOM     23  C   UNL     1     -20.980  57.097 160.099  1.00  0.00     0.177 C 
ATOM     24  C   UNL     1     -19.813  55.015 159.162  1.00  0.00     0.176 C 
ATOM     25  C   UNL     1     -21.005  55.562 159.959  1.00  0.00     0.177 C 
BRANCH  21  26
ATOM     26  O   UNL     1     -20.877  58.960 158.529  1.00  0.00    -0.387 OA
ATOM     27  H   UNL     1     -21.816  58.877 158.844  1.00  0.00     0.211 HD
ENDBRANCH  21  26
BRANCH  23  28
ATOM     28  O   UNL     1     -20.461  57.465 161.355  1.00  0.00    -0.387 OA
ATOM     29  H   UNL     1     -19.862  56.728 161.645  1.00  0.00     0.211 HD
ENDBRANCH  23  28
BRANCH  24  30
ATOM     30  C   UNL     1     -18.421  55.180 159.820  1.00  0.00     0.191 C 
BRANCH  30  31
ATOM     31  O   UNL     1     -18.514  54.973 161.205  1.00  0.00    -0.394 OA
ATOM     32  H   UNL     1     -17.902  54.227 161.436  1.00  0.00     0.210 HD
ENDBRANCH  30  31
ENDBRANCH  24  30
BRANCH  25  33
ATOM     33  O   UNL     1     -21.178  54.903 161.193  1.00  0.00    -0.388 OA
ATOM     34  H   UNL     1     -20.488  54.196 161.266  1.00  0.00     0.211 HD
ENDBRANCH  25  33
ENDBRANCH  11  20
BRANCH  10  35
ATOM     35  O   UNL     1     -22.360  56.336 156.704  1.00  0.00    -0.507 OA
ATOM     36  H   UNL     1     -23.107  55.800 156.286  1.00  0.00     0.293 HD
ENDBRANCH  10  35
TORSDOF 9
ENDMDL
MODEL 8
REMARK VINA RESULT:    -5.802      5.645      8.298
REMARK INTER + INTRA:          -9.199
REMARK INTER:                  -7.794
REMARK INTRA:                  -1.405
REMARK UNBOUND:                -1.362
REMARK SMILES O=c1c(-c2ccc(O)cc2)coc2c([C@@H]3O[C@@H](CO)[C@@H](O)[C@@H](O)[C@@H]3O)c(O)ccc12
REMARK SMILES IDX 3 1 11 2 12 3 13 4 30 5 2 6 1 7 29 8 28 9 26 10 14 11 4 12
REMARK SMILES IDX 5 13 6 14 7 15 10 16 9 17 8 18 15 20 24 21 16 22 22 23 17 24
REMARK SMILES IDX 20 25 25 26 23 28 18 30 19 31 21 33 27 35
REMARK H PARENT 8 19 25 27 23 29 19 32 21 34 27 36
REMARK Flexibility Score: inf
ROOT
ATOM      1  C   UNL     1     -19.992  57.744 157.656  1.00  0.00     0.065 A 
ATOM      2  C   UNL     1     -19.825  57.102 156.421  1.00  0.00     0.208 A 
ATOM      3  O   UNL     1     -19.287  57.740 155.390  1.00  0.00    -0.463 OA
ATOM      4  C   UNL     1     -18.874  59.004 155.446  1.00  0.00     0.147 A 
ATOM      5  C   UNL     1     -18.989  59.721 156.659  1.00  0.00     0.066 A 
ATOM      6  C   UNL     1     -19.554  59.076 157.775  1.00  0.00     0.200 A 
ATOM      7  O   UNL     1     -19.647  59.680 158.880  1.00  0.00    -0.288 OA
ATOM      8  C   UNL     1     -18.526  61.042 156.727  1.00  0.00     0.020 A 
ATOM      9  C   UNL     1     -17.921  61.631 155.619  1.00  0.00     0.047 A 
ATOM     10  C   UNL     1     -17.778  60.928 154.419  1.00  0.00     0.125 A 
ATOM     11  C   UNL     1     -18.313  59.616 154.298  1.00  0.00     0.069 A 
ENDROOT
BRANCH   1  12
ATOM     12  C   UNL     1     -20.609  57.015 158.793  1.00  0.00    -0.011 A 
ATOM     13  C   UNL     1     -21.993  57.103 159.033  1.00  0.00     0.013 A 
ATOM     14  C   UNL     1     -22.571  56.407 160.098  1.00  0.00     0.047 A 
ATOM     15  C   UNL     1     -21.779  55.613 160.933  1.00  0.00     0.115 A 
ATOM     16  C   UNL     1     -19.821  56.207 159.631  1.00  0.00     0.013 A 
ATOM     17  C   UNL     1     -20.402  55.514 160.696  1.00  0.00     0.047 A 
BRANCH  15  18
ATOM     18  O   UNL     1     -22.369  54.928 161.993  1.00  0.00    -0.508 OA
ATOM     19  H   UNL     1     -21.895  54.162 162.459  1.00  0.00     0.293 HD
ENDBRANCH  15  18
ENDBRANCH   1  12
BRANCH  11  20
ATOM     20  C   UNL     1     -18.238  58.838 152.986  1.00  0.00     0.188 C 
ATOM     21  C   UNL     1     -19.405  59.236 151.996  1.00  0.00     0.179 C 
ATOM     22  O   UNL     1     -16.910  58.934 152.486  1.00  0.00    -0.362 OA
ATOM     23  C   UNL     1     -19.007  59.778 150.586  1.00  0.00     0.177 C 
ATOM     24  C   UNL     1     -16.782  58.619 151.115  1.00  0.00     0.176 C 
ATOM     25  C   UNL     1     -17.495  59.700 150.293  1.00  0.00     0.177 C 
BRANCH  21  26
ATOM     26  O   UNL     1     -20.349  60.093 152.597  1.00  0.00    -0.387 OA
ATOM     27  H   UNL     1     -20.393  60.922 152.052  1.00  0.00     0.211 HD
ENDBRANCH  21  26
BRANCH  23  28
ATOM     28  O   UNL     1     -19.733  59.087 149.597  1.00  0.00    -0.387 OA
ATOM     29  H   UNL     1     -19.698  58.124 149.835  1.00  0.00     0.211 HD
ENDBRANCH  23  28
BRANCH  24  30
ATOM     30  C   UNL     1     -17.170  57.154 150.796  1.00  0.00     0.191 C 
BRANCH  30  31
ATOM     31  O   UNL     1     -17.398  57.005 149.419  1.00  0.00    -0.394 OA
ATOM     32  H   UNL     1     -16.792  57.633 148.947  1.00  0.00     0.210 HD
ENDBRANCH  30  31
ENDBRANCH  24  30
BRANCH  25  33
ATOM     33  O   UNL     1     -17.209  59.609 148.917  1.00  0.00    -0.388 OA
ATOM     34  H   UNL     1     -17.291  60.514 148.522  1.00  0.00     0.211 HD
ENDBRANCH  25  33
ENDBRANCH  11  20
BRANCH  10  35
ATOM     35  O   UNL     1     -17.079  61.559 153.388  1.00  0.00    -0.507 OA
ATOM     36  H   UNL     1     -16.071  61.615 153.337  1.00  0.00     0.293 HD
ENDBRANCH  10  35
TORSDOF 9
ENDMDL
MODEL 9
REMARK VINA RESULT:    -5.792      4.400      8.794
REMARK INTER + INTRA:          -9.186
REMARK INTER:                  -8.327
REMARK INTRA:                  -0.859
REMARK UNBOUND:                -1.362
REMARK SMILES O=c1c(-c2ccc(O)cc2)coc2c([C@@H]3O[C@@H](CO)[C@@H](O)[C@@H](O)[C@@H]3O)c(O)ccc12
REMARK SMILES IDX 3 1 11 2 12 3 13 4 30 5 2 6 1 7 29 8 28 9 26 10 14 11 4 12
REMARK SMILES IDX 5 13 6 14 7 15 10 16 9 17 8 18 15 20 24 21 16 22 22 23 17 24
REMARK SMILES IDX 20 25 25 26 23 28 18 30 19 31 21 33 27 35
REMARK H PARENT 8 19 25 27 23 29 19 32 21 34 27 36
REMARK Flexibility Score: inf
ROOT
ATOM      1  C   UNL     1     -19.441  59.347 158.057  1.00  0.00     0.065 A 
ATOM      2  C   UNL     1     -18.661  59.951 157.061  1.00  0.00     0.208 A 
ATOM      3  O   UNL     1     -18.837  59.650 155.782  1.00  0.00    -0.463 OA
ATOM      4  C   UNL     1     -19.744  58.774 155.355  1.00  0.00     0.147 A 
ATOM      5  C   UNL     1     -20.587  58.131 156.291  1.00  0.00     0.066 A 
ATOM      6  C   UNL     1     -20.429  58.427 157.657  1.00  0.00     0.200 A 
ATOM      7  O   UNL     1     -21.182  57.890 158.516  1.00  0.00    -0.288 OA
ATOM      8  C   UNL     1     -21.562  57.232 155.839  1.00  0.00     0.020 A 
ATOM      9  C   UNL     1     -21.727  57.004 154.475  1.00  0.00     0.047 A 
ATOM     10  C   UNL     1     -20.919  57.650 153.534  1.00  0.00     0.125 A 
ATOM     11  C   UNL     1     -19.868  58.502 153.969  1.00  0.00     0.069 A 
ENDROOT
BRANCH   1  12
ATOM     12  C   UNL     1     -19.218  59.690 159.484  1.00  0.00    -0.011 A 
ATOM     13  C   UNL     1     -19.404  61.007 159.941  1.00  0.00     0.013 A 
ATOM     14  C   UNL     1     -19.202  61.323 161.287  1.00  0.00     0.047 A 
ATOM     15  C   UNL     1     -18.816  60.332 162.194  1.00  0.00     0.115 A 
ATOM     16  C   UNL     1     -18.839  58.695 160.403  1.00  0.00     0.013 A 
ATOM     17  C   UNL     1     -18.637  59.015 161.748  1.00  0.00     0.047 A 
BRANCH  15  18
ATOM     18  O   UNL     1     -18.615  60.663 163.532  1.00  0.00    -0.508 OA
ATOM     19  H   UNL     1     -17.683  60.733 163.926  1.00  0.00     0.293 HD
ENDBRANCH  15  18
ENDBRANCH   1  12
BRANCH  11  20
ATOM     20  C   UNL     1     -18.920  59.175 152.979  1.00  0.00     0.188 C 
ATOM     21  C   UNL     1     -17.663  58.270 152.658  1.00  0.00     0.179 C 
ATOM     22  O   UNL     1     -19.683  59.632 151.870  1.00  0.00    -0.362 OA
ATOM     23  C   UNL     1     -17.410  57.885 151.165  1.00  0.00     0.177 C 
ATOM     24  C   UNL     1     -18.921  59.906 150.713  1.00  0.00     0.176 C 
ATOM     25  C   UNL     1     -18.357  58.586 150.172  1.00  0.00     0.177 C 
BRANCH  21  26
ATOM     26  O   UNL     1     -17.606  57.122 153.473  1.00  0.00    -0.387 OA
ATOM     27  H   UNL     1     -16.648  56.919 153.641  1.00  0.00     0.211 HD
ENDBRANCH  21  26
BRANCH  23  28
ATOM     28  O   UNL     1     -16.068  58.152 150.834  1.00  0.00    -0.387 OA
ATOM     29  H   UNL     1     -15.517  57.470 151.299  1.00  0.00     0.211 HD
ENDBRANCH  23  28
BRANCH  24  30
ATOM     30  C   UNL     1     -17.896  61.048 150.925  1.00  0.00     0.191 C 
BRANCH  30  31
ATOM     31  O   UNL     1     -18.348  62.223 150.304  1.00  0.00    -0.394 OA
ATOM     32  H   UNL     1     -18.614  61.987 149.378  1.00  0.00     0.210 HD
ENDBRANCH  30  31
ENDBRANCH  24  30
BRANCH  25  33
ATOM     33  O   UNL     1     -17.795  58.726 148.887  1.00  0.00    -0.388 OA
ATOM     34  H   UNL     1     -18.043  59.618 148.535  1.00  0.00     0.211 HD
ENDBRANCH  25  33
ENDBRANCH  11  20
BRANCH  10  35
ATOM     35  O   UNL     1     -21.211  57.435 152.185  1.00  0.00    -0.507 OA
ATOM     36  H   UNL     1     -20.608  56.936 151.547  1.00  0.00     0.293 HD
ENDBRANCH  10  35
TORSDOF 9
ENDMDL
