MODEL 1
REMARK VINA RESULT:     3.612      0.000      0.000
REMARK INTER + INTRA:           5.347
REMARK INTER:                   4.985
REMARK INTRA:                   0.362
REMARK UNBOUND:                 0.362
REMARK SMILES C=C(CC[C@H](C(=O)[O-])[C@@H]1CC[C@@]2(C)C3=CC[C@H]4C(C)(C)[C@@H](O)CC[C@@]4(C)C3=CC[C@@]12C)C(C)C
REMARK SMILES IDX 4 1 5 2 6 3 7 4 8 5 9 6 10 7 30 8 11 9 12 10 29 11 31 12
REMARK SMILES IDX 13 13 14 14 28 15 27 16 15 17 25 18 16 19 17 20 24 21 26 22
REMARK SMILES IDX 18 23 23 24 21 25 19 26 20 27 22 28 3 30 2 31 1 32 32 33
REMARK SMILES IDX 33 34 34 35
REMARK H PARENT 22 29
REMARK Flexibility Score: inf
ROOT
ATOM      1  C   UNL     1     100.176 112.575 118.081  1.00  0.00     0.014 C 
ENDROOT
BRANCH   1   2
ATOM      2  C   UNL     1      99.285 111.585 117.283  1.00  0.00     0.039 C 
BRANCH   2   3
ATOM      3  C   UNL     1      99.585 110.174 117.726  1.00  0.00     0.045 C 
ATOM      4  O   UNL     1     100.318 109.961 118.730  1.00  0.00    -0.550 OA
ATOM      5  O   UNL     1      99.054 109.099 117.026  1.00  0.00    -0.550 OA
ENDBRANCH   2   3
BRANCH   2   6
ATOM      6  C   UNL     1      99.382 111.690 115.718  1.00  0.00     0.005 C 
ATOM      7  C   UNL     1     100.497 110.871 115.048  1.00  0.00     0.006 C 
ATOM      8  C   UNL     1      99.468 113.115 115.083  1.00  0.00    -0.016 C 
ATOM      9  C   UNL     1     100.915 111.651 113.798  1.00  0.00     0.012 C 
ATOM     10  C   UNL     1      99.884 112.801 113.601  1.00  0.00    -0.002 C 
ATOM     11  C   UNL     1      98.122 113.869 115.144  1.00  0.00     0.035 C 
ATOM     12  C   UNL     1     100.521 113.997 115.814  1.00  0.00     0.013 C 
ATOM     13  C   UNL     1     100.528 113.999 112.861  1.00  0.00     0.017 C 
ATOM     14  C   UNL     1      98.674 112.323 112.758  1.00  0.00    -0.042 C 
ATOM     15  C   UNL     1      97.042 113.221 114.346  1.00  0.00    -0.022 C 
ATOM     16  C   UNL     1      97.266 112.657 113.145  1.00  0.00    -0.042 C 
ATOM     17  C   UNL     1      98.879 111.639 111.624  1.00  0.00    -0.022 C 
ATOM     18  C   UNL     1      96.058 112.295 112.234  1.00  0.00    -0.004 C 
ATOM     19  C   UNL     1      97.773 110.929 110.922  1.00  0.00     0.032 C 
ATOM     20  C   UNL     1      96.526 111.833 110.788  1.00  0.00     0.011 C 
ATOM     21  C   UNL     1      95.234 111.179 112.962  1.00  0.00     0.014 C 
ATOM     22  C   UNL     1      95.202 113.592 112.076  1.00  0.00     0.017 C 
ATOM     23  C   UNL     1      95.367 111.210 109.860  1.00  0.00    -0.005 C 
ATOM     24  C   UNL     1      94.610 110.110 112.052  1.00  0.00     0.033 C 
ATOM     25  C   UNL     1      94.151 110.697 110.714  1.00  0.00     0.120 C 
ATOM     26  C   UNL     1      95.889 110.056 108.952  1.00  0.00     0.014 C 
ATOM     27  C   UNL     1      94.854 112.294 108.876  1.00  0.00     0.014 C 
BRANCH  25  28
ATOM     28  O   UNL     1      93.345 109.782 110.005  1.00  0.00    -0.393 OA
ATOM     29  H   UNL     1      93.827 108.915 109.943  1.00  0.00     0.210 HD
ENDBRANCH  25  28
ENDBRANCH   2   6
ENDBRANCH   1   2
BRANCH   1  30
ATOM     30  C   UNL     1      99.346 113.461 119.023  1.00  0.00     0.031 C 
BRANCH  30  31
ATOM     31  C   UNL     1      99.883 113.404 120.440  1.00  0.00    -0.075 C 
ATOM     32  C   UNL     1     100.633 112.353 120.813  1.00  0.00     0.008 C 
BRANCH  31  33
ATOM     33  C   UNL     1      99.644 114.549 121.416  1.00  0.00     0.008 C 
ATOM     34  C   UNL     1      98.483 114.228 122.363  1.00  0.00     0.012 C 
ATOM     35  C   UNL     1     100.917 114.891 122.199  1.00  0.00     0.012 C 
ENDBRANCH  31  33
ENDBRANCH  30  31
ENDBRANCH   1  30
TORSDOF 7
ENDMDL
MODEL 2
REMARK VINA RESULT:     3.827      3.918      7.565
REMARK INTER + INTRA:           5.643
REMARK INTER:                   5.533
REMARK INTRA:                   0.110
REMARK UNBOUND:                 0.362
REMARK SMILES C=C(CC[C@H](C(=O)[O-])[C@@H]1CC[C@@]2(C)C3=CC[C@H]4C(C)(C)[C@@H](O)CC[C@@]4(C)C3=CC[C@@]12C)C(C)C
REMARK SMILES IDX 4 1 5 2 6 3 7 4 8 5 9 6 10 7 30 8 11 9 12 10 29 11 31 12
REMARK SMILES IDX 13 13 14 14 28 15 27 16 15 17 25 18 16 19 17 20 24 21 26 22
REMARK SMILES IDX 18 23 23 24 21 25 19 26 20 27 22 28 3 30 2 31 1 32 32 33
REMARK SMILES IDX 33 34 34 35
REMARK H PARENT 22 29
REMARK Flexibility Score: inf
ROOT
ATOM      1  C   UNL     1      98.268 116.825 123.881  1.00  0.00     0.014 C 
ENDROOT
BRANCH   1   2
ATOM      2  C   UNL     1      98.483 116.830 122.344  1.00  0.00     0.039 C 
BRANCH   2   3
ATOM      3  C   UNL     1      97.289 117.466 121.674  1.00  0.00     0.045 C 
ATOM      4  O   UNL     1      96.629 116.833 120.807  1.00  0.00    -0.550 OA
ATOM      5  O   UNL     1      96.911 118.759 122.013  1.00  0.00    -0.550 OA
ENDBRANCH   2   3
BRANCH   2   6
ATOM      6  C   UNL     1      98.782 115.431 121.693  1.00  0.00     0.005 C 
ATOM      7  C   UNL     1      97.818 114.290 122.054  1.00  0.00     0.006 C 
ATOM      8  C   UNL     1     100.218 114.837 121.862  1.00  0.00    -0.016 C 
ATOM      9  C   UNL     1      98.639 112.999 122.014  1.00  0.00     0.012 C 
ATOM     10  C   UNL     1     100.024 113.349 121.395  1.00  0.00    -0.002 C 
ATOM     11  C   UNL     1     101.264 115.569 120.995  1.00  0.00     0.035 C 
ATOM     12  C   UNL     1     100.698 114.931 123.339  1.00  0.00     0.013 C 
ATOM     13  C   UNL     1     101.119 112.381 121.909  1.00  0.00     0.017 C 
ATOM     14  C   UNL     1      99.986 113.236 119.849  1.00  0.00    -0.042 C 
ATOM     15  C   UNL     1     101.024 115.430 119.530  1.00  0.00    -0.022 C 
ATOM     16  C   UNL     1     100.599 114.283 118.970  1.00  0.00    -0.042 C 
ATOM     17  C   UNL     1      99.442 112.157 119.272  1.00  0.00    -0.022 C 
ATOM     18  C   UNL     1     100.681 114.110 117.427  1.00  0.00    -0.004 C 
ATOM     19  C   UNL     1      99.135 112.113 117.815  1.00  0.00     0.032 C 
ATOM     20  C   UNL     1     100.329 112.628 116.978  1.00  0.00     0.011 C 
ATOM     21  C   UNL     1      99.711 115.158 116.781  1.00  0.00     0.014 C 
ATOM     22  C   UNL     1     102.158 114.405 117.012  1.00  0.00     0.017 C 
ATOM     23  C   UNL     1     100.151 112.417 115.391  1.00  0.00    -0.005 C 
ATOM     24  C   UNL     1      98.971 114.693 115.518  1.00  0.00     0.033 C 
ATOM     25  C   UNL     1      99.838 113.770 114.656  1.00  0.00     0.120 C 
ATOM     26  C   UNL     1      99.044 111.372 115.051  1.00  0.00     0.014 C 
ATOM     27  C   UNL     1     101.457 111.826 114.798  1.00  0.00     0.014 C 
BRANCH  25  28
ATOM     28  O   UNL     1      99.261 113.570 113.384  1.00  0.00    -0.393 OA
ATOM     29  H   UNL     1      98.637 112.799 113.436  1.00  0.00     0.210 HD
ENDBRANCH  25  28
ENDBRANCH   2   6
ENDBRANCH   1   2
BRANCH   1  30
ATOM     30  C   UNL     1      98.412 118.231 124.484  1.00  0.00     0.031 C 
BRANCH  30  31
ATOM     31  C   UNL     1      99.617 118.950 123.908  1.00  0.00    -0.075 C 
ATOM     32  C   UNL     1      99.439 120.125 123.280  1.00  0.00     0.008 C 
BRANCH  31  33
ATOM     33  C   UNL     1     101.023 118.395 124.093  1.00  0.00     0.008 C 
ATOM     34  C   UNL     1     101.710 118.178 122.741  1.00  0.00     0.012 C 
ATOM     35  C   UNL     1     101.866 119.299 125.001  1.00  0.00     0.012 C 
ENDBRANCH  31  33
ENDBRANCH  30  31
ENDBRANCH   1  30
TORSDOF 7
ENDMDL
MODEL 3
REMARK VINA RESULT:     4.118      2.889      9.377
REMARK INTER + INTRA:           6.045
REMARK INTER:                   3.950
REMARK INTRA:                   2.095
REMARK UNBOUND:                 0.362
REMARK SMILES C=C(CC[C@H](C(=O)[O-])[C@@H]1CC[C@@]2(C)C3=CC[C@H]4C(C)(C)[C@@H](O)CC[C@@]4(C)C3=CC[C@@]12C)C(C)C
REMARK SMILES IDX 4 1 5 2 6 3 7 4 8 5 9 6 10 7 30 8 11 9 12 10 29 11 31 12
REMARK SMILES IDX 13 13 14 14 28 15 27 16 15 17 25 18 16 19 17 20 24 21 26 22
REMARK SMILES IDX 18 23 23 24 21 25 19 26 20 27 22 28 3 30 2 31 1 32 32 33
REMARK SMILES IDX 33 34 34 35
REMARK H PARENT 22 29
REMARK Flexibility Score: inf
ROOT
ATOM      1  C   UNL     1      99.185 111.517 114.311  1.00  0.00     0.014 C 
ENDROOT
BRANCH   1   2
ATOM      2  C   UNL     1      98.516 112.644 115.143  1.00  0.00     0.039 C 
BRANCH   2   3
ATOM      3  C   UNL     1      97.741 113.554 114.221  1.00  0.00     0.045 C 
ATOM      4  O   UNL     1      98.063 114.767 114.101  1.00  0.00    -0.550 OA
ATOM      5  O   UNL     1      96.666 113.056 113.497  1.00  0.00    -0.550 OA
ENDBRANCH   2   3
BRANCH   2   6
ATOM      6  C   UNL     1      99.484 113.491 116.046  1.00  0.00     0.005 C 
ATOM      7  C   UNL     1      99.852 114.890 115.526  1.00  0.00     0.006 C 
ATOM      8  C   UNL     1     100.834 112.838 116.486  1.00  0.00    -0.016 C 
ATOM      9  C   UNL     1     101.265 115.184 116.037  1.00  0.00     0.012 C 
ATOM     10  C   UNL     1     101.633 114.065 117.056  1.00  0.00    -0.002 C 
ATOM     11  C   UNL     1     100.638 111.745 117.559  1.00  0.00     0.035 C 
ATOM     12  C   UNL     1     101.560 112.172 115.281  1.00  0.00     0.013 C 
ATOM     13  C   UNL     1     103.166 113.848 117.107  1.00  0.00     0.017 C 
ATOM     14  C   UNL     1     101.163 114.439 118.485  1.00  0.00    -0.042 C 
ATOM     15  C   UNL     1     100.093 112.267 118.846  1.00  0.00    -0.022 C 
ATOM     16  C   UNL     1     100.475 113.446 119.371  1.00  0.00    -0.042 C 
ATOM     17  C   UNL     1     101.419 115.660 118.973  1.00  0.00    -0.022 C 
ATOM     18  C   UNL     1     100.122 113.774 120.849  1.00  0.00    -0.004 C 
ATOM     19  C   UNL     1     100.767 116.163 120.215  1.00  0.00     0.032 C 
ATOM     20  C   UNL     1     100.827 115.108 121.343  1.00  0.00     0.011 C 
ATOM     21  C   UNL     1      98.561 113.870 120.952  1.00  0.00     0.014 C 
ATOM     22  C   UNL     1     100.655 112.591 121.719  1.00  0.00     0.017 C 
ATOM     23  C   UNL     1     100.331 115.656 122.774  1.00  0.00    -0.005 C 
ATOM     24  C   UNL     1      98.021 114.935 121.918  1.00  0.00     0.033 C 
ATOM     25  C   UNL     1      98.914 115.091 123.153  1.00  0.00     0.120 C 
ATOM     26  C   UNL     1     100.304 117.213 122.838  1.00  0.00     0.014 C 
ATOM     27  C   UNL     1     101.340 115.226 123.871  1.00  0.00     0.014 C 
BRANCH  25  28
ATOM     28  O   UNL     1      98.277 115.861 124.149  1.00  0.00    -0.393 OA
ATOM     29  H   UNL     1      97.388 115.460 124.340  1.00  0.00     0.210 HD
ENDBRANCH  25  28
ENDBRANCH   2   6
ENDBRANCH   1   2
BRANCH   1  30
ATOM     30  C   UNL     1      98.736 111.549 112.841  1.00  0.00     0.031 C 
BRANCH  30  31
ATOM     31  C   UNL     1      99.897 111.880 111.923  1.00  0.00    -0.075 C 
ATOM     32  C   UNL     1     100.688 112.925 112.221  1.00  0.00     0.008 C 
BRANCH  31  33
ATOM     33  C   UNL     1     100.215 111.009 110.715  1.00  0.00     0.008 C 
ATOM     34  C   UNL     1      99.101 111.097 109.666  1.00  0.00     0.012 C 
ATOM     35  C   UNL     1     101.575 111.373 110.107  1.00  0.00     0.012 C 
ENDBRANCH  31  33
ENDBRANCH  30  31
ENDBRANCH   1  30
TORSDOF 7
ENDMDL
MODEL 4
REMARK VINA RESULT:     4.778      3.240      9.381
REMARK INTER + INTRA:           6.955
REMARK INTER:                   6.143
REMARK INTRA:                   0.812
REMARK UNBOUND:                 0.362
REMARK SMILES C=C(CC[C@H](C(=O)[O-])[C@@H]1CC[C@@]2(C)C3=CC[C@H]4C(C)(C)[C@@H](O)CC[C@@]4(C)C3=CC[C@@]12C)C(C)C
REMARK SMILES IDX 4 1 5 2 6 3 7 4 8 5 9 6 10 7 30 8 11 9 12 10 29 11 31 12
REMARK SMILES IDX 13 13 14 14 28 15 27 16 15 17 25 18 16 19 17 20 24 21 26 22
REMARK SMILES IDX 18 23 23 24 21 25 19 26 20 27 22 28 3 30 2 31 1 32 32 33
REMARK SMILES IDX 33 34 34 35
REMARK H PARENT 22 29
REMARK Flexibility Score: inf
ROOT
ATOM      1  C   UNL     1     100.353 113.381 114.293  1.00  0.00     0.014 C 
ENDROOT
BRANCH   1   2
ATOM      2  C   UNL     1      99.515 114.170 115.335  1.00  0.00     0.039 C 
BRANCH   2   3
ATOM      3  C   UNL     1      98.664 115.191 114.621  1.00  0.00     0.045 C 
ATOM      4  O   UNL     1      99.055 116.385 114.512  1.00  0.00    -0.550 OA
ATOM      5  O   UNL     1      97.442 114.820 114.077  1.00  0.00    -0.550 OA
ENDBRANCH   2   3
BRANCH   2   6
ATOM      6  C   UNL     1     100.332 114.860 116.486  1.00  0.00     0.005 C 
ATOM      7  C   UNL     1     100.783 116.307 116.229  1.00  0.00     0.006 C 
ATOM      8  C   UNL     1     101.593 114.118 117.036  1.00  0.00    -0.016 C 
ATOM      9  C   UNL     1     102.099 116.491 116.989  1.00  0.00     0.012 C 
ATOM     10  C   UNL     1     102.298 115.235 117.887  1.00  0.00    -0.002 C 
ATOM     11  C   UNL     1     101.226 112.895 117.902  1.00  0.00     0.035 C 
ATOM     12  C   UNL     1     102.497 113.605 115.877  1.00  0.00     0.013 C 
ATOM     13  C   UNL     1     103.802 114.973 118.146  1.00  0.00     0.017 C 
ATOM     14  C   UNL     1     101.610 115.422 119.264  1.00  0.00    -0.042 C 
ATOM     15  C   UNL     1     100.487 113.250 119.148  1.00  0.00    -0.022 C 
ATOM     16  C   UNL     1     100.787 114.335 119.885  1.00  0.00    -0.042 C 
ATOM     17  C   UNL     1     101.790 116.557 119.951  1.00  0.00    -0.022 C 
ATOM     18  C   UNL     1     100.206 114.467 121.322  1.00  0.00    -0.004 C 
ATOM     19  C   UNL     1     100.953 116.903 121.135  1.00  0.00     0.032 C 
ATOM     20  C   UNL     1     100.831 115.702 122.100  1.00  0.00     0.011 C 
ATOM     21  C   UNL     1      98.649 114.589 121.194  1.00  0.00     0.014 C 
ATOM     22  C   UNL     1     100.591 113.163 122.091  1.00  0.00     0.017 C 
ATOM     23  C   UNL     1     100.117 116.062 123.499  1.00  0.00    -0.005 C 
ATOM     24  C   UNL     1      97.968 115.525 122.202  1.00  0.00     0.033 C 
ATOM     25  C   UNL     1      98.656 115.488 123.571  1.00  0.00     0.120 C 
ATOM     26  C   UNL     1     100.087 117.596 123.774  1.00  0.00     0.014 C 
ATOM     27  C   UNL     1     100.939 115.460 124.669  1.00  0.00     0.014 C 
BRANCH  25  28
ATOM     28  O   UNL     1      97.873 116.130 124.553  1.00  0.00    -0.393 OA
ATOM     29  H   UNL     1      98.216 115.876 125.449  1.00  0.00     0.210 HD
ENDBRANCH  25  28
ENDBRANCH   2   6
ENDBRANCH   1   2
BRANCH   1  30
ATOM     30  C   UNL     1      99.477 112.450 113.441  1.00  0.00     0.031 C 
BRANCH  30  31
ATOM     31  C   UNL     1      98.621 111.554 114.315  1.00  0.00    -0.075 C 
ATOM     32  C   UNL     1      97.324 111.385 114.006  1.00  0.00     0.008 C 
BRANCH  31  33
ATOM     33  C   UNL     1      99.225 110.795 115.490  1.00  0.00     0.008 C 
ATOM     34  C   UNL     1      98.556 111.200 116.807  1.00  0.00     0.012 C 
ATOM     35  C   UNL     1      99.147 109.279 115.274  1.00  0.00     0.012 C 
ENDBRANCH  31  33
ENDBRANCH  30  31
ENDBRANCH   1  30
TORSDOF 7
ENDMDL
MODEL 5
REMARK VINA RESULT:     4.844      2.190      9.325
REMARK INTER + INTRA:           7.047
REMARK INTER:                   7.380
REMARK INTRA:                  -0.333
REMARK UNBOUND:                 0.362
REMARK SMILES C=C(CC[C@H](C(=O)[O-])[C@@H]1CC[C@@]2(C)C3=CC[C@H]4C(C)(C)[C@@H](O)CC[C@@]4(C)C3=CC[C@@]12C)C(C)C
REMARK SMILES IDX 4 1 5 2 6 3 7 4 8 5 9 6 10 7 30 8 11 9 12 10 29 11 31 12
REMARK SMILES IDX 13 13 14 14 28 15 27 16 15 17 25 18 16 19 17 20 24 21 26 22
REMARK SMILES IDX 18 23 23 24 21 25 19 26 20 27 22 28 3 30 2 31 1 32 32 33
REMARK SMILES IDX 33 34 34 35
REMARK H PARENT 22 29
REMARK Flexibility Score: inf
ROOT
ATOM      1  C   UNL     1      98.000 113.509 114.495  1.00  0.00     0.014 C 
ENDROOT
BRANCH   1   2
ATOM      2  C   UNL     1      99.198 112.855 115.233  1.00  0.00     0.039 C 
BRANCH   2   3
ATOM      3  C   UNL     1      98.724 111.618 115.958  1.00  0.00     0.045 C 
ATOM      4  O   UNL     1      98.034 111.718 117.007  1.00  0.00    -0.550 OA
ATOM      5  O   UNL     1      99.049 110.360 115.469  1.00  0.00    -0.550 OA
ENDBRANCH   2   3
BRANCH   2   6
ATOM      6  C   UNL     1      99.983 113.790 116.223  1.00  0.00     0.005 C 
ATOM      7  C   UNL     1     100.198 115.241 115.763  1.00  0.00     0.006 C 
ATOM      8  C   UNL     1     101.375 113.304 116.742  1.00  0.00    -0.016 C 
ATOM      9  C   UNL     1     101.523 115.699 116.379  1.00  0.00     0.012 C 
ATOM     10  C   UNL     1     101.965 114.605 117.395  1.00  0.00    -0.002 C 
ATOM     11  C   UNL     1     101.252 112.161 117.772  1.00  0.00     0.035 C 
ATOM     12  C   UNL     1     102.261 112.777 115.576  1.00  0.00     0.013 C 
ATOM     13  C   UNL     1     103.506 114.587 117.550  1.00  0.00     0.017 C 
ATOM     14  C   UNL     1     101.355 114.868 118.796  1.00  0.00    -0.042 C 
ATOM     15  C   UNL     1     100.558 112.565 119.028  1.00  0.00    -0.022 C 
ATOM     16  C   UNL     1     100.746 113.766 119.607  1.00  0.00    -0.042 C 
ATOM     17  C   UNL     1     101.414 116.095 119.330  1.00  0.00    -0.022 C 
ATOM     18  C   UNL     1     100.253 113.997 121.064  1.00  0.00    -0.004 C 
ATOM     19  C   UNL     1     100.620 116.469 120.534  1.00  0.00     0.032 C 
ATOM     20  C   UNL     1     100.743 115.395 121.638  1.00  0.00     0.011 C 
ATOM     21  C   UNL     1      98.690 113.887 121.058  1.00  0.00     0.014 C 
ATOM     22  C   UNL     1     100.878 112.865 121.941  1.00  0.00     0.017 C 
ATOM     23  C   UNL     1     100.083 115.826 123.042  1.00  0.00    -0.005 C 
ATOM     24  C   UNL     1      97.951 114.840 122.008  1.00  0.00     0.033 C 
ATOM     25  C   UNL     1      98.731 115.071 123.306  1.00  0.00     0.120 C 
ATOM     26  C   UNL     1      99.848 117.364 123.141  1.00  0.00     0.014 C 
ATOM     27  C   UNL     1     101.064 115.495 124.198  1.00  0.00     0.014 C 
BRANCH  25  28
ATOM     28  O   UNL     1      97.932 115.719 124.272  1.00  0.00    -0.393 OA
ATOM     29  H   UNL     1      97.358 115.040 124.717  1.00  0.00     0.210 HD
ENDBRANCH  25  28
ENDBRANCH   2   6
ENDBRANCH   1   2
BRANCH   1  30
ATOM     30  C   UNL     1      96.929 112.475 114.114  1.00  0.00     0.031 C 
BRANCH  30  31
ATOM     31  C   UNL     1      97.008 112.124 112.640  1.00  0.00    -0.075 C 
ATOM     32  C   UNL     1      98.209 111.866 112.094  1.00  0.00     0.008 C 
BRANCH  31  33
ATOM     33  C   UNL     1      95.748 111.995 111.796  1.00  0.00     0.008 C 
ATOM     34  C   UNL     1      94.967 113.314 111.770  1.00  0.00     0.012 C 
ATOM     35  C   UNL     1      96.073 111.519 110.375  1.00  0.00     0.012 C 
ENDBRANCH  31  33
ENDBRANCH  30  31
ENDBRANCH   1  30
TORSDOF 7
ENDMDL
MODEL 6
REMARK VINA RESULT:     5.284      2.767      4.412
REMARK INTER + INTRA:           7.654
REMARK INTER:                   8.212
REMARK INTRA:                  -0.557
REMARK UNBOUND:                 0.362
REMARK SMILES C=C(CC[C@H](C(=O)[O-])[C@@H]1CC[C@@]2(C)C3=CC[C@H]4C(C)(C)[C@@H](O)CC[C@@]4(C)C3=CC[C@@]12C)C(C)C
REMARK SMILES IDX 4 1 5 2 6 3 7 4 8 5 9 6 10 7 30 8 11 9 12 10 29 11 31 12
REMARK SMILES IDX 13 13 14 14 28 15 27 16 15 17 25 18 16 19 17 20 24 21 26 22
REMARK SMILES IDX 18 23 23 24 21 25 19 26 20 27 22 28 3 30 2 31 1 32 32 33
REMARK SMILES IDX 33 34 34 35
REMARK H PARENT 22 29
REMARK Flexibility Score: inf
ROOT
ATOM      1  C   UNL     1     101.530 110.482 119.335  1.00  0.00     0.014 C 
ENDROOT
BRANCH   1   2
ATOM      2  C   UNL     1     100.294 111.090 118.618  1.00  0.00     0.039 C 
BRANCH   2   3
ATOM      3  C   UNL     1      99.377 109.977 118.174  1.00  0.00     0.045 C 
ATOM      4  O   UNL     1      98.413 109.614 118.901  1.00  0.00    -0.550 OA
ATOM      5  O   UNL     1      99.591 109.345 116.956  1.00  0.00    -0.550 OA
ENDBRANCH   2   3
BRANCH   2   6
ATOM      6  C   UNL     1     100.607 112.044 117.409  1.00  0.00     0.005 C 
ATOM      7  C   UNL     1     102.002 112.689 117.394  1.00  0.00     0.006 C 
ATOM      8  C   UNL     1      99.604 113.205 117.113  1.00  0.00    -0.016 C 
ATOM      9  C   UNL     1     101.844 114.048 116.705  1.00  0.00     0.012 C 
ATOM     10  C   UNL     1     100.410 114.098 116.101  1.00  0.00    -0.002 C 
ATOM     11  C   UNL     1      98.284 112.700 116.493  1.00  0.00     0.035 C 
ATOM     12  C   UNL     1      99.235 113.978 118.412  1.00  0.00     0.013 C 
ATOM     13  C   UNL     1      99.901 115.557 116.007  1.00  0.00     0.017 C 
ATOM     14  C   UNL     1     100.388 113.500 114.671  1.00  0.00    -0.042 C 
ATOM     15  C   UNL     1      98.460 112.071 115.152  1.00  0.00    -0.022 C 
ATOM     16  C   UNL     1      99.314 112.554 114.230  1.00  0.00    -0.042 C 
ATOM     17  C   UNL     1     101.317 113.870 113.779  1.00  0.00    -0.022 C 
ATOM     18  C   UNL     1      99.212 112.056 112.761  1.00  0.00    -0.004 C 
ATOM     19  C   UNL     1     101.510 113.141 112.494  1.00  0.00     0.032 C 
ATOM     20  C   UNL     1     100.158 112.884 111.790  1.00  0.00     0.011 C 
ATOM     21  C   UNL     1      99.565 110.530 112.752  1.00  0.00     0.014 C 
ATOM     22  C   UNL     1      97.735 112.279 112.305  1.00  0.00     0.017 C 
ATOM     23  C   UNL     1     100.303 112.286 110.301  1.00  0.00    -0.005 C 
ATOM     24  C   UNL     1     100.346 110.032 111.528  1.00  0.00     0.033 C 
ATOM     25  C   UNL     1      99.927 110.762 110.248  1.00  0.00     0.120 C 
ATOM     26  C   UNL     1     101.733 112.490 109.715  1.00  0.00     0.014 C 
ATOM     27  C   UNL     1      99.361 113.059 109.340  1.00  0.00     0.014 C 
BRANCH  25  28
ATOM     28  O   UNL     1     100.444 110.120 109.102  1.00  0.00    -0.393 OA
ATOM     29  H   UNL     1      99.727 109.561 108.701  1.00  0.00     0.210 HD
ENDBRANCH  25  28
ENDBRANCH   2   6
ENDBRANCH   1   2
BRANCH   1  30
ATOM     30  C   UNL     1     101.325 108.996 119.666  1.00  0.00     0.031 C 
BRANCH  30  31
ATOM     31  C   UNL     1     102.293 108.538 120.740  1.00  0.00    -0.075 C 
ATOM     32  C   UNL     1     101.807 108.013 121.877  1.00  0.00     0.008 C 
BRANCH  31  33
ATOM     33  C   UNL     1     103.799 108.603 120.518  1.00  0.00     0.008 C 
ATOM     34  C   UNL     1     104.517 109.115 121.771  1.00  0.00     0.012 C 
ATOM     35  C   UNL     1     104.357 107.244 120.079  1.00  0.00     0.012 C 
ENDBRANCH  31  33
ENDBRANCH  30  31
ENDBRANCH   1  30
TORSDOF 7
ENDMDL
MODEL 7
REMARK VINA RESULT:     6.373      2.428      3.480
REMARK INTER + INTRA:           9.157
REMARK INTER:                   9.446
REMARK INTRA:                  -0.289
REMARK UNBOUND:                 0.362
REMARK SMILES C=C(CC[C@H](C(=O)[O-])[C@@H]1CC[C@@]2(C)C3=CC[C@H]4C(C)(C)[C@@H](O)CC[C@@]4(C)C3=CC[C@@]12C)C(C)C
REMARK SMILES IDX 4 1 5 2 6 3 7 4 8 5 9 6 10 7 30 8 11 9 12 10 29 11 31 12
REMARK SMILES IDX 13 13 14 14 28 15 27 16 15 17 25 18 16 19 17 20 24 21 26 22
REMARK SMILES IDX 18 23 23 24 21 25 19 26 20 27 22 28 3 30 2 31 1 32 32 33
REMARK SMILES IDX 33 34 34 35
REMARK H PARENT 22 29
REMARK Flexibility Score: inf
ROOT
ATOM      1  C   UNL     1     100.521 112.189 120.239  1.00  0.00     0.014 C 
ENDROOT
BRANCH   1   2
ATOM      2  C   UNL     1     100.064 111.583 118.885  1.00  0.00     0.039 C 
BRANCH   2   3
ATOM      3  C   UNL     1     100.577 110.168 118.773  1.00  0.00     0.045 C 
ATOM      4  O   UNL     1     101.470 109.747 119.556  1.00  0.00    -0.550 OA
ATOM      5  O   UNL     1     100.064 109.319 117.801  1.00  0.00    -0.550 OA
ENDBRANCH   2   3
BRANCH   2   6
ATOM      6  C   UNL     1     100.459 112.402 117.603  1.00  0.00     0.005 C 
ATOM      7  C   UNL     1     101.889 112.966 117.568  1.00  0.00     0.006 C 
ATOM      8  C   UNL     1      99.531 113.584 117.173  1.00  0.00    -0.016 C 
ATOM      9  C   UNL     1     101.824 114.261 116.754  1.00  0.00     0.012 C 
ATOM     10  C   UNL     1     100.410 114.333 116.108  1.00  0.00    -0.002 C 
ATOM     11  C   UNL     1      98.199 113.095 116.565  1.00  0.00     0.035 C 
ATOM     12  C   UNL     1      99.176 114.493 118.386  1.00  0.00     0.013 C 
ATOM     13  C   UNL     1      99.987 115.803 115.866  1.00  0.00     0.017 C 
ATOM     14  C   UNL     1     100.388 113.607 114.738  1.00  0.00    -0.042 C 
ATOM     15  C   UNL     1      98.371 112.336 115.293  1.00  0.00    -0.022 C 
ATOM     16  C   UNL     1      99.272 112.684 114.356  1.00  0.00    -0.042 C 
ATOM     17  C   UNL     1     101.356 113.841 113.843  1.00  0.00    -0.022 C 
ATOM     18  C   UNL     1      99.176 112.058 112.935  1.00  0.00    -0.004 C 
ATOM     19  C   UNL     1     101.538 112.986 112.636  1.00  0.00     0.032 C 
ATOM     20  C   UNL     1     100.191 112.739 111.920  1.00  0.00     0.011 C 
ATOM     21  C   UNL     1      99.441 110.520 113.077  1.00  0.00     0.014 C 
ATOM     22  C   UNL     1      97.725 112.317 112.419  1.00  0.00     0.017 C 
ATOM     23  C   UNL     1     100.336 111.999 110.497  1.00  0.00    -0.005 C 
ATOM     24  C   UNL     1     100.221 109.869 111.925  1.00  0.00     0.033 C 
ATOM     25  C   UNL     1      99.874 110.499 110.573  1.00  0.00     0.120 C 
ATOM     26  C   UNL     1     101.788 112.069 109.936  1.00  0.00     0.014 C 
ATOM     27  C   UNL     1      99.462 112.729 109.443  1.00  0.00     0.014 C 
BRANCH  25  28
ATOM     28  O   UNL     1     100.380 109.726 109.506  1.00  0.00    -0.393 OA
ATOM     29  H   UNL     1      99.757 108.971 109.337  1.00  0.00     0.210 HD
ENDBRANCH  25  28
ENDBRANCH   2   6
ENDBRANCH   1   2
BRANCH   1  30
ATOM     30  C   UNL     1      99.441 113.093 120.855  1.00  0.00     0.031 C 
BRANCH  30  31
ATOM     31  C   UNL     1      99.956 113.788 122.101  1.00  0.00    -0.075 C 
ATOM     32  C   UNL     1     100.804 113.132 122.911  1.00  0.00     0.008 C 
BRANCH  31  33
ATOM     33  C   UNL     1      99.581 115.232 122.405  1.00  0.00     0.008 C 
ATOM     34  C   UNL     1      98.061 115.423 122.370  1.00  0.00     0.012 C 
ATOM     35  C   UNL     1     100.163 115.689 123.748  1.00  0.00     0.012 C 
ENDBRANCH  31  33
ENDBRANCH  30  31
ENDBRANCH   1  30
TORSDOF 7
ENDMDL
MODEL 8
REMARK VINA RESULT:     6.511      2.361      3.683
REMARK INTER + INTRA:           9.347
REMARK INTER:                   9.692
REMARK INTRA:                  -0.345
REMARK UNBOUND:                 0.362
REMARK SMILES C=C(CC[C@H](C(=O)[O-])[C@@H]1CC[C@@]2(C)C3=CC[C@H]4C(C)(C)[C@@H](O)CC[C@@]4(C)C3=CC[C@@]12C)C(C)C
REMARK SMILES IDX 4 1 5 2 6 3 7 4 8 5 9 6 10 7 30 8 11 9 12 10 29 11 31 12
REMARK SMILES IDX 13 13 14 14 28 15 27 16 15 17 25 18 16 19 17 20 24 21 26 22
REMARK SMILES IDX 18 23 23 24 21 25 19 26 20 27 22 28 3 30 2 31 1 32 32 33
REMARK SMILES IDX 33 34 34 35
REMARK H PARENT 22 29
REMARK Flexibility Score: inf
ROOT
ATOM      1  C   UNL     1      99.882 114.966 116.765  1.00  0.00     0.014 C 
ENDROOT
BRANCH   1   2
ATOM      2  C   UNL     1      99.596 114.739 115.256  1.00  0.00     0.039 C 
BRANCH   2   3
ATOM      3  C   UNL     1      98.820 115.913 114.712  1.00  0.00     0.045 C 
ATOM      4  O   UNL     1      97.571 115.838 114.556  1.00  0.00    -0.550 OA
ATOM      5  O   UNL     1      99.481 117.089 114.380  1.00  0.00    -0.550 OA
ENDBRANCH   2   3
BRANCH   2   6
ATOM      6  C   UNL     1      98.864 113.396 114.894  1.00  0.00     0.005 C 
ATOM      7  C   UNL     1      98.076 112.723 116.029  1.00  0.00     0.006 C 
ATOM      8  C   UNL     1      99.706 112.257 114.235  1.00  0.00    -0.016 C 
ATOM      9  C   UNL     1      98.132 111.216 115.762  1.00  0.00     0.012 C 
ATOM     10  C   UNL     1      98.744 111.019 114.344  1.00  0.00    -0.002 C 
ATOM     11  C   UNL     1     100.066 112.565 112.766  1.00  0.00     0.035 C 
ATOM     12  C   UNL     1     101.044 112.029 114.997  1.00  0.00     0.013 C 
ATOM     13  C   UNL     1      99.464 109.652 114.239  1.00  0.00     0.017 C 
ATOM     14  C   UNL     1      97.643 111.055 113.253  1.00  0.00    -0.042 C 
ATOM     15  C   UNL     1      98.877 112.653 111.869  1.00  0.00    -0.022 C 
ATOM     16  C   UNL     1      97.820 111.827 111.982  1.00  0.00    -0.042 C 
ATOM     17  C   UNL     1      96.521 110.341 113.414  1.00  0.00    -0.022 C 
ATOM     18  C   UNL     1      96.778 111.759 110.830  1.00  0.00    -0.004 C 
ATOM     19  C   UNL     1      95.327 110.542 112.545  1.00  0.00     0.032 C 
ATOM     20  C   UNL     1      95.726 110.590 111.053  1.00  0.00     0.011 C 
ATOM     21  C   UNL     1      96.080 113.159 110.741  1.00  0.00     0.014 C 
ATOM     22  C   UNL     1      97.569 111.458 109.517  1.00  0.00     0.017 C 
ATOM     23  C   UNL     1      94.472 110.596 110.043  1.00  0.00    -0.005 C 
ATOM     24  C   UNL     1      94.586 113.138 110.385  1.00  0.00     0.033 C 
ATOM     25  C   UNL     1      94.249 112.013 109.401  1.00  0.00     0.120 C 
ATOM     26  C   UNL     1      93.154 110.124 110.730  1.00  0.00     0.014 C 
ATOM     27  C   UNL     1      94.720 109.573 108.903  1.00  0.00     0.014 C 
BRANCH  25  28
ATOM     28  O   UNL     1      92.949 112.168 108.875  1.00  0.00    -0.393 OA
ATOM     29  H   UNL     1      92.515 112.941 109.324  1.00  0.00     0.210 HD
ENDBRANCH  25  28
ENDBRANCH   2   6
ENDBRANCH   1   2
BRANCH   1  30
ATOM     30  C   UNL     1     100.877 113.934 117.320  1.00  0.00     0.031 C 
BRANCH  30  31
ATOM     31  C   UNL     1     100.243 113.100 118.416  1.00  0.00    -0.075 C 
ATOM     32  C   UNL     1      99.277 113.644 119.176  1.00  0.00     0.008 C 
BRANCH  31  33
ATOM     33  C   UNL     1     100.637 111.643 118.620  1.00  0.00     0.008 C 
ATOM     34  C   UNL     1     101.164 111.410 120.040  1.00  0.00     0.012 C 
ATOM     35  C   UNL     1      99.470 110.699 118.304  1.00  0.00     0.012 C 
ENDBRANCH  31  33
ENDBRANCH  30  31
ENDBRANCH   1  30
TORSDOF 7
ENDMDL
