MODEL 1
REMARK VINA RESULT:    -4.366      0.000      0.000
REMARK INTER + INTRA:          -7.910
REMARK INTER:                  -6.663
REMARK INTRA:                  -1.247
REMARK UNBOUND:                -1.247
REMARK SMILES CCCCCCCCCCC(=O)[O-]
REMARK SMILES IDX 7 1 8 2 9 3 10 4 11 5 12 6 13 7 6 8 5 9 4 10 3 11 2 12 1 13
REMARK H PARENT
REMARK Flexibility Score: inf
ROOT
ATOM      1  C   UNL     1      61.127  28.820  13.672  1.00  0.00     0.000 C 
ENDROOT
BRANCH   1   2
ATOM      2  C   UNL     1      60.335  28.008  12.632  1.00  0.00     0.000 C 
BRANCH   2   3
ATOM      3  C   UNL     1      59.552  28.901  11.651  1.00  0.00     0.006 C 
BRANCH   3   4
ATOM      4  C   UNL     1      60.427  29.632  10.620  1.00  0.00     0.053 C 
BRANCH   4   5
ATOM      5  C   UNL     1      61.251  28.683   9.807  1.00  0.00     0.041 C 
ATOM      6  O   UNL     1      62.507  28.690   9.902  1.00  0.00    -0.550 OA
ATOM      7  O   UNL     1      60.634  27.812   8.917  1.00  0.00    -0.550 OA
ENDBRANCH   4   5
ENDBRANCH   3   4
ENDBRANCH   2   3
ENDBRANCH   1   2
BRANCH   1   8
ATOM      8  C   UNL     1      62.637  28.827  13.390  1.00  0.00     0.000 C 
BRANCH   8   9
ATOM      9  C   UNL     1      63.161  30.215  12.992  1.00  0.00    -0.000 C 
BRANCH   9  10
ATOM     10  C   UNL     1      62.499  31.314  13.832  1.00  0.00    -0.000 C 
BRANCH  10  11
ATOM     11  C   UNL     1      61.871  32.390  12.933  1.00  0.00    -0.000 C 
BRANCH  11  12
ATOM     12  C   UNL     1      60.602  33.003  13.546  1.00  0.00    -0.003 C 
ATOM     13  C   UNL     1      59.554  31.952  13.911  1.00  0.00     0.004 C 
ENDBRANCH  11  12
ENDBRANCH  10  11
ENDBRANCH   9  10
ENDBRANCH   8   9
ENDBRANCH   1   8
TORSDOF 9
ENDMDL
MODEL 2
REMARK VINA RESULT:    -4.303     13.403     14.565
REMARK INTER + INTRA:          -7.815
REMARK INTER:                  -6.448
REMARK INTRA:                  -1.367
REMARK UNBOUND:                -1.247
REMARK SMILES CCCCCCCCCCC(=O)[O-]
REMARK SMILES IDX 7 1 8 2 9 3 10 4 11 5 12 6 13 7 6 8 5 9 4 10 3 11 2 12 1 13
REMARK H PARENT
REMARK Flexibility Score: inf
ROOT
ATOM      1  C   UNL     1      62.077  29.664  24.823  1.00  0.00     0.000 C 
ENDROOT
BRANCH   1   2
ATOM      2  C   UNL     1      61.436  28.313  24.463  1.00  0.00     0.000 C 
BRANCH   2   3
ATOM      3  C   UNL     1      60.891  27.566  25.694  1.00  0.00     0.006 C 
BRANCH   3   4
ATOM      4  C   UNL     1      61.968  27.127  26.699  1.00  0.00     0.053 C 
BRANCH   4   5
ATOM      5  C   UNL     1      61.779  27.764  28.042  1.00  0.00     0.041 C 
ATOM      6  O   UNL     1      62.563  28.670  28.430  1.00  0.00    -0.550 OA
ATOM      7  O   UNL     1      60.757  27.333  28.878  1.00  0.00    -0.550 OA
ENDBRANCH   4   5
ENDBRANCH   3   4
ENDBRANCH   2   3
ENDBRANCH   1   2
BRANCH   1   8
ATOM      8  C   UNL     1      63.563  29.734  24.438  1.00  0.00     0.000 C 
BRANCH   8   9
ATOM      9  C   UNL     1      64.493  29.753  25.660  1.00  0.00    -0.000 C 
BRANCH   9  10
ATOM     10  C   UNL     1      65.541  28.637  25.570  1.00  0.00    -0.000 C 
BRANCH  10  11
ATOM     11  C   UNL     1      65.313  27.766  24.325  1.00  0.00    -0.000 C 
BRANCH  11  12
ATOM     12  C   UNL     1      65.001  26.303  24.676  1.00  0.00    -0.003 C 
ATOM     13  C   UNL     1      63.940  25.689  23.764  1.00  0.00     0.004 C 
ENDBRANCH  11  12
ENDBRANCH  10  11
ENDBRANCH   9  10
ENDBRANCH   8   9
ENDBRANCH   1   8
TORSDOF 9
ENDMDL
MODEL 3
REMARK VINA RESULT:    -4.222     12.983     14.323
REMARK INTER + INTRA:          -7.691
REMARK INTER:                  -6.364
REMARK INTRA:                  -1.327
REMARK UNBOUND:                -1.247
REMARK SMILES CCCCCCCCCCC(=O)[O-]
REMARK SMILES IDX 7 1 8 2 9 3 10 4 11 5 12 6 13 7 6 8 5 9 4 10 3 11 2 12 1 13
REMARK H PARENT
REMARK Flexibility Score: inf
ROOT
ATOM      1  C   UNL     1      63.631  30.327  26.181  1.00  0.00     0.000 C 
ENDROOT
BRANCH   1   2
ATOM      2  C   UNL     1      64.821  29.352  26.164  1.00  0.00     0.000 C 
BRANCH   2   3
ATOM      3  C   UNL     1      64.774  28.375  24.975  1.00  0.00     0.006 C 
BRANCH   3   4
ATOM      4  C   UNL     1      64.777  26.890  25.373  1.00  0.00     0.053 C 
BRANCH   4   5
ATOM      5  C   UNL     1      64.520  25.993  24.201  1.00  0.00     0.041 C 
ATOM      6  O   UNL     1      63.365  25.535  23.995  1.00  0.00    -0.550 OA
ATOM      7  O   UNL     1      65.563  25.635  23.356  1.00  0.00    -0.550 OA
ENDBRANCH   4   5
ENDBRANCH   3   4
ENDBRANCH   2   3
ENDBRANCH   1   2
BRANCH   1   8
ATOM      8  C   UNL     1      63.002  30.467  27.576  1.00  0.00     0.000 C 
BRANCH   8   9
ATOM      9  C   UNL     1      62.698  29.111  28.230  1.00  0.00    -0.000 C 
BRANCH   9  10
ATOM     10  C   UNL     1      61.341  28.569  27.766  1.00  0.00    -0.000 C 
BRANCH  10  11
ATOM     11  C   UNL     1      61.512  27.272  26.961  1.00  0.00    -0.000 C 
BRANCH  11  12
ATOM     12  C   UNL     1      60.639  27.242  25.696  1.00  0.00    -0.003 C 
ATOM     13  C   UNL     1      61.089  28.253  24.643  1.00  0.00     0.004 C 
ENDBRANCH  11  12
ENDBRANCH  10  11
ENDBRANCH   9  10
ENDBRANCH   8   9
ENDBRANCH   1   8
TORSDOF 9
ENDMDL
MODEL 4
REMARK VINA RESULT:    -4.203     12.499     13.818
REMARK INTER + INTRA:          -7.661
REMARK INTER:                  -6.216
REMARK INTRA:                  -1.445
REMARK UNBOUND:                -1.247
REMARK SMILES CCCCCCCCCCC(=O)[O-]
REMARK SMILES IDX 7 1 8 2 9 3 10 4 11 5 12 6 13 7 6 8 5 9 4 10 3 11 2 12 1 13
REMARK H PARENT
REMARK Flexibility Score: inf
ROOT
ATOM      1  C   UNL     1      64.052  30.347  25.768  1.00  0.00     0.000 C 
ENDROOT
BRANCH   1   2
ATOM      2  C   UNL     1      64.718  29.069  26.306  1.00  0.00     0.000 C 
BRANCH   2   3
ATOM      3  C   UNL     1      65.167  28.115  25.183  1.00  0.00     0.006 C 
BRANCH   3   4
ATOM      4  C   UNL     1      64.730  26.654  25.379  1.00  0.00     0.053 C 
BRANCH   4   5
ATOM      5  C   UNL     1      64.602  25.926  24.076  1.00  0.00     0.041 C 
ATOM      6  O   UNL     1      65.550  25.939  23.247  1.00  0.00    -0.550 OA
ATOM      7  O   UNL     1      63.424  25.259  23.763  1.00  0.00    -0.550 OA
ENDBRANCH   4   5
ENDBRANCH   3   4
ENDBRANCH   2   3
ENDBRANCH   1   2
BRANCH   1   8
ATOM      8  C   UNL     1      63.192  30.086  24.522  1.00  0.00     0.000 C 
BRANCH   8   9
ATOM      9  C   UNL     1      61.762  29.644  24.869  1.00  0.00    -0.000 C 
BRANCH   9  10
ATOM     10  C   UNL     1      61.496  28.213  24.385  1.00  0.00    -0.000 C 
BRANCH  10  11
ATOM     11  C   UNL     1      60.982  27.332  25.534  1.00  0.00    -0.000 C 
BRANCH  11  12
ATOM     12  C   UNL     1      61.140  28.001  26.908  1.00  0.00    -0.003 C 
ATOM     13  C   UNL     1      61.889  27.124  27.911  1.00  0.00     0.004 C 
ENDBRANCH  11  12
ENDBRANCH  10  11
ENDBRANCH   9  10
ENDBRANCH   8   9
ENDBRANCH   1   8
TORSDOF 9
ENDMDL
MODEL 5
REMARK VINA RESULT:    -4.195      2.719      4.919
REMARK INTER + INTRA:          -7.649
REMARK INTER:                  -6.394
REMARK INTRA:                  -1.255
REMARK UNBOUND:                -1.247
REMARK SMILES CCCCCCCCCCC(=O)[O-]
REMARK SMILES IDX 7 1 8 2 9 3 10 4 11 5 12 6 13 7 6 8 5 9 4 10 3 11 2 12 1 13
REMARK H PARENT
REMARK Flexibility Score: inf
ROOT
ATOM      1  C   UNL     1      61.400  29.018  13.782  1.00  0.00     0.000 C 
ENDROOT
BRANCH   1   2
ATOM      2  C   UNL     1      62.588  29.811  13.211  1.00  0.00     0.000 C 
BRANCH   2   3
ATOM      3  C   UNL     1      62.502  31.318  13.519  1.00  0.00     0.006 C 
BRANCH   3   4
ATOM      4  C   UNL     1      61.368  32.052  12.785  1.00  0.00     0.053 C 
BRANCH   4   5
ATOM      5  C   UNL     1      60.341  32.591  13.732  1.00  0.00     0.041 C 
ATOM      6  O   UNL     1      59.273  31.956  13.938  1.00  0.00    -0.550 OA
ATOM      7  O   UNL     1      60.547  33.812  14.361  1.00  0.00    -0.550 OA
ENDBRANCH   4   5
ENDBRANCH   3   4
ENDBRANCH   2   3
ENDBRANCH   1   2
BRANCH   1   8
ATOM      8  C   UNL     1      60.686  28.174  12.716  1.00  0.00     0.000 C 
BRANCH   8   9
ATOM      9  C   UNL     1      59.519  28.919  12.051  1.00  0.00    -0.000 C 
BRANCH   9  10
ATOM     10  C   UNL     1      59.869  29.315  10.611  1.00  0.00    -0.000 C 
BRANCH  10  11
ATOM     11  C   UNL     1      61.013  28.447  10.064  1.00  0.00    -0.000 C 
BRANCH  11  12
ATOM     12  C   UNL     1      62.068  29.270   9.308  1.00  0.00    -0.003 C 
ATOM     13  C   UNL     1      63.492  28.984   9.783  1.00  0.00     0.004 C 
ENDBRANCH  11  12
ENDBRANCH  10  11
ENDBRANCH   9  10
ENDBRANCH   8   9
ENDBRANCH   1   8
TORSDOF 9
ENDMDL
MODEL 6
REMARK VINA RESULT:    -4.176      2.032      2.702
REMARK INTER + INTRA:          -7.621
REMARK INTER:                  -6.531
REMARK INTRA:                  -1.090
REMARK UNBOUND:                -1.247
REMARK SMILES CCCCCCCCCCC(=O)[O-]
REMARK SMILES IDX 7 1 8 2 9 3 10 4 11 5 12 6 13 7 6 8 5 9 4 10 3 11 2 12 1 13
REMARK H PARENT
REMARK Flexibility Score: inf
ROOT
ATOM      1  C   UNL     1      63.545  29.305  10.342  1.00  0.00     0.000 C 
ENDROOT
BRANCH   1   2
ATOM      2  C   UNL     1      62.132  29.499   9.766  1.00  0.00     0.000 C 
BRANCH   2   3
ATOM      3  C   UNL     1      61.107  28.513  10.355  1.00  0.00     0.006 C 
BRANCH   3   4
ATOM      4  C   UNL     1      59.956  29.179  11.126  1.00  0.00     0.053 C 
BRANCH   4   5
ATOM      5  C   UNL     1      59.659  28.475  12.414  1.00  0.00     0.041 C 
ATOM      6  O   UNL     1      60.546  28.377  13.302  1.00  0.00    -0.550 OA
ATOM      7  O   UNL     1      58.412  27.898  12.621  1.00  0.00    -0.550 OA
ENDBRANCH   4   5
ENDBRANCH   3   4
ENDBRANCH   2   3
ENDBRANCH   1   2
BRANCH   1   8
ATOM      8  C   UNL     1      63.763  30.086  11.648  1.00  0.00     0.000 C 
BRANCH   8   9
ATOM      9  C   UNL     1      63.906  31.598  11.419  1.00  0.00    -0.000 C 
BRANCH   9  10
ATOM     10  C   UNL     1      63.249  32.390  12.556  1.00  0.00    -0.000 C 
BRANCH  10  11
ATOM     11  C   UNL     1      62.016  31.652  13.100  1.00  0.00    -0.000 C 
BRANCH  11  12
ATOM     12  C   UNL     1      60.712  32.434  12.872  1.00  0.00    -0.003 C 
ATOM     13  C   UNL     1      59.579  31.973  13.787  1.00  0.00     0.004 C 
ENDBRANCH  11  12
ENDBRANCH  10  11
ENDBRANCH   9  10
ENDBRANCH   8   9
ENDBRANCH   1   8
TORSDOF 9
ENDMDL
MODEL 7
REMARK VINA RESULT:    -4.148      1.216      1.934
REMARK INTER + INTRA:          -7.578
REMARK INTER:                  -6.382
REMARK INTRA:                  -1.195
REMARK UNBOUND:                -1.247
REMARK SMILES CCCCCCCCCCC(=O)[O-]
REMARK SMILES IDX 7 1 8 2 9 3 10 4 11 5 12 6 13 7 6 8 5 9 4 10 3 11 2 12 1 13
REMARK H PARENT
REMARK Flexibility Score: inf
ROOT
ATOM      1  C   UNL     1      60.422  28.099  12.542  1.00  0.00     0.000 C 
ENDROOT
BRANCH   1   2
ATOM      2  C   UNL     1      59.700  29.083  11.606  1.00  0.00     0.000 C 
BRANCH   2   3
ATOM      3  C   UNL     1      60.651  29.745  10.591  1.00  0.00     0.006 C 
BRANCH   3   4
ATOM      4  C   UNL     1      61.608  28.770   9.888  1.00  0.00     0.053 C 
BRANCH   4   5
ATOM      5  C   UNL     1      63.007  29.301   9.826  1.00  0.00     0.041 C 
ATOM      6  O   UNL     1      63.890  28.688   9.169  1.00  0.00    -0.550 OA
ATOM      7  O   UNL     1      63.345  30.454  10.522  1.00  0.00    -0.550 OA
ENDBRANCH   4   5
ENDBRANCH   3   4
ENDBRANCH   2   3
ENDBRANCH   1   2
BRANCH   1   8
ATOM      8  C   UNL     1      61.118  28.803  13.717  1.00  0.00     0.000 C 
BRANCH   8   9
ATOM      9  C   UNL     1      62.638  28.913  13.528  1.00  0.00    -0.000 C 
BRANCH   9  10
ATOM     10  C   UNL     1      63.183  30.185  14.188  1.00  0.00    -0.000 C 
BRANCH  10  11
ATOM     11  C   UNL     1      62.071  31.229  14.375  1.00  0.00    -0.000 C 
BRANCH  11  12
ATOM     12  C   UNL     1      61.988  32.219  13.203  1.00  0.00    -0.003 C 
ATOM     13  C   UNL     1      60.564  32.710  12.943  1.00  0.00     0.004 C 
ENDBRANCH  11  12
ENDBRANCH  10  11
ENDBRANCH   9  10
ENDBRANCH   8   9
ENDBRANCH   1   8
TORSDOF 9
ENDMDL
MODEL 8
REMARK VINA RESULT:    -4.143     13.649     15.174
REMARK INTER + INTRA:          -7.570
REMARK INTER:                  -6.496
REMARK INTRA:                  -1.074
REMARK UNBOUND:                -1.247
REMARK SMILES CCCCCCCCCCC(=O)[O-]
REMARK SMILES IDX 7 1 8 2 9 3 10 4 11 5 12 6 13 7 6 8 5 9 4 10 3 11 2 12 1 13
REMARK H PARENT
REMARK Flexibility Score: inf
ROOT
ATOM      1  C   UNL     1      62.858  30.461  25.193  1.00  0.00     0.000 C 
ENDROOT
BRANCH   1   2
ATOM      2  C   UNL     1      63.734  30.190  26.428  1.00  0.00     0.000 C 
BRANCH   2   3
ATOM      3  C   UNL     1      62.978  30.405  27.753  1.00  0.00     0.006 C 
BRANCH   3   4
ATOM      4  C   UNL     1      63.027  29.206  28.714  1.00  0.00     0.053 C 
BRANCH   4   5
ATOM      5  C   UNL     1      61.797  28.357  28.618  1.00  0.00     0.041 C 
ATOM      6  O   UNL     1      60.656  28.885  28.682  1.00  0.00    -0.550 OA
ATOM      7  O   UNL     1      61.911  26.979  28.492  1.00  0.00    -0.550 OA
ENDBRANCH   4   5
ENDBRANCH   3   4
ENDBRANCH   2   3
ENDBRANCH   1   2
BRANCH   1   8
ATOM      8  C   UNL     1      61.883  29.312  24.896  1.00  0.00     0.000 C 
BRANCH   8   9
ATOM      9  C   UNL     1      62.542  28.157  24.128  1.00  0.00    -0.000 C 
BRANCH   9  10
ATOM     10  C   UNL     1      62.532  26.867  24.958  1.00  0.00    -0.000 C 
BRANCH  10  11
ATOM     11  C   UNL     1      63.919  26.587  25.556  1.00  0.00    -0.000 C 
BRANCH  11  12
ATOM     12  C   UNL     1      65.061  26.990  24.610  1.00  0.00    -0.003 C 
ATOM     13  C   UNL     1      65.371  25.918  23.566  1.00  0.00     0.004 C 
ENDBRANCH  11  12
ENDBRANCH  10  11
ENDBRANCH   9  10
ENDBRANCH   8   9
ENDBRANCH   1   8
TORSDOF 9
ENDMDL
MODEL 9
REMARK VINA RESULT:    -4.096     13.340     14.616
REMARK INTER + INTRA:          -7.498
REMARK INTER:                  -6.456
REMARK INTRA:                  -1.042
REMARK UNBOUND:                -1.247
REMARK SMILES CCCCCCCCCCC(=O)[O-]
REMARK SMILES IDX 7 1 8 2 9 3 10 4 11 5 12 6 13 7 6 8 5 9 4 10 3 11 2 12 1 13
REMARK H PARENT
REMARK Flexibility Score: inf
ROOT
ATOM      1  C   UNL     1      63.401  29.768  28.088  1.00  0.00     0.000 C 
ENDROOT
BRANCH   1   2
ATOM      2  C   UNL     1      62.479  28.616  28.523  1.00  0.00     0.000 C 
BRANCH   2   3
ATOM      3  C   UNL     1      61.247  28.462  27.612  1.00  0.00     0.006 C 
BRANCH   3   4
ATOM      4  C   UNL     1      61.205  27.146  26.819  1.00  0.00     0.053 C 
BRANCH   4   5
ATOM      5  C   UNL     1      60.576  27.321  25.471  1.00  0.00     0.041 C 
ATOM      6  O   UNL     1      61.062  28.139  24.646  1.00  0.00    -0.550 OA
ATOM      7  O   UNL     1      59.433  26.605  25.137  1.00  0.00    -0.550 OA
ENDBRANCH   4   5
ENDBRANCH   3   4
ENDBRANCH   2   3
ENDBRANCH   1   2
BRANCH   1   8
ATOM      8  C   UNL     1      62.978  30.388  26.747  1.00  0.00     0.000 C 
BRANCH   8   9
ATOM      9  C   UNL     1      64.082  30.312  25.682  1.00  0.00    -0.000 C 
BRANCH   9  10
ATOM     10  C   UNL     1      65.241  29.426  26.155  1.00  0.00    -0.000 C 
BRANCH  10  11
ATOM     11  C   UNL     1      65.535  28.314  25.136  1.00  0.00    -0.000 C 
BRANCH  11  12
ATOM     12  C   UNL     1      64.652  27.074  25.346  1.00  0.00    -0.003 C 
ATOM     13  C   UNL     1      64.825  26.031  24.242  1.00  0.00     0.004 C 
ENDBRANCH  11  12
ENDBRANCH  10  11
ENDBRANCH   9  10
ENDBRANCH   8   9
ENDBRANCH   1   8
TORSDOF 9
ENDMDL
