MODEL 1
REMARK VINA RESULT:    -7.240      0.000      0.000
REMARK INTER + INTRA:         -11.936
REMARK INTER:                 -10.626
REMARK INTRA:                  -1.310
REMARK UNBOUND:                -1.310
REMARK SMILES O=c1c(O[C@@H]2O[C@@H](CO)[C@H](O)[C@H](O)[C@H]2O)c(-c2ccc(O)c(O)c2)oc2cc(O)cc(O)c12
REMARK SMILES IDX 4 1 3 2 16 3 25 4 2 5 26 6 1 7 33 8 27 9 31 10 28 11 30 12
REMARK SMILES IDX 17 13 18 14 19 15 20 16 24 17 22 18 21 19 23 21 32 23 29 25
REMARK SMILES IDX 5 27 14 28 6 29 12 30 7 31 10 32 15 33 13 35 8 37 9 38 11 40
REMARK H PARENT 21 20 23 22 32 24 29 26 15 34 13 36 9 39 11 41
REMARK Flexibility Score: inf
ROOT
ATOM      1  O   UNL     1      14.933 -35.116  -1.552  1.00  0.00    -0.454 OA
ENDROOT
BRANCH   1   2
ATOM      2  C   UNL     1      14.176 -35.872  -2.454  1.00  0.00     0.214 A 
ATOM      3  C   UNL     1      14.709 -37.017  -3.068  1.00  0.00     0.180 A 
ATOM      4  O   UNL     1      13.946 -37.767  -3.859  1.00  0.00    -0.452 OA
ATOM      5  C   UNL     1      12.855 -35.506  -2.726  1.00  0.00     0.239 A 
ATOM      6  C   UNL     1      12.672 -37.485  -4.111  1.00  0.00     0.146 A 
ATOM      7  O   UNL     1      12.382 -34.459  -2.199  1.00  0.00    -0.285 OA
ATOM      8  C   UNL     1      12.070 -36.318  -3.573  1.00  0.00     0.111 A 
ATOM      9  C   UNL     1      11.922 -38.356  -4.910  1.00  0.00     0.094 A 
ATOM     10  C   UNL     1      10.720 -36.030  -3.881  1.00  0.00     0.134 A 
ATOM     11  C   UNL     1      10.575 -38.089  -5.173  1.00  0.00     0.123 A 
ATOM     12  C   UNL     1       9.984 -36.924  -4.675  1.00  0.00     0.093 A 
BRANCH   3  13
ATOM     13  C   UNL     1      16.099 -37.424  -2.833  1.00  0.00     0.025 A 
ATOM     14  C   UNL     1      17.141 -36.813  -3.546  1.00  0.00     0.016 A 
ATOM     15  C   UNL     1      18.468 -37.176  -3.304  1.00  0.00     0.051 A 
ATOM     16  C   UNL     1      18.764 -38.191  -2.381  1.00  0.00     0.157 A 
ATOM     17  C   UNL     1      16.395 -38.407  -1.876  1.00  0.00     0.062 A 
ATOM     18  C   UNL     1      17.722 -38.809  -1.666  1.00  0.00     0.158 A 
BRANCH  16  19
ATOM     19  O   UNL     1      20.086 -38.571  -2.164  1.00  0.00    -0.504 OA
ATOM     20  H   UNL     1      20.761 -37.934  -1.761  1.00  0.00     0.293 HD
ENDBRANCH  16  19
BRANCH  18  21
ATOM     21  O   UNL     1      17.985 -39.835  -0.759  1.00  0.00    -0.504 OA
ATOM     22  H   UNL     1      18.417 -39.661   0.145  1.00  0.00     0.293 HD
ENDBRANCH  18  21
ENDBRANCH   3  13
BRANCH  10  23
ATOM     23  O   UNL     1      10.110 -34.860  -3.416  1.00  0.00    -0.507 OA
ATOM     24  H   UNL     1      10.086 -34.630  -2.426  1.00  0.00     0.293 HD
ENDBRANCH  10  23
BRANCH  11  25
ATOM     25  O   UNL     1       9.811 -38.978  -5.927  1.00  0.00    -0.508 OA
ATOM     26  H   UNL     1       9.719 -39.952  -5.669  1.00  0.00     0.293 HD
ENDBRANCH  11  25
ENDBRANCH   1   2
BRANCH   1  27
ATOM     27  C   UNL     1      15.068 -35.465  -0.177  1.00  0.00     0.339 C 
ATOM     28  C   UNL     1      16.425 -34.908   0.314  1.00  0.00     0.214 C 
ATOM     29  O   UNL     1      13.975 -34.902   0.535  1.00  0.00    -0.332 OA
ATOM     30  C   UNL     1      16.596 -35.132   1.819  1.00  0.00     0.180 C 
ATOM     31  C   UNL     1      14.033 -35.152   1.937  1.00  0.00     0.179 C 
ATOM     32  C   UNL     1      15.345 -34.609   2.577  1.00  0.00     0.177 C 
BRANCH  28  33
ATOM     33  O   UNL     1      17.497 -35.475  -0.394  1.00  0.00    -0.384 OA
ATOM     34  H   UNL     1      17.304 -36.441  -0.535  1.00  0.00     0.211 HD
ENDBRANCH  28  33
BRANCH  30  35
ATOM     35  O   UNL     1      17.795 -34.526   2.248  1.00  0.00    -0.387 OA
ATOM     36  H   UNL     1      18.552 -35.149   2.094  1.00  0.00     0.211 HD
ENDBRANCH  30  35
BRANCH  31  37
ATOM     37  C   UNL     1      13.757 -36.635   2.270  1.00  0.00     0.191 C 
BRANCH  37  38
ATOM     38  O   UNL     1      12.485 -37.004   1.804  1.00  0.00    -0.394 OA
ATOM     39  H   UNL     1      12.630 -37.690   1.105  1.00  0.00     0.210 HD
ENDBRANCH  37  38
ENDBRANCH  31  37
BRANCH  32  40
ATOM     40  O   UNL     1      15.344 -33.199   2.627  1.00  0.00    -0.387 OA
ATOM     41  H   UNL     1      14.411 -32.893   2.766  1.00  0.00     0.211 HD
ENDBRANCH  32  40
ENDBRANCH   1  27
TORSDOF 12
ENDMDL
MODEL 2
REMARK VINA RESULT:    -6.515      2.446      4.526
REMARK INTER + INTRA:         -10.872
REMARK INTER:                  -9.659
REMARK INTRA:                  -1.214
REMARK UNBOUND:                -1.310
REMARK SMILES O=c1c(O[C@@H]2O[C@@H](CO)[C@H](O)[C@H](O)[C@H]2O)c(-c2ccc(O)c(O)c2)oc2cc(O)cc(O)c12
REMARK SMILES IDX 4 1 3 2 16 3 25 4 2 5 26 6 1 7 33 8 27 9 31 10 28 11 30 12
REMARK SMILES IDX 17 13 18 14 19 15 20 16 24 17 22 18 21 19 23 21 32 23 29 25
REMARK SMILES IDX 5 27 14 28 6 29 12 30 7 31 10 32 15 33 13 35 8 37 9 38 11 40
REMARK H PARENT 21 20 23 22 32 24 29 26 15 34 13 36 9 39 11 41
REMARK Flexibility Score: inf
ROOT
ATOM      1  O   UNL     1      13.161 -36.372  -4.093  1.00  0.00    -0.454 OA
ENDROOT
BRANCH   1   2
ATOM      2  C   UNL     1      13.296 -37.765  -4.089  1.00  0.00     0.214 A 
ATOM      3  C   UNL     1      14.224 -38.401  -3.248  1.00  0.00     0.180 A 
ATOM      4  O   UNL     1      14.280 -39.730  -3.199  1.00  0.00    -0.452 OA
ATOM      5  C   UNL     1      12.473 -38.543  -4.907  1.00  0.00     0.239 A 
ATOM      6  C   UNL     1      13.487 -40.512  -3.924  1.00  0.00     0.146 A 
ATOM      7  O   UNL     1      11.658 -37.973  -5.687  1.00  0.00    -0.285 OA
ATOM      8  C   UNL     1      12.557 -39.951  -4.837  1.00  0.00     0.111 A 
ATOM      9  C   UNL     1      13.572 -41.901  -3.774  1.00  0.00     0.094 A 
ATOM     10  C   UNL     1      11.746 -40.810  -5.615  1.00  0.00     0.134 A 
ATOM     11  C   UNL     1      12.733 -42.743  -4.511  1.00  0.00     0.123 A 
ATOM     12  C   UNL     1      11.839 -42.200  -5.438  1.00  0.00     0.093 A 
BRANCH   3  13
ATOM     13  C   UNL     1      15.127 -37.623  -2.392  1.00  0.00     0.025 A 
ATOM     14  C   UNL     1      16.305 -37.078  -2.925  1.00  0.00     0.016 A 
ATOM     15  C   UNL     1      17.153 -36.311  -2.122  1.00  0.00     0.051 A 
ATOM     16  C   UNL     1      16.857 -36.124  -0.763  1.00  0.00     0.157 A 
ATOM     17  C   UNL     1      14.805 -37.399  -1.045  1.00  0.00     0.062 A 
ATOM     18  C   UNL     1      15.679 -36.671  -0.224  1.00  0.00     0.158 A 
BRANCH  16  19
ATOM     19  O   UNL     1      17.720 -35.384   0.043  1.00  0.00    -0.504 OA
ATOM     20  H   UNL     1      17.411 -34.981   0.918  1.00  0.00     0.293 HD
ENDBRANCH  16  19
BRANCH  18  21
ATOM     21  O   UNL     1      15.371 -36.520   1.129  1.00  0.00    -0.504 OA
ATOM     22  H   UNL     1      14.589 -37.004   1.563  1.00  0.00     0.293 HD
ENDBRANCH  18  21
ENDBRANCH   3  13
BRANCH  10  23
ATOM     23  O   UNL     1      10.859 -40.295  -6.567  1.00  0.00    -0.507 OA
ATOM     24  H   UNL     1       9.875 -40.155  -6.355  1.00  0.00     0.293 HD
ENDBRANCH  10  23
BRANCH  11  25
ATOM     25  O   UNL     1      12.779 -44.124  -4.329  1.00  0.00    -0.508 OA
ATOM     26  H   UNL     1      13.435 -44.555  -3.691  1.00  0.00     0.293 HD
ENDBRANCH  11  25
ENDBRANCH   1   2
BRANCH   1  27
ATOM     27  C   UNL     1      12.547 -35.654  -3.027  1.00  0.00     0.339 C 
ATOM     28  C   UNL     1      13.092 -34.207  -3.066  1.00  0.00     0.214 C 
ATOM     29  O   UNL     1      11.140 -35.695  -3.213  1.00  0.00    -0.332 OA
ATOM     30  C   UNL     1      12.389 -33.329  -2.026  1.00  0.00     0.180 C 
ATOM     31  C   UNL     1      10.422 -34.965  -2.221  1.00  0.00     0.179 C 
ATOM     32  C   UNL     1      10.849 -33.468  -2.171  1.00  0.00     0.177 C 
BRANCH  28  33
ATOM     33  O   UNL     1      14.483 -34.178  -2.876  1.00  0.00    -0.384 OA
ATOM     34  H   UNL     1      14.678 -34.463  -1.943  1.00  0.00     0.211 HD
ENDBRANCH  28  33
BRANCH  30  35
ATOM     35  O   UNL     1      12.838 -31.999  -2.157  1.00  0.00    -0.387 OA
ATOM     36  H   UNL     1      12.729 -31.707  -3.099  1.00  0.00     0.211 HD
ENDBRANCH  30  35
BRANCH  31  37
ATOM     37  C   UNL     1      10.471 -35.663  -0.845  1.00  0.00     0.191 C 
BRANCH  37  38
ATOM     38  O   UNL     1       9.917 -36.950  -0.938  1.00  0.00    -0.394 OA
ATOM     39  H   UNL     1       9.564 -37.169  -0.040  1.00  0.00     0.210 HD
ENDBRANCH  37  38
ENDBRANCH  31  37
BRANCH  32  40
ATOM     40  O   UNL     1      10.388 -32.767  -3.306  1.00  0.00    -0.387 OA
ATOM     41  H   UNL     1      10.733 -33.224  -4.115  1.00  0.00     0.211 HD
ENDBRANCH  32  40
ENDBRANCH   1  27
TORSDOF 12
ENDMDL
MODEL 3
REMARK VINA RESULT:    -6.507      2.265      3.867
REMARK INTER + INTRA:         -10.861
REMARK INTER:                  -9.776
REMARK INTRA:                  -1.085
REMARK UNBOUND:                -1.310
REMARK SMILES O=c1c(O[C@@H]2O[C@@H](CO)[C@H](O)[C@H](O)[C@H]2O)c(-c2ccc(O)c(O)c2)oc2cc(O)cc(O)c12
REMARK SMILES IDX 4 1 3 2 16 3 25 4 2 5 26 6 1 7 33 8 27 9 31 10 28 11 30 12
REMARK SMILES IDX 17 13 18 14 19 15 20 16 24 17 22 18 21 19 23 21 32 23 29 25
REMARK SMILES IDX 5 27 14 28 6 29 12 30 7 31 10 32 15 33 13 35 8 37 9 38 11 40
REMARK H PARENT 21 20 23 22 32 24 29 26 15 34 13 36 9 39 11 41
REMARK Flexibility Score: inf
ROOT
ATOM      1  O   UNL     1      14.302 -36.242  -3.051  1.00  0.00    -0.454 OA
ENDROOT
BRANCH   1   2
ATOM      2  C   UNL     1      14.034 -37.556  -3.451  1.00  0.00     0.214 A 
ATOM      3  C   UNL     1      14.703 -38.644  -2.866  1.00  0.00     0.180 A 
ATOM      4  O   UNL     1      14.375 -39.889  -3.202  1.00  0.00    -0.452 OA
ATOM      5  C   UNL     1      13.059 -37.798  -4.423  1.00  0.00     0.239 A 
ATOM      6  C   UNL     1      13.424 -40.170  -4.088  1.00  0.00     0.146 A 
ATOM      7  O   UNL     1      12.477 -36.821  -4.973  1.00  0.00    -0.285 OA
ATOM      8  C   UNL     1      12.735 -39.130  -4.763  1.00  0.00     0.111 A 
ATOM      9  C   UNL     1      13.102 -41.507  -4.345  1.00  0.00     0.094 A 
ATOM     10  C   UNL     1      11.747 -39.461  -5.720  1.00  0.00     0.134 A 
ATOM     11  C   UNL     1      12.091 -41.827  -5.258  1.00  0.00     0.123 A 
ATOM     12  C   UNL     1      11.432 -40.809  -5.953  1.00  0.00     0.093 A 
BRANCH   3  13
ATOM     13  C   UNL     1      15.752 -38.435  -1.862  1.00  0.00     0.025 A 
ATOM     14  C   UNL     1      15.406 -38.166  -0.529  1.00  0.00     0.016 A 
ATOM     15  C   UNL     1      16.400 -37.997   0.437  1.00  0.00     0.051 A 
ATOM     16  C   UNL     1      17.754 -38.046   0.071  1.00  0.00     0.157 A 
ATOM     17  C   UNL     1      17.104 -38.530  -2.223  1.00  0.00     0.062 A 
ATOM     18  C   UNL     1      18.106 -38.312  -1.265  1.00  0.00     0.158 A 
BRANCH  16  19
ATOM     19  O   UNL     1      18.744 -37.847   1.030  1.00  0.00    -0.504 OA
ATOM     20  H   UNL     1      19.429 -38.562   1.240  1.00  0.00     0.293 HD
ENDBRANCH  16  19
BRANCH  18  21
ATOM     21  O   UNL     1      19.443 -38.344  -1.662  1.00  0.00    -0.504 OA
ATOM     22  H   UNL     1      20.174 -38.728  -1.070  1.00  0.00     0.293 HD
ENDBRANCH  18  21
ENDBRANCH   3  13
BRANCH  10  23
ATOM     23  O   UNL     1      11.088 -38.464  -6.447  1.00  0.00    -0.507 OA
ATOM     24  H   UNL     1      10.734 -38.637  -7.385  1.00  0.00     0.293 HD
ENDBRANCH  10  23
BRANCH  11  25
ATOM     25  O   UNL     1      11.733 -43.155  -5.481  1.00  0.00    -0.508 OA
ATOM     26  H   UNL     1      11.980 -43.636  -6.336  1.00  0.00     0.293 HD
ENDBRANCH  11  25
ENDBRANCH   1   2
BRANCH   1  27
ATOM     27  C   UNL     1      13.524 -35.560  -2.071  1.00  0.00     0.339 C 
ATOM     28  C   UNL     1      13.003 -34.255  -2.717  1.00  0.00     0.214 C 
ATOM     29  O   UNL     1      12.463 -36.415  -1.672  1.00  0.00    -0.332 OA
ATOM     30  C   UNL     1      12.052 -33.518  -1.768  1.00  0.00     0.180 C 
ATOM     31  C   UNL     1      11.588 -35.813  -0.720  1.00  0.00     0.179 C 
ATOM     32  C   UNL     1      10.958 -34.493  -1.254  1.00  0.00     0.177 C 
BRANCH  28  33
ATOM     33  O   UNL     1      14.061 -33.417  -3.103  1.00  0.00    -0.384 OA
ATOM     34  H   UNL     1      13.880 -33.087  -4.023  1.00  0.00     0.211 HD
ENDBRANCH  28  33
BRANCH  30  35
ATOM     35  O   UNL     1      11.520 -32.389  -2.425  1.00  0.00    -0.387 OA
ATOM     36  H   UNL     1      12.108 -31.606  -2.260  1.00  0.00     0.211 HD
ENDBRANCH  30  35
BRANCH  31  37
ATOM     37  C   UNL     1      12.261 -35.656   0.661  1.00  0.00     0.191 C 
BRANCH  37  38
ATOM     38  O   UNL     1      12.583 -36.919   1.186  1.00  0.00    -0.394 OA
ATOM     39  H   UNL     1      11.866 -37.145   1.831  1.00  0.00     0.210 HD
ENDBRANCH  37  38
ENDBRANCH  31  37
BRANCH  32  40
ATOM     40  O   UNL     1      10.005 -34.753  -2.262  1.00  0.00    -0.387 OA
ATOM     41  H   UNL     1       9.911 -35.735  -2.355  1.00  0.00     0.211 HD
ENDBRANCH  32  40
ENDBRANCH   1  27
TORSDOF 12
ENDMDL
MODEL 4
REMARK VINA RESULT:    -6.484      1.629      2.100
REMARK INTER + INTRA:         -10.826
REMARK INTER:                  -9.622
REMARK INTRA:                  -1.204
REMARK UNBOUND:                -1.310
REMARK SMILES O=c1c(O[C@@H]2O[C@@H](CO)[C@H](O)[C@H](O)[C@H]2O)c(-c2ccc(O)c(O)c2)oc2cc(O)cc(O)c12
REMARK SMILES IDX 4 1 3 2 16 3 25 4 2 5 26 6 1 7 33 8 27 9 31 10 28 11 30 12
REMARK SMILES IDX 17 13 18 14 19 15 20 16 24 17 22 18 21 19 23 21 32 23 29 25
REMARK SMILES IDX 5 27 14 28 6 29 12 30 7 31 10 32 15 33 13 35 8 37 9 38 11 40
REMARK H PARENT 21 20 23 22 32 24 29 26 15 34 13 36 9 39 11 41
REMARK Flexibility Score: inf
ROOT
ATOM      1  O   UNL     1      14.378 -35.602  -2.064  1.00  0.00    -0.454 OA
ENDROOT
BRANCH   1   2
ATOM      2  C   UNL     1      13.836 -36.503  -2.989  1.00  0.00     0.214 A 
ATOM      3  C   UNL     1      14.584 -37.593  -3.463  1.00  0.00     0.180 A 
ATOM      4  O   UNL     1      14.024 -38.483  -4.278  1.00  0.00    -0.452 OA
ATOM      5  C   UNL     1      12.519 -36.339  -3.425  1.00  0.00     0.239 A 
ATOM      6  C   UNL     1      12.761 -38.394  -4.684  1.00  0.00     0.146 A 
ATOM      7  O   UNL     1      11.854 -35.342  -3.024  1.00  0.00    -0.285 OA
ATOM      8  C   UNL     1      11.952 -37.296  -4.294  1.00  0.00     0.111 A 
ATOM      9  C   UNL     1      12.231 -39.402  -5.497  1.00  0.00     0.094 A 
ATOM     10  C   UNL     1      10.620 -37.216  -4.763  1.00  0.00     0.134 A 
ATOM     11  C   UNL     1      10.899 -39.341  -5.920  1.00  0.00     0.123 A 
ATOM     12  C   UNL     1      10.106 -38.245  -5.569  1.00  0.00     0.093 A 
BRANCH   3  13
ATOM     13  C   UNL     1      15.979 -37.790  -3.053  1.00  0.00     0.025 A 
ATOM     14  C   UNL     1      17.002 -37.051  -3.666  1.00  0.00     0.016 A 
ATOM     15  C   UNL     1      18.329 -37.212  -3.258  1.00  0.00     0.051 A 
ATOM     16  C   UNL     1      18.653 -38.152  -2.267  1.00  0.00     0.157 A 
ATOM     17  C   UNL     1      16.294 -38.697  -2.030  1.00  0.00     0.062 A 
ATOM     18  C   UNL     1      17.630 -38.897  -1.653  1.00  0.00     0.158 A 
BRANCH  16  19
ATOM     19  O   UNL     1      19.979 -38.332  -1.884  1.00  0.00    -0.504 OA
ATOM     20  H   UNL     1      20.320 -39.229  -1.563  1.00  0.00     0.293 HD
ENDBRANCH  16  19
BRANCH  18  21
ATOM     21  O   UNL     1      17.924 -39.854  -0.681  1.00  0.00    -0.504 OA
ATOM     22  H   UNL     1      18.545 -40.638  -0.865  1.00  0.00     0.293 HD
ENDBRANCH  18  21
ENDBRANCH   3  13
BRANCH  10  23
ATOM     23  O   UNL     1       9.811 -36.119  -4.448  1.00  0.00    -0.507 OA
ATOM     24  H   UNL     1       9.930 -35.221  -4.908  1.00  0.00     0.293 HD
ENDBRANCH  10  23
BRANCH  11  25
ATOM     25  O   UNL     1      10.352 -40.366  -6.690  1.00  0.00    -0.508 OA
ATOM     26  H   UNL     1       9.546 -40.214  -7.282  1.00  0.00     0.293 HD
ENDBRANCH  11  25
ENDBRANCH   1   2
BRANCH   1  27
ATOM     27  C   UNL     1      14.323 -35.817  -0.657  1.00  0.00     0.339 C 
ATOM     28  C   UNL     1      13.547 -34.632  -0.035  1.00  0.00     0.214 C 
ATOM     29  O   UNL     1      13.675 -37.058  -0.420  1.00  0.00    -0.332 OA
ATOM     30  C   UNL     1      13.335 -34.845   1.467  1.00  0.00     0.180 C 
ATOM     31  C   UNL     1      13.525 -37.355   0.966  1.00  0.00     0.179 C 
ATOM     32  C   UNL     1      12.724 -36.252   1.720  1.00  0.00     0.177 C 
BRANCH  28  33
ATOM     33  O   UNL     1      14.200 -33.412  -0.272  1.00  0.00    -0.384 OA
ATOM     34  H   UNL     1      14.650 -33.463  -1.157  1.00  0.00     0.211 HD
ENDBRANCH  28  33
BRANCH  30  35
ATOM     35  O   UNL     1      12.541 -33.799   1.980  1.00  0.00    -0.387 OA
ATOM     36  H   UNL     1      12.975 -33.425   2.791  1.00  0.00     0.211 HD
ENDBRANCH  30  35
BRANCH  31  37
ATOM     37  C   UNL     1      14.876 -37.695   1.632  1.00  0.00     0.191 C 
BRANCH  37  38
ATOM     38  O   UNL     1      14.709 -37.821   3.021  1.00  0.00    -0.394 OA
ATOM     39  H   UNL     1      13.940 -37.248   3.265  1.00  0.00     0.210 HD
ENDBRANCH  37  38
ENDBRANCH  31  37
BRANCH  32  40
ATOM     40  O   UNL     1      11.359 -36.276   1.363  1.00  0.00    -0.387 OA
ATOM     41  H   UNL     1      10.835 -36.557   2.156  1.00  0.00     0.211 HD
ENDBRANCH  32  40
ENDBRANCH   1  27
TORSDOF 12
ENDMDL
MODEL 5
REMARK VINA RESULT:    -6.478      2.980      6.344
REMARK INTER + INTRA:         -10.818
REMARK INTER:                  -9.645
REMARK INTRA:                  -1.173
REMARK UNBOUND:                -1.310
REMARK SMILES O=c1c(O[C@@H]2O[C@@H](CO)[C@H](O)[C@H](O)[C@H]2O)c(-c2ccc(O)c(O)c2)oc2cc(O)cc(O)c12
REMARK SMILES IDX 4 1 3 2 16 3 25 4 2 5 26 6 1 7 33 8 27 9 31 10 28 11 30 12
REMARK SMILES IDX 17 13 18 14 19 15 20 16 24 17 22 18 21 19 23 21 32 23 29 25
REMARK SMILES IDX 5 27 14 28 6 29 12 30 7 31 10 32 15 33 13 35 8 37 9 38 11 40
REMARK H PARENT 21 20 23 22 32 24 29 26 15 34 13 36 9 39 11 41
REMARK Flexibility Score: inf
ROOT
ATOM      1  O   UNL     1      13.372 -39.245  -4.454  1.00  0.00    -0.454 OA
ENDROOT
BRANCH   1   2
ATOM      2  C   UNL     1      12.913 -38.004  -3.999  1.00  0.00     0.214 A 
ATOM      3  C   UNL     1      13.714 -37.189  -3.182  1.00  0.00     0.180 A 
ATOM      4  O   UNL     1      13.290 -35.978  -2.827  1.00  0.00    -0.452 OA
ATOM      5  C   UNL     1      11.651 -37.548  -4.388  1.00  0.00     0.239 A 
ATOM      6  C   UNL     1      12.117 -35.483  -3.210  1.00  0.00     0.146 A 
ATOM      7  O   UNL     1      10.915 -38.292  -5.097  1.00  0.00    -0.285 OA
ATOM      8  C   UNL     1      11.226 -36.261  -3.993  1.00  0.00     0.111 A 
ATOM      9  C   UNL     1      11.771 -34.179  -2.839  1.00  0.00     0.094 A 
ATOM     10  C   UNL     1       9.974 -35.716  -4.362  1.00  0.00     0.134 A 
ATOM     11  C   UNL     1      10.551 -33.630  -3.247  1.00  0.00     0.123 A 
ATOM     12  C   UNL     1       9.652 -34.401  -3.989  1.00  0.00     0.093 A 
BRANCH   3  13
ATOM     13  C   UNL     1      15.034 -37.638  -2.727  1.00  0.00     0.025 A 
ATOM     14  C   UNL     1      15.151 -38.409  -1.560  1.00  0.00     0.016 A 
ATOM     15  C   UNL     1      16.403 -38.864  -1.139  1.00  0.00     0.051 A 
ATOM     16  C   UNL     1      17.558 -38.511  -1.854  1.00  0.00     0.157 A 
ATOM     17  C   UNL     1      16.182 -37.322  -3.468  1.00  0.00     0.062 A 
ATOM     18  C   UNL     1      17.446 -37.736  -3.022  1.00  0.00     0.158 A 
BRANCH  16  19
ATOM     19  O   UNL     1      18.808 -38.941  -1.415  1.00  0.00    -0.504 OA
ATOM     20  H   UNL     1      19.016 -39.046  -0.430  1.00  0.00     0.293 HD
ENDBRANCH  16  19
BRANCH  18  21
ATOM     21  O   UNL     1      18.579 -37.351  -3.740  1.00  0.00    -0.504 OA
ATOM     22  H   UNL     1      18.698 -36.407  -4.097  1.00  0.00     0.293 HD
ENDBRANCH  18  21
ENDBRANCH   3  13
BRANCH  10  23
ATOM     23  O   UNL     1       9.045 -36.474  -5.083  1.00  0.00    -0.507 OA
ATOM     24  H   UNL     1       8.544 -37.248  -4.656  1.00  0.00     0.293 HD
ENDBRANCH  10  23
BRANCH  11  25
ATOM     25  O   UNL     1      10.222 -32.315  -2.922  1.00  0.00    -0.508 OA
ATOM     26  H   UNL     1      10.313 -31.563  -3.592  1.00  0.00     0.293 HD
ENDBRANCH  11  25
ENDBRANCH   1   2
BRANCH   1  27
ATOM     27  C   UNL     1      12.699 -40.468  -4.170  1.00  0.00     0.339 C 
ATOM     28  C   UNL     1      12.599 -41.263  -5.493  1.00  0.00     0.214 C 
ATOM     29  O   UNL     1      13.445 -41.169  -3.185  1.00  0.00    -0.332 OA
ATOM     30  C   UNL     1      11.995 -42.650  -5.253  1.00  0.00     0.180 C 
ATOM     31  C   UNL     1      12.882 -42.436  -2.855  1.00  0.00     0.179 C 
ATOM     32  C   UNL     1      12.753 -43.364  -4.100  1.00  0.00     0.177 C 
BRANCH  28  33
ATOM     33  O   UNL     1      11.856 -40.562  -6.456  1.00  0.00    -0.384 OA
ATOM     34  H   UNL     1      11.051 -41.099  -6.684  1.00  0.00     0.211 HD
ENDBRANCH  28  33
BRANCH  30  35
ATOM     35  O   UNL     1      12.011 -43.381  -6.459  1.00  0.00    -0.387 OA
ATOM     36  H   UNL     1      12.684 -42.986  -7.074  1.00  0.00     0.211 HD
ENDBRANCH  30  35
BRANCH  31  37
ATOM     37  C   UNL     1      11.568 -42.293  -2.058  1.00  0.00     0.191 C 
BRANCH  37  38
ATOM     38  O   UNL     1      11.021 -43.561  -1.800  1.00  0.00    -0.394 OA
ATOM     39  H   UNL     1      10.044 -43.477  -1.928  1.00  0.00     0.210 HD
ENDBRANCH  37  38
ENDBRANCH  31  37
BRANCH  32  40
ATOM     40  O   UNL     1      14.017 -43.815  -4.536  1.00  0.00    -0.387 OA
ATOM     41  H   UNL     1      14.680 -43.615  -3.826  1.00  0.00     0.211 HD
ENDBRANCH  32  40
ENDBRANCH   1  27
TORSDOF 12
ENDMDL
MODEL 6
REMARK VINA RESULT:    -6.431      2.569      5.773
REMARK INTER + INTRA:         -10.749
REMARK INTER:                  -9.657
REMARK INTRA:                  -1.092
REMARK UNBOUND:                -1.310
REMARK SMILES O=c1c(O[C@@H]2O[C@@H](CO)[C@H](O)[C@H](O)[C@H]2O)c(-c2ccc(O)c(O)c2)oc2cc(O)cc(O)c12
REMARK SMILES IDX 4 1 3 2 16 3 25 4 2 5 26 6 1 7 33 8 27 9 31 10 28 11 30 12
REMARK SMILES IDX 17 13 18 14 19 15 20 16 24 17 22 18 21 19 23 21 32 23 29 25
REMARK SMILES IDX 5 27 14 28 6 29 12 30 7 31 10 32 15 33 13 35 8 37 9 38 11 40
REMARK H PARENT 21 20 23 22 32 24 29 26 15 34 13 36 9 39 11 41
REMARK Flexibility Score: inf
ROOT
ATOM      1  O   UNL     1      13.735 -37.616  -1.344  1.00  0.00    -0.454 OA
ENDROOT
BRANCH   1   2
ATOM      2  C   UNL     1      13.105 -38.295  -2.392  1.00  0.00     0.214 A 
ATOM      3  C   UNL     1      12.229 -37.631  -3.265  1.00  0.00     0.180 A 
ATOM      4  O   UNL     1      11.704 -38.276  -4.303  1.00  0.00    -0.452 OA
ATOM      5  C   UNL     1      13.375 -39.651  -2.599  1.00  0.00     0.239 A 
ATOM      6  C   UNL     1      11.966 -39.552  -4.568  1.00  0.00     0.146 A 
ATOM      7  O   UNL     1      14.139 -40.259  -1.797  1.00  0.00    -0.285 OA
ATOM      8  C   UNL     1      12.800 -40.311  -3.707  1.00  0.00     0.111 A 
ATOM      9  C   UNL     1      11.417 -40.141  -5.712  1.00  0.00     0.094 A 
ATOM     10  C   UNL     1      13.040 -41.674  -4.000  1.00  0.00     0.134 A 
ATOM     11  C   UNL     1      11.695 -41.477  -6.021  1.00  0.00     0.123 A 
ATOM     12  C   UNL     1      12.488 -42.241  -5.159  1.00  0.00     0.093 A 
BRANCH   3  13
ATOM     13  C   UNL     1      11.895 -36.215  -3.070  1.00  0.00     0.025 A 
ATOM     14  C   UNL     1      12.684 -35.218  -3.663  1.00  0.00     0.016 A 
ATOM     15  C   UNL     1      12.353 -33.871  -3.505  1.00  0.00     0.051 A 
ATOM     16  C   UNL     1      11.257 -33.502  -2.709  1.00  0.00     0.157 A 
ATOM     17  C   UNL     1      10.772 -35.852  -2.311  1.00  0.00     0.062 A 
ATOM     18  C   UNL     1      10.465 -34.499  -2.110  1.00  0.00     0.158 A 
BRANCH  16  19
ATOM     19  O   UNL     1      10.947 -32.157  -2.529  1.00  0.00    -0.504 OA
ATOM     20  H   UNL     1      11.614 -31.509  -2.127  1.00  0.00     0.293 HD
ENDBRANCH  16  19
BRANCH  18  21
ATOM     21  O   UNL     1       9.383 -34.162  -1.296  1.00  0.00    -0.504 OA
ATOM     22  H   UNL     1       9.415 -33.376  -0.651  1.00  0.00     0.293 HD
ENDBRANCH  18  21
ENDBRANCH   3  13
BRANCH  10  23
ATOM     23  O   UNL     1      13.809 -42.469  -3.143  1.00  0.00    -0.507 OA
ATOM     24  H   UNL     1      14.799 -42.628  -3.311  1.00  0.00     0.293 HD
ENDBRANCH  10  23
BRANCH  11  25
ATOM     25  O   UNL     1      11.191 -42.055  -7.184  1.00  0.00    -0.508 OA
ATOM     26  H   UNL     1      10.460 -42.753  -7.157  1.00  0.00     0.293 HD
ENDBRANCH  11  25
ENDBRANCH   1   2
BRANCH   1  27
ATOM     27  C   UNL     1      15.040 -37.054  -1.463  1.00  0.00     0.339 C 
ATOM     28  C   UNL     1      15.981 -37.865  -0.542  1.00  0.00     0.214 C 
ATOM     29  O   UNL     1      15.435 -37.131  -2.825  1.00  0.00    -0.332 OA
ATOM     30  C   UNL     1      17.433 -37.405  -0.703  1.00  0.00     0.180 C 
ATOM     31  C   UNL     1      16.751 -36.635  -3.054  1.00  0.00     0.179 C 
ATOM     32  C   UNL     1      17.819 -37.390  -2.208  1.00  0.00     0.177 C 
BRANCH  28  33
ATOM     33  O   UNL     1      15.583 -37.777   0.802  1.00  0.00    -0.384 OA
ATOM     34  H   UNL     1      16.134 -37.080   1.248  1.00  0.00     0.211 HD
ENDBRANCH  28  33
BRANCH  30  35
ATOM     35  O   UNL     1      18.273 -38.229   0.074  1.00  0.00    -0.387 OA
ATOM     36  H   UNL     1      18.214 -39.163  -0.257  1.00  0.00     0.211 HD
ENDBRANCH  30  35
BRANCH  31  37
ATOM     37  C   UNL     1      16.823 -35.100  -2.902  1.00  0.00     0.191 C 
BRANCH  37  38
ATOM     38  O   UNL     1      17.924 -34.597  -3.615  1.00  0.00    -0.394 OA
ATOM     39  H   UNL     1      18.454 -35.381  -3.902  1.00  0.00     0.210 HD
ENDBRANCH  37  38
ENDBRANCH  31  37
BRANCH  32  40
ATOM     40  O   UNL     1      18.016 -38.703  -2.687  1.00  0.00    -0.387 OA
ATOM     41  H   UNL     1      18.533 -39.207  -2.008  1.00  0.00     0.211 HD
ENDBRANCH  32  40
ENDBRANCH   1  27
TORSDOF 12
ENDMDL
MODEL 7
REMARK VINA RESULT:    -6.352      2.536      4.500
REMARK INTER + INTRA:         -10.633
REMARK INTER:                  -9.308
REMARK INTRA:                  -1.325
REMARK UNBOUND:                -1.310
REMARK SMILES O=c1c(O[C@@H]2O[C@@H](CO)[C@H](O)[C@H](O)[C@H]2O)c(-c2ccc(O)c(O)c2)oc2cc(O)cc(O)c12
REMARK SMILES IDX 4 1 3 2 16 3 25 4 2 5 26 6 1 7 33 8 27 9 31 10 28 11 30 12
REMARK SMILES IDX 17 13 18 14 19 15 20 16 24 17 22 18 21 19 23 21 32 23 29 25
REMARK SMILES IDX 5 27 14 28 6 29 12 30 7 31 10 32 15 33 13 35 8 37 9 38 11 40
REMARK H PARENT 21 20 23 22 32 24 29 26 15 34 13 36 9 39 11 41
REMARK Flexibility Score: inf
ROOT
ATOM      1  O   UNL     1      12.048 -37.054  -0.906  1.00  0.00    -0.454 OA
ENDROOT
BRANCH   1   2
ATOM      2  C   UNL     1      12.447 -38.070  -1.782  1.00  0.00     0.214 A 
ATOM      3  C   UNL     1      13.806 -38.358  -1.988  1.00  0.00     0.180 A 
ATOM      4  O   UNL     1      14.162 -39.381  -2.761  1.00  0.00    -0.452 OA
ATOM      5  C   UNL     1      11.481 -38.836  -2.439  1.00  0.00     0.239 A 
ATOM      6  C   UNL     1      13.279 -40.166  -3.371  1.00  0.00     0.146 A 
ATOM      7  O   UNL     1      10.258 -38.560  -2.280  1.00  0.00    -0.285 OA
ATOM      8  C   UNL     1      11.888 -39.912  -3.257  1.00  0.00     0.111 A 
ATOM      9  C   UNL     1      13.735 -41.255  -4.122  1.00  0.00     0.094 A 
ATOM     10  C   UNL     1      10.974 -40.750  -3.939  1.00  0.00     0.134 A 
ATOM     11  C   UNL     1      12.824 -42.106  -4.756  1.00  0.00     0.123 A 
ATOM     12  C   UNL     1      11.453 -41.843  -4.678  1.00  0.00     0.093 A 
BRANCH   3  13
ATOM     13  C   UNL     1      14.855 -37.562  -1.340  1.00  0.00     0.025 A 
ATOM     14  C   UNL     1      15.213 -37.821  -0.009  1.00  0.00     0.016 A 
ATOM     15  C   UNL     1      16.231 -37.086   0.603  1.00  0.00     0.051 A 
ATOM     16  C   UNL     1      16.870 -36.050  -0.096  1.00  0.00     0.157 A 
ATOM     17  C   UNL     1      15.523 -36.558  -2.056  1.00  0.00     0.062 A 
ATOM     18  C   UNL     1      16.513 -35.786  -1.431  1.00  0.00     0.158 A 
BRANCH  16  19
ATOM     19  O   UNL     1      17.865 -35.300   0.526  1.00  0.00    -0.504 OA
ATOM     20  H   UNL     1      17.847 -34.288   0.518  1.00  0.00     0.293 HD
ENDBRANCH  16  19
BRANCH  18  21
ATOM     21  O   UNL     1      17.115 -34.748  -2.142  1.00  0.00    -0.504 OA
ATOM     22  H   UNL     1      17.202 -33.810  -1.760  1.00  0.00     0.293 HD
ENDBRANCH  18  21
ENDBRANCH   3  13
BRANCH  10  23
ATOM     23  O   UNL     1       9.599 -40.496  -3.898  1.00  0.00    -0.507 OA
ATOM     24  H   UNL     1       9.105 -40.110  -4.700  1.00  0.00     0.293 HD
ENDBRANCH  10  23
BRANCH  11  25
ATOM     25  O   UNL     1      13.271 -43.220  -5.465  1.00  0.00    -0.508 OA
ATOM     26  H   UNL     1      13.464 -44.100  -5.006  1.00  0.00     0.293 HD
ENDBRANCH  11  25
ENDBRANCH   1   2
BRANCH   1  27
ATOM     27  C   UNL     1      11.826 -35.712  -1.332  1.00  0.00     0.339 C 
ATOM     28  C   UNL     1      12.737 -34.797  -0.481  1.00  0.00     0.214 C 
ATOM     29  O   UNL     1      12.134 -35.628  -2.716  1.00  0.00    -0.332 OA
ATOM     30  C   UNL     1      12.652 -33.344  -0.959  1.00  0.00     0.180 C 
ATOM     31  C   UNL     1      11.989 -34.310  -3.242  1.00  0.00     0.179 C 
ATOM     32  C   UNL     1      12.884 -33.278  -2.494  1.00  0.00     0.177 C 
BRANCH  28  33
ATOM     33  O   UNL     1      12.420 -34.886   0.884  1.00  0.00    -0.384 OA
ATOM     34  H   UNL     1      12.045 -34.012   1.176  1.00  0.00     0.211 HD
ENDBRANCH  28  33
BRANCH  30  35
ATOM     35  O   UNL     1      13.566 -32.558  -0.229  1.00  0.00    -0.387 OA
ATOM     36  H   UNL     1      14.354 -33.111   0.015  1.00  0.00     0.211 HD
ENDBRANCH  30  35
BRANCH  31  37
ATOM     37  C   UNL     1      10.507 -33.886  -3.331  1.00  0.00     0.191 C 
BRANCH  37  38
ATOM     38  O   UNL     1      10.401 -32.488  -3.243  1.00  0.00    -0.394 OA
ATOM     39  H   UNL     1       9.983 -32.184  -4.088  1.00  0.00     0.210 HD
ENDBRANCH  37  38
ENDBRANCH  31  37
BRANCH  32  40
ATOM     40  O   UNL     1      14.248 -33.466  -2.802  1.00  0.00    -0.387 OA
ATOM     41  H   UNL     1      14.342 -33.507  -3.788  1.00  0.00     0.211 HD
ENDBRANCH  32  40
ENDBRANCH   1  27
TORSDOF 12
ENDMDL
MODEL 8
REMARK VINA RESULT:    -6.300      2.290      7.587
REMARK INTER + INTRA:         -10.557
REMARK INTER:                  -9.318
REMARK INTRA:                  -1.239
REMARK UNBOUND:                -1.310
REMARK SMILES O=c1c(O[C@@H]2O[C@@H](CO)[C@H](O)[C@H](O)[C@H]2O)c(-c2ccc(O)c(O)c2)oc2cc(O)cc(O)c12
REMARK SMILES IDX 4 1 3 2 16 3 25 4 2 5 26 6 1 7 33 8 27 9 31 10 28 11 30 12
REMARK SMILES IDX 17 13 18 14 19 15 20 16 24 17 22 18 21 19 23 21 32 23 29 25
REMARK SMILES IDX 5 27 14 28 6 29 12 30 7 31 10 32 15 33 13 35 8 37 9 38 11 40
REMARK H PARENT 21 20 23 22 32 24 29 26 15 34 13 36 9 39 11 41
REMARK Flexibility Score: inf
ROOT
ATOM      1  O   UNL     1      13.497 -37.053  -3.854  1.00  0.00    -0.454 OA
ENDROOT
BRANCH   1   2
ATOM      2  C   UNL     1      14.303 -36.970  -2.713  1.00  0.00     0.214 A 
ATOM      3  C   UNL     1      14.035 -36.034  -1.702  1.00  0.00     0.180 A 
ATOM      4  O   UNL     1      14.763 -36.026  -0.589  1.00  0.00    -0.452 OA
ATOM      5  C   UNL     1      15.373 -37.855  -2.557  1.00  0.00     0.239 A 
ATOM      6  C   UNL     1      15.762 -36.877  -0.375  1.00  0.00     0.146 A 
ATOM      7  O   UNL     1      15.636 -38.678  -3.478  1.00  0.00    -0.285 OA
ATOM      8  C   UNL     1      16.132 -37.820  -1.367  1.00  0.00     0.111 A 
ATOM      9  C   UNL     1      16.444 -36.838   0.847  1.00  0.00     0.094 A 
ATOM     10  C   UNL     1      17.217 -38.695  -1.120  1.00  0.00     0.134 A 
ATOM     11  C   UNL     1      17.485 -37.737   1.102  1.00  0.00     0.123 A 
ATOM     12  C   UNL     1      17.879 -38.646   0.117  1.00  0.00     0.093 A 
BRANCH   3  13
ATOM     13  C   UNL     1      12.938 -35.068  -1.836  1.00  0.00     0.025 A 
ATOM     14  C   UNL     1      13.187 -33.789  -2.355  1.00  0.00     0.016 A 
ATOM     15  C   UNL     1      12.141 -32.876  -2.513  1.00  0.00     0.051 A 
ATOM     16  C   UNL     1      10.842 -33.216  -2.106  1.00  0.00     0.157 A 
ATOM     17  C   UNL     1      11.632 -35.427  -1.471  1.00  0.00     0.062 A 
ATOM     18  C   UNL     1      10.588 -34.497  -1.582  1.00  0.00     0.158 A 
BRANCH  16  19
ATOM     19  O   UNL     1       9.806 -32.294  -2.237  1.00  0.00    -0.504 OA
ATOM     20  H   UNL     1       9.949 -31.309  -2.053  1.00  0.00     0.293 HD
ENDBRANCH  16  19
BRANCH  18  21
ATOM     21  O   UNL     1       9.311 -34.855  -1.149  1.00  0.00    -0.504 OA
ATOM     22  H   UNL     1       9.158 -35.378  -0.291  1.00  0.00     0.293 HD
ENDBRANCH  18  21
ENDBRANCH   3  13
BRANCH  10  23
ATOM     23  O   UNL     1      17.648 -39.599  -2.097  1.00  0.00    -0.507 OA
ATOM     24  H   UNL     1      17.376 -39.498  -3.072  1.00  0.00     0.293 HD
ENDBRANCH  10  23
BRANCH  11  25
ATOM     25  O   UNL     1      18.136 -37.735   2.335  1.00  0.00    -0.508 OA
ATOM     26  H   UNL     1      19.081 -37.391   2.437  1.00  0.00     0.293 HD
ENDBRANCH  11  25
ENDBRANCH   1   2
BRANCH   1  27
ATOM     27  C   UNL     1      12.393 -37.948  -3.955  1.00  0.00     0.339 C 
ATOM     28  C   UNL     1      12.773 -39.044  -4.978  1.00  0.00     0.214 C 
ATOM     29  O   UNL     1      12.140 -38.491  -2.666  1.00  0.00    -0.332 OA
ATOM     30  C   UNL     1      11.686 -40.121  -5.055  1.00  0.00     0.180 C 
ATOM     31  C   UNL     1      11.077 -39.440  -2.658  1.00  0.00     0.179 C 
ATOM     32  C   UNL     1      11.343 -40.629  -3.627  1.00  0.00     0.177 C 
BRANCH  28  33
ATOM     33  O   UNL     1      13.015 -38.497  -6.248  1.00  0.00    -0.384 OA
ATOM     34  H   UNL     1      12.713 -37.550  -6.244  1.00  0.00     0.211 HD
ENDBRANCH  28  33
BRANCH  30  35
ATOM     35  O   UNL     1      12.110 -41.151  -5.920  1.00  0.00    -0.387 OA
ATOM     36  H   UNL     1      12.556 -41.863  -5.389  1.00  0.00     0.211 HD
ENDBRANCH  30  35
BRANCH  31  37
ATOM     37  C   UNL     1       9.703 -38.768  -2.874  1.00  0.00     0.191 C 
BRANCH  37  38
ATOM     38  O   UNL     1       9.395 -37.939  -1.783  1.00  0.00    -0.394 OA
ATOM     39  H   UNL     1      10.181 -37.353  -1.645  1.00  0.00     0.210 HD
ENDBRANCH  37  38
ENDBRANCH  31  37
BRANCH  32  40
ATOM     40  O   UNL     1      12.364 -41.470  -3.137  1.00  0.00    -0.387 OA
ATOM     41  H   UNL     1      12.650 -42.072  -3.870  1.00  0.00     0.211 HD
ENDBRANCH  32  40
ENDBRANCH   1  27
TORSDOF 12
ENDMDL
MODEL 9
REMARK VINA RESULT:    -6.237      2.302      6.505
REMARK INTER + INTRA:         -10.463
REMARK INTER:                  -9.733
REMARK INTRA:                  -0.730
REMARK UNBOUND:                -1.310
REMARK SMILES O=c1c(O[C@@H]2O[C@@H](CO)[C@H](O)[C@H](O)[C@H]2O)c(-c2ccc(O)c(O)c2)oc2cc(O)cc(O)c12
REMARK SMILES IDX 4 1 3 2 16 3 25 4 2 5 26 6 1 7 33 8 27 9 31 10 28 11 30 12
REMARK SMILES IDX 17 13 18 14 19 15 20 16 24 17 22 18 21 19 23 21 32 23 29 25
REMARK SMILES IDX 5 27 14 28 6 29 12 30 7 31 10 32 15 33 13 35 8 37 9 38 11 40
REMARK H PARENT 21 20 23 22 32 24 29 26 15 34 13 36 9 39 11 41
REMARK Flexibility Score: inf
ROOT
ATOM      1  O   UNL     1      13.603 -35.890  -2.525  1.00  0.00    -0.454 OA
ENDROOT
BRANCH   1   2
ATOM      2  C   UNL     1      14.490 -36.539  -1.660  1.00  0.00     0.214 A 
ATOM      3  C   UNL     1      14.782 -37.905  -1.811  1.00  0.00     0.180 A 
ATOM      4  O   UNL     1      15.689 -38.484  -1.029  1.00  0.00    -0.452 OA
ATOM      5  C   UNL     1      15.126 -35.815  -0.648  1.00  0.00     0.239 A 
ATOM      6  C   UNL     1      16.353 -37.826  -0.084  1.00  0.00     0.146 A 
ATOM      7  O   UNL     1      14.843 -34.593  -0.490  1.00  0.00    -0.285 OA
ATOM      8  C   UNL     1      16.081 -36.457   0.169  1.00  0.00     0.111 A 
ATOM      9  C   UNL     1      17.331 -38.496   0.659  1.00  0.00     0.094 A 
ATOM     10  C   UNL     1      16.785 -35.791   1.200  1.00  0.00     0.134 A 
ATOM     11  C   UNL     1      18.056 -37.819   1.645  1.00  0.00     0.123 A 
ATOM     12  C   UNL     1      17.771 -36.480   1.924  1.00  0.00     0.093 A 
BRANCH   3  13
ATOM     13  C   UNL     1      14.118 -38.711  -2.841  1.00  0.00     0.025 A 
ATOM     14  C   UNL     1      13.796 -40.053  -2.586  1.00  0.00     0.016 A 
ATOM     15  C   UNL     1      13.137 -40.815  -3.553  1.00  0.00     0.051 A 
ATOM     16  C   UNL     1      12.837 -40.259  -4.806  1.00  0.00     0.157 A 
ATOM     17  C   UNL     1      13.778 -38.138  -4.076  1.00  0.00     0.062 A 
ATOM     18  C   UNL     1      13.161 -38.915  -5.068  1.00  0.00     0.158 A 
BRANCH  16  19
ATOM     19  O   UNL     1      12.206 -41.031  -5.779  1.00  0.00    -0.504 OA
ATOM     20  H   UNL     1      11.926 -41.986  -5.597  1.00  0.00     0.293 HD
ENDBRANCH  16  19
BRANCH  18  21
ATOM     21  O   UNL     1      12.895 -38.342  -6.311  1.00  0.00    -0.504 OA
ATOM     22  H   UNL     1      12.253 -38.767  -6.976  1.00  0.00     0.293 HD
ENDBRANCH  18  21
ENDBRANCH   3  13
BRANCH  10  23
ATOM     23  O   UNL     1      16.503 -34.457   1.517  1.00  0.00    -0.507 OA
ATOM     24  H   UNL     1      16.854 -33.690   0.949  1.00  0.00     0.293 HD
ENDBRANCH  10  23
BRANCH  11  25
ATOM     25  O   UNL     1      19.065 -38.469   2.354  1.00  0.00    -0.508 OA
ATOM     26  H   UNL     1      18.861 -39.056   3.151  1.00  0.00     0.293 HD
ENDBRANCH  11  25
ENDBRANCH   1   2
BRANCH   1  27
ATOM     27  C   UNL     1      12.303 -35.467  -2.122  1.00  0.00     0.339 C 
ATOM     28  C   UNL     1      12.074 -34.050  -2.699  1.00  0.00     0.214 C 
ATOM     29  O   UNL     1      11.357 -36.402  -2.620  1.00  0.00    -0.332 OA
ATOM     30  C   UNL     1      10.648 -33.569  -2.416  1.00  0.00     0.180 C 
ATOM     31  C   UNL     1      10.010 -36.051  -2.311  1.00  0.00     0.179 C 
ATOM     32  C   UNL     1       9.626 -34.648  -2.867  1.00  0.00     0.177 C 
BRANCH  28  33
ATOM     33  O   UNL     1      13.012 -33.135  -2.196  1.00  0.00    -0.384 OA
ATOM     34  H   UNL     1      13.592 -32.836  -2.947  1.00  0.00     0.211 HD
ENDBRANCH  28  33
BRANCH  30  35
ATOM     35  O   UNL     1      10.444 -32.321  -3.040  1.00  0.00    -0.387 OA
ATOM     36  H   UNL     1      11.072 -32.229  -3.803  1.00  0.00     0.211 HD
ENDBRANCH  30  35
BRANCH  31  37
ATOM     37  C   UNL     1       9.700 -36.221  -0.808  1.00  0.00     0.191 C 
BRANCH  37  38
ATOM     38  O   UNL     1       9.901 -37.557  -0.423  1.00  0.00    -0.394 OA
ATOM     39  H   UNL     1      10.867 -37.650  -0.229  1.00  0.00     0.210 HD
ENDBRANCH  37  38
ENDBRANCH  31  37
BRANCH  32  40
ATOM     40  O   UNL     1       9.509 -34.669  -4.273  1.00  0.00    -0.387 OA
ATOM     41  H   UNL     1       8.805 -34.023  -4.536  1.00  0.00     0.211 HD
ENDBRANCH  32  40
ENDBRANCH   1  27
TORSDOF 12
ENDMDL
