MODEL 1
REMARK VINA RESULT:     3.803      0.000      0.000
REMARK INTER + INTRA:           3.914
REMARK INTER:                   3.914
REMARK INTRA:                   0.000
REMARK UNBOUND:                 0.000
REMARK SMILES O=c1ccc2cc(O)ccc2o1
REMARK SMILES IDX 9 1 10 2 11 3 5 4 4 5 3 6 2 7 1 8 12 9 6 10 7 11 8 12
REMARK H PARENT 8 13
REMARK Flexibility Score: inf
ROOT
ATOM      1  C   UNL     1      -6.123  -3.214  21.165  1.00  0.00     0.050 A 
ATOM      2  C   UNL     1      -6.627  -4.328  21.845  1.00  0.00     0.052 A 
ATOM      3  C   UNL     1      -7.444  -5.246  21.178  1.00  0.00     0.138 A 
ATOM      4  C   UNL     1      -7.760  -5.044  19.816  1.00  0.00     0.021 A 
ATOM      5  C   UNL     1      -8.579  -5.978  19.176  1.00  0.00     0.019 A 
ATOM      6  C   UNL     1      -9.057  -7.074  19.893  1.00  0.00     0.094 A 
ATOM      7  C   UNL     1      -8.703  -7.210  21.240  1.00  0.00     0.336 A 
ATOM      8  O   UNL     1      -9.125  -8.193  21.905  1.00  0.00    -0.246 OA
ATOM      9  O   UNL     1      -7.922  -6.306  21.826  1.00  0.00    -0.423 OA
ATOM     10  C   UNL     1      -7.253  -3.925  19.139  1.00  0.00     0.058 A 
ATOM     11  C   UNL     1      -6.434  -3.009  19.815  1.00  0.00     0.116 A 
ENDROOT
BRANCH  11  12
ATOM     12  O   UNL     1      -5.923  -1.893  19.156  1.00  0.00    -0.508 OA
ATOM     13  H   UNL     1      -4.995  -1.540  19.355  1.00  0.00     0.293 HD
ENDBRANCH  11  12
TORSDOF 1
ENDMDL
MODEL 2
REMARK VINA RESULT:     4.979      1.442      4.273
REMARK INTER + INTRA:           5.125
REMARK INTER:                   5.125
REMARK INTRA:                   0.000
REMARK UNBOUND:                 0.000
REMARK SMILES O=c1ccc2cc(O)ccc2o1
REMARK SMILES IDX 9 1 10 2 11 3 5 4 4 5 3 6 2 7 1 8 12 9 6 10 7 11 8 12
REMARK H PARENT 8 13
REMARK Flexibility Score: inf
ROOT
ATOM      1  C   UNL     1      -8.747  -6.920  21.127  1.00  0.00     0.050 A 
ATOM      2  C   UNL     1      -8.243  -5.782  21.765  1.00  0.00     0.052 A 
ATOM      3  C   UNL     1      -7.605  -4.786  21.020  1.00  0.00     0.138 A 
ATOM      4  C   UNL     1      -7.471  -4.931  19.622  1.00  0.00     0.021 A 
ATOM      5  C   UNL     1      -6.827  -3.919  18.904  1.00  0.00     0.019 A 
ATOM      6  C   UNL     1      -6.341  -2.802  19.583  1.00  0.00     0.094 A 
ATOM      7  C   UNL     1      -6.510  -2.725  20.969  1.00  0.00     0.336 A 
ATOM      8  O   UNL     1      -6.078  -1.724  21.600  1.00  0.00    -0.246 OA
ATOM      9  O   UNL     1      -7.126  -3.702  21.629  1.00  0.00    -0.423 OA
ATOM     10  C   UNL     1      -7.978  -6.074  18.986  1.00  0.00     0.058 A 
ATOM     11  C   UNL     1      -8.616  -7.070  19.740  1.00  0.00     0.116 A 
ENDROOT
BRANCH  11  12
ATOM     12  O   UNL     1      -9.125  -8.211  19.123  1.00  0.00    -0.508 OA
ATOM     13  H   UNL     1      -9.965  -8.665  19.460  1.00  0.00     0.293 HD
ENDBRANCH  11  12
TORSDOF 1
ENDMDL
MODEL 3
REMARK VINA RESULT:     5.781      2.256      4.938
REMARK INTER + INTRA:           5.950
REMARK INTER:                   5.950
REMARK INTRA:                   0.000
REMARK UNBOUND:                 0.000
REMARK SMILES O=c1ccc2cc(O)ccc2o1
REMARK SMILES IDX 9 1 10 2 11 3 5 4 4 5 3 6 2 7 1 8 12 9 6 10 7 11 8 12
REMARK H PARENT 8 13
REMARK Flexibility Score: inf
ROOT
ATOM      1  C   UNL     1      -8.310  -7.388  24.634  1.00  0.00     0.050 A 
ATOM      2  C   UNL     1      -8.046  -6.356  23.727  1.00  0.00     0.052 A 
ATOM      3  C   UNL     1      -8.319  -6.531  22.367  1.00  0.00     0.138 A 
ATOM      4  C   UNL     1      -8.862  -7.753  21.912  1.00  0.00     0.021 A 
ATOM      5  C   UNL     1      -9.125  -7.898  20.547  1.00  0.00     0.019 A 
ATOM      6  C   UNL     1      -8.847  -6.842  19.680  1.00  0.00     0.094 A 
ATOM      7  C   UNL     1      -8.310  -5.661  20.202  1.00  0.00     0.336 A 
ATOM      8  O   UNL     1      -8.051  -4.696  19.435  1.00  0.00    -0.246 OA
ATOM      9  O   UNL     1      -8.069  -5.547  21.505  1.00  0.00    -0.423 OA
ATOM     10  C   UNL     1      -9.125  -8.785  22.825  1.00  0.00     0.058 A 
ATOM     11  C   UNL     1      -8.848  -8.602  24.188  1.00  0.00     0.116 A 
ENDROOT
BRANCH  11  12
ATOM     12  O   UNL     1      -9.103  -9.617  25.107  1.00  0.00    -0.508 OA
ATOM     13  H   UNL     1      -9.850 -10.285  24.963  1.00  0.00     0.293 HD
ENDBRANCH  11  12
TORSDOF 1
ENDMDL
MODEL 4
REMARK VINA RESULT:     6.409      2.261      3.835
REMARK INTER + INTRA:           6.597
REMARK INTER:                   6.597
REMARK INTRA:                   0.000
REMARK UNBOUND:                 0.000
REMARK SMILES O=c1ccc2cc(O)ccc2o1
REMARK SMILES IDX 9 1 10 2 11 3 5 4 4 5 3 6 2 7 1 8 12 9 6 10 7 11 8 12
REMARK H PARENT 8 13
REMARK Flexibility Score: inf
ROOT
ATOM      1  C   UNL     1      -8.891  -7.290  19.610  1.00  0.00     0.050 A 
ATOM      2  C   UNL     1      -9.125  -8.201  20.645  1.00  0.00     0.052 A 
ATOM      3  C   UNL     1      -8.872  -7.835  21.971  1.00  0.00     0.138 A 
ATOM      4  C   UNL     1      -8.378  -6.544  22.261  1.00  0.00     0.021 A 
ATOM      5  C   UNL     1      -8.134  -6.207  23.595  1.00  0.00     0.019 A 
ATOM      6  C   UNL     1      -8.383  -7.147  24.595  1.00  0.00     0.094 A 
ATOM      7  C   UNL     1      -8.872  -8.407  24.233  1.00  0.00     0.336 A 
ATOM      8  O   UNL     1      -9.104  -9.270  25.121  1.00  0.00    -0.246 OA
ATOM      9  O   UNL     1      -9.096  -8.703  22.955  1.00  0.00    -0.423 OA
ATOM     10  C   UNL     1      -8.144  -5.634  21.219  1.00  0.00     0.058 A 
ATOM     11  C   UNL     1      -8.401  -6.009  19.891  1.00  0.00     0.116 A 
ENDROOT
BRANCH  11  12
ATOM     12  O   UNL     1      -8.173  -5.116  18.846  1.00  0.00    -0.508 OA
ATOM     13  H   UNL     1      -7.244  -4.962  18.475  1.00  0.00     0.293 HD
ENDBRANCH  11  12
TORSDOF 1
ENDMDL
MODEL 5
REMARK VINA RESULT:     6.746      1.929      2.670
REMARK INTER + INTRA:           6.943
REMARK INTER:                   6.943
REMARK INTRA:                   0.000
REMARK UNBOUND:                 0.000
REMARK SMILES O=c1ccc2cc(O)ccc2o1
REMARK SMILES IDX 9 1 10 2 11 3 5 4 4 5 3 6 2 7 1 8 12 9 6 10 7 11 8 12
REMARK H PARENT 8 13
REMARK Flexibility Score: inf
ROOT
ATOM      1  C   UNL     1      -7.336  -4.472  20.259  1.00  0.00     0.050 A 
ATOM      2  C   UNL     1      -7.359  -4.769  21.626  1.00  0.00     0.052 A 
ATOM      3  C   UNL     1      -7.954  -5.951  22.077  1.00  0.00     0.138 A 
ATOM      4  C   UNL     1      -8.531  -6.845  21.148  1.00  0.00     0.021 A 
ATOM      5  C   UNL     1      -9.119  -8.019  21.628  1.00  0.00     0.019 A 
ATOM      6  C   UNL     1      -9.118  -8.273  22.999  1.00  0.00     0.094 A 
ATOM      7  C   UNL     1      -8.527  -7.343  23.861  1.00  0.00     0.336 A 
ATOM      8  O   UNL     1      -8.517  -7.554  25.102  1.00  0.00    -0.246 OA
ATOM      9  O   UNL     1      -7.975  -6.232  23.378  1.00  0.00    -0.423 OA
ATOM     10  C   UNL     1      -8.505  -6.543  19.778  1.00  0.00     0.058 A 
ATOM     11  C   UNL     1      -7.907  -5.355  19.334  1.00  0.00     0.116 A 
ENDROOT
BRANCH  11  12
ATOM     12  O   UNL     1      -7.874  -5.042  17.977  1.00  0.00    -0.508 OA
ATOM     13  H   UNL     1      -8.182  -4.140  17.634  1.00  0.00     0.293 HD
ENDBRANCH  11  12
TORSDOF 1
ENDMDL
