MODEL 1
REMARK VINA RESULT:    -3.921      0.000      0.000
REMARK INTER + INTRA:          -4.036
REMARK INTER:                  -4.036
REMARK INTRA:                   0.000
REMARK UNBOUND:                 0.000
REMARK SMILES Nc1ncnc2nc[nH]c12
REMARK SMILES IDX 8 1 7 2 6 3 5 4 4 5 3 6 2 7 10 8 9 9 1 11
REMARK H PARENT 9 10 1 12 1 13
REMARK Flexibility Score: inf
ROOT
ATOM      1  C   UNL     1       5.222 -14.948  12.379  1.00  0.00     0.199 A 
ATOM      2  N   UNL     1       4.530 -15.865  11.648  1.00  0.00    -0.217 NA
ATOM      3  C   UNL     1       4.612 -15.360  10.405  1.00  0.00     0.182 A 
ATOM      4  N   UNL     1       4.081 -15.895   9.280  1.00  0.00    -0.215 NA
ATOM      5  C   UNL     1       4.271 -15.232   8.099  1.00  0.00     0.226 A 
ATOM      6  N   UNL     1       4.980 -14.058   8.066  1.00  0.00    -0.217 NA
ATOM      7  C   UNL     1       5.516 -13.518   9.201  1.00  0.00     0.152 A 
ATOM      8  C   UNL     1       5.314 -14.204  10.395  1.00  0.00     0.127 A 
ATOM      9  N   UNL     1       5.713 -13.920  11.641  1.00  0.00    -0.340 N 
ATOM     10  H   UNL     1       6.271 -13.106  11.977  1.00  0.00     0.168 HD
ENDROOT
BRANCH   7  11
ATOM     11  N   UNL     1       6.251 -12.294   9.142  1.00  0.00    -0.382 N 
ATOM     12  H   UNL     1       6.767 -12.011   8.280  1.00  0.00     0.158 HD
ATOM     13  H   UNL     1       6.280 -11.662   9.971  1.00  0.00     0.158 HD
ENDBRANCH   7  11
TORSDOF 1
ENDMDL
MODEL 2
REMARK VINA RESULT:    -3.891      2.658      4.652
REMARK INTER + INTRA:          -4.005
REMARK INTER:                  -4.005
REMARK INTRA:                   0.000
REMARK UNBOUND:                 0.000
REMARK SMILES Nc1ncnc2nc[nH]c12
REMARK SMILES IDX 8 1 7 2 6 3 5 4 4 5 3 6 2 7 10 8 9 9 1 11
REMARK H PARENT 9 10 1 12 1 13
REMARK Flexibility Score: inf
ROOT
ATOM      1  C   UNL     1       6.164  -9.609   7.166  1.00  0.00     0.199 A 
ATOM      2  N   UNL     1       5.459 -10.212   6.170  1.00  0.00    -0.217 NA
ATOM      3  C   UNL     1       5.299 -11.458   6.648  1.00  0.00     0.182 A 
ATOM      4  N   UNL     1       4.655 -12.481   6.037  1.00  0.00    -0.215 NA
ATOM      5  C   UNL     1       4.596 -13.684   6.684  1.00  0.00     0.226 A 
ATOM      6  N   UNL     1       5.177 -13.842   7.916  1.00  0.00    -0.217 NA
ATOM      7  C   UNL     1       5.827 -12.810   8.534  1.00  0.00     0.152 A 
ATOM      8  C   UNL     1       5.879 -11.591   7.863  1.00  0.00     0.127 A 
ATOM      9  N   UNL     1       6.437 -10.427   8.214  1.00  0.00    -0.340 N 
ATOM     10  H   UNL     1       6.960 -10.191   9.085  1.00  0.00     0.168 HD
ENDROOT
BRANCH   7  11
ATOM     11  N   UNL     1       6.425 -12.998   9.818  1.00  0.00    -0.382 N 
ATOM     12  H   UNL     1       7.388 -12.652  10.025  1.00  0.00     0.158 HD
ATOM     13  H   UNL     1       5.897 -13.488  10.573  1.00  0.00     0.158 HD
ENDBRANCH   7  11
TORSDOF 1
ENDMDL
MODEL 3
REMARK VINA RESULT:    -3.886      2.741      3.885
REMARK INTER + INTRA:          -4.000
REMARK INTER:                  -4.000
REMARK INTRA:                   0.000
REMARK UNBOUND:                 0.000
REMARK SMILES Nc1ncnc2nc[nH]c12
REMARK SMILES IDX 8 1 7 2 6 3 5 4 4 5 3 6 2 7 10 8 9 9 1 11
REMARK H PARENT 9 10 1 12 1 13
REMARK Flexibility Score: inf
ROOT
ATOM      1  C   UNL     1       5.559 -13.386   9.444  1.00  0.00     0.199 A 
ATOM      2  N   UNL     1       4.245 -13.219   9.131  1.00  0.00    -0.217 NA
ATOM      3  C   UNL     1       4.256 -12.049   8.470  1.00  0.00     0.182 A 
ATOM      4  N   UNL     1       3.186 -11.414   7.933  1.00  0.00    -0.215 NA
ATOM      5  C   UNL     1       3.397 -10.223   7.295  1.00  0.00     0.226 A 
ATOM      6  N   UNL     1       4.659  -9.693   7.207  1.00  0.00    -0.217 NA
ATOM      7  C   UNL     1       5.738 -10.333   7.748  1.00  0.00     0.152 A 
ATOM      8  C   UNL     1       5.509 -11.544   8.395  1.00  0.00     0.127 A 
ATOM      9  N   UNL     1       6.356 -12.378   9.009  1.00  0.00    -0.340 N 
ATOM     10  H   UNL     1       7.388 -12.287   9.129  1.00  0.00     0.168 HD
ENDROOT
BRANCH   7  11
ATOM     11  N   UNL     1       7.044  -9.762   7.644  1.00  0.00    -0.382 N 
ATOM     12  H   UNL     1       7.631  -9.589   8.489  1.00  0.00     0.158 HD
ATOM     13  H   UNL     1       7.430  -9.509   6.708  1.00  0.00     0.158 HD
ENDBRANCH   7  11
TORSDOF 1
ENDMDL
MODEL 4
REMARK VINA RESULT:    -3.855      1.097      3.032
REMARK INTER + INTRA:          -3.968
REMARK INTER:                  -3.968
REMARK INTRA:                   0.000
REMARK UNBOUND:                 0.000
REMARK SMILES Nc1ncnc2nc[nH]c12
REMARK SMILES IDX 8 1 7 2 6 3 5 4 4 5 3 6 2 7 10 8 9 9 1 11
REMARK H PARENT 9 10 1 12 1 13
REMARK Flexibility Score: inf
ROOT
ATOM      1  C   UNL     1       6.016 -13.007   9.012  1.00  0.00     0.199 A 
ATOM      2  N   UNL     1       4.922 -13.641   8.508  1.00  0.00    -0.217 NA
ATOM      3  C   UNL     1       4.518 -14.386   9.550  1.00  0.00     0.182 A 
ATOM      4  N   UNL     1       3.452 -15.221   9.581  1.00  0.00    -0.215 NA
ATOM      5  C   UNL     1       3.198 -15.900  10.741  1.00  0.00     0.226 A 
ATOM      6  N   UNL     1       4.006 -15.734  11.837  1.00  0.00    -0.217 NA
ATOM      7  C   UNL     1       5.082 -14.892  11.807  1.00  0.00     0.152 A 
ATOM      8  C   UNL     1       5.328 -14.208  10.619  1.00  0.00     0.127 A 
ATOM      9  N   UNL     1       6.290 -13.334  10.301  1.00  0.00    -0.340 N 
ATOM     10  H   UNL     1       7.071 -12.978  10.894  1.00  0.00     0.168 HD
ENDROOT
BRANCH   7  11
ATOM     11  N   UNL     1       5.909 -14.734  12.961  1.00  0.00    -0.382 N 
ATOM     12  H   UNL     1       6.611 -13.964  13.025  1.00  0.00     0.158 HD
ATOM     13  H   UNL     1       5.819 -15.397  13.762  1.00  0.00     0.158 HD
ENDBRANCH   7  11
TORSDOF 1
ENDMDL
MODEL 5
REMARK VINA RESULT:    -3.800      1.986      2.849
REMARK INTER + INTRA:          -3.911
REMARK INTER:                  -3.911
REMARK INTRA:                   0.000
REMARK UNBOUND:                 0.000
REMARK SMILES Nc1ncnc2nc[nH]c12
REMARK SMILES IDX 8 1 7 2 6 3 5 4 4 5 3 6 2 7 10 8 9 9 1 11
REMARK H PARENT 9 10 1 12 1 13
REMARK Flexibility Score: inf
ROOT
ATOM      1  C   UNL     1       3.311 -13.690  13.976  1.00  0.00     0.199 A 
ATOM      2  N   UNL     1       2.969 -15.008  13.970  1.00  0.00    -0.217 NA
ATOM      3  C   UNL     1       3.693 -15.486  12.944  1.00  0.00     0.182 A 
ATOM      4  N   UNL     1       3.721 -16.766  12.502  1.00  0.00    -0.215 NA
ATOM      5  C   UNL     1       4.525 -17.063  11.437  1.00  0.00     0.226 A 
ATOM      6  N   UNL     1       5.278 -16.085  10.838  1.00  0.00    -0.217 NA
ATOM      7  C   UNL     1       5.250 -14.793  11.282  1.00  0.00     0.152 A 
ATOM      8  C   UNL     1       4.427 -14.506  12.368  1.00  0.00     0.127 A 
ATOM      9  N   UNL     1       4.200 -13.353  13.008  1.00  0.00    -0.340 N 
ATOM     10  H   UNL     1       4.606 -12.411  12.818  1.00  0.00     0.168 HD
ENDROOT
BRANCH   7  11
ATOM     11  N   UNL     1       6.043 -13.791  10.643  1.00  0.00    -0.382 N 
ATOM     12  H   UNL     1       6.784 -14.043   9.954  1.00  0.00     0.158 HD
ATOM     13  H   UNL     1       5.886 -12.783  10.862  1.00  0.00     0.158 HD
ENDBRANCH   7  11
TORSDOF 1
ENDMDL
MODEL 6
REMARK VINA RESULT:    -3.778     10.588     11.626
REMARK INTER + INTRA:          -3.889
REMARK INTER:                  -3.889
REMARK INTRA:                   0.000
REMARK UNBOUND:                 0.000
REMARK SMILES Nc1ncnc2nc[nH]c12
REMARK SMILES IDX 8 1 7 2 6 3 5 4 4 5 3 6 2 7 10 8 9 9 1 11
REMARK H PARENT 9 10 1 12 1 13
REMARK Flexibility Score: inf
ROOT
ATOM      1  C   UNL     1      10.548 -25.855   4.812  1.00  0.00     0.199 A 
ATOM      2  N   UNL     1      10.132 -24.919   3.915  1.00  0.00    -0.217 NA
ATOM      3  C   UNL     1       9.830 -23.878   4.709  1.00  0.00     0.182 A 
ATOM      4  N   UNL     1       9.362 -22.669   4.314  1.00  0.00    -0.215 NA
ATOM      5  C   UNL     1       9.111 -21.730   5.275  1.00  0.00     0.226 A 
ATOM      6  N   UNL     1       9.329 -22.011   6.599  1.00  0.00    -0.217 NA
ATOM      7  C   UNL     1       9.801 -23.230   6.999  1.00  0.00     0.152 A 
ATOM      8  C   UNL     1      10.052 -24.176   6.010  1.00  0.00     0.127 A 
ATOM      9  N   UNL     1      10.509 -25.431   6.101  1.00  0.00    -0.340 N 
ATOM     10  H   UNL     1      10.778 -25.967   6.954  1.00  0.00     0.168 HD
ENDROOT
BRANCH   7  11
ATOM     11  N   UNL     1      10.022 -23.501   8.385  1.00  0.00    -0.382 N 
ATOM     12  H   UNL     1       9.822 -24.440   8.793  1.00  0.00     0.158 HD
ATOM     13  H   UNL     1      10.390 -22.752   9.011  1.00  0.00     0.158 HD
ENDBRANCH   7  11
TORSDOF 1
ENDMDL
MODEL 7
REMARK VINA RESULT:    -3.759     11.493     12.806
REMARK INTER + INTRA:          -3.869
REMARK INTER:                  -3.869
REMARK INTRA:                   0.000
REMARK UNBOUND:                 0.000
REMARK SMILES Nc1ncnc2nc[nH]c12
REMARK SMILES IDX 8 1 7 2 6 3 5 4 4 5 3 6 2 7 10 8 9 9 1 11
REMARK H PARENT 9 10 1 12 1 13
REMARK Flexibility Score: inf
ROOT
ATOM      1  C   UNL     1       6.740 -25.004   7.997  1.00  0.00     0.199 A 
ATOM      2  N   UNL     1       5.940 -24.935   6.898  1.00  0.00    -0.217 NA
ATOM      3  C   UNL     1       5.201 -26.051   7.013  1.00  0.00     0.182 A 
ATOM      4  N   UNL     1       4.232 -26.469   6.164  1.00  0.00    -0.215 NA
ATOM      5  C   UNL     1       3.585 -27.640   6.450  1.00  0.00     0.226 A 
ATOM      6  N   UNL     1       3.915 -28.363   7.568  1.00  0.00    -0.217 NA
ATOM      7  C   UNL     1       4.892 -27.942   8.425  1.00  0.00     0.152 A 
ATOM      8  C   UNL     1       5.542 -26.749   8.121  1.00  0.00     0.127 A 
ATOM      9  N   UNL     1       6.521 -26.102   8.764  1.00  0.00    -0.340 N 
ATOM     10  H   UNL     1       7.008 -26.367   9.648  1.00  0.00     0.168 HD
ENDROOT
BRANCH   7  11
ATOM     11  N   UNL     1       5.218 -28.711   9.584  1.00  0.00    -0.382 N 
ATOM     12  H   UNL     1       5.472 -29.721   9.512  1.00  0.00     0.158 HD
ATOM     13  H   UNL     1       5.207 -28.265  10.527  1.00  0.00     0.158 HD
ENDBRANCH   7  11
TORSDOF 1
ENDMDL
MODEL 8
REMARK VINA RESULT:    -3.749     11.934     12.961
REMARK INTER + INTRA:          -3.858
REMARK INTER:                  -3.858
REMARK INTRA:                   0.000
REMARK UNBOUND:                 0.000
REMARK SMILES Nc1ncnc2nc[nH]c12
REMARK SMILES IDX 8 1 7 2 6 3 5 4 4 5 3 6 2 7 10 8 9 9 1 11
REMARK H PARENT 9 10 1 12 1 13
REMARK Flexibility Score: inf
ROOT
ATOM      1  C   UNL     1      15.606 -15.821  16.581  1.00  0.00     0.199 A 
ATOM      2  N   UNL     1      15.560 -15.961  17.934  1.00  0.00    -0.217 NA
ATOM      3  C   UNL     1      14.975 -17.163  18.077  1.00  0.00     0.182 A 
ATOM      4  N   UNL     1      14.689 -17.788  19.244  1.00  0.00    -0.215 NA
ATOM      5  C   UNL     1      14.088 -19.015  19.187  1.00  0.00     0.226 A 
ATOM      6  N   UNL     1      13.785 -19.588  17.978  1.00  0.00    -0.217 NA
ATOM      7  C   UNL     1      14.074 -18.958  16.800  1.00  0.00     0.152 A 
ATOM      8  C   UNL     1      14.686 -17.709  16.874  1.00  0.00     0.127 A 
ATOM      9  N   UNL     1      15.078 -16.873  15.905  1.00  0.00    -0.340 N 
ATOM     10  H   UNL     1      15.003 -16.991  14.871  1.00  0.00     0.168 HD
ENDROOT
BRANCH   7  11
ATOM     11  N   UNL     1      13.750 -19.574  15.552  1.00  0.00    -0.382 N 
ATOM     12  H   UNL     1      13.814 -19.047  14.654  1.00  0.00     0.158 HD
ATOM     13  H   UNL     1      13.443 -20.571  15.527  1.00  0.00     0.158 HD
ENDBRANCH   7  11
TORSDOF 1
ENDMDL
MODEL 9
REMARK VINA RESULT:    -3.714     13.510     15.018
REMARK INTER + INTRA:          -3.822
REMARK INTER:                  -3.822
REMARK INTRA:                   0.000
REMARK UNBOUND:                 0.000
REMARK SMILES Nc1ncnc2nc[nH]c12
REMARK SMILES IDX 8 1 7 2 6 3 5 4 4 5 3 6 2 7 10 8 9 9 1 11
REMARK H PARENT 9 10 1 12 1 13
REMARK Flexibility Score: inf
ROOT
ATOM      1  C   UNL     1      14.913 -19.584  16.279  1.00  0.00     0.199 A 
ATOM      2  N   UNL     1      16.149 -19.662  16.843  1.00  0.00    -0.217 NA
ATOM      3  C   UNL     1      16.143 -20.896  17.375  1.00  0.00     0.182 A 
ATOM      4  N   UNL     1      17.151 -21.485  18.062  1.00  0.00    -0.215 NA
ATOM      5  C   UNL     1      16.956 -22.755  18.530  1.00  0.00     0.226 A 
ATOM      6  N   UNL     1      15.771 -23.407  18.305  1.00  0.00    -0.217 NA
ATOM      7  C   UNL     1      14.753 -22.814  17.612  1.00  0.00     0.152 A 
ATOM      8  C   UNL     1      14.966 -21.521  17.142  1.00  0.00     0.127 A 
ATOM      9  N   UNL     1      14.165 -20.705  16.446  1.00  0.00    -0.340 N 
ATOM     10  H   UNL     1      13.195 -20.878  16.104  1.00  0.00     0.168 HD
ENDROOT
BRANCH   7  11
ATOM     11  N   UNL     1      13.527 -23.513  17.389  1.00  0.00    -0.382 N 
ATOM     12  H   UNL     1      12.604 -23.061  17.570  1.00  0.00     0.158 HD
ATOM     13  H   UNL     1      13.542 -24.495  17.037  1.00  0.00     0.158 HD
ENDBRANCH   7  11
TORSDOF 1
ENDMDL
