MODEL 1
REMARK VINA RESULT:    -3.978      0.000      0.000
REMARK INTER + INTRA:          -7.504
REMARK INTER:                  -6.303
REMARK INTRA:                  -1.201
REMARK UNBOUND:                -1.201
REMARK SMILES CCCCCCCCCCCC(=O)[O-]
REMARK SMILES IDX 7 1 8 2 9 3 10 4 11 5 12 6 13 7 14 8 6 9 5 10 4 11 3 12 2 13
REMARK SMILES IDX 1 14
REMARK H PARENT
REMARK Flexibility Score: inf
ROOT
ATOM      1  C   UNL     1     163.250 162.963 183.288  1.00  0.00     0.000 C 
ENDROOT
BRANCH   1   2
ATOM      2  C   UNL     1     161.714 163.041 183.244  1.00  0.00     0.000 C 
BRANCH   2   3
ATOM      3  C   UNL     1     161.043 161.747 183.733  1.00  0.00     0.000 C 
BRANCH   3   4
ATOM      4  C   UNL     1     160.173 161.087 182.654  1.00  0.00     0.006 C 
BRANCH   4   5
ATOM      5  C   UNL     1     160.175 161.916 181.365  1.00  0.00     0.053 C 
BRANCH   5   6
ATOM      6  C   UNL     1     160.427 161.042 180.178  1.00  0.00     0.041 C 
ATOM      7  O   UNL     1     161.106 159.989 180.299  1.00  0.00    -0.550 OA
ATOM      8  O   UNL     1     159.956 161.417 178.926  1.00  0.00    -0.550 OA
ENDBRANCH   5   6
ENDBRANCH   4   5
ENDBRANCH   3   4
ENDBRANCH   2   3
ENDBRANCH   1   2
BRANCH   1   9
ATOM      9  C   UNL     1     163.868 162.560 181.937  1.00  0.00     0.000 C 
BRANCH   9  10
ATOM     10  C   UNL     1     164.079 161.048 181.740  1.00  0.00    -0.000 C 
BRANCH  10  11
ATOM     11  C   UNL     1     164.546 160.335 183.021  1.00  0.00    -0.000 C 
BRANCH  11  12
ATOM     12  C   UNL     1     166.040 159.955 182.964  1.00  0.00    -0.000 C 
BRANCH  12  13
ATOM     13  C   UNL     1     166.832 160.392 184.208  1.00  0.00    -0.003 C 
ATOM     14  C   UNL     1     167.042 161.903 184.284  1.00  0.00     0.004 C 
ENDBRANCH  12  13
ENDBRANCH  11  12
ENDBRANCH  10  11
ENDBRANCH   9  10
ENDBRANCH   1   9
TORSDOF 10
ENDMDL
MODEL 2
REMARK VINA RESULT:    -3.829      3.313      6.257
REMARK INTER + INTRA:          -7.268
REMARK INTER:                  -6.345
REMARK INTRA:                  -0.922
REMARK UNBOUND:                -1.201
REMARK SMILES CCCCCCCCCCCC(=O)[O-]
REMARK SMILES IDX 7 1 8 2 9 3 10 4 11 5 12 6 13 7 14 8 6 9 5 10 4 11 3 12 2 13
REMARK SMILES IDX 1 14
REMARK H PARENT
REMARK Flexibility Score: inf
ROOT
ATOM      1  C   UNL     1     163.918 162.193 182.868  1.00  0.00     0.000 C 
ENDROOT
BRANCH   1   2
ATOM      2  C   UNL     1     163.946 160.658 182.781  1.00  0.00     0.000 C 
BRANCH   2   3
ATOM      3  C   UNL     1     165.202 160.054 183.430  1.00  0.00     0.000 C 
BRANCH   3   4
ATOM      4  C   UNL     1     166.471 160.867 183.134  1.00  0.00     0.006 C 
BRANCH   4   5
ATOM      5  C   UNL     1     167.171 161.282 184.433  1.00  0.00     0.053 C 
BRANCH   5   6
ATOM      6  C   UNL     1     167.288 162.770 184.515  1.00  0.00     0.041 C 
ATOM      7  O   UNL     1     166.350 163.453 185.003  1.00  0.00    -0.550 OA
ATOM      8  O   UNL     1     168.411 163.409 184.004  1.00  0.00    -0.550 OA
ENDBRANCH   5   6
ENDBRANCH   4   5
ENDBRANCH   3   4
ENDBRANCH   2   3
ENDBRANCH   1   2
BRANCH   1   9
ATOM      9  C   UNL     1     162.496 162.757 183.041  1.00  0.00     0.000 C 
BRANCH   9  10
ATOM     10  C   UNL     1     161.463 161.763 183.602  1.00  0.00    -0.000 C 
BRANCH  10  11
ATOM     11  C   UNL     1     160.179 161.690 182.757  1.00  0.00    -0.000 C 
BRANCH  11  12
ATOM     12  C   UNL     1     159.926 160.273 182.202  1.00  0.00    -0.000 C 
BRANCH  12  13
ATOM     13  C   UNL     1     159.950 160.203 180.666  1.00  0.00    -0.003 C 
ATOM     14  C   UNL     1     161.311 160.562 180.072  1.00  0.00     0.004 C 
ENDBRANCH  12  13
ENDBRANCH  11  12
ENDBRANCH  10  11
ENDBRANCH   9  10
ENDBRANCH   1   9
TORSDOF 10
ENDMDL
MODEL 3
REMARK VINA RESULT:    -3.816      3.120      5.444
REMARK INTER + INTRA:          -7.248
REMARK INTER:                  -5.828
REMARK INTRA:                  -1.420
REMARK UNBOUND:                -1.201
REMARK SMILES CCCCCCCCCCCC(=O)[O-]
REMARK SMILES IDX 7 1 8 2 9 3 10 4 11 5 12 6 13 7 14 8 6 9 5 10 4 11 3 12 2 13
REMARK SMILES IDX 1 14
REMARK H PARENT
REMARK Flexibility Score: inf
ROOT
ATOM      1  C   UNL     1     162.712 163.220 182.663  1.00  0.00     0.000 C 
ENDROOT
BRANCH   1   2
ATOM      2  C   UNL     1     163.945 162.306 182.770  1.00  0.00     0.000 C 
BRANCH   2   3
ATOM      3  C   UNL     1     163.578 160.864 183.153  1.00  0.00     0.000 C 
BRANCH   3   4
ATOM      4  C   UNL     1     164.729 159.875 182.910  1.00  0.00     0.006 C 
BRANCH   4   5
ATOM      5  C   UNL     1     165.486 160.222 181.623  1.00  0.00     0.053 C 
BRANCH   5   6
ATOM      6  C   UNL     1     166.959 160.262 181.875  1.00  0.00     0.041 C 
ATOM      7  O   UNL     1     167.767 159.926 180.969  1.00  0.00    -0.550 OA
ATOM      8  O   UNL     1     167.441 160.623 183.127  1.00  0.00    -0.550 OA
ENDBRANCH   5   6
ENDBRANCH   4   5
ENDBRANCH   3   4
ENDBRANCH   2   3
ENDBRANCH   1   2
BRANCH   1   9
ATOM      9  C   UNL     1     161.574 162.804 183.612  1.00  0.00     0.000 C 
BRANCH   9  10
ATOM     10  C   UNL     1     160.248 162.434 182.921  1.00  0.00    -0.000 C 
BRANCH  10  11
ATOM     11  C   UNL     1     160.369 162.368 181.388  1.00  0.00    -0.000 C 
BRANCH  11  12
ATOM     12  C   UNL     1     160.169 160.937 180.849  1.00  0.00    -0.000 C 
BRANCH  12  13
ATOM     13  C   UNL     1     161.422 160.355 180.172  1.00  0.00    -0.003 C 
ATOM     14  C   UNL     1     162.263 161.413 179.460  1.00  0.00     0.004 C 
ENDBRANCH  12  13
ENDBRANCH  11  12
ENDBRANCH  10  11
ENDBRANCH   9  10
ENDBRANCH   1   9
TORSDOF 10
ENDMDL
MODEL 4
REMARK VINA RESULT:    -3.757      3.014      5.543
REMARK INTER + INTRA:          -7.155
REMARK INTER:                  -5.688
REMARK INTRA:                  -1.466
REMARK UNBOUND:                -1.201
REMARK SMILES CCCCCCCCCCCC(=O)[O-]
REMARK SMILES IDX 7 1 8 2 9 3 10 4 11 5 12 6 13 7 14 8 6 9 5 10 4 11 3 12 2 13
REMARK SMILES IDX 1 14
REMARK H PARENT
REMARK Flexibility Score: inf
ROOT
ATOM      1  C   UNL     1     162.981 162.442 179.915  1.00  0.00     0.000 C 
ENDROOT
BRANCH   1   2
ATOM      2  C   UNL     1     163.998 162.057 181.003  1.00  0.00     0.000 C 
BRANCH   2   3
ATOM      3  C   UNL     1     163.827 160.607 181.484  1.00  0.00     0.000 C 
BRANCH   3   4
ATOM      4  C   UNL     1     164.343 160.392 182.915  1.00  0.00     0.006 C 
BRANCH   4   5
ATOM      5  C   UNL     1     165.571 161.267 183.192  1.00  0.00     0.053 C 
BRANCH   5   6
ATOM      6  C   UNL     1     166.800 160.425 183.312  1.00  0.00     0.041 C 
ATOM      7  O   UNL     1     167.237 160.098 184.447  1.00  0.00    -0.550 OA
ATOM      8  O   UNL     1     167.495 160.043 182.171  1.00  0.00    -0.550 OA
ENDBRANCH   5   6
ENDBRANCH   4   5
ENDBRANCH   3   4
ENDBRANCH   2   3
ENDBRANCH   1   2
BRANCH   1   9
ATOM      9  C   UNL     1     162.046 161.280 179.532  1.00  0.00     0.000 C 
BRANCH   9  10
ATOM     10  C   UNL     1     160.581 161.447 179.975  1.00  0.00    -0.000 C 
BRANCH  10  11
ATOM     11  C   UNL     1     160.101 160.317 180.902  1.00  0.00    -0.000 C 
BRANCH  11  12
ATOM     12  C   UNL     1     160.167 160.716 182.390  1.00  0.00    -0.000 C 
BRANCH  12  13
ATOM     13  C   UNL     1     160.301 162.232 182.613  1.00  0.00    -0.003 C 
ATOM     14  C   UNL     1     161.388 162.595 183.624  1.00  0.00     0.004 C 
ENDBRANCH  12  13
ENDBRANCH  11  12
ENDBRANCH  10  11
ENDBRANCH   9  10
ENDBRANCH   1   9
TORSDOF 10
ENDMDL
MODEL 5
REMARK VINA RESULT:    -3.684      1.074      2.023
REMARK INTER + INTRA:          -7.039
REMARK INTER:                  -6.400
REMARK INTRA:                  -0.638
REMARK UNBOUND:                -1.201
REMARK SMILES CCCCCCCCCCCC(=O)[O-]
REMARK SMILES IDX 7 1 8 2 9 3 10 4 11 5 12 6 13 7 14 8 6 9 5 10 4 11 3 12 2 13
REMARK SMILES IDX 1 14
REMARK H PARENT
REMARK Flexibility Score: inf
ROOT
ATOM      1  C   UNL     1     163.291 160.839 182.953  1.00  0.00     0.000 C 
ENDROOT
BRANCH   1   2
ATOM      2  C   UNL     1     162.461 162.102 183.244  1.00  0.00     0.000 C 
BRANCH   2   3
ATOM      3  C   UNL     1     160.954 161.810 183.329  1.00  0.00     0.000 C 
BRANCH   3   4
ATOM      4  C   UNL     1     160.226 162.060 182.000  1.00  0.00     0.006 C 
BRANCH   4   5
ATOM      5  C   UNL     1     160.007 160.747 181.241  1.00  0.00     0.053 C 
BRANCH   5   6
ATOM      6  C   UNL     1     160.595 160.829 179.868  1.00  0.00     0.041 C 
ATOM      7  O   UNL     1     159.878 161.171 178.891  1.00  0.00    -0.550 OA
ATOM      8  O   UNL     1     161.923 160.479 179.659  1.00  0.00    -0.550 OA
ENDBRANCH   5   6
ENDBRANCH   4   5
ENDBRANCH   3   4
ENDBRANCH   2   3
ENDBRANCH   1   2
BRANCH   1   9
ATOM      9  C   UNL     1     164.806 161.108 182.938  1.00  0.00     0.000 C 
BRANCH   9  10
ATOM     10  C   UNL     1     165.683 159.935 183.414  1.00  0.00    -0.000 C 
BRANCH  10  11
ATOM     11  C   UNL     1     167.067 160.384 183.914  1.00  0.00    -0.000 C 
BRANCH  11  12
ATOM     12  C   UNL     1     167.060 161.843 184.416  1.00  0.00    -0.000 C 
BRANCH  12  13
ATOM     13  C   UNL     1     168.013 162.765 183.637  1.00  0.00    -0.003 C 
ATOM     14  C   UNL     1     168.845 162.021 182.593  1.00  0.00     0.004 C 
ENDBRANCH  12  13
ENDBRANCH  11  12
ENDBRANCH  10  11
ENDBRANCH   9  10
ENDBRANCH   1   9
TORSDOF 10
ENDMDL
MODEL 6
REMARK VINA RESULT:    -3.683      2.265      3.939
REMARK INTER + INTRA:          -7.037
REMARK INTER:                  -5.631
REMARK INTRA:                  -1.407
REMARK UNBOUND:                -1.201
REMARK SMILES CCCCCCCCCCCC(=O)[O-]
REMARK SMILES IDX 7 1 8 2 9 3 10 4 11 5 12 6 13 7 14 8 6 9 5 10 4 11 3 12 2 13
REMARK SMILES IDX 1 14
REMARK H PARENT
REMARK Flexibility Score: inf
ROOT
ATOM      1  C   UNL     1     160.249 161.748 181.344  1.00  0.00     0.000 C 
ENDROOT
BRANCH   1   2
ATOM      2  C   UNL     1     160.324 160.540 180.394  1.00  0.00     0.000 C 
BRANCH   2   3
ATOM      3  C   UNL     1     161.749 160.285 179.876  1.00  0.00     0.000 C 
BRANCH   3   4
ATOM      4  C   UNL     1     162.430 161.562 179.362  1.00  0.00     0.006 C 
BRANCH   4   5
ATOM      5  C   UNL     1     163.954 161.403 179.350  1.00  0.00     0.053 C 
BRANCH   5   6
ATOM      6  C   UNL     1     164.401 160.717 178.098  1.00  0.00     0.041 C 
ATOM      7  O   UNL     1     165.342 159.882 178.135  1.00  0.00    -0.550 OA
ATOM      8  O   UNL     1     163.812 161.038 176.882  1.00  0.00    -0.550 OA
ENDBRANCH   5   6
ENDBRANCH   4   5
ENDBRANCH   3   4
ENDBRANCH   2   3
ENDBRANCH   1   2
BRANCH   1   9
ATOM      9  C   UNL     1     160.080 161.341 182.819  1.00  0.00     0.000 C 
BRANCH   9  10
ATOM     10  C   UNL     1     161.198 161.824 183.762  1.00  0.00    -0.000 C 
BRANCH  10  11
ATOM     11  C   UNL     1     162.222 162.734 183.061  1.00  0.00    -0.000 C 
BRANCH  11  12
ATOM     12  C   UNL     1     163.615 162.077 182.968  1.00  0.00    -0.000 C 
BRANCH  12  13
ATOM     13  C   UNL     1     163.576 160.541 183.040  1.00  0.00    -0.003 C 
ATOM     14  C   UNL     1     164.939 159.921 183.344  1.00  0.00     0.004 C 
ENDBRANCH  12  13
ENDBRANCH  11  12
ENDBRANCH  10  11
ENDBRANCH   9  10
ENDBRANCH   1   9
TORSDOF 10
ENDMDL
MODEL 7
REMARK VINA RESULT:    -3.683      3.550      4.607
REMARK INTER + INTRA:          -7.037
REMARK INTER:                  -5.650
REMARK INTRA:                  -1.387
REMARK UNBOUND:                -1.201
REMARK SMILES CCCCCCCCCCCC(=O)[O-]
REMARK SMILES IDX 7 1 8 2 9 3 10 4 11 5 12 6 13 7 14 8 6 9 5 10 4 11 3 12 2 13
REMARK SMILES IDX 1 14
REMARK H PARENT
REMARK Flexibility Score: inf
ROOT
ATOM      1  C   UNL     1     161.077 160.855 182.865  1.00  0.00     0.000 C 
ENDROOT
BRANCH   1   2
ATOM      2  C   UNL     1     160.875 162.161 183.653  1.00  0.00     0.000 C 
BRANCH   2   3
ATOM      3  C   UNL     1     161.312 163.402 182.859  1.00  0.00     0.000 C 
BRANCH   3   4
ATOM      4  C   UNL     1     160.146 164.072 182.117  1.00  0.00     0.006 C 
BRANCH   4   5
ATOM      5  C   UNL     1     160.563 164.488 180.703  1.00  0.00     0.053 C 
BRANCH   5   6
ATOM      6  C   UNL     1     160.668 165.977 180.602  1.00  0.00     0.041 C 
ATOM      7  O   UNL     1     159.914 166.713 181.291  1.00  0.00    -0.550 OA
ATOM      8  O   UNL     1     161.563 166.552 179.709  1.00  0.00    -0.550 OA
ENDBRANCH   5   6
ENDBRANCH   4   5
ENDBRANCH   3   4
ENDBRANCH   2   3
ENDBRANCH   1   2
BRANCH   1   9
ATOM      9  C   UNL     1     159.876 160.506 181.967  1.00  0.00     0.000 C 
BRANCH   9  10
ATOM     10  C   UNL     1     160.236 160.074 180.533  1.00  0.00    -0.000 C 
BRANCH  10  11
ATOM     11  C   UNL     1     161.669 160.466 180.131  1.00  0.00    -0.000 C 
BRANCH  11  12
ATOM     12  C   UNL     1     161.690 161.522 179.006  1.00  0.00    -0.000 C 
BRANCH  12  13
ATOM     13  C   UNL     1     162.991 162.341 178.958  1.00  0.00    -0.003 C 
ATOM     14  C   UNL     1     163.699 162.419 180.309  1.00  0.00     0.004 C 
ENDBRANCH  12  13
ENDBRANCH  11  12
ENDBRANCH  10  11
ENDBRANCH   9  10
ENDBRANCH   1   9
TORSDOF 10
ENDMDL
MODEL 8
REMARK VINA RESULT:    -3.666      2.190      4.170
REMARK INTER + INTRA:          -7.010
REMARK INTER:                  -5.542
REMARK INTRA:                  -1.468
REMARK UNBOUND:                -1.201
REMARK SMILES CCCCCCCCCCCC(=O)[O-]
REMARK SMILES IDX 7 1 8 2 9 3 10 4 11 5 12 6 13 7 14 8 6 9 5 10 4 11 3 12 2 13
REMARK SMILES IDX 1 14
REMARK H PARENT
REMARK Flexibility Score: inf
ROOT
ATOM      1  C   UNL     1     162.387 161.101 183.101  1.00  0.00     0.000 C 
ENDROOT
BRANCH   1   2
ATOM      2  C   UNL     1     161.016 161.621 183.565  1.00  0.00     0.000 C 
BRANCH   2   3
ATOM      3  C   UNL     1     159.904 161.353 182.538  1.00  0.00     0.000 C 
BRANCH   3   4
ATOM      4  C   UNL     1     160.291 160.274 181.516  1.00  0.00     0.006 C 
BRANCH   4   5
ATOM      5  C   UNL     1     160.214 160.820 180.086  1.00  0.00     0.053 C 
BRANCH   5   6
ATOM      6  C   UNL     1     161.582 160.938 179.494  1.00  0.00     0.041 C 
ATOM      7  O   UNL     1     162.452 160.060 179.730  1.00  0.00    -0.550 OA
ATOM      8  O   UNL     1     161.912 162.045 178.722  1.00  0.00    -0.550 OA
ENDBRANCH   5   6
ENDBRANCH   4   5
ENDBRANCH   3   4
ENDBRANCH   2   3
ENDBRANCH   1   2
BRANCH   1   9
ATOM      9  C   UNL     1     163.333 162.227 182.647  1.00  0.00     0.000 C 
BRANCH   9  10
ATOM     10  C   UNL     1     162.772 163.653 182.801  1.00  0.00    -0.000 C 
BRANCH  10  11
ATOM     11  C   UNL     1     162.572 164.368 181.453  1.00  0.00    -0.000 C 
BRANCH  11  12
ATOM     12  C   UNL     1     161.088 164.417 181.034  1.00  0.00    -0.000 C 
BRANCH  12  13
ATOM     13  C   UNL     1     160.191 165.160 182.039  1.00  0.00    -0.003 C 
ATOM     14  C   UNL     1     160.602 166.617 182.244  1.00  0.00     0.004 C 
ENDBRANCH  12  13
ENDBRANCH  11  12
ENDBRANCH  10  11
ENDBRANCH   9  10
ENDBRANCH   1   9
TORSDOF 10
ENDMDL
MODEL 9
REMARK VINA RESULT:    -3.612      2.881      5.055
REMARK INTER + INTRA:          -6.924
REMARK INTER:                  -5.323
REMARK INTRA:                  -1.601
REMARK UNBOUND:                -1.201
REMARK SMILES CCCCCCCCCCCC(=O)[O-]
REMARK SMILES IDX 7 1 8 2 9 3 10 4 11 5 12 6 13 7 14 8 6 9 5 10 4 11 3 12 2 13
REMARK SMILES IDX 1 14
REMARK H PARENT
REMARK Flexibility Score: inf
ROOT
ATOM      1  C   UNL     1     160.964 161.342 183.402  1.00  0.00     0.000 C 
ENDROOT
BRANCH   1   2
ATOM      2  C   UNL     1     161.878 162.514 183.003  1.00  0.00     0.000 C 
BRANCH   2   3
ATOM      3  C   UNL     1     163.369 162.142 183.050  1.00  0.00     0.000 C 
BRANCH   3   4
ATOM      4  C   UNL     1     163.600 160.624 183.057  1.00  0.00     0.006 C 
BRANCH   4   5
ATOM      5  C   UNL     1     164.823 160.252 182.212  1.00  0.00     0.053 C 
BRANCH   5   6
ATOM      6  C   UNL     1     166.086 160.575 182.943  1.00  0.00     0.041 C 
ATOM      7  O   UNL     1     166.340 160.022 184.045  1.00  0.00    -0.550 OA
ATOM      8  O   UNL     1     166.961 161.526 182.433  1.00  0.00    -0.550 OA
ENDBRANCH   5   6
ENDBRANCH   4   5
ENDBRANCH   3   4
ENDBRANCH   2   3
ENDBRANCH   1   2
BRANCH   1   9
ATOM      9  C   UNL     1     159.878 161.045 182.352  1.00  0.00     0.000 C 
BRANCH   9  10
ATOM     10  C   UNL     1     160.281 161.339 180.895  1.00  0.00    -0.000 C 
BRANCH  10  11
ATOM     11  C   UNL     1     161.095 160.200 180.257  1.00  0.00    -0.000 C 
BRANCH  11  12
ATOM     12  C   UNL     1     162.387 160.713 179.586  1.00  0.00    -0.000 C 
BRANCH  12  13
ATOM     13  C   UNL     1     162.383 162.229 179.326  1.00  0.00    -0.003 C 
ATOM     14  C   UNL     1     163.784 162.805 179.123  1.00  0.00     0.004 C 
ENDBRANCH  12  13
ENDBRANCH  11  12
ENDBRANCH  10  11
ENDBRANCH   9  10
ENDBRANCH   1   9
TORSDOF 10
ENDMDL
