MODEL 1
REMARK VINA RESULT:    -1.041      0.000      0.000
REMARK INTER + INTRA:          -1.186
REMARK INTER:                  -1.588
REMARK INTRA:                   0.402
REMARK UNBOUND:                 0.402
REMARK SMILES CC1=CCC[C@@H](C)C(=O)C[C@@H](C(C)C)C(=O)C1
REMARK SMILES IDX 8 1 9 2 6 3 7 4 5 5 4 6 3 7 2 8 1 9 10 11 11 12 15 13 16 14
REMARK SMILES IDX 17 15 12 17 13 18 14 19
REMARK H PARENT
REMARK Flexibility Score: 70.00
ROOT
ATOM      1  C   UNL     1      84.452  31.830  65.406  1.00  0.00     0.136 C 
ATOM      2  O   UNL     1      84.545  32.500  64.389  1.00  0.00    -0.299 OA
ENDROOT
BRANCH   1   3
ATOM      3  C   UNL     1      83.156  31.084  65.676  1.00  0.00     0.053 C 
ATOM      4  C   UNL     1      82.727  31.274  67.138  1.00  0.00     0.016 C 
BRANCH   3   5
ATOM      5  C   UNL     1      83.311  29.585  65.339  1.00  0.00     0.015 C 
BRANCH   5   6
ATOM      6  C   UNL     1      84.450  29.342  64.330  1.00  0.00     0.028 C 
BRANCH   6   7
ATOM      7  C   UNL     1      85.245  28.096  64.632  1.00  0.00    -0.028 C 
ATOM      8  C   UNL     1      86.597  28.012  64.614  1.00  0.00    -0.070 CG0
ATOM      9  C   UNL     1      87.221  26.663  64.870  1.00  0.00     0.039 C 
ATOM     10  G   UNL     1      87.506  29.211  64.377  1.00  0.00     0.000 G0
ENDBRANCH   6   7
ENDBRANCH   5   6
ENDBRANCH   3   5
ENDBRANCH   1   3
BRANCH   1  11
ATOM     11  C   UNL     1      85.650  31.685  66.320  1.00  0.00     0.087 C 
BRANCH  11  12
ATOM     12  C   UNL     1      87.050  31.543  65.646  1.00  0.00     0.066 C 
BRANCH  12  13
ATOM     13  C   UNL     1      87.619  30.125  65.595  1.00  0.00     0.140 C 
ATOM     14  O   UNL     1      88.106  29.662  66.618  1.00  0.00    -0.299 OA
BRANCH  13  15
ATOM     15  C   UNL     1      87.512  29.225  64.384  1.00  0.00     0.106 CG0
ATOM     16  G   UNL     1      86.587  28.035  64.599  1.00  0.00     0.000 G0
ENDBRANCH  13  15
ENDBRANCH  12  13
BRANCH  12  17
ATOM     17  C   UNL     1      88.085  32.662  66.000  1.00  0.00    -0.006 C 
ATOM     18  C   UNL     1      87.931  33.974  65.219  1.00  0.00     0.008 C 
ATOM     19  C   UNL     1      88.118  32.944  67.512  1.00  0.00     0.008 C 
ENDBRANCH  12  17
ENDBRANCH  11  12
ENDBRANCH   1  11
TORSDOF 1
ENDMDL
MODEL 2
REMARK VINA RESULT:    -0.988     14.690     16.277
REMARK INTER + INTRA:          -1.105
REMARK INTER:                  -2.109
REMARK INTRA:                   1.004
REMARK UNBOUND:                 0.402
REMARK SMILES CC1=CCC[C@@H](C)C(=O)C[C@@H](C(C)C)C(=O)C1
REMARK SMILES IDX 8 1 9 2 6 3 7 4 5 5 4 6 3 7 2 8 1 9 10 11 11 12 15 13 16 14
REMARK SMILES IDX 17 15 12 17 13 18 14 19
REMARK H PARENT
REMARK Flexibility Score: 70.00
ROOT
ATOM      1  C   UNL     1      78.537  35.680  52.020  1.00  0.00     0.136 C 
ATOM      2  O   UNL     1      78.266  36.124  53.126  1.00  0.00    -0.299 OA
ENDROOT
BRANCH   1   3
ATOM      3  C   UNL     1      79.846  36.092  51.366  1.00  0.00     0.053 C 
ATOM      4  C   UNL     1      79.969  35.455  49.975  1.00  0.00     0.016 C 
BRANCH   3   5
ATOM      5  C   UNL     1      81.045  35.700  52.257  1.00  0.00     0.015 C 
BRANCH   5   6
ATOM      6  C   UNL     1      80.924  34.253  52.773  1.00  0.00     0.028 C 
BRANCH   6   7
ATOM      7  C   UNL     1      80.793  33.243  51.660  1.00  0.00    -0.028 C 
ATOM      8  C   UNL     1      79.942  32.189  51.662  1.00  0.00    -0.070 CG0
ATOM      9  C   UNL     1      79.999  31.237  50.493  1.00  0.00     0.039 C 
ATOM     10  G   UNL     1      78.921  31.941  52.764  1.00  0.00     0.000 G0
ENDBRANCH   6   7
ENDBRANCH   5   6
ENDBRANCH   3   5
ENDBRANCH   1   3
BRANCH   1  11
ATOM     11  C   UNL     1      77.616  34.669  51.372  1.00  0.00     0.087 C 
BRANCH  11  12
ATOM     12  C   UNL     1      76.892  33.656  52.313  1.00  0.00     0.066 C 
BRANCH  12  13
ATOM     13  C   UNL     1      77.476  32.243  52.338  1.00  0.00     0.140 C 
ATOM     14  O   UNL     1      76.791  31.328  51.899  1.00  0.00    -0.299 OA
BRANCH  13  15
ATOM     15  C   UNL     1      78.890  31.932  52.772  1.00  0.00     0.106 CG0
ATOM     16  G   UNL     1      79.922  32.182  51.681  1.00  0.00     0.000 G0
ENDBRANCH  13  15
ENDBRANCH  12  13
BRANCH  12  17
ATOM     17  C   UNL     1      75.329  33.729  52.307  1.00  0.00    -0.006 C 
ATOM     18  C   UNL     1      74.631  33.043  53.488  1.00  0.00     0.008 C 
ATOM     19  C   UNL     1      74.831  35.178  52.165  1.00  0.00     0.008 C 
ENDBRANCH  12  17
ENDBRANCH  11  12
ENDBRANCH   1  11
TORSDOF 1
ENDMDL
MODEL 3
REMARK VINA RESULT:    -0.887      2.030      4.640
REMARK INTER + INTRA:          -0.952
REMARK INTER:                  -1.523
REMARK INTRA:                   0.571
REMARK UNBOUND:                 0.402
REMARK SMILES CC1=CCC[C@@H](C)C(=O)C[C@@H](C(C)C)C(=O)C1
REMARK SMILES IDX 8 1 9 2 6 3 7 4 5 5 4 6 3 7 2 8 1 9 10 11 11 12 15 13 16 14
REMARK SMILES IDX 17 15 12 17 13 18 14 19
REMARK H PARENT
REMARK Flexibility Score: 70.00
ROOT
ATOM      1  C   UNL     1      85.519  28.742  64.992  1.00  0.00     0.136 C 
ATOM      2  O   UNL     1      84.481  28.141  64.758  1.00  0.00    -0.299 OA
ENDROOT
BRANCH   1   3
ATOM      3  C   UNL     1      86.801  28.281  64.319  1.00  0.00     0.053 C 
ATOM      4  C   UNL     1      87.087  26.813  64.668  1.00  0.00     0.016 C 
BRANCH   3   5
ATOM      5  C   UNL     1      87.986  29.183  64.727  1.00  0.00     0.015 C 
BRANCH   5   6
ATOM      6  C   UNL     1      88.125  30.399  63.790  1.00  0.00     0.028 C 
BRANCH   6   7
ATOM      7  C   UNL     1      87.891  31.712  64.495  1.00  0.00    -0.028 C 
ATOM      8  C   UNL     1      86.779  32.476  64.370  1.00  0.00    -0.070 CG0
ATOM      9  C   UNL     1      86.750  33.798  65.095  1.00  0.00     0.039 C 
ATOM     10  G   UNL     1      85.560  32.050  63.563  1.00  0.00     0.000 G0
ENDBRANCH   6   7
ENDBRANCH   5   6
ENDBRANCH   3   5
ENDBRANCH   1   3
BRANCH   1  11
ATOM     11  C   UNL     1      85.489  29.978  65.867  1.00  0.00     0.087 C 
BRANCH  11  12
ATOM     12  C   UNL     1      84.285  30.953  65.684  1.00  0.00     0.066 C 
BRANCH  12  13
ATOM     13  C   UNL     1      84.306  31.800  64.412  1.00  0.00     0.140 C 
ATOM     14  O   UNL     1      83.286  32.400  64.101  1.00  0.00    -0.299 OA
BRANCH  13  15
ATOM     15  C   UNL     1      85.548  32.023  63.579  1.00  0.00     0.106 CG0
ATOM     16  G   UNL     1      86.751  32.466  64.400  1.00  0.00     0.000 G0
ENDBRANCH  13  15
ENDBRANCH  12  13
BRANCH  12  17
ATOM     17  C   UNL     1      83.827  31.707  66.976  1.00  0.00    -0.006 C 
ATOM     18  C   UNL     1      82.500  31.232  67.583  1.00  0.00     0.008 C 
ATOM     19  C   UNL     1      84.929  31.712  68.050  1.00  0.00     0.008 C 
ENDBRANCH  12  17
ENDBRANCH  11  12
ENDBRANCH   1  11
TORSDOF 1
ENDMDL
MODEL 4
REMARK VINA RESULT:    -0.542      1.891      4.421
REMARK INTER + INTRA:          -0.425
REMARK INTER:                  -1.930
REMARK INTRA:                   1.505
REMARK UNBOUND:                 0.402
REMARK SMILES CC1=CCC[C@@H](C)C(=O)C[C@@H](C(C)C)C(=O)C1
REMARK SMILES IDX 8 1 9 2 6 3 7 4 5 5 4 6 3 7 2 8 1 9 10 11 11 12 15 13 16 14
REMARK SMILES IDX 17 15 12 17 13 18 14 19
REMARK H PARENT
REMARK Flexibility Score: 70.00
ROOT
ATOM      1  C   UNL     1      87.859  31.182  64.880  1.00  0.00     0.136 C 
ATOM      2  O   UNL     1      88.018  31.505  63.712  1.00  0.00    -0.299 OA
ENDROOT
BRANCH   1   3
ATOM      3  C   UNL     1      87.377  32.228  65.871  1.00  0.00     0.053 C 
ATOM      4  C   UNL     1      87.763  31.825  67.301  1.00  0.00     0.016 C 
BRANCH   3   5
ATOM      5  C   UNL     1      85.850  32.429  65.750  1.00  0.00     0.015 C 
BRANCH   5   6
ATOM      6  C   UNL     1      85.361  32.228  64.303  1.00  0.00     0.028 C 
BRANCH   6   7
ATOM      7  C   UNL     1      84.104  31.398  64.218  1.00  0.00    -0.028 C 
ATOM      8  C   UNL     1      83.954  30.157  64.741  1.00  0.00    -0.070 CG0
ATOM      9  C   UNL     1      82.647  29.445  64.495  1.00  0.00     0.039 C 
ATOM     10  G   UNL     1      85.022  29.469  65.580  1.00  0.00     0.000 G0
ENDBRANCH   6   7
ENDBRANCH   5   6
ENDBRANCH   3   5
ENDBRANCH   1   3
BRANCH   1  11
ATOM     11  C   UNL     1      88.055  29.738  65.291  1.00  0.00     0.087 C 
BRANCH  11  12
ATOM     12  C   UNL     1      87.320  28.649  64.448  1.00  0.00     0.066 C 
BRANCH  12  13
ATOM     13  C   UNL     1      85.836  28.460  64.760  1.00  0.00     0.140 C 
ATOM     14  O   UNL     1      85.303  27.412  64.419  1.00  0.00    -0.299 OA
BRANCH  13  15
ATOM     15  C   UNL     1      85.020  29.447  65.564  1.00  0.00     0.106 CG0
ATOM     16  G   UNL     1      83.939  30.141  64.746  1.00  0.00     0.000 G0
ENDBRANCH  13  15
ENDBRANCH  12  13
BRANCH  12  17
ATOM     17  C   UNL     1      88.123  27.328  64.209  1.00  0.00    -0.006 C 
ATOM     18  C   UNL     1      87.705  26.135  65.079  1.00  0.00     0.008 C 
ATOM     19  C   UNL     1      88.124  26.927  62.724  1.00  0.00     0.008 C 
ENDBRANCH  12  17
ENDBRANCH  11  12
ENDBRANCH   1  11
TORSDOF 1
ENDMDL
MODEL 5
REMARK VINA RESULT:    -0.214     15.427     16.963
REMARK INTER + INTRA:           0.076
REMARK INTER:                  -0.959
REMARK INTRA:                   1.035
REMARK UNBOUND:                 0.402
REMARK SMILES CC1=CCC[C@@H](C)C(=O)C[C@@H](C(C)C)C(=O)C1
REMARK SMILES IDX 8 1 9 2 6 3 7 4 5 5 4 6 3 7 2 8 1 9 10 11 11 12 15 13 16 14
REMARK SMILES IDX 17 15 12 17 13 18 14 19
REMARK H PARENT
REMARK Flexibility Score: 70.00
ROOT
ATOM      1  C   UNL     1      78.416  35.822  50.671  1.00  0.00     0.136 C 
ATOM      2  O   UNL     1      77.596  35.921  49.770  1.00  0.00    -0.299 OA
ENDROOT
BRANCH   1   3
ATOM      3  C   UNL     1      79.876  35.603  50.312  1.00  0.00     0.053 C 
ATOM      4  C   UNL     1      79.991  34.938  48.932  1.00  0.00     0.016 C 
BRANCH   3   5
ATOM      5  C   UNL     1      80.581  34.752  51.391  1.00  0.00     0.015 C 
BRANCH   5   6
ATOM      6  C   UNL     1      80.668  33.270  50.982  1.00  0.00     0.028 C 
BRANCH   6   7
ATOM      7  C   UNL     1      79.990  32.348  51.965  1.00  0.00    -0.028 C 
ATOM      8  C   UNL     1      78.653  32.278  52.171  1.00  0.00    -0.070 CG0
ATOM      9  C   UNL     1      78.156  31.350  53.251  1.00  0.00     0.039 C 
ATOM     10  G   UNL     1      77.639  33.066  51.352  1.00  0.00     0.000 G0
ENDBRANCH   6   7
ENDBRANCH   5   6
ENDBRANCH   3   5
ENDBRANCH   1   3
BRANCH   1  11
ATOM     11  C   UNL     1      77.978  36.010  52.108  1.00  0.00     0.087 C 
BRANCH  11  12
ATOM     12  C   UNL     1      76.672  35.283  52.558  1.00  0.00     0.066 C 
BRANCH  12  13
ATOM     13  C   UNL     1      76.570  33.807  52.172  1.00  0.00     0.140 C 
ATOM     14  O   UNL     1      75.550  33.202  52.471  1.00  0.00    -0.299 OA
BRANCH  13  15
ATOM     15  C   UNL     1      77.612  33.087  51.345  1.00  0.00     0.106 CG0
ATOM     16  G   UNL     1      78.618  32.314  52.188  1.00  0.00     0.000 G0
ENDBRANCH  13  15
ENDBRANCH  12  13
BRANCH  12  17
ATOM     17  C   UNL     1      75.352  36.106  52.392  1.00  0.00    -0.006 C 
ATOM     18  C   UNL     1      74.503  35.752  51.164  1.00  0.00     0.008 C 
ATOM     19  C   UNL     1      74.490  36.056  53.665  1.00  0.00     0.008 C 
ENDBRANCH  12  17
ENDBRANCH  11  12
ENDBRANCH   1  11
TORSDOF 1
ENDMDL
MODEL 6
REMARK VINA RESULT:     0.580     16.094     17.691
REMARK INTER + INTRA:           1.288
REMARK INTER:                  -0.710
REMARK INTRA:                   1.997
REMARK UNBOUND:                 0.402
REMARK SMILES CC1=CCC[C@@H](C)C(=O)C[C@@H](C(C)C)C(=O)C1
REMARK SMILES IDX 8 1 9 2 6 3 7 4 5 5 4 6 3 7 2 8 1 9 10 11 11 12 15 13 16 14
REMARK SMILES IDX 17 15 12 17 13 18 14 19
REMARK H PARENT
REMARK Flexibility Score: 70.00
ROOT
ATOM      1  C   UNL     1      72.819  35.061  52.962  1.00  0.00     0.136 C 
ATOM      2  O   UNL     1      72.035  34.179  52.643  1.00  0.00    -0.299 OA
ENDROOT
BRANCH   1   3
ATOM      3  C   UNL     1      73.181  36.125  51.939  1.00  0.00     0.053 C 
ATOM      4  C   UNL     1      72.241  36.039  50.728  1.00  0.00     0.016 C 
BRANCH   3   5
ATOM      5  C   UNL     1      74.655  35.980  51.502  1.00  0.00     0.015 C 
BRANCH   5   6
ATOM      6  C   UNL     1      75.560  35.562  52.677  1.00  0.00     0.028 C 
BRANCH   6   7
ATOM      7  C   UNL     1      76.370  34.324  52.381  1.00  0.00    -0.028 C 
ATOM      8  C   UNL     1      75.927  33.051  52.516  1.00  0.00    -0.070 CG0
ATOM      9  C   UNL     1      76.903  31.934  52.245  1.00  0.00     0.039 C 
ATOM     10  G   UNL     1      74.495  32.702  52.899  1.00  0.00     0.000 G0
ENDBRANCH   6   7
ENDBRANCH   5   6
ENDBRANCH   3   5
ENDBRANCH   1   3
BRANCH   1  11
ATOM     11  C   UNL     1      73.336  35.126  54.384  1.00  0.00     0.087 C 
BRANCH  11  12
ATOM     12  C   UNL     1      73.490  33.776  55.151  1.00  0.00     0.066 C 
BRANCH  12  13
ATOM     13  C   UNL     1      74.229  32.669  54.399  1.00  0.00     0.140 C 
ATOM     14  O   UNL     1      74.558  31.668  55.023  1.00  0.00    -0.299 OA
BRANCH  13  15
ATOM     15  C   UNL     1      74.477  32.695  52.908  1.00  0.00     0.106 CG0
ATOM     16  G   UNL     1      75.913  33.047  52.543  1.00  0.00     0.000 G0
ENDBRANCH  13  15
ENDBRANCH  12  13
BRANCH  12  17
ATOM     17  C   UNL     1      72.230  33.309  55.952  1.00  0.00    -0.006 C 
ATOM     18  C   UNL     1      72.506  32.774  57.363  1.00  0.00     0.008 C 
ATOM     19  C   UNL     1      71.152  34.405  56.002  1.00  0.00     0.008 C 
ENDBRANCH  12  17
ENDBRANCH  11  12
ENDBRANCH   1  11
TORSDOF 1
ENDMDL
MODEL 7
REMARK VINA RESULT:     0.591      2.220      3.767
REMARK INTER + INTRA:           1.304
REMARK INTER:                   0.800
REMARK INTRA:                   0.504
REMARK UNBOUND:                 0.402
REMARK SMILES CC1=CCC[C@@H](C)C(=O)C[C@@H](C(C)C)C(=O)C1
REMARK SMILES IDX 8 1 9 2 6 3 7 4 5 5 4 6 3 7 2 8 1 9 10 11 11 12 15 13 16 14
REMARK SMILES IDX 17 15 12 17 13 18 14 19
REMARK H PARENT
REMARK Flexibility Score: 70.00
ROOT
ATOM      1  C   UNL     1      85.631  28.727  64.574  1.00  0.00     0.136 C 
ATOM      2  O   UNL     1      86.400  27.779  64.526  1.00  0.00    -0.299 OA
ENDROOT
BRANCH   1   3
ATOM      3  C   UNL     1      84.163  28.467  64.866  1.00  0.00     0.053 C 
ATOM      4  C   UNL     1      83.881  26.958  64.868  1.00  0.00     0.016 C 
BRANCH   3   5
ATOM      5  C   UNL     1      83.267  29.191  63.837  1.00  0.00     0.015 C 
BRANCH   5   6
ATOM      6  C   UNL     1      83.011  30.657  64.236  1.00  0.00     0.028 C 
BRANCH   6   7
ATOM      7  C   UNL     1      82.566  30.805  65.670  1.00  0.00    -0.028 C 
ATOM      8  C   UNL     1      83.270  31.431  66.643  1.00  0.00    -0.070 CG0
ATOM      9  C   UNL     1      82.703  31.418  68.040  1.00  0.00     0.039 C 
ATOM     10  G   UNL     1      84.580  32.163  66.387  1.00  0.00     0.000 G0
ENDBRANCH   6   7
ENDBRANCH   5   6
ENDBRANCH   3   5
ENDBRANCH   1   3
BRANCH   1  11
ATOM     11  C   UNL     1      86.170  30.136  64.436  1.00  0.00     0.087 C 
BRANCH  11  12
ATOM     12  C   UNL     1      86.790  30.792  65.709  1.00  0.00     0.066 C 
BRANCH  12  13
ATOM     13  C   UNL     1      85.788  31.307  66.743  1.00  0.00     0.140 C 
ATOM     14  O   UNL     1      86.023  31.102  67.926  1.00  0.00    -0.299 OA
BRANCH  13  15
ATOM     15  C   UNL     1      84.583  32.149  66.390  1.00  0.00     0.106 CG0
ATOM     16  G   UNL     1      83.259  31.443  66.651  1.00  0.00     0.000 G0
ENDBRANCH  13  15
ENDBRANCH  12  13
BRANCH  12  17
ATOM     17  C   UNL     1      88.021  31.723  65.455  1.00  0.00    -0.006 C 
ATOM     18  C   UNL     1      88.109  32.331  64.049  1.00  0.00     0.008 C 
ATOM     19  C   UNL     1      88.123  32.830  66.519  1.00  0.00     0.008 C 
ENDBRANCH  12  17
ENDBRANCH  11  12
ENDBRANCH   1  11
TORSDOF 1
ENDMDL
MODEL 8
REMARK VINA RESULT:     0.752      2.261      5.334
REMARK INTER + INTRA:           1.550
REMARK INTER:                   0.194
REMARK INTRA:                   1.356
REMARK UNBOUND:                 0.402
REMARK SMILES CC1=CCC[C@@H](C)C(=O)C[C@@H](C(C)C)C(=O)C1
REMARK SMILES IDX 8 1 9 2 6 3 7 4 5 5 4 6 3 7 2 8 1 9 10 11 11 12 15 13 16 14
REMARK SMILES IDX 17 15 12 17 13 18 14 19
REMARK H PARENT
REMARK Flexibility Score: 70.00
ROOT
ATOM      1  C   UNL     1      87.289  30.614  65.785  1.00  0.00     0.136 C 
ATOM      2  O   UNL     1      88.089  30.364  64.896  1.00  0.00    -0.299 OA
ENDROOT
BRANCH   1   3
ATOM      3  C   UNL     1      87.719  31.522  66.925  1.00  0.00     0.053 C 
ATOM      4  C   UNL     1      86.748  31.389  68.107  1.00  0.00     0.016 C 
BRANCH   3   5
ATOM      5  C   UNL     1      87.806  32.989  66.449  1.00  0.00     0.015 C 
BRANCH   5   6
ATOM      6  C   UNL     1      87.985  33.082  64.921  1.00  0.00     0.028 C 
BRANCH   6   7
ATOM      7  C   UNL     1      87.308  34.291  64.324  1.00  0.00    -0.028 C 
ATOM      8  C   UNL     1      86.210  34.256  63.531  1.00  0.00    -0.070 CG0
ATOM      9  C   UNL     1      85.712  35.561  62.963  1.00  0.00     0.039 C 
ATOM     10  G   UNL     1      85.448  32.976  63.215  1.00  0.00     0.000 G0
ENDBRANCH   6   7
ENDBRANCH   5   6
ENDBRANCH   3   5
ENDBRANCH   1   3
BRANCH   1  11
ATOM     11  C   UNL     1      85.871  30.094  65.684  1.00  0.00     0.087 C 
BRANCH  11  12
ATOM     12  C   UNL     1      84.974  30.677  64.548  1.00  0.00     0.066 C 
BRANCH  12  13
ATOM     13  C   UNL     1      84.970  32.201  64.426  1.00  0.00     0.140 C 
ATOM     14  O   UNL     1      84.635  32.857  65.404  1.00  0.00    -0.299 OA
BRANCH  13  15
ATOM     15  C   UNL     1      85.460  32.943  63.203  1.00  0.00     0.106 CG0
ATOM     16  G   UNL     1      86.176  34.245  63.537  1.00  0.00     0.000 G0
ENDBRANCH  13  15
ENDBRANCH  12  13
BRANCH  12  17
ATOM     17  C   UNL     1      83.579  29.992  64.371  1.00  0.00    -0.006 C 
ATOM     18  C   UNL     1      83.602  28.460  64.289  1.00  0.00     0.008 C 
ATOM     19  C   UNL     1      82.583  30.451  65.450  1.00  0.00     0.008 C 
ENDBRANCH  12  17
ENDBRANCH  11  12
ENDBRANCH   1  11
TORSDOF 1
ENDMDL
MODEL 9
REMARK VINA RESULT:     0.962      2.235      4.923
REMARK INTER + INTRA:           1.870
REMARK INTER:                   0.379
REMARK INTRA:                   1.491
REMARK UNBOUND:                 0.402
REMARK SMILES CC1=CCC[C@@H](C)C(=O)C[C@@H](C(C)C)C(=O)C1
REMARK SMILES IDX 8 1 9 2 6 3 7 4 5 5 4 6 3 7 2 8 1 9 10 11 11 12 15 13 16 14
REMARK SMILES IDX 17 15 12 17 13 18 14 19
REMARK H PARENT
REMARK Flexibility Score: 70.00
ROOT
ATOM      1  C   UNL     1      86.257  28.605  65.114  1.00  0.00     0.136 C 
ATOM      2  O   UNL     1      85.953  27.644  64.423  1.00  0.00    -0.299 OA
ENDROOT
BRANCH   1   3
ATOM      3  C   UNL     1      87.714  29.033  65.172  1.00  0.00     0.053 C 
ATOM      4  C   UNL     1      87.953  29.943  66.385  1.00  0.00     0.016 C 
BRANCH   3   5
ATOM      5  C   UNL     1      88.125  29.744  63.864  1.00  0.00     0.015 C 
BRANCH   5   6
ATOM      6  C   UNL     1      87.324  31.042  63.644  1.00  0.00     0.028 C 
BRANCH   6   7
ATOM      7  C   UNL     1      87.968  32.245  64.287  1.00  0.00    -0.028 C 
ATOM      8  C   UNL     1      87.299  33.258  64.888  1.00  0.00    -0.070 CG0
ATOM      9  C   UNL     1      88.106  34.419  65.413  1.00  0.00     0.039 C 
ATOM     10  G   UNL     1      85.788  33.263  65.080  1.00  0.00     0.000 G0
ENDBRANCH   6   7
ENDBRANCH   5   6
ENDBRANCH   3   5
ENDBRANCH   1   3
BRANCH   1  11
ATOM     11  C   UNL     1      85.174  29.397  65.815  1.00  0.00     0.087 C 
BRANCH  11  12
ATOM     12  C   UNL     1      84.751  30.755  65.172  1.00  0.00     0.066 C 
BRANCH  12  13
ATOM     13  C   UNL     1      85.327  32.007  65.833  1.00  0.00     0.140 C 
ATOM     14  O   UNL     1      85.508  31.989  67.044  1.00  0.00    -0.299 OA
BRANCH  13  15
ATOM     15  C   UNL     1      85.786  33.223  65.061  1.00  0.00     0.106 CG0
ATOM     16  G   UNL     1      87.298  33.294  64.895  1.00  0.00     0.000 G0
ENDBRANCH  13  15
ENDBRANCH  12  13
BRANCH  12  17
ATOM     17  C   UNL     1      83.250  30.859  64.745  1.00  0.00    -0.006 C 
ATOM     18  C   UNL     1      82.601  29.546  64.289  1.00  0.00     0.008 C 
ATOM     19  C   UNL     1      82.395  31.522  65.838  1.00  0.00     0.008 C 
ENDBRANCH  12  17
ENDBRANCH  11  12
ENDBRANCH   1  11
TORSDOF 1
ENDMDL
