MODEL 1
REMARK VINA RESULT:    -3.697      0.000      0.000
REMARK INTER + INTRA:          -5.135
REMARK INTER:                  -4.777
REMARK INTRA:                  -0.358
REMARK UNBOUND:                -0.358
REMARK SMILES CO[C@]1(CO)O[C@@H](CO)[C@@H](O)[C@@H]1O
REMARK SMILES IDX 3 1 12 2 10 3 7 4 6 5 2 6 1 7 4 8 5 9 13 11 11 13 8 15 9 16
REMARK H PARENT 5 10 13 12 11 14 9 17
REMARK Flexibility Score: inf
ROOT
ATOM      1  C   UNL     1       8.316  33.248  33.862  1.00  0.00     0.221 C 
ATOM      2  C   UNL     1       8.281  34.684  33.255  1.00  0.00     0.207 C 
ATOM      3  C   UNL     1       9.725  35.138  33.308  1.00  0.00     0.180 C 
ATOM      4  C   UNL     1      10.296  34.255  34.411  1.00  0.00     0.179 C 
ATOM      5  O   UNL     1       9.620  33.022  34.370  1.00  0.00    -0.337 OA
ENDROOT
BRANCH   1   6
ATOM      6  O   UNL     1       7.411  33.109  34.959  1.00  0.00    -0.349 OA
ATOM      7  C   UNL     1       6.781  31.841  35.027  1.00  0.00     0.198 C 
ENDBRANCH   1   6
BRANCH   1   8
ATOM      8  C   UNL     1       8.083  32.165  32.772  1.00  0.00     0.224 C 
BRANCH   8   9
ATOM      9  O   UNL     1       8.359  32.682  31.496  1.00  0.00    -0.391 OA
ATOM     10  H   UNL     1       8.659  31.924  30.933  1.00  0.00     0.210 HD
ENDBRANCH   8   9
ENDBRANCH   1   8
BRANCH   2  11
ATOM     11  O   UNL     1       7.500  35.549  34.044  1.00  0.00    -0.385 OA
ATOM     12  H   UNL     1       6.562  35.227  33.980  1.00  0.00     0.211 HD
ENDBRANCH   2  11
BRANCH   3  13
ATOM     13  O   UNL     1      10.368  34.962  32.067  1.00  0.00    -0.387 OA
ATOM     14  H   UNL     1      11.346  35.045  32.205  1.00  0.00     0.211 HD
ENDBRANCH   3  13
BRANCH   4  15
ATOM     15  C   UNL     1      11.810  34.041  34.307  1.00  0.00     0.191 C 
BRANCH  15  16
ATOM     16  O   UNL     1      12.108  32.691  34.531  1.00  0.00    -0.394 OA
ATOM     17  H   UNL     1      11.991  32.541  35.505  1.00  0.00     0.210 HD
ENDBRANCH  15  16
ENDBRANCH   4  15
TORSDOF 7
ENDMDL
MODEL 2
REMARK VINA RESULT:    -3.611      2.066      3.543
REMARK INTER + INTRA:          -5.024
REMARK INTER:                  -4.511
REMARK INTRA:                  -0.513
REMARK UNBOUND:                -0.358
REMARK SMILES CO[C@]1(CO)O[C@@H](CO)[C@@H](O)[C@@H]1O
REMARK SMILES IDX 3 1 12 2 10 3 7 4 6 5 2 6 1 7 4 8 5 9 13 11 11 13 8 15 9 16
REMARK H PARENT 5 10 13 12 11 14 9 17
REMARK Flexibility Score: inf
ROOT
ATOM      1  C   UNL     1       5.708  32.380  34.136  1.00  0.00     0.221 C 
ATOM      2  C   UNL     1       6.004  31.962  32.662  1.00  0.00     0.207 C 
ATOM      3  C   UNL     1       7.253  32.742  32.306  1.00  0.00     0.180 C 
ATOM      4  C   UNL     1       7.200  33.898  33.296  1.00  0.00     0.179 C 
ATOM      5  O   UNL     1       6.599  33.428  34.478  1.00  0.00    -0.337 OA
ENDROOT
BRANCH   1   6
ATOM      6  O   UNL     1       4.383  32.891  34.291  1.00  0.00    -0.349 OA
ATOM      7  C   UNL     1       3.517  32.034  35.017  1.00  0.00     0.198 C 
ENDBRANCH   1   6
BRANCH   1   8
ATOM      8  C   UNL     1       6.006  31.218  35.125  1.00  0.00     0.224 C 
BRANCH   8   9
ATOM      9  O   UNL     1       6.818  30.248  34.517  1.00  0.00    -0.391 OA
ATOM     10  H   UNL     1       6.219  29.533  34.184  1.00  0.00     0.210 HD
ENDBRANCH   8   9
ENDBRANCH   1   8
BRANCH   2  11
ATOM     11  O   UNL     1       4.959  32.355  31.805  1.00  0.00    -0.385 OA
ATOM     12  H   UNL     1       4.114  32.250  32.317  1.00  0.00     0.211 HD
ENDBRANCH   2  11
BRANCH   3  13
ATOM     13  O   UNL     1       8.411  31.951  32.437  1.00  0.00    -0.387 OA
ATOM     14  H   UNL     1       8.825  31.848  31.543  1.00  0.00     0.211 HD
ENDBRANCH   3  13
BRANCH   4  15
ATOM     15  C   UNL     1       8.570  34.514  33.599  1.00  0.00     0.191 C 
BRANCH  15  16
ATOM     16  O   UNL     1       9.364  34.478  32.445  1.00  0.00    -0.394 OA
ATOM     17  H   UNL     1       9.008  33.738  31.888  1.00  0.00     0.210 HD
ENDBRANCH  15  16
ENDBRANCH   4  15
TORSDOF 7
ENDMDL
MODEL 3
REMARK VINA RESULT:    -3.383      2.458      4.390
REMARK INTER + INTRA:          -4.729
REMARK INTER:                  -4.402
REMARK INTRA:                  -0.327
REMARK UNBOUND:                -0.358
REMARK SMILES CO[C@]1(CO)O[C@@H](CO)[C@@H](O)[C@@H]1O
REMARK SMILES IDX 3 1 12 2 10 3 7 4 6 5 2 6 1 7 4 8 5 9 13 11 11 13 8 15 9 16
REMARK H PARENT 5 10 13 12 11 14 9 17
REMARK Flexibility Score: inf
ROOT
ATOM      1  C   UNL     1       5.266  32.017  34.183  1.00  0.00     0.221 C 
ATOM      2  C   UNL     1       6.308  31.184  34.993  1.00  0.00     0.207 C 
ATOM      3  C   UNL     1       7.638  31.559  34.371  1.00  0.00     0.180 C 
ATOM      4  C   UNL     1       7.217  32.039  32.987  1.00  0.00     0.179 C 
ATOM      5  O   UNL     1       5.948  32.633  33.103  1.00  0.00    -0.337 OA
ENDROOT
BRANCH   1   6
ATOM      6  O   UNL     1       4.247  31.192  33.616  1.00  0.00    -0.349 OA
ATOM      7  C   UNL     1       2.937  31.718  33.757  1.00  0.00     0.198 C 
ENDBRANCH   1   6
BRANCH   1   8
ATOM      8  C   UNL     1       4.675  33.172  35.038  1.00  0.00     0.224 C 
BRANCH   8   9
ATOM      9  O   UNL     1       5.576  34.247  35.106  1.00  0.00    -0.391 OA
ATOM     10  H   UNL     1       6.381  33.923  35.584  1.00  0.00     0.210 HD
ENDBRANCH   8   9
ENDBRANCH   1   8
BRANCH   2  11
ATOM     11  O   UNL     1       6.095  29.804  34.823  1.00  0.00    -0.385 OA
ATOM     12  H   UNL     1       6.643  29.342  35.511  1.00  0.00     0.211 HD
ENDBRANCH   2  11
BRANCH   3  13
ATOM     13  O   UNL     1       8.301  32.547  35.124  1.00  0.00    -0.387 OA
ATOM     14  H   UNL     1       8.028  33.437  34.785  1.00  0.00     0.211 HD
ENDBRANCH   3  13
BRANCH   4  15
ATOM     15  C   UNL     1       8.210  33.015  32.346  1.00  0.00     0.191 C 
BRANCH  15  16
ATOM     16  O   UNL     1       8.550  32.562  31.065  1.00  0.00    -0.394 OA
ATOM     17  H   UNL     1       8.794  31.606  31.166  1.00  0.00     0.210 HD
ENDBRANCH  15  16
ENDBRANCH   4  15
TORSDOF 7
ENDMDL
MODEL 4
REMARK VINA RESULT:    -3.352      7.669      9.842
REMARK INTER + INTRA:          -4.689
REMARK INTER:                  -4.407
REMARK INTRA:                  -0.283
REMARK UNBOUND:                -0.358
REMARK SMILES CO[C@]1(CO)O[C@@H](CO)[C@@H](O)[C@@H]1O
REMARK SMILES IDX 3 1 12 2 10 3 7 4 6 5 2 6 1 7 4 8 5 9 13 11 11 13 8 15 9 16
REMARK H PARENT 5 10 13 12 11 14 9 17
REMARK Flexibility Score: inf
ROOT
ATOM      1  C   UNL     1      17.340  36.897  32.909  1.00  0.00     0.221 C 
ATOM      2  C   UNL     1      18.476  37.564  33.744  1.00  0.00     0.207 C 
ATOM      3  C   UNL     1      19.723  36.809  33.332  1.00  0.00     0.180 C 
ATOM      4  C   UNL     1      19.146  35.494  32.824  1.00  0.00     0.179 C 
ATOM      5  O   UNL     1      17.889  35.765  32.253  1.00  0.00    -0.337 OA
ENDROOT
BRANCH   1   6
ATOM      6  O   UNL     1      16.275  36.424  33.735  1.00  0.00    -0.349 OA
ATOM      7  C   UNL     1      15.155  37.292  33.784  1.00  0.00     0.198 C 
ENDBRANCH   1   6
BRANCH   1   8
ATOM      8  C   UNL     1      16.832  37.843  31.785  1.00  0.00     0.224 C 
BRANCH   8   9
ATOM      9  O   UNL     1      16.396  37.102  30.675  1.00  0.00    -0.391 OA
ATOM     10  H   UNL     1      16.528  37.671  29.875  1.00  0.00     0.210 HD
ENDBRANCH   8   9
ENDBRANCH   1   8
BRANCH   2  11
ATOM     11  O   UNL     1      18.264  37.381  35.123  1.00  0.00    -0.385 OA
ATOM     12  H   UNL     1      18.610  36.478  35.349  1.00  0.00     0.211 HD
ENDBRANCH   2  11
BRANCH   3  13
ATOM     13  O   UNL     1      20.453  37.511  32.353  1.00  0.00    -0.387 OA
ATOM     14  H   UNL     1      21.203  37.982  32.797  1.00  0.00     0.211 HD
ENDBRANCH   3  13
BRANCH   4  15
ATOM     15  C   UNL     1      20.048  34.774  31.815  1.00  0.00     0.191 C 
BRANCH  15  16
ATOM     16  O   UNL     1      21.371  34.790  32.277  1.00  0.00    -0.394 OA
ATOM     17  H   UNL     1      21.834  35.499  31.760  1.00  0.00     0.210 HD
ENDBRANCH  15  16
ENDBRANCH   4  15
TORSDOF 7
ENDMDL
MODEL 5
REMARK VINA RESULT:    -3.310      2.915      5.402
REMARK INTER + INTRA:          -4.636
REMARK INTER:                  -4.395
REMARK INTRA:                  -0.241
REMARK UNBOUND:                -0.358
REMARK SMILES CO[C@]1(CO)O[C@@H](CO)[C@@H](O)[C@@H]1O
REMARK SMILES IDX 3 1 12 2 10 3 7 4 6 5 2 6 1 7 4 8 5 9 13 11 11 13 8 15 9 16
REMARK H PARENT 5 10 13 12 11 14 9 17
REMARK Flexibility Score: inf
ROOT
ATOM      1  C   UNL     1       6.303  32.355  33.753  1.00  0.00     0.221 C 
ATOM      2  C   UNL     1       4.850  32.036  33.283  1.00  0.00     0.207 C 
ATOM      3  C   UNL     1       4.601  30.632  33.792  1.00  0.00     0.180 C 
ATOM      4  C   UNL     1       6.018  30.092  33.943  1.00  0.00     0.179 C 
ATOM      5  O   UNL     1       6.854  31.166  34.297  1.00  0.00    -0.337 OA
ENDROOT
BRANCH   1   6
ATOM      6  O   UNL     1       7.144  32.745  32.667  1.00  0.00    -0.349 OA
ATOM      7  C   UNL     1       8.020  33.816  32.974  1.00  0.00     0.198 C 
ENDBRANCH   1   6
BRANCH   1   8
ATOM      8  C   UNL     1       6.310  33.400  34.903  1.00  0.00     0.224 C 
BRANCH   8   9
ATOM      9  O   UNL     1       5.017  33.900  35.125  1.00  0.00    -0.391 OA
ATOM     10  H   UNL     1       4.457  33.138  35.421  1.00  0.00     0.210 HD
ENDBRANCH   8   9
ENDBRANCH   1   8
BRANCH   2  11
ATOM     11  O   UNL     1       4.761  32.037  31.878  1.00  0.00    -0.385 OA
ATOM     12  H   UNL     1       4.234  32.839  31.625  1.00  0.00     0.211 HD
ENDBRANCH   2  11
BRANCH   3  13
ATOM     13  O   UNL     1       3.878  30.641  35.001  1.00  0.00    -0.387 OA
ATOM     14  H   UNL     1       3.468  31.536  35.116  1.00  0.00     0.211 HD
ENDBRANCH   3  13
BRANCH   4  15
ATOM     15  C   UNL     1       6.139  28.958  34.968  1.00  0.00     0.191 C 
BRANCH  15  16
ATOM     16  O   UNL     1       6.210  27.729  34.299  1.00  0.00    -0.394 OA
ATOM     17  H   UNL     1       6.813  27.872  33.524  1.00  0.00     0.210 HD
ENDBRANCH  15  16
ENDBRANCH   4  15
TORSDOF 7
ENDMDL
MODEL 6
REMARK VINA RESULT:    -3.209      1.622      2.046
REMARK INTER + INTRA:          -4.504
REMARK INTER:                  -3.924
REMARK INTRA:                  -0.580
REMARK UNBOUND:                -0.358
REMARK SMILES CO[C@]1(CO)O[C@@H](CO)[C@@H](O)[C@@H]1O
REMARK SMILES IDX 3 1 12 2 10 3 7 4 6 5 2 6 1 7 4 8 5 9 13 11 11 13 8 15 9 16
REMARK H PARENT 5 10 13 12 11 14 9 17
REMARK Flexibility Score: inf
ROOT
ATOM      1  C   UNL     1       9.295  34.965  33.989  1.00  0.00     0.221 C 
ATOM      2  C   UNL     1       9.967  35.854  32.897  1.00  0.00     0.207 C 
ATOM      3  C   UNL     1      11.450  35.606  33.085  1.00  0.00     0.180 C 
ATOM      4  C   UNL     1      11.512  35.135  34.533  1.00  0.00     0.179 C 
ATOM      5  O   UNL     1      10.323  34.438  34.812  1.00  0.00    -0.337 OA
ENDROOT
BRANCH   1   6
ATOM      6  O   UNL     1       8.429  35.722  34.836  1.00  0.00    -0.349 OA
ATOM      7  C   UNL     1       7.054  35.417  34.672  1.00  0.00     0.198 C 
ENDBRANCH   1   6
BRANCH   1   8
ATOM      8  C   UNL     1       8.574  33.741  33.359  1.00  0.00     0.224 C 
BRANCH   8   9
ATOM      9  O   UNL     1       8.999  33.544  32.036  1.00  0.00    -0.391 OA
ATOM     10  H   UNL     1       9.142  34.440  31.639  1.00  0.00     0.210 HD
ENDBRANCH   8   9
ENDBRANCH   1   8
BRANCH   2  11
ATOM     11  O   UNL     1       9.698  37.218  33.118  1.00  0.00    -0.385 OA
ATOM     12  H   UNL     1       9.800  37.676  32.243  1.00  0.00     0.211 HD
ENDBRANCH   2  11
BRANCH   3  13
ATOM     13  O   UNL     1      11.935  34.653  32.169  1.00  0.00    -0.387 OA
ATOM     14  H   UNL     1      11.635  33.755  32.461  1.00  0.00     0.211 HD
ENDBRANCH   3  13
BRANCH   4  15
ATOM     15  C   UNL     1      12.732  34.262  34.845  1.00  0.00     0.191 C 
BRANCH  15  16
ATOM     16  O   UNL     1      12.538  32.980  34.312  1.00  0.00    -0.394 OA
ATOM     17  H   UNL     1      12.745  32.343  35.045  1.00  0.00     0.210 HD
ENDBRANCH  15  16
ENDBRANCH   4  15
TORSDOF 7
ENDMDL
MODEL 7
REMARK VINA RESULT:    -3.130      1.765      4.354
REMARK INTER + INTRA:          -4.403
REMARK INTER:                  -3.858
REMARK INTRA:                  -0.545
REMARK UNBOUND:                -0.358
REMARK SMILES CO[C@]1(CO)O[C@@H](CO)[C@@H](O)[C@@H]1O
REMARK SMILES IDX 3 1 12 2 10 3 7 4 6 5 2 6 1 7 4 8 5 9 13 11 11 13 8 15 9 16
REMARK H PARENT 5 10 13 12 11 14 9 17
REMARK Flexibility Score: inf
ROOT
ATOM      1  C   UNL     1       8.178  33.245  34.161  1.00  0.00     0.221 C 
ATOM      2  C   UNL     1       7.366  33.092  32.838  1.00  0.00     0.207 C 
ATOM      3  C   UNL     1       6.428  31.935  33.117  1.00  0.00     0.180 C 
ATOM      4  C   UNL     1       7.156  31.199  34.235  1.00  0.00     0.179 C 
ATOM      5  O   UNL     1       7.846  32.153  35.004  1.00  0.00    -0.337 OA
ENDROOT
BRANCH   1   6
ATOM      6  O   UNL     1       9.587  33.182  33.934  1.00  0.00    -0.349 OA
ATOM      7  C   UNL     1      10.359  33.121  35.122  1.00  0.00     0.198 C 
ENDBRANCH   1   6
BRANCH   1   8
ATOM      8  C   UNL     1       7.767  34.528  34.934  1.00  0.00     0.224 C 
BRANCH   8   9
ATOM      9  O   UNL     1       6.521  34.996  34.488  1.00  0.00    -0.391 OA
ATOM     10  H   UNL     1       6.125  35.524  35.227  1.00  0.00     0.210 HD
ENDBRANCH   8   9
ENDBRANCH   1   8
BRANCH   2  11
ATOM     11  O   UNL     1       8.208  32.751  31.763  1.00  0.00    -0.385 OA
ATOM     12  H   UNL     1       9.014  33.325  31.838  1.00  0.00     0.211 HD
ENDBRANCH   2  11
BRANCH   3  13
ATOM     13  O   UNL     1       5.147  32.386  33.490  1.00  0.00    -0.387 OA
ATOM     14  H   UNL     1       5.137  33.376  33.448  1.00  0.00     0.211 HD
ENDBRANCH   3  13
BRANCH   4  15
ATOM     15  C   UNL     1       6.230  30.361  35.125  1.00  0.00     0.191 C 
BRANCH  15  16
ATOM     16  O   UNL     1       5.367  29.605  34.321  1.00  0.00    -0.394 OA
ATOM     17  H   UNL     1       5.580  29.848  33.382  1.00  0.00     0.210 HD
ENDBRANCH  15  16
ENDBRANCH   4  15
TORSDOF 7
ENDMDL
MODEL 8
REMARK VINA RESULT:    -3.062      8.181      9.945
REMARK INTER + INTRA:          -4.315
REMARK INTER:                  -3.809
REMARK INTRA:                  -0.506
REMARK UNBOUND:                -0.358
REMARK SMILES CO[C@]1(CO)O[C@@H](CO)[C@@H](O)[C@@H]1O
REMARK SMILES IDX 3 1 12 2 10 3 7 4 6 5 2 6 1 7 4 8 5 9 13 11 11 13 8 15 9 16
REMARK H PARENT 5 10 13 12 11 14 9 17
REMARK Flexibility Score: inf
ROOT
ATOM      1  C   UNL     1      18.411  37.021  33.173  1.00  0.00     0.221 C 
ATOM      2  C   UNL     1      16.950  36.526  33.411  1.00  0.00     0.207 C 
ATOM      3  C   UNL     1      16.136  37.286  32.384  1.00  0.00     0.180 C 
ATOM      4  C   UNL     1      17.022  38.494  32.105  1.00  0.00     0.179 C 
ATOM      5  O   UNL     1      18.362  38.087  32.238  1.00  0.00    -0.337 OA
ENDROOT
BRANCH   1   6
ATOM      6  O   UNL     1      19.001  37.539  34.366  1.00  0.00    -0.349 OA
ATOM      7  C   UNL     1      20.417  37.471  34.384  1.00  0.00     0.198 C 
ENDBRANCH   1   6
BRANCH   1   8
ATOM      8  C   UNL     1      19.285  35.914  32.521  1.00  0.00     0.224 C 
BRANCH   8   9
ATOM      9  O   UNL     1      18.491  34.827  32.122  1.00  0.00    -0.391 OA
ATOM     10  H   UNL     1      18.385  34.888  31.139  1.00  0.00     0.210 HD
ENDBRANCH   8   9
ENDBRANCH   1   8
BRANCH   2  11
ATOM     11  O   UNL     1      16.502  36.872  34.699  1.00  0.00    -0.385 OA
ATOM     12  H   UNL     1      15.520  37.003  34.636  1.00  0.00     0.211 HD
ENDBRANCH   2  11
BRANCH   3  13
ATOM     13  O   UNL     1      15.886  36.504  31.240  1.00  0.00    -0.387 OA
ATOM     14  H   UNL     1      16.432  36.857  30.492  1.00  0.00     0.211 HD
ENDBRANCH   3  13
BRANCH   4  15
ATOM     15  C   UNL     1      16.788  39.125  30.729  1.00  0.00     0.191 C 
BRANCH  15  16
ATOM     16  O   UNL     1      15.418  39.107  30.433  1.00  0.00    -0.394 OA
ATOM     17  H   UNL     1      14.947  39.169  31.305  1.00  0.00     0.210 HD
ENDBRANCH  15  16
ENDBRANCH   4  15
TORSDOF 7
ENDMDL
MODEL 9
REMARK VINA RESULT:    -2.966      6.357      9.100
REMARK INTER + INTRA:          -4.191
REMARK INTER:                  -3.778
REMARK INTRA:                  -0.413
REMARK UNBOUND:                -0.358
REMARK SMILES CO[C@]1(CO)O[C@@H](CO)[C@@H](O)[C@@H]1O
REMARK SMILES IDX 3 1 12 2 10 3 7 4 6 5 2 6 1 7 4 8 5 9 13 11 11 13 8 15 9 16
REMARK H PARENT 5 10 13 12 11 14 9 17
REMARK Flexibility Score: inf
ROOT
ATOM      1  C   UNL     1      17.511  36.798  33.018  1.00  0.00     0.221 C 
ATOM      2  C   UNL     1      16.774  37.618  31.915  1.00  0.00     0.207 C 
ATOM      3  C   UNL     1      15.392  37.848  32.493  1.00  0.00     0.180 C 
ATOM      4  C   UNL     1      15.276  36.710  33.500  1.00  0.00     0.179 C 
ATOM      5  O   UNL     1      16.560  36.454  34.012  1.00  0.00    -0.337 OA
ENDROOT
BRANCH   1   6
ATOM      6  O   UNL     1      18.044  35.575  32.509  1.00  0.00    -0.349 OA
ATOM      7  C   UNL     1      19.461  35.530  32.488  1.00  0.00     0.198 C 
ENDBRANCH   1   6
BRANCH   1   8
ATOM      8  C   UNL     1      18.593  37.655  33.733  1.00  0.00     0.224 C 
BRANCH   8   9
ATOM      9  O   UNL     1      18.416  37.614  35.125  1.00  0.00    -0.391 OA
ATOM     10  H   UNL     1      19.006  38.307  35.515  1.00  0.00     0.210 HD
ENDBRANCH   8   9
ENDBRANCH   1   8
BRANCH   2  11
ATOM     11  O   UNL     1      16.656  36.875  30.726  1.00  0.00    -0.385 OA
ATOM     12  H   UNL     1      17.414  36.234  30.711  1.00  0.00     0.211 HD
ENDBRANCH   2  11
BRANCH   3  13
ATOM     13  O   UNL     1      15.283  39.124  33.080  1.00  0.00    -0.387 OA
ATOM     14  H   UNL     1      14.606  39.644  32.577  1.00  0.00     0.211 HD
ENDBRANCH   3  13
BRANCH   4  15
ATOM     15  C   UNL     1      14.291  36.996  34.639  1.00  0.00     0.191 C 
BRANCH  15  16
ATOM     16  O   UNL     1      13.086  37.474  34.108  1.00  0.00    -0.394 OA
ATOM     17  H   UNL     1      13.017  37.091  33.194  1.00  0.00     0.210 HD
ENDBRANCH  15  16
ENDBRANCH   4  15
TORSDOF 7
ENDMDL
