MODEL 1
REMARK VINA RESULT:    -4.696      0.000      0.000
REMARK INTER + INTRA:          -4.833
REMARK INTER:                  -4.833
REMARK INTRA:                   0.000
REMARK UNBOUND:                 0.000
REMARK SMILES Oc1ccc2[nH]ccc2c1
REMARK SMILES IDX 3 1 4 2 5 3 9 4 8 5 7 6 6 7 10 8 2 9 1 11
REMARK H PARENT 6 10 1 12
REMARK Flexibility Score: inf
ROOT
ATOM      1  C   UNL     1      19.122  21.138  34.677  1.00  0.00     0.048 A 
ATOM      2  C   UNL     1      18.574  20.632  35.872  1.00  0.00     0.030 A 
ATOM      3  C   UNL     1      17.473  21.292  36.413  1.00  0.00     0.046 A 
ATOM      4  C   UNL     1      16.930  22.398  35.814  1.00  0.00     0.003 A 
ATOM      5  C   UNL     1      15.868  22.807  36.590  1.00  0.00     0.028 A 
ATOM      6  C   UNL     1      15.820  21.903  37.647  1.00  0.00     0.083 A 
ATOM      7  N   UNL     1      16.803  20.980  37.535  1.00  0.00    -0.361 N 
ATOM      8  C   UNL     1      17.448  22.924  34.632  1.00  0.00     0.056 A 
ATOM      9  C   UNL     1      18.564  22.279  34.057  1.00  0.00     0.116 A 
ATOM     10  H   UNL     1      16.997  20.189  38.187  1.00  0.00     0.166 HD
ENDROOT
BRANCH   9  11
ATOM     11  O   UNL     1      19.125  22.760  32.876  1.00  0.00    -0.508 OA
ATOM     12  H   UNL     1      19.755  22.193  32.322  1.00  0.00     0.293 HD
ENDBRANCH   9  11
TORSDOF 1
ENDMDL
MODEL 2
REMARK VINA RESULT:    -4.477     17.606     18.869
REMARK INTER + INTRA:          -4.608
REMARK INTER:                  -4.608
REMARK INTRA:                   0.000
REMARK UNBOUND:                 0.000
REMARK SMILES Oc1ccc2[nH]ccc2c1
REMARK SMILES IDX 3 1 4 2 5 3 9 4 8 5 7 6 6 7 10 8 2 9 1 11
REMARK H PARENT 6 10 1 12
REMARK Flexibility Score: inf
ROOT
ATOM      1  C   UNL     1      15.324  11.343  49.723  1.00  0.00     0.048 A 
ATOM      2  C   UNL     1      16.096  12.515  49.839  1.00  0.00     0.030 A 
ATOM      3  C   UNL     1      17.087  12.546  50.817  1.00  0.00     0.046 A 
ATOM      4  C   UNL     1      17.315  11.481  51.647  1.00  0.00     0.003 A 
ATOM      5  C   UNL     1      18.348  11.829  52.490  1.00  0.00     0.028 A 
ATOM      6  C   UNL     1      18.702  13.121  52.117  1.00  0.00     0.083 A 
ATOM      7  N   UNL     1      17.929  13.556  51.095  1.00  0.00    -0.361 N 
ATOM      8  C   UNL     1      16.570  10.307  51.559  1.00  0.00     0.056 A 
ATOM      9  C   UNL     1      15.557  10.241  50.578  1.00  0.00     0.116 A 
ATOM     10  H   UNL     1      17.979  14.485  50.622  1.00  0.00     0.166 HD
ENDROOT
BRANCH   9  11
ATOM     11  O   UNL     1      14.779   9.093  50.444  1.00  0.00    -0.508 OA
ATOM     12  H   UNL     1      14.352   8.846  49.560  1.00  0.00     0.293 HD
ENDBRANCH   9  11
TORSDOF 1
ENDMDL
MODEL 3
REMARK VINA RESULT:    -4.309      2.109      3.408
REMARK INTER + INTRA:          -4.435
REMARK INTER:                  -4.435
REMARK INTRA:                   0.000
REMARK UNBOUND:                 0.000
REMARK SMILES Oc1ccc2[nH]ccc2c1
REMARK SMILES IDX 3 1 4 2 5 3 9 4 8 5 7 6 6 7 10 8 2 9 1 11
REMARK H PARENT 6 10 1 12
REMARK Flexibility Score: inf
ROOT
ATOM      1  C   UNL     1      15.945  22.371  37.732  1.00  0.00     0.048 A 
ATOM      2  C   UNL     1      16.833  21.280  37.683  1.00  0.00     0.030 A 
ATOM      3  C   UNL     1      17.662  21.166  36.568  1.00  0.00     0.046 A 
ATOM      4  C   UNL     1      17.625  22.077  35.547  1.00  0.00     0.003 A 
ATOM      5  C   UNL     1      18.555  21.683  34.610  1.00  0.00     0.028 A 
ATOM      6  C   UNL     1      19.123  20.523  35.126  1.00  0.00     0.083 A 
ATOM      7  N   UNL     1      18.574  20.211  36.323  1.00  0.00    -0.361 N 
ATOM      8  C   UNL     1      16.758  23.167  35.563  1.00  0.00     0.056 A 
ATOM      9  C   UNL     1      15.904  23.313  36.678  1.00  0.00     0.116 A 
ATOM     10  H   UNL     1      18.814  19.395  36.929  1.00  0.00     0.166 HD
ENDROOT
BRANCH   9  11
ATOM     11  O   UNL     1      15.015  24.383  36.750  1.00  0.00    -0.508 OA
ATOM     12  H   UNL     1      14.400  24.612  35.979  1.00  0.00     0.293 HD
ENDBRANCH   9  11
TORSDOF 1
ENDMDL
MODEL 4
REMARK VINA RESULT:    -4.298     17.351     18.638
REMARK INTER + INTRA:          -4.423
REMARK INTER:                  -4.423
REMARK INTRA:                   0.000
REMARK UNBOUND:                 0.000
REMARK SMILES Oc1ccc2[nH]ccc2c1
REMARK SMILES IDX 3 1 4 2 5 3 9 4 8 5 7 6 6 7 10 8 2 9 1 11
REMARK H PARENT 6 10 1 12
REMARK Flexibility Score: inf
ROOT
ATOM      1  C   UNL     1      17.189  10.322  52.217  1.00  0.00     0.048 A 
ATOM      2  C   UNL     1      16.104  10.269  51.322  1.00  0.00     0.030 A 
ATOM      3  C   UNL     1      15.923  11.345  50.455  1.00  0.00     0.046 A 
ATOM      4  C   UNL     1      16.763  12.426  50.463  1.00  0.00     0.003 A 
ATOM      5  C   UNL     1      16.315  13.303  49.500  1.00  0.00     0.028 A 
ATOM      6  C   UNL     1      15.197  12.692  48.943  1.00  0.00     0.083 A 
ATOM      7  N   UNL     1      14.960  11.496  49.531  1.00  0.00    -0.361 N 
ATOM      8  C   UNL     1      17.846  12.511  51.336  1.00  0.00     0.056 A 
ATOM      9  C   UNL     1      18.059  11.437  52.228  1.00  0.00     0.116 A 
ATOM     10  H   UNL     1      14.188  10.830  49.307  1.00  0.00     0.166 HD
ENDROOT
BRANCH   9  11
ATOM     11  O   UNL     1      19.125  11.466  53.124  1.00  0.00    -0.508 OA
ATOM     12  H   UNL     1      19.884  12.128  53.022  1.00  0.00     0.293 HD
ENDBRANCH   9  11
TORSDOF 1
ENDMDL
MODEL 5
REMARK VINA RESULT:    -4.268     17.362     18.433
REMARK INTER + INTRA:          -4.393
REMARK INTER:                  -4.393
REMARK INTRA:                   0.000
REMARK UNBOUND:                 0.000
REMARK SMILES Oc1ccc2[nH]ccc2c1
REMARK SMILES IDX 3 1 4 2 5 3 9 4 8 5 7 6 6 7 10 8 2 9 1 11
REMARK H PARENT 6 10 1 12
REMARK Flexibility Score: inf
ROOT
ATOM      1  C   UNL     1      18.912  12.936  52.136  1.00  0.00     0.048 A 
ATOM      2  C   UNL     1      18.265  11.725  52.446  1.00  0.00     0.030 A 
ATOM      3  C   UNL     1      17.181  11.347  51.656  1.00  0.00     0.046 A 
ATOM      4  C   UNL     1      16.747  12.117  50.610  1.00  0.00     0.003 A 
ATOM      5  C   UNL     1      15.671  11.471  50.042  1.00  0.00     0.028 A 
ATOM      6  C   UNL     1      15.504  10.312  50.792  1.00  0.00     0.083 A 
ATOM      7  N   UNL     1      16.428  10.240  51.778  1.00  0.00    -0.361 N 
ATOM      8  C   UNL     1      17.365  13.320  50.277  1.00  0.00     0.056 A 
ATOM      9  C   UNL     1      18.467  13.734  51.056  1.00  0.00     0.116 A 
ATOM     10  H   UNL     1      16.532   9.480  52.486  1.00  0.00     0.166 HD
ENDROOT
BRANCH   9  11
ATOM     11  O   UNL     1      19.124  14.928  50.771  1.00  0.00    -0.508 OA
ATOM     12  H   UNL     1      18.749  15.591  50.103  1.00  0.00     0.293 HD
ENDBRANCH   9  11
TORSDOF 1
ENDMDL
MODEL 6
REMARK VINA RESULT:    -4.251     17.798     18.825
REMARK INTER + INTRA:          -4.375
REMARK INTER:                  -4.375
REMARK INTRA:                   0.000
REMARK UNBOUND:                 0.000
REMARK SMILES Oc1ccc2[nH]ccc2c1
REMARK SMILES IDX 3 1 4 2 5 3 9 4 8 5 7 6 6 7 10 8 2 9 1 11
REMARK H PARENT 6 10 1 12
REMARK Flexibility Score: inf
ROOT
ATOM      1  C   UNL     1      15.998  10.182  50.968  1.00  0.00     0.048 A 
ATOM      2  C   UNL     1      17.002  10.281  51.949  1.00  0.00     0.030 A 
ATOM      3  C   UNL     1      17.733  11.466  52.015  1.00  0.00     0.046 A 
ATOM      4  C   UNL     1      17.493  12.508  51.160  1.00  0.00     0.003 A 
ATOM      5  C   UNL     1      18.374  13.517  51.483  1.00  0.00     0.028 A 
ATOM      6  C   UNL     1      19.121  13.021  52.546  1.00  0.00     0.083 A 
ATOM      7  N   UNL     1      18.726  11.767  52.867  1.00  0.00    -0.361 N 
ATOM      8  C   UNL     1      16.507  12.443  50.177  1.00  0.00     0.056 A 
ATOM      9  C   UNL     1      15.748  11.257  50.083  1.00  0.00     0.116 A 
ATOM     10  H   UNL     1      19.116  11.162  53.623  1.00  0.00     0.166 HD
ENDROOT
BRANCH   9  11
ATOM     11  O   UNL     1      14.749  11.133  49.120  1.00  0.00    -0.508 OA
ATOM     12  H   UNL     1      14.837  11.565  48.209  1.00  0.00     0.293 HD
ENDBRANCH   9  11
TORSDOF 1
ENDMDL
MODEL 7
REMARK VINA RESULT:    -4.206     15.137     16.629
REMARK INTER + INTRA:          -4.329
REMARK INTER:                  -4.329
REMARK INTRA:                   0.000
REMARK UNBOUND:                 0.000
REMARK SMILES Oc1ccc2[nH]ccc2c1
REMARK SMILES IDX 3 1 4 2 5 3 9 4 8 5 7 6 6 7 10 8 2 9 1 11
REMARK H PARENT 6 10 1 12
REMARK Flexibility Score: inf
ROOT
ATOM      1  C   UNL     1       2.434  24.276  39.174  1.00  0.00     0.048 A 
ATOM      2  C   UNL     1       1.034  24.148  39.248  1.00  0.00     0.030 A 
ATOM      3  C   UNL     1       0.463  22.971  38.769  1.00  0.00     0.046 A 
ATOM      4  C   UNL     1       1.225  21.963  38.241  1.00  0.00     0.003 A 
ATOM      5  C   UNL     1       0.368  20.953  37.864  1.00  0.00     0.028 A 
ATOM      6  C   UNL     1      -0.903  21.412  38.193  1.00  0.00     0.083 A 
ATOM      7  N   UNL     1      -0.841  22.646  38.746  1.00  0.00    -0.361 N 
ATOM      8  C   UNL     1       2.612  22.058  38.152  1.00  0.00     0.056 A 
ATOM      9  C   UNL     1       3.224  23.238  38.628  1.00  0.00     0.116 A 
ATOM     10  H   UNL     1      -1.642  23.223  39.083  1.00  0.00     0.166 HD
ENDROOT
BRANCH   9  11
ATOM     11  O   UNL     1       4.607  23.391  38.565  1.00  0.00    -0.508 OA
ATOM     12  H   UNL     1       5.110  23.932  39.257  1.00  0.00     0.293 HD
ENDBRANCH   9  11
TORSDOF 1
ENDMDL
MODEL 8
REMARK VINA RESULT:    -2.158      0.815      2.268
REMARK INTER + INTRA:          -2.221
REMARK INTER:                  -2.221
REMARK INTRA:                   0.000
REMARK UNBOUND:                 0.000
REMARK SMILES Oc1ccc2[nH]ccc2c1
REMARK SMILES IDX 3 1 4 2 5 3 9 4 8 5 7 6 6 7 10 8 2 9 1 11
REMARK H PARENT 6 10 1 12
REMARK Flexibility Score: inf
ROOT
ATOM      1  C   UNL     1      17.544  22.985  34.685  1.00  0.00     0.048 A 
ATOM      2  C   UNL     1      16.996  22.586  35.919  1.00  0.00     0.030 A 
ATOM      3  C   UNL     1      17.528  21.453  36.531  1.00  0.00     0.046 A 
ATOM      4  C   UNL     1      18.551  20.741  35.964  1.00  0.00     0.003 A 
ATOM      5  C   UNL     1      18.841  19.693  36.809  1.00  0.00     0.028 A 
ATOM      6  C   UNL     1      17.956  19.828  37.874  1.00  0.00     0.083 A 
ATOM      7  N   UNL     1      17.155  20.905  37.699  1.00  0.00    -0.361 N 
ATOM      8  C   UNL     1      19.116  21.109  34.744  1.00  0.00     0.056 A 
ATOM      9  C   UNL     1      18.601  22.252  34.097  1.00  0.00     0.116 A 
ATOM     10  H   UNL     1      16.404  21.238  38.343  1.00  0.00     0.166 HD
ENDROOT
BRANCH   9  11
ATOM     11  O   UNL     1      19.125  22.667  32.875  1.00  0.00    -0.508 OA
ATOM     12  H   UNL     1      19.088  22.074  32.055  1.00  0.00     0.293 HD
ENDBRANCH   9  11
TORSDOF 1
ENDMDL
