MODEL 1
REMARK VINA RESULT:    -3.955      0.000      0.000
REMARK INTER + INTRA:          -9.810
REMARK INTER:                  -7.308
REMARK INTRA:                  -2.502
REMARK UNBOUND:                -2.502
REMARK SMILES CCCCCCCCCCCCCCCCO
REMARK SMILES IDX 9 1 8 2 7 3 6 4 5 5 4 6 3 7 2 8 1 9 10 10 11 11 12 12 13 13
REMARK SMILES IDX 14 14 15 15 16 16 17 17
REMARK H PARENT 17 18
REMARK Flexibility Score: inf
ROOT
ATOM      1  C   UNL     1     171.675 169.334 196.665  1.00  0.00     0.000 C 
ENDROOT
BRANCH   1   2
ATOM      2  C   UNL     1     170.418 168.568 197.121  1.00  0.00    -0.000 C 
BRANCH   2   3
ATOM      3  C   UNL     1     170.546 168.040 198.561  1.00  0.00    -0.000 C 
BRANCH   3   4
ATOM      4  C   UNL     1     171.855 168.491 199.250  1.00  0.00    -0.000 C 
BRANCH   4   5
ATOM      5  C   UNL     1     171.601 169.497 200.389  1.00  0.00    -0.000 C 
BRANCH   5   6
ATOM      6  C   UNL     1     171.640 170.959 199.914  1.00  0.00    -0.000 C 
BRANCH   6   7
ATOM      7  C   UNL     1     170.266 171.651 200.033  1.00  0.00    -0.000 C 
BRANCH   7   8
ATOM      8  C   UNL     1     169.566 171.860 198.686  1.00  0.00    -0.003 C 
ATOM      9  C   UNL     1     168.240 171.106 198.578  1.00  0.00     0.004 C 
ENDBRANCH   7   8
ENDBRANCH   6   7
ENDBRANCH   5   6
ENDBRANCH   4   5
ENDBRANCH   3   4
ENDBRANCH   2   3
ENDBRANCH   1   2
BRANCH   1  10
ATOM     10  C   UNL     1     171.360 170.451 195.643  1.00  0.00     0.000 C 
BRANCH  10  11
ATOM     11  C   UNL     1     172.488 171.499 195.512  1.00  0.00     0.000 C 
BRANCH  11  12
ATOM     12  C   UNL     1     172.719 172.360 196.771  1.00  0.00     0.000 C 
BRANCH  12  13
ATOM     13  C   UNL     1     174.173 172.378 197.302  1.00  0.00     0.000 C 
BRANCH  13  14
ATOM     14  C   UNL     1     175.053 171.202 196.828  1.00  0.00     0.002 C 
BRANCH  14  15
ATOM     15  C   UNL     1     175.086 170.036 197.833  1.00  0.00     0.028 C 
BRANCH  15  16
ATOM     16  C   UNL     1     175.694 170.481 199.173  1.00  0.00     0.156 C 
BRANCH  16  17
ATOM     17  O   UNL     1     177.027 170.024 199.263  1.00  0.00    -0.396 OA
ATOM     18  H   UNL     1     177.265 169.664 198.362  1.00  0.00     0.210 HD
ENDBRANCH  16  17
ENDBRANCH  15  16
ENDBRANCH  14  15
ENDBRANCH  13  14
ENDBRANCH  12  13
ENDBRANCH  11  12
ENDBRANCH  10  11
ENDBRANCH   1  10
TORSDOF 15
ENDMDL
MODEL 2
REMARK VINA RESULT:    -3.848      3.417      5.683
REMARK INTER + INTRA:          -9.612
REMARK INTER:                  -7.840
REMARK INTRA:                  -1.772
REMARK UNBOUND:                -2.502
REMARK SMILES CCCCCCCCCCCCCCCCO
REMARK SMILES IDX 9 1 8 2 7 3 6 4 5 5 4 6 3 7 2 8 1 9 10 10 11 11 12 12 13 13
REMARK SMILES IDX 14 14 15 15 16 16 17 17
REMARK H PARENT 17 18
REMARK Flexibility Score: inf
ROOT
ATOM      1  C   UNL     1     173.342 169.486 198.154  1.00  0.00     0.000 C 
ENDROOT
BRANCH   1   2
ATOM      2  C   UNL     1     174.824 169.775 197.848  1.00  0.00    -0.000 C 
BRANCH   2   3
ATOM      3  C   UNL     1     175.048 171.216 197.355  1.00  0.00    -0.000 C 
BRANCH   3   4
ATOM      4  C   UNL     1     175.176 172.233 198.513  1.00  0.00    -0.000 C 
BRANCH   4   5
ATOM      5  C   UNL     1     174.674 173.635 198.120  1.00  0.00    -0.000 C 
BRANCH   5   6
ATOM      6  C   UNL     1     173.546 173.595 197.075  1.00  0.00    -0.000 C 
BRANCH   6   7
ATOM      7  C   UNL     1     172.370 174.520 197.447  1.00  0.00    -0.000 C 
BRANCH   7   8
ATOM      8  C   UNL     1     172.776 175.703 198.334  1.00  0.00    -0.003 C 
ATOM      9  C   UNL     1     171.679 176.118 199.316  1.00  0.00     0.004 C 
ENDBRANCH   7   8
ENDBRANCH   6   7
ENDBRANCH   5   6
ENDBRANCH   4   5
ENDBRANCH   3   4
ENDBRANCH   2   3
ENDBRANCH   1   2
BRANCH   1  10
ATOM     10  C   UNL     1     172.389 169.996 197.049  1.00  0.00     0.000 C 
BRANCH  10  11
ATOM     11  C   UNL     1     171.189 170.801 197.596  1.00  0.00     0.000 C 
BRANCH  11  12
ATOM     12  C   UNL     1     170.391 171.578 196.528  1.00  0.00     0.000 C 
BRANCH  12  13
ATOM     13  C   UNL     1     168.947 171.964 196.933  1.00  0.00     0.000 C 
BRANCH  13  14
ATOM     14  C   UNL     1     168.776 173.418 197.422  1.00  0.00     0.002 C 
BRANCH  14  15
ATOM     15  C   UNL     1     168.964 173.564 198.943  1.00  0.00     0.028 C 
BRANCH  15  16
ATOM     16  C   UNL     1     167.720 173.072 199.701  1.00  0.00     0.156 C 
BRANCH  16  17
ATOM     17  O   UNL     1     166.571 173.714 199.192  1.00  0.00    -0.396 OA
ATOM     18  H   UNL     1     166.053 173.019 198.696  1.00  0.00     0.210 HD
ENDBRANCH  16  17
ENDBRANCH  15  16
ENDBRANCH  14  15
ENDBRANCH  13  14
ENDBRANCH  12  13
ENDBRANCH  11  12
ENDBRANCH  10  11
ENDBRANCH   1  10
TORSDOF 15
ENDMDL
MODEL 3
REMARK VINA RESULT:    -3.819      3.425      5.712
REMARK INTER + INTRA:          -9.558
REMARK INTER:                  -7.397
REMARK INTRA:                  -2.161
REMARK UNBOUND:                -2.502
REMARK SMILES CCCCCCCCCCCCCCCCO
REMARK SMILES IDX 9 1 8 2 7 3 6 4 5 5 4 6 3 7 2 8 1 9 10 10 11 11 12 12 13 13
REMARK SMILES IDX 14 14 15 15 16 16 17 17
REMARK H PARENT 17 18
REMARK Flexibility Score: inf
ROOT
ATOM      1  C   UNL     1     172.594 172.964 195.603  1.00  0.00     0.000 C 
ENDROOT
BRANCH   1   2
ATOM      2  C   UNL     1     173.298 171.601 195.459  1.00  0.00    -0.000 C 
BRANCH   2   3
ATOM      3  C   UNL     1     174.764 171.648 195.927  1.00  0.00    -0.000 C 
BRANCH   3   4
ATOM      4  C   UNL     1     174.936 171.215 197.401  1.00  0.00    -0.000 C 
BRANCH   4   5
ATOM      5  C   UNL     1     175.277 172.400 198.324  1.00  0.00    -0.000 C 
BRANCH   5   6
ATOM      6  C   UNL     1     174.128 172.762 199.281  1.00  0.00    -0.000 C 
BRANCH   6   7
ATOM      7  C   UNL     1     173.537 174.155 198.986  1.00  0.00    -0.000 C 
BRANCH   7   8
ATOM      8  C   UNL     1     172.206 174.421 199.697  1.00  0.00    -0.003 C 
ATOM      9  C   UNL     1     171.336 175.451 198.975  1.00  0.00     0.004 C 
ENDBRANCH   7   8
ENDBRANCH   6   7
ENDBRANCH   5   6
ENDBRANCH   4   5
ENDBRANCH   3   4
ENDBRANCH   2   3
ENDBRANCH   1   2
BRANCH   1  10
ATOM     10  C   UNL     1     171.230 172.862 196.325  1.00  0.00     0.000 C 
BRANCH  10  11
ATOM     11  C   UNL     1     170.868 171.422 196.754  1.00  0.00     0.000 C 
BRANCH  11  12
ATOM     12  C   UNL     1     170.895 171.174 198.276  1.00  0.00     0.000 C 
BRANCH  12  13
ATOM     13  C   UNL     1     169.509 171.001 198.943  1.00  0.00     0.000 C 
BRANCH  13  14
ATOM     14  C   UNL     1     168.338 171.666 198.190  1.00  0.00     0.002 C 
BRANCH  14  15
ATOM     15  C   UNL     1     168.138 173.143 198.576  1.00  0.00     0.028 C 
BRANCH  15  16
ATOM     16  C   UNL     1     167.285 173.269 199.848  1.00  0.00     0.156 C 
BRANCH  16  17
ATOM     17  O   UNL     1     165.991 173.722 199.508  1.00  0.00    -0.396 OA
ATOM     18  H   UNL     1     166.098 174.655 199.167  1.00  0.00     0.210 HD
ENDBRANCH  16  17
ENDBRANCH  15  16
ENDBRANCH  14  15
ENDBRANCH  13  14
ENDBRANCH  12  13
ENDBRANCH  11  12
ENDBRANCH  10  11
ENDBRANCH   1  10
TORSDOF 15
ENDMDL
MODEL 4
REMARK VINA RESULT:    -3.818      1.422      2.592
REMARK INTER + INTRA:          -9.557
REMARK INTER:                  -7.449
REMARK INTRA:                  -2.108
REMARK UNBOUND:                -2.502
REMARK SMILES CCCCCCCCCCCCCCCCO
REMARK SMILES IDX 9 1 8 2 7 3 6 4 5 5 4 6 3 7 2 8 1 9 10 10 11 11 12 12 13 13
REMARK SMILES IDX 14 14 15 15 16 16 17 17
REMARK H PARENT 17 18
REMARK Flexibility Score: inf
ROOT
ATOM      1  C   UNL     1     171.422 169.997 197.047  1.00  0.00     0.000 C 
ENDROOT
BRANCH   1   2
ATOM      2  C   UNL     1     170.020 169.534 197.489  1.00  0.00    -0.000 C 
BRANCH   2   3
ATOM      3  C   UNL     1     169.556 170.228 198.782  1.00  0.00    -0.000 C 
BRANCH   3   4
ATOM      4  C   UNL     1     168.256 171.042 198.592  1.00  0.00    -0.000 C 
BRANCH   4   5
ATOM      5  C   UNL     1     168.412 172.160 197.545  1.00  0.00    -0.000 C 
BRANCH   5   6
ATOM      6  C   UNL     1     168.945 173.472 198.145  1.00  0.00    -0.000 C 
BRANCH   6   7
ATOM      7  C   UNL     1     170.294 173.893 197.528  1.00  0.00    -0.000 C 
BRANCH   7   8
ATOM      8  C   UNL     1     171.370 174.219 198.570  1.00  0.00    -0.003 C 
ATOM      9  C   UNL     1     171.549 173.113 199.611  1.00  0.00     0.004 C 
ENDBRANCH   7   8
ENDBRANCH   6   7
ENDBRANCH   5   6
ENDBRANCH   4   5
ENDBRANCH   3   4
ENDBRANCH   2   3
ENDBRANCH   1   2
BRANCH   1  10
ATOM     10  C   UNL     1     171.388 170.914 195.802  1.00  0.00     0.000 C 
BRANCH  10  11
ATOM     11  C   UNL     1     172.777 171.459 195.403  1.00  0.00     0.000 C 
BRANCH  11  12
ATOM     12  C   UNL     1     173.621 172.002 196.575  1.00  0.00     0.000 C 
BRANCH  12  13
ATOM     13  C   UNL     1     175.031 171.381 196.717  1.00  0.00     0.000 C 
BRANCH  13  14
ATOM     14  C   UNL     1     175.132 170.218 197.727  1.00  0.00     0.002 C 
BRANCH  14  15
ATOM     15  C   UNL     1     174.871 170.661 199.178  1.00  0.00     0.028 C 
BRANCH  15  16
ATOM     16  C   UNL     1     176.187 170.771 199.964  1.00  0.00     0.156 C 
BRANCH  16  17
ATOM     17  O   UNL     1     177.184 170.000 199.329  1.00  0.00    -0.396 OA
ATOM     18  H   UNL     1     177.971 170.602 199.200  1.00  0.00     0.210 HD
ENDBRANCH  16  17
ENDBRANCH  15  16
ENDBRANCH  14  15
ENDBRANCH  13  14
ENDBRANCH  12  13
ENDBRANCH  11  12
ENDBRANCH  10  11
ENDBRANCH   1  10
TORSDOF 15
ENDMDL
MODEL 5
REMARK VINA RESULT:    -3.814      1.481      3.754
REMARK INTER + INTRA:          -9.548
REMARK INTER:                  -7.077
REMARK INTRA:                  -2.472
REMARK UNBOUND:                -2.502
REMARK SMILES CCCCCCCCCCCCCCCCO
REMARK SMILES IDX 9 1 8 2 7 3 6 4 5 5 4 6 3 7 2 8 1 9 10 10 11 11 12 12 13 13
REMARK SMILES IDX 14 14 15 15 16 16 17 17
REMARK H PARENT 17 18
REMARK Flexibility Score: inf
ROOT
ATOM      1  C   UNL     1     170.048 169.665 199.011  1.00  0.00     0.000 C 
ENDROOT
BRANCH   1   2
ATOM      2  C   UNL     1     168.896 170.224 198.154  1.00  0.00    -0.000 C 
BRANCH   2   3
ATOM      3  C   UNL     1     168.447 171.622 198.619  1.00  0.00    -0.000 C 
BRANCH   3   4
ATOM      4  C   UNL     1     168.554 172.687 197.503  1.00  0.00    -0.000 C 
BRANCH   4   5
ATOM      5  C   UNL     1     169.762 173.622 197.700  1.00  0.00    -0.000 C 
BRANCH   5   6
ATOM      6  C   UNL     1     171.052 173.074 197.066  1.00  0.00    -0.000 C 
BRANCH   6   7
ATOM      7  C   UNL     1     170.790 172.369 195.720  1.00  0.00    -0.000 C 
BRANCH   7   8
ATOM      8  C   UNL     1     171.803 171.264 195.399  1.00  0.00    -0.003 C 
ATOM      9  C   UNL     1     171.164 169.878 195.304  1.00  0.00     0.004 C 
ENDBRANCH   7   8
ENDBRANCH   6   7
ENDBRANCH   5   6
ENDBRANCH   4   5
ENDBRANCH   3   4
ENDBRANCH   2   3
ENDBRANCH   1   2
BRANCH   1  10
ATOM     10  C   UNL     1     170.753 170.753 199.854  1.00  0.00     0.000 C 
BRANCH  10  11
ATOM     11  C   UNL     1     172.277 170.830 199.607  1.00  0.00     0.000 C 
BRANCH  11  12
ATOM     12  C   UNL     1     172.921 169.512 199.127  1.00  0.00     0.000 C 
BRANCH  12  13
ATOM     13  C   UNL     1     173.824 169.636 197.876  1.00  0.00     0.000 C 
BRANCH  13  14
ATOM     14  C   UNL     1     175.103 170.477 198.077  1.00  0.00     0.002 C 
BRANCH  14  15
ATOM     15  C   UNL     1     175.092 171.787 197.268  1.00  0.00     0.028 C 
BRANCH  15  16
ATOM     16  C   UNL     1     175.048 173.009 198.199  1.00  0.00     0.156 C 
BRANCH  16  17
ATOM     17  O   UNL     1     175.563 172.657 199.466  1.00  0.00    -0.396 OA
ATOM     18  H   UNL     1     174.785 172.625 200.091  1.00  0.00     0.210 HD
ENDBRANCH  16  17
ENDBRANCH  15  16
ENDBRANCH  14  15
ENDBRANCH  13  14
ENDBRANCH  12  13
ENDBRANCH  11  12
ENDBRANCH  10  11
ENDBRANCH   1  10
TORSDOF 15
ENDMDL
MODEL 6
REMARK VINA RESULT:    -3.802      1.568      3.552
REMARK INTER + INTRA:          -9.527
REMARK INTER:                  -7.576
REMARK INTRA:                  -1.951
REMARK UNBOUND:                -2.502
REMARK SMILES CCCCCCCCCCCCCCCCO
REMARK SMILES IDX 9 1 8 2 7 3 6 4 5 5 4 6 3 7 2 8 1 9 10 10 11 11 12 12 13 13
REMARK SMILES IDX 14 14 15 15 16 16 17 17
REMARK H PARENT 17 18
REMARK Flexibility Score: inf
ROOT
ATOM      1  C   UNL     1     172.007 173.093 198.714  1.00  0.00     0.000 C 
ENDROOT
BRANCH   1   2
ATOM      2  C   UNL     1     170.945 174.143 199.094  1.00  0.00    -0.000 C 
BRANCH   2   3
ATOM      3  C   UNL     1     169.515 173.576 199.033  1.00  0.00    -0.000 C 
BRANCH   3   4
ATOM      4  C   UNL     1     168.957 173.512 197.592  1.00  0.00    -0.000 C 
BRANCH   4   5
ATOM      5  C   UNL     1     168.568 172.080 197.178  1.00  0.00    -0.000 C 
BRANCH   5   6
ATOM      6  C   UNL     1     168.256 171.173 198.381  1.00  0.00    -0.000 C 
BRANCH   6   7
ATOM      7  C   UNL     1     169.018 169.834 198.318  1.00  0.00    -0.000 C 
BRANCH   7   8
ATOM      8  C   UNL     1     170.396 169.943 197.654  1.00  0.00    -0.003 C 
ATOM      9  C   UNL     1     170.908 168.605 197.118  1.00  0.00     0.004 C 
ENDBRANCH   7   8
ENDBRANCH   6   7
ENDBRANCH   5   6
ENDBRANCH   4   5
ENDBRANCH   3   4
ENDBRANCH   2   3
ENDBRANCH   1   2
BRANCH   1  10
ATOM     10  C   UNL     1     172.791 173.466 197.434  1.00  0.00     0.000 C 
BRANCH  10  11
ATOM     11  C   UNL     1     172.574 172.475 196.269  1.00  0.00     0.000 C 
BRANCH  11  12
ATOM     12  C   UNL     1     173.856 171.781 195.764  1.00  0.00     0.000 C 
BRANCH  12  13
ATOM     13  C   UNL     1     174.951 171.553 196.834  1.00  0.00     0.000 C 
BRANCH  13  14
ATOM     14  C   UNL     1     174.910 170.173 197.522  1.00  0.00     0.002 C 
BRANCH  14  15
ATOM     15  C   UNL     1     174.778 170.270 199.053  1.00  0.00     0.028 C 
BRANCH  15  16
ATOM     16  C   UNL     1     176.044 170.880 199.677  1.00  0.00     0.156 C 
BRANCH  16  17
ATOM     17  O   UNL     1     177.153 170.049 199.404  1.00  0.00    -0.396 OA
ATOM     18  H   UNL     1     177.961 170.636 199.428  1.00  0.00     0.210 HD
ENDBRANCH  16  17
ENDBRANCH  15  16
ENDBRANCH  14  15
ENDBRANCH  13  14
ENDBRANCH  12  13
ENDBRANCH  11  12
ENDBRANCH  10  11
ENDBRANCH   1  10
TORSDOF 15
ENDMDL
MODEL 7
REMARK VINA RESULT:    -3.794      3.190      6.035
REMARK INTER + INTRA:          -9.512
REMARK INTER:                  -7.470
REMARK INTRA:                  -2.042
REMARK UNBOUND:                -2.502
REMARK SMILES CCCCCCCCCCCCCCCCO
REMARK SMILES IDX 9 1 8 2 7 3 6 4 5 5 4 6 3 7 2 8 1 9 10 10 11 11 12 12 13 13
REMARK SMILES IDX 14 14 15 15 16 16 17 17
REMARK H PARENT 17 18
REMARK Flexibility Score: inf
ROOT
ATOM      1  C   UNL     1     170.825 170.865 195.384  1.00  0.00     0.000 C 
ENDROOT
BRANCH   1   2
ATOM      2  C   UNL     1     172.001 171.854 195.268  1.00  0.00    -0.000 C 
BRANCH   2   3
ATOM      3  C   UNL     1     171.607 173.282 195.687  1.00  0.00    -0.000 C 
BRANCH   3   4
ATOM      4  C   UNL     1     172.711 173.994 196.502  1.00  0.00    -0.000 C 
BRANCH   4   5
ATOM      5  C   UNL     1     172.538 173.796 198.020  1.00  0.00    -0.000 C 
BRANCH   5   6
ATOM      6  C   UNL     1     173.472 172.717 198.593  1.00  0.00    -0.000 C 
BRANCH   6   7
ATOM      7  C   UNL     1     174.790 172.602 197.801  1.00  0.00    -0.000 C 
BRANCH   7   8
ATOM      8  C   UNL     1     175.000 171.228 197.154  1.00  0.00    -0.003 C 
ATOM      9  C   UNL     1     175.368 170.141 198.165  1.00  0.00     0.004 C 
ENDBRANCH   7   8
ENDBRANCH   6   7
ENDBRANCH   5   6
ENDBRANCH   4   5
ENDBRANCH   3   4
ENDBRANCH   2   3
ENDBRANCH   1   2
BRANCH   1  10
ATOM     10  C   UNL     1     171.059 169.775 196.456  1.00  0.00     0.000 C 
BRANCH  10  11
ATOM     11  C   UNL     1     170.922 170.297 197.903  1.00  0.00     0.000 C 
BRANCH  11  12
ATOM     12  C   UNL     1     169.567 169.989 198.576  1.00  0.00     0.000 C 
BRANCH  12  13
ATOM     13  C   UNL     1     168.432 170.994 198.268  1.00  0.00     0.000 C 
BRANCH  13  14
ATOM     14  C   UNL     1     168.891 172.456 198.081  1.00  0.00     0.002 C 
BRANCH  14  15
ATOM     15  C   UNL     1     168.391 173.388 199.201  1.00  0.00     0.028 C 
BRANCH  15  16
ATOM     16  C   UNL     1     167.113 172.833 199.849  1.00  0.00     0.156 C 
BRANCH  16  17
ATOM     17  O   UNL     1     166.023 173.677 199.545  1.00  0.00    -0.396 OA
ATOM     18  H   UNL     1     165.354 173.116 199.061  1.00  0.00     0.210 HD
ENDBRANCH  16  17
ENDBRANCH  15  16
ENDBRANCH  14  15
ENDBRANCH  13  14
ENDBRANCH  12  13
ENDBRANCH  11  12
ENDBRANCH  10  11
ENDBRANCH   1  10
TORSDOF 15
ENDMDL
MODEL 8
REMARK VINA RESULT:    -3.770      3.346      5.593
REMARK INTER + INTRA:          -9.467
REMARK INTER:                  -7.571
REMARK INTRA:                  -1.896
REMARK UNBOUND:                -2.502
REMARK SMILES CCCCCCCCCCCCCCCCO
REMARK SMILES IDX 9 1 8 2 7 3 6 4 5 5 4 6 3 7 2 8 1 9 10 10 11 11 12 12 13 13
REMARK SMILES IDX 14 14 15 15 16 16 17 17
REMARK H PARENT 17 18
REMARK Flexibility Score: inf
ROOT
ATOM      1  C   UNL     1     170.018 170.446 198.213  1.00  0.00     0.000 C 
ENDROOT
BRANCH   1   2
ATOM      2  C   UNL     1     168.668 171.068 197.808  1.00  0.00    -0.000 C 
BRANCH   2   3
ATOM      3  C   UNL     1     167.894 171.623 199.018  1.00  0.00    -0.000 C 
BRANCH   3   4
ATOM      4  C   UNL     1     167.917 173.167 199.087  1.00  0.00    -0.000 C 
BRANCH   4   5
ATOM      5  C   UNL     1     168.638 173.796 197.880  1.00  0.00    -0.000 C 
BRANCH   5   6
ATOM      6  C   UNL     1     169.995 174.418 198.251  1.00  0.00    -0.000 C 
BRANCH   6   7
ATOM      7  C   UNL     1     171.147 173.872 197.382  1.00  0.00    -0.000 C 
BRANCH   7   8
ATOM      8  C   UNL     1     172.468 174.627 197.569  1.00  0.00    -0.003 C 
ATOM      9  C   UNL     1     172.991 174.568 199.005  1.00  0.00     0.004 C 
ENDBRANCH   7   8
ENDBRANCH   6   7
ENDBRANCH   5   6
ENDBRANCH   4   5
ENDBRANCH   3   4
ENDBRANCH   2   3
ENDBRANCH   1   2
BRANCH   1  10
ATOM     10  C   UNL     1     170.235 170.423 199.744  1.00  0.00     0.000 C 
BRANCH  10  11
ATOM     11  C   UNL     1     171.319 171.413 200.225  1.00  0.00     0.000 C 
BRANCH  11  12
ATOM     12  C   UNL     1     170.873 172.360 201.359  1.00  0.00     0.000 C 
BRANCH  12  13
ATOM     13  C   UNL     1     170.246 171.665 202.592  1.00  0.00     0.000 C 
BRANCH  13  14
ATOM     14  C   UNL     1     171.159 170.637 203.294  1.00  0.00     0.002 C 
BRANCH  14  15
ATOM     15  C   UNL     1     171.267 170.872 204.812  1.00  0.00     0.028 C 
BRANCH  15  16
ATOM     16  C   UNL     1     172.609 171.528 205.173  1.00  0.00     0.156 C 
BRANCH  16  17
ATOM     17  O   UNL     1     173.193 170.844 206.262  1.00  0.00    -0.396 OA
ATOM     18  H   UNL     1     172.832 171.269 207.091  1.00  0.00     0.210 HD
ENDBRANCH  16  17
ENDBRANCH  15  16
ENDBRANCH  14  15
ENDBRANCH  13  14
ENDBRANCH  12  13
ENDBRANCH  11  12
ENDBRANCH  10  11
ENDBRANCH   1  10
TORSDOF 15
ENDMDL
MODEL 9
REMARK VINA RESULT:    -3.721      1.498      3.092
REMARK INTER + INTRA:          -9.377
REMARK INTER:                  -6.859
REMARK INTRA:                  -2.519
REMARK UNBOUND:                -2.502
REMARK SMILES CCCCCCCCCCCCCCCCO
REMARK SMILES IDX 9 1 8 2 7 3 6 4 5 5 4 6 3 7 2 8 1 9 10 10 11 11 12 12 13 13
REMARK SMILES IDX 14 14 15 15 16 16 17 17
REMARK H PARENT 17 18
REMARK Flexibility Score: inf
ROOT
ATOM      1  C   UNL     1     170.762 168.863 196.783  1.00  0.00     0.000 C 
ENDROOT
BRANCH   1   2
ATOM      2  C   UNL     1     171.125 169.765 195.587  1.00  0.00    -0.000 C 
BRANCH   2   3
ATOM      3  C   UNL     1     170.613 171.206 195.766  1.00  0.00    -0.000 C 
BRANCH   3   4
ATOM      4  C   UNL     1     171.757 172.228 195.964  1.00  0.00    -0.000 C 
BRANCH   4   5
ATOM      5  C   UNL     1     171.294 173.484 196.728  1.00  0.00    -0.000 C 
BRANCH   5   6
ATOM      6  C   UNL     1     171.695 173.463 198.212  1.00  0.00    -0.000 C 
BRANCH   6   7
ATOM      7  C   UNL     1     170.470 173.442 199.149  1.00  0.00    -0.000 C 
BRANCH   7   8
ATOM      8  C   UNL     1     169.131 173.536 198.411  1.00  0.00    -0.003 C 
ATOM      9  C   UNL     1     167.937 173.152 199.287  1.00  0.00     0.004 C 
ENDBRANCH   7   8
ENDBRANCH   6   7
ENDBRANCH   5   6
ENDBRANCH   4   5
ENDBRANCH   3   4
ENDBRANCH   2   3
ENDBRANCH   1   2
BRANCH   1  10
ATOM     10  C   UNL     1     170.039 169.629 197.916  1.00  0.00     0.000 C 
BRANCH  10  11
ATOM     11  C   UNL     1     170.858 169.707 199.224  1.00  0.00     0.000 C 
BRANCH  11  12
ATOM     12  C   UNL     1     172.316 169.217 199.104  1.00  0.00     0.000 C 
BRANCH  12  13
ATOM     13  C   UNL     1     173.377 170.332 198.941  1.00  0.00     0.000 C 
BRANCH  13  14
ATOM     14  C   UNL     1     174.465 170.045 197.884  1.00  0.00     0.002 C 
BRANCH  14  15
ATOM     15  C   UNL     1     174.997 171.323 197.210  1.00  0.00     0.028 C 
BRANCH  15  16
ATOM     16  C   UNL     1     175.328 172.399 198.256  1.00  0.00     0.156 C 
BRANCH  16  17
ATOM     17  O   UNL     1     176.473 172.014 198.986  1.00  0.00    -0.396 OA
ATOM     18  H   UNL     1     176.187 171.276 199.595  1.00  0.00     0.210 HD
ENDBRANCH  16  17
ENDBRANCH  15  16
ENDBRANCH  14  15
ENDBRANCH  13  14
ENDBRANCH  12  13
ENDBRANCH  11  12
ENDBRANCH  10  11
ENDBRANCH   1  10
TORSDOF 15
ENDMDL
