MODEL 1
REMARK VINA RESULT:    -2.906      0.000      0.000
REMARK INTER + INTRA:          -3.518
REMARK INTER:                  -3.416
REMARK INTRA:                  -0.102
REMARK UNBOUND:                -0.102
REMARK SMILES CCCCC(=O)[O-]
REMARK SMILES IDX 4 1 5 2 6 3 7 4 3 5 2 6 1 7
REMARK H PARENT
REMARK Flexibility Score: inf
ROOT
ATOM      1  C   UNL     1       2.168 -11.524 -42.424  1.00  0.00     0.053 C 
ENDROOT
BRANCH   1   2
ATOM      2  C   UNL     1       2.231 -11.630 -43.917  1.00  0.00     0.041 C 
ATOM      3  O   UNL     1       2.209 -12.760 -44.474  1.00  0.00    -0.550 OA
ATOM      4  O   UNL     1       2.279 -10.481 -44.696  1.00  0.00    -0.550 OA
ENDBRANCH   1   2
BRANCH   1   5
ATOM      5  C   UNL     1       1.992 -10.071 -41.956  1.00  0.00     0.006 C 
BRANCH   5   6
ATOM      6  C   UNL     1       0.633  -9.785 -41.293  1.00  0.00    -0.003 C 
ATOM      7  C   UNL     1      -0.476  -9.503 -42.307  1.00  0.00     0.004 C 
ENDBRANCH   5   6
ENDBRANCH   1   5
TORSDOF 3
ENDMDL
MODEL 2
REMARK VINA RESULT:    -2.772      1.358      1.772
REMARK INTER + INTRA:          -3.361
REMARK INTER:                  -3.252
REMARK INTRA:                  -0.109
REMARK UNBOUND:                -0.102
REMARK SMILES CCCCC(=O)[O-]
REMARK SMILES IDX 4 1 5 2 6 3 7 4 3 5 2 6 1 7
REMARK H PARENT
REMARK Flexibility Score: inf
ROOT
ATOM      1  C   UNL     1       2.250 -10.265 -42.029  1.00  0.00     0.053 C 
ENDROOT
BRANCH   1   2
ATOM      2  C   UNL     1       2.192 -11.708 -42.424  1.00  0.00     0.041 C 
ATOM      3  O   UNL     1       2.248 -12.609 -41.545  1.00  0.00    -0.550 OA
ATOM      4  O   UNL     1       2.042 -12.059 -43.760  1.00  0.00    -0.550 OA
ENDBRANCH   1   2
BRANCH   1   5
ATOM      5  C   UNL     1       1.185  -9.426 -42.752  1.00  0.00     0.006 C 
BRANCH   5   6
ATOM      6  C   UNL     1      -0.244  -9.625 -42.215  1.00  0.00    -0.003 C 
ATOM      7  C   UNL     1      -0.330  -9.498 -40.694  1.00  0.00     0.004 C 
ENDBRANCH   5   6
ENDBRANCH   1   5
TORSDOF 3
ENDMDL
MODEL 3
REMARK VINA RESULT:    -2.724      2.574      3.748
REMARK INTER + INTRA:          -3.304
REMARK INTER:                  -3.216
REMARK INTRA:                  -0.088
REMARK UNBOUND:                -0.102
REMARK SMILES CCCCC(=O)[O-]
REMARK SMILES IDX 4 1 5 2 6 3 7 4 3 5 2 6 1 7
REMARK H PARENT
REMARK Flexibility Score: inf
ROOT
ATOM      1  C   UNL     1       1.877 -10.083 -41.762  1.00  0.00     0.053 C 
ENDROOT
BRANCH   1   2
ATOM      2  C   UNL     1       0.665 -10.433 -40.956  1.00  0.00     0.041 C 
ATOM      3  O   UNL     1      -0.010  -9.527 -40.399  1.00  0.00    -0.550 OA
ATOM      4  O   UNL     1       0.260 -11.758 -40.846  1.00  0.00    -0.550 OA
ENDBRANCH   1   2
BRANCH   1   5
ATOM      5  C   UNL     1       1.528  -9.783 -43.229  1.00  0.00     0.006 C 
BRANCH   5   6
ATOM      6  C   UNL     1       2.260 -10.679 -44.245  1.00  0.00    -0.003 C 
ATOM      7  C   UNL     1       2.119 -12.168 -43.933  1.00  0.00     0.004 C 
ENDBRANCH   5   6
ENDBRANCH   1   5
TORSDOF 3
ENDMDL
MODEL 4
REMARK VINA RESULT:    -2.712      1.655      2.249
REMARK INTER + INTRA:          -3.290
REMARK INTER:                  -3.183
REMARK INTRA:                  -0.107
REMARK UNBOUND:                -0.102
REMARK SMILES CCCCC(=O)[O-]
REMARK SMILES IDX 4 1 5 2 6 3 7 4 3 5 2 6 1 7
REMARK H PARENT
REMARK Flexibility Score: inf
ROOT
ATOM      1  C   UNL     1       1.521  -9.493 -42.576  1.00  0.00     0.053 C 
ENDROOT
BRANCH   1   2
ATOM      2  C   UNL     1       2.392 -10.707 -42.499  1.00  0.00     0.041 C 
ATOM      3  O   UNL     1       3.346 -10.753 -41.677  1.00  0.00    -0.550 OA
ATOM      4  O   UNL     1       2.131 -11.805 -43.310  1.00  0.00    -0.550 OA
ENDBRANCH   1   2
BRANCH   1   5
ATOM      5  C   UNL     1       0.328  -9.576 -41.610  1.00  0.00     0.006 C 
BRANCH   5   6
ATOM      6  C   UNL     1      -1.016  -9.883 -42.297  1.00  0.00    -0.003 C 
ATOM      7  C   UNL     1      -1.329 -11.378 -42.350  1.00  0.00     0.004 C 
ENDBRANCH   5   6
ENDBRANCH   1   5
TORSDOF 3
ENDMDL
MODEL 5
REMARK VINA RESULT:    -2.701      2.346      3.307
REMARK INTER + INTRA:          -3.277
REMARK INTER:                  -3.261
REMARK INTRA:                  -0.017
REMARK UNBOUND:                -0.102
REMARK SMILES CCCCC(=O)[O-]
REMARK SMILES IDX 4 1 5 2 6 3 7 4 3 5 2 6 1 7
REMARK H PARENT
REMARK Flexibility Score: inf
ROOT
ATOM      1  C   UNL     1      -0.262  -9.554 -41.956  1.00  0.00     0.053 C 
ENDROOT
BRANCH   1   2
ATOM      2  C   UNL     1       1.127  -9.432 -42.502  1.00  0.00     0.041 C 
ATOM      3  O   UNL     1       1.345  -8.736 -43.529  1.00  0.00    -0.550 OA
ATOM      4  O   UNL     1       2.187 -10.059 -41.858  1.00  0.00    -0.550 OA
ENDBRANCH   1   2
BRANCH   1   5
ATOM      5  C   UNL     1      -0.296  -9.403 -40.427  1.00  0.00     0.006 C 
BRANCH   5   6
ATOM      6  C   UNL     1      -1.447  -8.522 -39.908  1.00  0.00    -0.003 C 
ATOM      7  C   UNL     1      -1.034  -7.639 -38.730  1.00  0.00     0.004 C 
ENDBRANCH   5   6
ENDBRANCH   1   5
TORSDOF 3
ENDMDL
MODEL 6
REMARK VINA RESULT:    -2.666      2.434      3.650
REMARK INTER + INTRA:          -3.236
REMARK INTER:                  -3.125
REMARK INTRA:                  -0.111
REMARK UNBOUND:                -0.102
REMARK SMILES CCCCC(=O)[O-]
REMARK SMILES IDX 4 1 5 2 6 3 7 4 3 5 2 6 1 7
REMARK H PARENT
REMARK Flexibility Score: inf
ROOT
ATOM      1  C   UNL     1       0.361  -9.560 -41.669  1.00  0.00     0.053 C 
ENDROOT
BRANCH   1   2
ATOM      2  C   UNL     1      -0.910 -10.038 -42.299  1.00  0.00     0.041 C 
ATOM      3  O   UNL     1      -1.812  -9.215 -42.612  1.00  0.00    -0.550 OA
ATOM      4  O   UNL     1      -1.088 -11.389 -42.572  1.00  0.00    -0.550 OA
ENDBRANCH   1   2
BRANCH   1   5
ATOM      5  C   UNL     1       1.527  -9.535 -42.670  1.00  0.00     0.006 C 
BRANCH   5   6
ATOM      6  C   UNL     1       2.429 -10.782 -42.615  1.00  0.00    -0.003 C 
ATOM      7  C   UNL     1       2.282 -11.677 -43.845  1.00  0.00     0.004 C 
ENDBRANCH   5   6
ENDBRANCH   1   5
TORSDOF 3
ENDMDL
MODEL 7
REMARK VINA RESULT:    -2.651      2.180      3.189
REMARK INTER + INTRA:          -3.217
REMARK INTER:                  -3.151
REMARK INTRA:                  -0.066
REMARK UNBOUND:                -0.102
REMARK SMILES CCCCC(=O)[O-]
REMARK SMILES IDX 4 1 5 2 6 3 7 4 3 5 2 6 1 7
REMARK H PARENT
REMARK Flexibility Score: inf
ROOT
ATOM      1  C   UNL     1       0.105  -9.478 -41.417  1.00  0.00     0.053 C 
ENDROOT
BRANCH   1   2
ATOM      2  C   UNL     1       1.320  -9.495 -42.292  1.00  0.00     0.041 C 
ATOM      3  O   UNL     1       1.342  -8.827 -43.360  1.00  0.00    -0.550 OA
ATOM      4  O   UNL     1       2.442 -10.223 -41.913  1.00  0.00    -0.550 OA
ENDBRANCH   1   2
BRANCH   1   5
ATOM      5  C   UNL     1      -1.154  -9.938 -42.168  1.00  0.00     0.006 C 
BRANCH   5   6
ATOM      6  C   UNL     1      -1.230 -11.459 -42.394  1.00  0.00    -0.003 C 
ATOM      7  C   UNL     1      -2.663 -11.991 -42.376  1.00  0.00     0.004 C 
ENDBRANCH   5   6
ENDBRANCH   1   5
TORSDOF 3
ENDMDL
MODEL 8
REMARK VINA RESULT:    -2.589     14.545     15.508
REMARK INTER + INTRA:          -3.146
REMARK INTER:                  -3.045
REMARK INTRA:                  -0.101
REMARK UNBOUND:                -0.102
REMARK SMILES CCCCC(=O)[O-]
REMARK SMILES IDX 4 1 5 2 6 3 7 4 3 5 2 6 1 7
REMARK H PARENT
REMARK Flexibility Score: inf
ROOT
ATOM      1  C   UNL     1       0.040 -25.051 -45.900  1.00  0.00     0.053 C 
ENDROOT
BRANCH   1   2
ATOM      2  C   UNL     1       1.368 -25.365 -46.517  1.00  0.00     0.041 C 
ATOM      3  O   UNL     1       1.529 -26.434 -47.165  1.00  0.00    -0.550 OA
ATOM      4  O   UNL     1       2.419 -24.463 -46.405  1.00  0.00    -0.550 OA
ENDBRANCH   1   2
BRANCH   1   5
ATOM      5  C   UNL     1      -1.064 -24.894 -46.958  1.00  0.00     0.006 C 
BRANCH   5   6
ATOM      6  C   UNL     1      -2.221 -25.900 -46.812  1.00  0.00    -0.003 C 
ATOM      7  C   UNL     1      -2.066 -27.119 -47.721  1.00  0.00     0.004 C 
ENDBRANCH   5   6
ENDBRANCH   1   5
TORSDOF 3
ENDMDL
MODEL 9
REMARK VINA RESULT:    -2.548      2.937      3.848
REMARK INTER + INTRA:          -3.097
REMARK INTER:                  -2.987
REMARK INTRA:                  -0.109
REMARK UNBOUND:                -0.102
REMARK SMILES CCCCC(=O)[O-]
REMARK SMILES IDX 4 1 5 2 6 3 7 4 3 5 2 6 1 7
REMARK H PARENT
REMARK Flexibility Score: inf
ROOT
ATOM      1  C   UNL     1       0.405  -9.554 -41.598  1.00  0.00     0.053 C 
ENDROOT
BRANCH   1   2
ATOM      2  C   UNL     1      -0.106 -10.521 -40.576  1.00  0.00     0.041 C 
ATOM      3  O   UNL     1      -0.238 -11.740 -40.867  1.00  0.00    -0.550 OA
ATOM      4  O   UNL     1      -0.405 -10.085 -39.291  1.00  0.00    -0.550 OA
ENDBRANCH   1   2
BRANCH   1   5
ATOM      5  C   UNL     1       1.828  -9.902 -42.062  1.00  0.00     0.006 C 
BRANCH   5   6
ATOM      6  C   UNL     1       1.901 -10.474 -43.490  1.00  0.00    -0.003 C 
ATOM      7  C   UNL     1       2.163 -11.980 -43.514  1.00  0.00     0.004 C 
ENDBRANCH   5   6
ENDBRANCH   1   5
TORSDOF 3
ENDMDL
