MODEL 1
REMARK VINA RESULT:    -4.406      0.000      0.000
REMARK INTER + INTRA:          -5.608
REMARK INTER:                  -5.308
REMARK INTRA:                  -0.300
REMARK UNBOUND:                -0.300
REMARK SMILES O=c1c(O)c(-c2ccc(O)c(O)c2)oc2cc(O)cc(O)c12
REMARK SMILES IDX 5 1 3 2 2 3 1 4 22 5 20 6 19 7 17 8 16 9 15 10 14 11 6 12
REMARK SMILES IDX 7 13 8 14 9 15 13 16 11 17 10 18 12 20 4 22 21 24 18 26
REMARK H PARENT 10 19 12 21 4 23 21 25 18 27
REMARK Flexibility Score: inf
ROOT
ATOM      1  C   UNL     1      25.820  32.945  39.322  1.00  0.00     0.180 A 
ATOM      2  C   UNL     1      27.141  32.654  38.938  1.00  0.00     0.208 A 
ATOM      3  C   UNL     1      27.637  31.357  39.136  1.00  0.00     0.238 A 
ATOM      4  O   UNL     1      28.837  31.117  38.841  1.00  0.00    -0.285 OA
ATOM      5  C   UNL     1      26.803  30.361  39.700  1.00  0.00     0.111 A 
ATOM      6  C   UNL     1      27.189  29.003  39.908  1.00  0.00     0.134 A 
ATOM      7  C   UNL     1      26.328  28.137  40.594  1.00  0.00     0.093 A 
ATOM      8  C   UNL     1      25.067  28.563  41.020  1.00  0.00     0.123 A 
ATOM      9  C   UNL     1      24.658  29.871  40.767  1.00  0.00     0.094 A 
ATOM     10  C   UNL     1      25.509  30.767  40.118  1.00  0.00     0.146 A 
ATOM     11  O   UNL     1      25.083  32.007  39.908  1.00  0.00    -0.452 OA
ENDROOT
BRANCH   1  12
ATOM     12  C   UNL     1      25.217  34.282  39.123  1.00  0.00     0.025 A 
ATOM     13  C   UNL     1      24.355  34.543  38.043  1.00  0.00     0.016 A 
ATOM     14  C   UNL     1      23.779  35.806  37.887  1.00  0.00     0.051 A 
ATOM     15  C   UNL     1      24.042  36.823  38.811  1.00  0.00     0.157 A 
ATOM     16  C   UNL     1      25.463  35.299  40.060  1.00  0.00     0.062 A 
ATOM     17  C   UNL     1      24.886  36.567  39.905  1.00  0.00     0.158 A 
BRANCH  15  18
ATOM     18  O   UNL     1      23.454  38.074  38.629  1.00  0.00    -0.504 OA
ATOM     19  H   UNL     1      23.904  38.929  38.933  1.00  0.00     0.293 HD
ENDBRANCH  15  18
BRANCH  17  20
ATOM     20  O   UNL     1      25.147  37.574  40.835  1.00  0.00    -0.504 OA
ATOM     21  H   UNL     1      26.079  37.950  40.962  1.00  0.00     0.293 HD
ENDBRANCH  17  20
ENDBRANCH   1  12
BRANCH   2  22
ATOM     22  O   UNL     1      27.954  33.657  38.404  1.00  0.00    -0.502 OA
ATOM     23  H   UNL     1      28.079  34.554  38.857  1.00  0.00     0.293 HD
ENDBRANCH   2  22
BRANCH   6  24
ATOM     24  O   UNL     1      28.386  28.451  39.442  1.00  0.00    -0.507 OA
ATOM     25  H   UNL     1      28.470  27.868  38.623  1.00  0.00     0.293 HD
ENDBRANCH   6  24
BRANCH   8  26
ATOM     26  O   UNL     1      24.210  27.691  41.686  1.00  0.00    -0.508 OA
ATOM     27  H   UNL     1      23.240  27.589  41.412  1.00  0.00     0.293 HD
ENDBRANCH   8  26
TORSDOF 6
ENDMDL
MODEL 2
REMARK VINA RESULT:    -4.132      1.296      3.074
REMARK INTER + INTRA:          -5.278
REMARK INTER:                  -5.001
REMARK INTRA:                  -0.277
REMARK UNBOUND:                -0.300
REMARK SMILES O=c1c(O)c(-c2ccc(O)c(O)c2)oc2cc(O)cc(O)c12
REMARK SMILES IDX 5 1 3 2 2 3 1 4 22 5 20 6 19 7 17 8 16 9 15 10 14 11 6 12
REMARK SMILES IDX 7 13 8 14 9 15 13 16 11 17 10 18 12 20 4 22 21 24 18 26
REMARK H PARENT 10 19 12 21 4 23 21 25 18 27
REMARK Flexibility Score: inf
ROOT
ATOM      1  C   UNL     1      24.354  32.586  40.081  1.00  0.00     0.180 A 
ATOM      2  C   UNL     1      23.371  31.867  40.784  1.00  0.00     0.208 A 
ATOM      3  C   UNL     1      23.635  30.540  41.157  1.00  0.00     0.238 A 
ATOM      4  O   UNL     1      22.731  29.884  41.738  1.00  0.00    -0.285 OA
ATOM      5  C   UNL     1      24.883  29.953  40.837  1.00  0.00     0.111 A 
ATOM      6  C   UNL     1      25.273  28.629  41.202  1.00  0.00     0.134 A 
ATOM      7  C   UNL     1      26.480  28.107  40.720  1.00  0.00     0.093 A 
ATOM      8  C   UNL     1      27.341  28.885  39.942  1.00  0.00     0.123 A 
ATOM      9  C   UNL     1      26.997  30.199  39.631  1.00  0.00     0.094 A 
ATOM     10  C   UNL     1      25.783  30.735  40.067  1.00  0.00     0.146 A 
ATOM     11  O   UNL     1      25.489  31.987  39.739  1.00  0.00    -0.452 OA
ENDROOT
BRANCH   1  12
ATOM     12  C   UNL     1      24.159  33.997  39.676  1.00  0.00     0.025 A 
ATOM     13  C   UNL     1      23.819  34.339  38.355  1.00  0.00     0.016 A 
ATOM     14  C   UNL     1      23.617  35.675  38.001  1.00  0.00     0.051 A 
ATOM     15  C   UNL     1      23.739  36.687  38.957  1.00  0.00     0.157 A 
ATOM     16  C   UNL     1      24.260  35.014  40.639  1.00  0.00     0.062 A 
ATOM     17  C   UNL     1      24.059  36.356  40.285  1.00  0.00     0.158 A 
BRANCH  15  18
ATOM     18  O   UNL     1      23.534  38.012  38.574  1.00  0.00    -0.504 OA
ATOM     19  H   UNL     1      24.193  38.746  38.801  1.00  0.00     0.293 HD
ENDBRANCH  15  18
BRANCH  17  20
ATOM     20  O   UNL     1      24.175  37.359  41.247  1.00  0.00    -0.504 OA
ATOM     21  H   UNL     1      24.158  38.340  40.996  1.00  0.00     0.293 HD
ENDBRANCH  17  20
ENDBRANCH   1  12
BRANCH   2  22
ATOM     22  O   UNL     1      22.137  32.458  41.070  1.00  0.00    -0.502 OA
ATOM     23  H   UNL     1      21.802  32.587  42.017  1.00  0.00     0.293 HD
ENDBRANCH   2  22
BRANCH   6  24
ATOM     24  O   UNL     1      24.530  27.802  42.049  1.00  0.00    -0.507 OA
ATOM     25  H   UNL     1      23.997  28.123  42.843  1.00  0.00     0.293 HD
ENDBRANCH   6  24
BRANCH   8  26
ATOM     26  O   UNL     1      28.548  28.364  39.480  1.00  0.00    -0.508 OA
ATOM     27  H   UNL     1      29.357  28.954  39.329  1.00  0.00     0.293 HD
ENDBRANCH   8  26
TORSDOF 6
ENDMDL
MODEL 3
REMARK VINA RESULT:    -4.097     15.091     17.888
REMARK INTER + INTRA:          -5.236
REMARK INTER:                  -4.901
REMARK INTRA:                  -0.335
REMARK UNBOUND:                -0.300
REMARK SMILES O=c1c(O)c(-c2ccc(O)c(O)c2)oc2cc(O)cc(O)c12
REMARK SMILES IDX 5 1 3 2 2 3 1 4 22 5 20 6 19 7 17 8 16 9 15 10 14 11 6 12
REMARK SMILES IDX 7 13 8 14 9 15 13 16 11 17 10 18 12 20 4 22 21 24 18 26
REMARK H PARENT 10 19 12 21 4 23 21 25 18 27
REMARK Flexibility Score: inf
ROOT
ATOM      1  C   UNL     1      18.190  30.821  54.238  1.00  0.00     0.180 A 
ATOM      2  C   UNL     1      17.514  30.942  55.465  1.00  0.00     0.208 A 
ATOM      3  C   UNL     1      17.084  32.211  55.883  1.00  0.00     0.238 A 
ATOM      4  O   UNL     1      16.528  32.322  57.007  1.00  0.00    -0.285 OA
ATOM      5  C   UNL     1      17.321  33.341  55.063  1.00  0.00     0.111 A 
ATOM      6  C   UNL     1      16.893  34.668  55.369  1.00  0.00     0.134 A 
ATOM      7  C   UNL     1      17.297  35.730  54.549  1.00  0.00     0.093 A 
ATOM      8  C   UNL     1      18.057  35.503  53.398  1.00  0.00     0.123 A 
ATOM      9  C   UNL     1      18.427  34.204  53.059  1.00  0.00     0.094 A 
ATOM     10  C   UNL     1      18.071  33.129  53.877  1.00  0.00     0.146 A 
ATOM     11  O   UNL     1      18.455  31.909  53.523  1.00  0.00    -0.452 OA
ENDROOT
BRANCH   1  12
ATOM     12  C   UNL     1      18.652  29.514  53.719  1.00  0.00     0.025 A 
ATOM     13  C   UNL     1      17.819  28.707  52.924  1.00  0.00     0.016 A 
ATOM     14  C   UNL     1      18.284  27.487  52.424  1.00  0.00     0.051 A 
ATOM     15  C   UNL     1      19.586  27.061  52.698  1.00  0.00     0.157 A 
ATOM     16  C   UNL     1      19.967  29.093  53.975  1.00  0.00     0.062 A 
ATOM     17  C   UNL     1      20.435  27.869  53.475  1.00  0.00     0.158 A 
BRANCH  15  18
ATOM     18  O   UNL     1      20.022  25.839  52.188  1.00  0.00    -0.504 OA
ATOM     19  H   UNL     1      20.934  25.457  52.409  1.00  0.00     0.293 HD
ENDBRANCH  15  18
BRANCH  17  20
ATOM     20  O   UNL     1      21.738  27.454  53.746  1.00  0.00    -0.504 OA
ATOM     21  H   UNL     1      22.515  27.721  53.152  1.00  0.00     0.293 HD
ENDBRANCH  17  20
ENDBRANCH   1  12
BRANCH   2  22
ATOM     22  O   UNL     1      17.310  29.818  56.270  1.00  0.00    -0.502 OA
ATOM     23  H   UNL     1      17.415  28.873  55.920  1.00  0.00     0.293 HD
ENDBRANCH   2  22
BRANCH   6  24
ATOM     24  O   UNL     1      16.057  34.991  56.441  1.00  0.00    -0.507 OA
ATOM     25  H   UNL     1      15.050  35.032  56.393  1.00  0.00     0.293 HD
ENDBRANCH   6  24
BRANCH   8  26
ATOM     26  O   UNL     1      18.440  36.563  52.579  1.00  0.00    -0.508 OA
ATOM     27  H   UNL     1      19.070  37.285  52.907  1.00  0.00     0.293 HD
ENDBRANCH   8  26
TORSDOF 6
ENDMDL
MODEL 4
REMARK VINA RESULT:    -3.954      1.825      7.386
REMARK INTER + INTRA:          -5.063
REMARK INTER:                  -4.819
REMARK INTRA:                  -0.244
REMARK UNBOUND:                -0.300
REMARK SMILES O=c1c(O)c(-c2ccc(O)c(O)c2)oc2cc(O)cc(O)c12
REMARK SMILES IDX 5 1 3 2 2 3 1 4 22 5 20 6 19 7 17 8 16 9 15 10 14 11 6 12
REMARK SMILES IDX 7 13 8 14 9 15 13 16 11 17 10 18 12 20 4 22 21 24 18 26
REMARK H PARENT 10 19 12 21 4 23 21 25 18 27
REMARK Flexibility Score: inf
ROOT
ATOM      1  C   UNL     1      25.546  33.441  40.222  1.00  0.00     0.180 A 
ATOM      2  C   UNL     1      24.247  33.711  39.756  1.00  0.00     0.208 A 
ATOM      3  C   UNL     1      23.896  35.035  39.449  1.00  0.00     0.238 A 
ATOM      4  O   UNL     1      22.716  35.278  39.085  1.00  0.00    -0.285 OA
ATOM      5  C   UNL     1      24.851  36.070  39.596  1.00  0.00     0.111 A 
ATOM      6  C   UNL     1      24.616  37.441  39.275  1.00  0.00     0.134 A 
ATOM      7  C   UNL     1      25.590  38.399  39.583  1.00  0.00     0.093 A 
ATOM      8  C   UNL     1      26.817  38.026  40.139  1.00  0.00     0.123 A 
ATOM      9  C   UNL     1      27.079  36.683  40.399  1.00  0.00     0.094 A 
ATOM     10  C   UNL     1      26.112  35.709  40.137  1.00  0.00     0.146 A 
ATOM     11  O   UNL     1      26.399  34.442  40.410  1.00  0.00    -0.452 OA
ENDROOT
BRANCH   1  12
ATOM     12  C   UNL     1      25.999  32.068  40.542  1.00  0.00     0.025 A 
ATOM     13  C   UNL     1      26.145  31.637  41.872  1.00  0.00     0.016 A 
ATOM     14  C   UNL     1      26.552  30.330  42.151  1.00  0.00     0.051 A 
ATOM     15  C   UNL     1      26.805  29.431  41.111  1.00  0.00     0.157 A 
ATOM     16  C   UNL     1      26.234  31.157  39.499  1.00  0.00     0.062 A 
ATOM     17  C   UNL     1      26.643  29.844  39.777  1.00  0.00     0.158 A 
BRANCH  15  18
ATOM     18  O   UNL     1      27.211  28.133  41.419  1.00  0.00    -0.504 OA
ATOM     19  H   UNL     1      27.838  27.608  40.821  1.00  0.00     0.293 HD
ENDBRANCH  15  18
BRANCH  17  20
ATOM     20  O   UNL     1      26.886  28.951  38.734  1.00  0.00    -0.504 OA
ATOM     21  H   UNL     1      26.327  28.957  37.889  1.00  0.00     0.293 HD
ENDBRANCH  17  20
ENDBRANCH   1  12
BRANCH   2  22
ATOM     22  O   UNL     1      23.313  32.678  39.640  1.00  0.00    -0.502 OA
ATOM     23  H   UNL     1      23.496  31.740  39.972  1.00  0.00     0.293 HD
ENDBRANCH   2  22
BRANCH   6  24
ATOM     24  O   UNL     1      23.464  37.906  38.636  1.00  0.00    -0.507 OA
ATOM     25  H   UNL     1      23.445  38.324  37.717  1.00  0.00     0.293 HD
ENDBRANCH   6  24
BRANCH   8  26
ATOM     26  O   UNL     1      27.787  38.984  40.427  1.00  0.00    -0.508 OA
ATOM     27  H   UNL     1      28.043  39.697  39.755  1.00  0.00     0.293 HD
ENDBRANCH   8  26
TORSDOF 6
ENDMDL
MODEL 5
REMARK VINA RESULT:    -3.934     15.864     17.409
REMARK INTER + INTRA:          -5.040
REMARK INTER:                  -4.757
REMARK INTRA:                  -0.283
REMARK UNBOUND:                -0.300
REMARK SMILES O=c1c(O)c(-c2ccc(O)c(O)c2)oc2cc(O)cc(O)c12
REMARK SMILES IDX 5 1 3 2 2 3 1 4 22 5 20 6 19 7 17 8 16 9 15 10 14 11 6 12
REMARK SMILES IDX 7 13 8 14 9 15 13 16 11 17 10 18 12 20 4 22 21 24 18 26
REMARK H PARENT 10 19 12 21 4 23 21 25 18 27
REMARK Flexibility Score: inf
ROOT
ATOM      1  C   UNL     1      17.275  31.313  54.723  1.00  0.00     0.180 A 
ATOM      2  C   UNL     1      16.221  30.768  53.968  1.00  0.00     0.208 A 
ATOM      3  C   UNL     1      16.433  29.568  53.270  1.00  0.00     0.238 A 
ATOM      4  O   UNL     1      15.504  29.115  52.552  1.00  0.00    -0.285 OA
ATOM      5  C   UNL     1      17.689  28.920  53.349  1.00  0.00     0.111 A 
ATOM      6  C   UNL     1      18.001  27.679  52.716  1.00  0.00     0.134 A 
ATOM      7  C   UNL     1      19.315  27.195  52.754  1.00  0.00     0.093 A 
ATOM      8  C   UNL     1      20.312  27.874  53.458  1.00  0.00     0.123 A 
ATOM      9  C   UNL     1      20.003  29.055  54.130  1.00  0.00     0.094 A 
ATOM     10  C   UNL     1      18.710  29.581  54.079  1.00  0.00     0.146 A 
ATOM     11  O   UNL     1      18.461  30.714  54.724  1.00  0.00    -0.452 OA
ENDROOT
BRANCH   1  12
ATOM     12  C   UNL     1      17.122  32.560  55.505  1.00  0.00     0.025 A 
ATOM     13  C   UNL     1      16.962  32.533  56.902  1.00  0.00     0.016 A 
ATOM     14  C   UNL     1      16.842  33.724  57.623  1.00  0.00     0.051 A 
ATOM     15  C   UNL     1      16.893  34.957  56.966  1.00  0.00     0.157 A 
ATOM     16  C   UNL     1      17.194  33.800  54.851  1.00  0.00     0.062 A 
ATOM     17  C   UNL     1      17.073  34.997  55.573  1.00  0.00     0.158 A 
BRANCH  15  18
ATOM     18  O   UNL     1      16.769  36.129  57.711  1.00  0.00    -0.504 OA
ATOM     19  H   UNL     1      17.079  37.026  57.359  1.00  0.00     0.293 HD
ENDBRANCH  15  18
BRANCH  17  20
ATOM     20  O   UNL     1      17.133  36.223  54.911  1.00  0.00    -0.504 OA
ATOM     21  H   UNL     1      16.403  36.918  55.013  1.00  0.00     0.293 HD
ENDBRANCH  17  20
ENDBRANCH   1  12
BRANCH   2  22
ATOM     22  O   UNL     1      14.997  31.436  53.886  1.00  0.00    -0.502 OA
ATOM     23  H   UNL     1      14.870  32.381  54.226  1.00  0.00     0.293 HD
ENDBRANCH   2  22
BRANCH   6  24
ATOM     24  O   UNL     1      17.060  26.876  52.065  1.00  0.00    -0.507 OA
ATOM     25  H   UNL     1      16.229  26.499  52.496  1.00  0.00     0.293 HD
ENDBRANCH   6  24
BRANCH   8  26
ATOM     26  O   UNL     1      21.613  27.378  53.504  1.00  0.00    -0.508 OA
ATOM     27  H   UNL     1      22.199  27.505  54.321  1.00  0.00     0.293 HD
ENDBRANCH   8  26
TORSDOF 6
ENDMDL
MODEL 6
REMARK VINA RESULT:    -3.919      1.857      3.788
REMARK INTER + INTRA:          -5.022
REMARK INTER:                  -4.933
REMARK INTRA:                  -0.088
REMARK UNBOUND:                -0.300
REMARK SMILES O=c1c(O)c(-c2ccc(O)c(O)c2)oc2cc(O)cc(O)c12
REMARK SMILES IDX 5 1 3 2 2 3 1 4 22 5 20 6 19 7 17 8 16 9 15 10 14 11 6 12
REMARK SMILES IDX 7 13 8 14 9 15 13 16 11 17 10 18 12 20 4 22 21 24 18 26
REMARK H PARENT 10 19 12 21 4 23 21 25 18 27
REMARK Flexibility Score: inf
ROOT
ATOM      1  C   UNL     1      25.387  33.706  40.029  1.00  0.00     0.180 A 
ATOM      2  C   UNL     1      24.967  32.364  40.047  1.00  0.00     0.208 A 
ATOM      3  C   UNL     1      25.906  31.354  39.789  1.00  0.00     0.238 A 
ATOM      4  O   UNL     1      25.514  30.158  39.753  1.00  0.00    -0.285 OA
ATOM      5  C   UNL     1      27.256  31.695  39.532  1.00  0.00     0.111 A 
ATOM      6  C   UNL     1      28.300  30.750  39.298  1.00  0.00     0.134 A 
ATOM      7  C   UNL     1      29.572  31.205  38.925  1.00  0.00     0.093 A 
ATOM      8  C   UNL     1      29.853  32.571  38.842  1.00  0.00     0.123 A 
ATOM      9  C   UNL     1      28.856  33.501  39.128  1.00  0.00     0.094 A 
ATOM     10  C   UNL     1      27.569  33.078  39.467  1.00  0.00     0.146 A 
ATOM     11  O   UNL     1      26.646  33.998  39.720  1.00  0.00    -0.452 OA
ENDROOT
BRANCH   1  12
ATOM     12  C   UNL     1      24.461  34.825  40.316  1.00  0.00     0.025 A 
ATOM     13  C   UNL     1      23.721  34.875  41.510  1.00  0.00     0.016 A 
ATOM     14  C   UNL     1      22.871  35.953  41.771  1.00  0.00     0.051 A 
ATOM     15  C   UNL     1      22.756  37.002  40.853  1.00  0.00     0.157 A 
ATOM     16  C   UNL     1      24.360  35.890  39.406  1.00  0.00     0.062 A 
ATOM     17  C   UNL     1      23.507  36.972  39.665  1.00  0.00     0.158 A 
BRANCH  15  18
ATOM     18  O   UNL     1      21.899  38.063  41.139  1.00  0.00    -0.504 OA
ATOM     19  H   UNL     1      20.981  37.920  41.541  1.00  0.00     0.293 HD
ENDBRANCH  15  18
BRANCH  17  20
ATOM     20  O   UNL     1      23.404  38.018  38.748  1.00  0.00    -0.504 OA
ATOM     21  H   UNL     1      22.699  38.740  38.842  1.00  0.00     0.293 HD
ENDBRANCH  17  20
ENDBRANCH   1  12
BRANCH   2  22
ATOM     22  O   UNL     1      23.626  32.051  40.281  1.00  0.00    -0.502 OA
ATOM     23  H   UNL     1      23.306  31.647  41.153  1.00  0.00     0.293 HD
ENDBRANCH   2  22
BRANCH   6  24
ATOM     24  O   UNL     1      28.150  29.369  39.443  1.00  0.00    -0.507 OA
ATOM     25  H   UNL     1      28.505  28.680  38.797  1.00  0.00     0.293 HD
ENDBRANCH   6  24
BRANCH   8  26
ATOM     26  O   UNL     1      31.125  33.014  38.486  1.00  0.00    -0.508 OA
ATOM     27  H   UNL     1      31.268  33.636  37.699  1.00  0.00     0.293 HD
ENDBRANCH   8  26
TORSDOF 6
ENDMDL
MODEL 7
REMARK VINA RESULT:    -3.876      1.836      7.274
REMARK INTER + INTRA:          -4.970
REMARK INTER:                  -4.749
REMARK INTRA:                  -0.220
REMARK UNBOUND:                -0.300
REMARK SMILES O=c1c(O)c(-c2ccc(O)c(O)c2)oc2cc(O)cc(O)c12
REMARK SMILES IDX 5 1 3 2 2 3 1 4 22 5 20 6 19 7 17 8 16 9 15 10 14 11 6 12
REMARK SMILES IDX 7 13 8 14 9 15 13 16 11 17 10 18 12 20 4 22 21 24 18 26
REMARK H PARENT 10 19 12 21 4 23 21 25 18 27
REMARK Flexibility Score: inf
ROOT
ATOM      1  C   UNL     1      26.643  33.734  39.321  1.00  0.00     0.180 A 
ATOM      2  C   UNL     1      25.453  33.869  38.584  1.00  0.00     0.208 A 
ATOM      3  C   UNL     1      24.776  35.098  38.606  1.00  0.00     0.238 A 
ATOM      4  O   UNL     1      23.683  35.196  37.989  1.00  0.00    -0.285 OA
ATOM      5  C   UNL     1      25.303  36.181  39.350  1.00  0.00     0.111 A 
ATOM      6  C   UNL     1      24.721  37.483  39.409  1.00  0.00     0.134 A 
ATOM      7  C   UNL     1      25.256  38.440  40.281  1.00  0.00     0.093 A 
ATOM      8  C   UNL     1      26.392  38.162  41.046  1.00  0.00     0.123 A 
ATOM      9  C   UNL     1      27.003  36.914  40.948  1.00  0.00     0.094 A 
ATOM     10  C   UNL     1      26.471  35.927  40.115  1.00  0.00     0.146 A 
ATOM     11  O   UNL     1      27.078  34.748  40.061  1.00  0.00    -0.452 OA
ENDROOT
BRANCH   1  12
ATOM     12  C   UNL     1      27.428  32.479  39.328  1.00  0.00     0.025 A 
ATOM     13  C   UNL     1      28.686  32.398  38.706  1.00  0.00     0.016 A 
ATOM     14  C   UNL     1      29.419  31.209  38.744  1.00  0.00     0.051 A 
ATOM     15  C   UNL     1      28.917  30.090  39.414  1.00  0.00     0.157 A 
ATOM     16  C   UNL     1      26.935  31.359  40.018  1.00  0.00     0.062 A 
ATOM     17  C   UNL     1      27.670  30.165  40.057  1.00  0.00     0.158 A 
BRANCH  15  18
ATOM     18  O   UNL     1      29.670  28.917  39.435  1.00  0.00    -0.504 OA
ATOM     19  H   UNL     1      29.423  28.108  38.877  1.00  0.00     0.293 HD
ENDBRANCH  15  18
BRANCH  17  20
ATOM     20  O   UNL     1      27.165  29.055  40.734  1.00  0.00    -0.504 OA
ATOM     21  H   UNL     1      27.316  28.112  40.395  1.00  0.00     0.293 HD
ENDBRANCH  17  20
ENDBRANCH   1  12
BRANCH   2  22
ATOM     22  O   UNL     1      24.939  32.781  37.875  1.00  0.00    -0.502 OA
ATOM     23  H   UNL     1      24.010  32.414  38.042  1.00  0.00     0.293 HD
ENDBRANCH   2  22
BRANCH   6  24
ATOM     24  O   UNL     1      23.642  37.892  38.621  1.00  0.00    -0.507 OA
ATOM     25  H   UNL     1      22.673  37.825  38.893  1.00  0.00     0.293 HD
ENDBRANCH   6  24
BRANCH   8  26
ATOM     26  O   UNL     1      26.928  39.125  41.898  1.00  0.00    -0.508 OA
ATOM     27  H   UNL     1      26.412  39.471  42.698  1.00  0.00     0.293 HD
ENDBRANCH   8  26
TORSDOF 6
ENDMDL
MODEL 8
REMARK VINA RESULT:    -3.815      4.710      7.621
REMARK INTER + INTRA:          -4.895
REMARK INTER:                  -4.585
REMARK INTRA:                  -0.310
REMARK UNBOUND:                -0.300
REMARK SMILES O=c1c(O)c(-c2ccc(O)c(O)c2)oc2cc(O)cc(O)c12
REMARK SMILES IDX 5 1 3 2 2 3 1 4 22 5 20 6 19 7 17 8 16 9 15 10 14 11 6 12
REMARK SMILES IDX 7 13 8 14 9 15 13 16 11 17 10 18 12 20 4 22 21 24 18 26
REMARK H PARENT 10 19 12 21 4 23 21 25 18 27
REMARK Flexibility Score: inf
ROOT
ATOM      1  C   UNL     1      21.022  34.084  40.730  1.00  0.00     0.180 A 
ATOM      2  C   UNL     1      21.007  35.411  41.194  1.00  0.00     0.208 A 
ATOM      3  C   UNL     1      22.092  36.249  40.896  1.00  0.00     0.238 A 
ATOM      4  O   UNL     1      22.098  37.419  41.361  1.00  0.00    -0.285 OA
ATOM      5  C   UNL     1      23.173  35.756  40.125  1.00  0.00     0.111 A 
ATOM      6  C   UNL     1      24.306  36.529  39.730  1.00  0.00     0.134 A 
ATOM      7  C   UNL     1      25.377  35.903  39.080  1.00  0.00     0.093 A 
ATOM      8  C   UNL     1      25.326  34.546  38.752  1.00  0.00     0.123 A 
ATOM      9  C   UNL     1      24.198  33.797  39.080  1.00  0.00     0.094 A 
ATOM     10  C   UNL     1      23.130  34.385  39.761  1.00  0.00     0.146 A 
ATOM     11  O   UNL     1      22.080  33.632  40.065  1.00  0.00    -0.452 OA
ENDROOT
BRANCH   1  12
ATOM     12  C   UNL     1      19.903  33.148  40.981  1.00  0.00     0.025 A 
ATOM     13  C   UNL     1      19.923  32.259  42.070  1.00  0.00     0.016 A 
ATOM     14  C   UNL     1      18.845  31.400  42.302  1.00  0.00     0.051 A 
ATOM     15  C   UNL     1      17.729  31.424  41.461  1.00  0.00     0.157 A 
ATOM     16  C   UNL     1      18.771  33.184  40.151  1.00  0.00     0.062 A 
ATOM     17  C   UNL     1      17.689  32.323  40.382  1.00  0.00     0.158 A 
BRANCH  15  18
ATOM     18  O   UNL     1      16.669  30.555  41.716  1.00  0.00    -0.504 OA
ATOM     19  H   UNL     1      16.149  30.107  40.971  1.00  0.00     0.293 HD
ENDBRANCH  15  18
BRANCH  17  20
ATOM     20  O   UNL     1      16.575  32.359  39.543  1.00  0.00    -0.504 OA
ATOM     21  H   UNL     1      15.986  33.180  39.477  1.00  0.00     0.293 HD
ENDBRANCH  17  20
ENDBRANCH   1  12
BRANCH   2  22
ATOM     22  O   UNL     1      19.941  35.871  41.972  1.00  0.00    -0.502 OA
ATOM     23  H   UNL     1      19.333  35.245  42.486  1.00  0.00     0.293 HD
ENDBRANCH   2  22
BRANCH   6  24
ATOM     24  O   UNL     1      24.417  37.908  39.927  1.00  0.00    -0.507 OA
ATOM     25  H   UNL     1      24.334  38.370  40.820  1.00  0.00     0.293 HD
ENDBRANCH   6  24
BRANCH   8  26
ATOM     26  O   UNL     1      26.388  33.934  38.090  1.00  0.00    -0.508 OA
ATOM     27  H   UNL     1      27.171  34.471  37.735  1.00  0.00     0.293 HD
ENDBRANCH   8  26
TORSDOF 6
ENDMDL
