MODEL 1
REMARK VINA RESULT:    -6.273      0.000      0.000
REMARK INTER + INTRA:          -9.580
REMARK INTER:                  -8.474
REMARK INTRA:                  -1.106
REMARK UNBOUND:                -1.106
REMARK SMILES O=c1c(-c2ccc(O)cc2)coc2c([C@H]3O[C@@H](CO)[C@@H](O)[C@@H](O)[C@H]3O)c(O)ccc12
REMARK SMILES IDX 3 1 11 2 12 3 13 4 30 5 2 6 1 7 29 8 28 9 26 10 14 11 4 12
REMARK SMILES IDX 5 13 6 14 7 15 10 16 9 17 8 18 15 20 24 21 16 22 22 23 17 24
REMARK SMILES IDX 20 25 25 26 23 28 18 30 19 31 21 33 27 35
REMARK H PARENT 8 19 25 27 23 29 19 32 21 34 27 36
REMARK Flexibility Score: inf
ROOT
ATOM      1  C   UNL     1      25.321   3.701 103.212  1.00  0.00     0.065 A 
ATOM      2  C   UNL     1      26.367   4.506 103.685  1.00  0.00     0.208 A 
ATOM      3  O   UNL     1      27.568   3.994 103.922  1.00  0.00    -0.463 OA
ATOM      4  C   UNL     1      27.864   2.710 103.734  1.00  0.00     0.147 A 
ATOM      5  C   UNL     1      26.868   1.826 103.258  1.00  0.00     0.066 A 
ATOM      6  C   UNL     1      25.580   2.333 103.005  1.00  0.00     0.200 A 
ATOM      7  O   UNL     1      24.659   1.566 102.610  1.00  0.00    -0.288 OA
ATOM      8  C   UNL     1      27.182   0.474 103.048  1.00  0.00     0.020 A 
ATOM      9  C   UNL     1      28.473   0.010 103.290  1.00  0.00     0.047 A 
ATOM     10  C   UNL     1      29.470   0.877 103.757  1.00  0.00     0.125 A 
ATOM     11  C   UNL     1      29.168   2.237 104.010  1.00  0.00     0.069 A 
ENDROOT
BRANCH   1  12
ATOM     12  C   UNL     1      23.988   4.297 102.949  1.00  0.00    -0.011 A 
ATOM     13  C   UNL     1      23.723   4.954 101.733  1.00  0.00     0.013 A 
ATOM     14  C   UNL     1      22.468   5.522 101.496  1.00  0.00     0.047 A 
ATOM     15  C   UNL     1      21.464   5.446 102.471  1.00  0.00     0.115 A 
ATOM     16  C   UNL     1      22.977   4.233 103.924  1.00  0.00     0.013 A 
ATOM     17  C   UNL     1      21.723   4.801 103.683  1.00  0.00     0.047 A 
BRANCH  15  18
ATOM     18  O   UNL     1      20.210   6.008 102.243  1.00  0.00    -0.508 OA
ATOM     19  H   UNL     1      19.866   6.174 101.305  1.00  0.00     0.293 HD
ENDBRANCH  15  18
ENDBRANCH   1  12
BRANCH  11  20
ATOM     20  C   UNL     1      30.237   3.208 104.496  1.00  0.00     0.188 C 
ATOM     21  C   UNL     1      31.015   3.802 103.299  1.00  0.00     0.179 C 
ATOM     22  O   UNL     1      31.117   2.562 105.405  1.00  0.00    -0.362 OA
ATOM     23  C   UNL     1      32.098   4.766 103.832  1.00  0.00     0.177 C 
ATOM     24  C   UNL     1      32.008   3.495 105.997  1.00  0.00     0.176 C 
ATOM     25  C   UNL     1      32.952   4.096 104.931  1.00  0.00     0.177 C 
BRANCH  21  26
ATOM     26  O   UNL     1      31.600   2.765 102.549  1.00  0.00    -0.387 OA
ATOM     27  H   UNL     1      32.274   3.182 101.951  1.00  0.00     0.211 HD
ENDBRANCH  21  26
BRANCH  23  28
ATOM     28  O   UNL     1      32.891   5.293 102.796  1.00  0.00    -0.387 OA
ATOM     29  H   UNL     1      33.289   4.538 102.291  1.00  0.00     0.211 HD
ENDBRANCH  23  28
BRANCH  24  30
ATOM     30  C   UNL     1      32.805   2.794 107.107  1.00  0.00     0.191 C 
BRANCH  30  31
ATOM     31  O   UNL     1      34.124   3.266 107.132  1.00  0.00    -0.394 OA
ATOM     32  H   UNL     1      34.096   4.213 106.835  1.00  0.00     0.210 HD
ENDBRANCH  30  31
ENDBRANCH  24  30
BRANCH  25  33
ATOM     33  O   UNL     1      33.755   3.079 104.384  1.00  0.00    -0.388 OA
ATOM     34  H   UNL     1      33.553   3.036 103.413  1.00  0.00     0.211 HD
ENDBRANCH  25  33
ENDBRANCH  11  20
BRANCH  10  35
ATOM     35  O   UNL     1      30.758   0.384 103.960  1.00  0.00    -0.507 OA
ATOM     36  H   UNL     1      31.378   0.777 104.659  1.00  0.00     0.293 HD
ENDBRANCH  10  35
TORSDOF 9
ENDMDL
MODEL 2
REMARK VINA RESULT:    -6.153      4.280      7.118
REMARK INTER + INTRA:          -9.417
REMARK INTER:                  -8.318
REMARK INTRA:                  -1.099
REMARK UNBOUND:                -1.106
REMARK SMILES O=c1c(-c2ccc(O)cc2)coc2c([C@H]3O[C@@H](CO)[C@@H](O)[C@@H](O)[C@H]3O)c(O)ccc12
REMARK SMILES IDX 3 1 11 2 12 3 13 4 30 5 2 6 1 7 29 8 28 9 26 10 14 11 4 12
REMARK SMILES IDX 5 13 6 14 7 15 10 16 9 17 8 18 15 20 24 21 16 22 22 23 17 24
REMARK SMILES IDX 20 25 25 26 23 28 18 30 19 31 21 33 27 35
REMARK H PARENT 8 19 25 27 23 29 19 32 21 34 27 36
REMARK Flexibility Score: inf
ROOT
ATOM      1  C   UNL     1      23.463   2.252 102.968  1.00  0.00     0.065 A 
ATOM      2  C   UNL     1      22.957   0.945 102.937  1.00  0.00     0.208 A 
ATOM      3  O   UNL     1      23.770  -0.100 102.859  1.00  0.00    -0.463 OA
ATOM      4  C   UNL     1      25.096   0.010 102.804  1.00  0.00     0.147 A 
ATOM      5  C   UNL     1      25.693   1.293 102.831  1.00  0.00     0.066 A 
ATOM      6  C   UNL     1      24.859   2.423 102.905  1.00  0.00     0.200 A 
ATOM      7  O   UNL     1      25.356   3.584 102.898  1.00  0.00    -0.288 OA
ATOM      8  C   UNL     1      27.090   1.409 102.787  1.00  0.00     0.020 A 
ATOM      9  C   UNL     1      27.886   0.267 102.733  1.00  0.00     0.047 A 
ATOM     10  C   UNL     1      27.308  -1.009 102.711  1.00  0.00     0.125 A 
ATOM     11  C   UNL     1      25.899  -1.150 102.720  1.00  0.00     0.069 A 
ENDROOT
BRANCH   1  12
ATOM     12  C   UNL     1      22.533   3.405 103.062  1.00  0.00    -0.011 A 
ATOM     13  C   UNL     1      21.960   3.766 104.295  1.00  0.00     0.013 A 
ATOM     14  C   UNL     1      21.077   4.846 104.375  1.00  0.00     0.047 A 
ATOM     15  C   UNL     1      20.752   5.577 103.225  1.00  0.00     0.115 A 
ATOM     16  C   UNL     1      22.195   4.139 101.912  1.00  0.00     0.013 A 
ATOM     17  C   UNL     1      21.313   5.220 101.996  1.00  0.00     0.047 A 
BRANCH  15  18
ATOM     18  O   UNL     1      19.874   6.657 103.294  1.00  0.00    -0.508 OA
ATOM     19  H   UNL     1      20.188   7.577 103.577  1.00  0.00     0.293 HD
ENDBRANCH  15  18
ENDBRANCH   1  12
BRANCH  11  20
ATOM     20  C   UNL     1      25.242  -2.526 102.720  1.00  0.00     0.188 C 
ATOM     21  C   UNL     1      25.219  -3.116 104.149  1.00  0.00     0.179 C 
ATOM     22  O   UNL     1      25.914  -3.396 101.820  1.00  0.00    -0.362 OA
ATOM     23  C   UNL     1      24.563  -4.514 104.105  1.00  0.00     0.177 C 
ATOM     24  C   UNL     1      25.211  -4.621 101.680  1.00  0.00     0.176 C 
ATOM     25  C   UNL     1      25.205  -5.400 103.015  1.00  0.00     0.177 C 
BRANCH  21  26
ATOM     26  O   UNL     1      26.530  -3.201 104.652  1.00  0.00    -0.387 OA
ATOM     27  H   UNL     1      27.035  -3.810 104.052  1.00  0.00     0.211 HD
ENDBRANCH  21  26
BRANCH  23  28
ATOM     28  O   UNL     1      24.569  -5.140 105.365  1.00  0.00    -0.387 OA
ATOM     29  H   UNL     1      24.239  -6.068 105.255  1.00  0.00     0.211 HD
ENDBRANCH  23  28
BRANCH  24  30
ATOM     30  C   UNL     1      25.861  -5.448 100.561  1.00  0.00     0.191 C 
BRANCH  30  31
ATOM     31  O   UNL     1      27.243  -5.217 100.524  1.00  0.00    -0.394 OA
ATOM     32  H   UNL     1      27.393  -4.310 100.899  1.00  0.00     0.210 HD
ENDBRANCH  30  31
ENDBRANCH  24  30
BRANCH  25  33
ATOM     33  O   UNL     1      26.523  -5.743 103.367  1.00  0.00    -0.388 OA
ATOM     34  H   UNL     1      26.823  -5.088 104.052  1.00  0.00     0.211 HD
ENDBRANCH  25  33
ENDBRANCH  11  20
BRANCH  10  35
ATOM     35  O   UNL     1      28.137  -2.130 102.688  1.00  0.00    -0.507 OA
ATOM     36  H   UNL     1      28.562  -2.499 103.531  1.00  0.00     0.293 HD
ENDBRANCH  10  35
TORSDOF 9
ENDMDL
MODEL 3
REMARK VINA RESULT:    -6.094      1.734      2.095
REMARK INTER + INTRA:          -9.338
REMARK INTER:                  -8.349
REMARK INTRA:                  -0.988
REMARK UNBOUND:                -1.106
REMARK SMILES O=c1c(-c2ccc(O)cc2)coc2c([C@H]3O[C@@H](CO)[C@@H](O)[C@@H](O)[C@H]3O)c(O)ccc12
REMARK SMILES IDX 3 1 11 2 12 3 13 4 30 5 2 6 1 7 29 8 28 9 26 10 14 11 4 12
REMARK SMILES IDX 5 13 6 14 7 15 10 16 9 17 8 18 15 20 24 21 16 22 22 23 17 24
REMARK SMILES IDX 20 25 25 26 23 28 18 30 19 31 21 33 27 35
REMARK H PARENT 8 19 25 27 23 29 19 32 21 34 27 36
REMARK Flexibility Score: inf
ROOT
ATOM      1  C   UNL     1      24.531   3.147 102.968  1.00  0.00     0.065 A 
ATOM      2  C   UNL     1      25.796   3.749 103.009  1.00  0.00     0.208 A 
ATOM      3  O   UNL     1      26.902   3.016 103.005  1.00  0.00    -0.463 OA
ATOM      4  C   UNL     1      26.893   1.685 102.964  1.00  0.00     0.147 A 
ATOM      5  C   UNL     1      25.660   0.994 102.920  1.00  0.00     0.066 A 
ATOM      6  C   UNL     1      24.468   1.741 102.931  1.00  0.00     0.200 A 
ATOM      7  O   UNL     1      23.349   1.157 102.926  1.00  0.00    -0.288 OA
ATOM      8  C   UNL     1      25.651  -0.408 102.864  1.00  0.00     0.020 A 
ATOM      9  C   UNL     1      26.851  -1.115 102.834  1.00  0.00     0.047 A 
ATOM     10  C   UNL     1      28.079  -0.443 102.872  1.00  0.00     0.125 A 
ATOM     11  C   UNL     1      28.114   0.970 102.964  1.00  0.00     0.069 A 
ENDROOT
BRANCH   1  12
ATOM     12  C   UNL     1      23.309   3.989 102.967  1.00  0.00    -0.011 A 
ATOM     13  C   UNL     1      22.935   4.710 101.818  1.00  0.00     0.013 A 
ATOM     14  C   UNL     1      21.789   5.509 101.827  1.00  0.00     0.047 A 
ATOM     15  C   UNL     1      21.004   5.602 102.984  1.00  0.00     0.115 A 
ATOM     16  C   UNL     1      22.520   4.095 104.126  1.00  0.00     0.013 A 
ATOM     17  C   UNL     1      21.373   4.894 104.130  1.00  0.00     0.047 A 
BRANCH  15  18
ATOM     18  O   UNL     1      19.858   6.395 103.003  1.00  0.00    -0.508 OA
ATOM     19  H   UNL     1      19.870   7.333 103.385  1.00  0.00     0.293 HD
ENDBRANCH  15  18
ENDBRANCH   1  12
BRANCH  11  20
ATOM     20  C   UNL     1      29.435   1.730 102.984  1.00  0.00     0.188 C 
ATOM     21  C   UNL     1      30.004   1.865 101.553  1.00  0.00     0.179 C 
ATOM     22  O   UNL     1      30.364   1.085 103.843  1.00  0.00    -0.362 OA
ATOM     23  C   UNL     1      31.348   2.624 101.615  1.00  0.00     0.177 C 
ATOM     24  C   UNL     1      31.534   1.873 104.006  1.00  0.00     0.176 C 
ATOM     25  C   UNL     1      32.293   2.001 102.665  1.00  0.00     0.177 C 
BRANCH  21  26
ATOM     26  O   UNL     1      30.182   0.589 100.987  1.00  0.00    -0.387 OA
ATOM     27  H   UNL     1      29.639   0.559 100.156  1.00  0.00     0.211 HD
ENDBRANCH  21  26
BRANCH  23  28
ATOM     28  O   UNL     1      31.957   2.725 100.351  1.00  0.00    -0.387 OA
ATOM     29  H   UNL     1      31.340   2.343  99.675  1.00  0.00     0.211 HD
ENDBRANCH  23  28
BRANCH  24  30
ATOM     30  C   UNL     1      32.422   1.236 105.084  1.00  0.00     0.191 C 
BRANCH  30  31
ATOM     31  O   UNL     1      33.762   1.598 104.889  1.00  0.00    -0.394 OA
ATOM     32  H   UNL     1      34.061   2.051 105.720  1.00  0.00     0.210 HD
ENDBRANCH  30  31
ENDBRANCH  24  30
BRANCH  25  33
ATOM     33  O   UNL     1      32.732   0.732 102.248  1.00  0.00    -0.388 OA
ATOM     34  H   UNL     1      33.594   0.861 101.773  1.00  0.00     0.211 HD
ENDBRANCH  25  33
ENDBRANCH  11  20
BRANCH  10  35
ATOM     35  O   UNL     1      29.260  -1.181 102.810  1.00  0.00    -0.507 OA
ATOM     36  H   UNL     1      29.613  -1.554 101.937  1.00  0.00     0.293 HD
ENDBRANCH  10  35
TORSDOF 9
ENDMDL
MODEL 4
REMARK VINA RESULT:    -5.994      1.361      2.574
REMARK INTER + INTRA:          -9.203
REMARK INTER:                  -8.865
REMARK INTRA:                  -0.338
REMARK UNBOUND:                -1.106
REMARK SMILES O=c1c(-c2ccc(O)cc2)coc2c([C@H]3O[C@@H](CO)[C@@H](O)[C@@H](O)[C@H]3O)c(O)ccc12
REMARK SMILES IDX 3 1 11 2 12 3 13 4 30 5 2 6 1 7 29 8 28 9 26 10 14 11 4 12
REMARK SMILES IDX 5 13 6 14 7 15 10 16 9 17 8 18 15 20 24 21 16 22 22 23 17 24
REMARK SMILES IDX 20 25 25 26 23 28 18 30 19 31 21 33 27 35
REMARK H PARENT 8 19 25 27 23 29 19 32 21 34 27 36
REMARK Flexibility Score: inf
ROOT
ATOM      1  C   UNL     1      25.860   3.083 103.134  1.00  0.00     0.065 A 
ATOM      2  C   UNL     1      26.957   3.739 103.711  1.00  0.00     0.208 A 
ATOM      3  O   UNL     1      28.062   3.074 104.023  1.00  0.00    -0.463 OA
ATOM      4  C   UNL     1      28.210   1.768 103.818  1.00  0.00     0.147 A 
ATOM      5  C   UNL     1      27.153   1.026 103.240  1.00  0.00     0.066 A 
ATOM      6  C   UNL     1      25.963   1.698 102.905  1.00  0.00     0.200 A 
ATOM      7  O   UNL     1      24.987   1.062 102.417  1.00  0.00    -0.288 OA
ATOM      8  C   UNL     1      27.313  -0.349 103.012  1.00  0.00     0.020 A 
ATOM      9  C   UNL     1      28.512  -0.978 103.338  1.00  0.00     0.047 A 
ATOM     10  C   UNL     1      29.568  -0.255 103.907  1.00  0.00     0.125 A 
ATOM     11  C   UNL     1      29.418   1.127 104.178  1.00  0.00     0.069 A 
ENDROOT
BRANCH   1  12
ATOM     12  C   UNL     1      24.637   3.849 102.789  1.00  0.00    -0.011 A 
ATOM     13  C   UNL     1      23.391   3.499 103.341  1.00  0.00     0.013 A 
ATOM     14  C   UNL     1      22.241   4.218 103.004  1.00  0.00     0.047 A 
ATOM     15  C   UNL     1      22.320   5.292 102.108  1.00  0.00     0.115 A 
ATOM     16  C   UNL     1      24.705   4.923 101.884  1.00  0.00     0.013 A 
ATOM     17  C   UNL     1      23.553   5.641 101.550  1.00  0.00     0.047 A 
BRANCH  15  18
ATOM     18  O   UNL     1      21.179   6.017 101.766  1.00  0.00    -0.508 OA
ATOM     19  H   UNL     1      20.542   6.364 102.472  1.00  0.00     0.293 HD
ENDBRANCH  15  18
ENDBRANCH   1  12
BRANCH  11  20
ATOM     20  C   UNL     1      30.558   1.945 104.776  1.00  0.00     0.188 C 
ATOM     21  C   UNL     1      30.390   2.069 106.308  1.00  0.00     0.179 C 
ATOM     22  O   UNL     1      30.623   3.225 104.164  1.00  0.00    -0.362 OA
ATOM     23  C   UNL     1      31.552   2.915 106.873  1.00  0.00     0.177 C 
ATOM     24  C   UNL     1      31.782   3.928 104.586  1.00  0.00     0.176 C 
ATOM     25  C   UNL     1      31.707   4.242 106.098  1.00  0.00     0.177 C 
BRANCH  21  26
ATOM     26  O   UNL     1      29.152   2.666 106.605  1.00  0.00    -0.387 OA
ATOM     27  H   UNL     1      28.823   2.255 107.447  1.00  0.00     0.211 HD
ENDBRANCH  21  26
BRANCH  23  28
ATOM     28  O   UNL     1      31.425   3.126 108.259  1.00  0.00    -0.387 OA
ATOM     29  H   UNL     1      30.584   3.625 108.424  1.00  0.00     0.211 HD
ENDBRANCH  23  28
BRANCH  24  30
ATOM     30  C   UNL     1      31.915   5.217 103.761  1.00  0.00     0.191 C 
BRANCH  30  31
ATOM     31  O   UNL     1      30.696   5.910 103.741  1.00  0.00    -0.394 OA
ATOM     32  H   UNL     1      30.723   6.513 102.952  1.00  0.00     0.210 HD
ENDBRANCH  30  31
ENDBRANCH  24  30
BRANCH  25  33
ATOM     33  O   UNL     1      30.618   5.095 106.350  1.00  0.00    -0.388 OA
ATOM     34  H   UNL     1      30.864   5.993 106.006  1.00  0.00     0.211 HD
ENDBRANCH  25  33
ENDBRANCH  11  20
BRANCH  10  35
ATOM     35  O   UNL     1      30.765  -0.911 104.193  1.00  0.00    -0.507 OA
ATOM     36  H   UNL     1      30.826  -1.921 104.228  1.00  0.00     0.293 HD
ENDBRANCH  10  35
TORSDOF 9
ENDMDL
MODEL 5
REMARK VINA RESULT:    -5.989      2.339      5.365
REMARK INTER + INTRA:          -9.196
REMARK INTER:                  -8.581
REMARK INTRA:                  -0.616
REMARK UNBOUND:                -1.106
REMARK SMILES O=c1c(-c2ccc(O)cc2)coc2c([C@H]3O[C@@H](CO)[C@@H](O)[C@@H](O)[C@H]3O)c(O)ccc12
REMARK SMILES IDX 3 1 11 2 12 3 13 4 30 5 2 6 1 7 29 8 28 9 26 10 14 11 4 12
REMARK SMILES IDX 5 13 6 14 7 15 10 16 9 17 8 18 15 20 24 21 16 22 22 23 17 24
REMARK SMILES IDX 20 25 25 26 23 28 18 30 19 31 21 33 27 35
REMARK H PARENT 8 19 25 27 23 29 19 32 21 34 27 36
REMARK Flexibility Score: inf
ROOT
ATOM      1  C   UNL     1      24.670   3.397 103.105  1.00  0.00     0.065 A 
ATOM      2  C   UNL     1      24.706   2.071 102.649  1.00  0.00     0.208 A 
ATOM      3  O   UNL     1      25.832   1.369 102.685  1.00  0.00    -0.463 OA
ATOM      4  C   UNL     1      26.982   1.857 103.143  1.00  0.00     0.147 A 
ATOM      5  C   UNL     1      27.036   3.187 103.623  1.00  0.00     0.066 A 
ATOM      6  C   UNL     1      25.863   3.963 103.592  1.00  0.00     0.200 A 
ATOM      7  O   UNL     1      25.883   5.164 103.982  1.00  0.00    -0.288 OA
ATOM      8  C   UNL     1      28.246   3.698 104.117  1.00  0.00     0.020 A 
ATOM      9  C   UNL     1      29.383   2.895 104.151  1.00  0.00     0.047 A 
ATOM     10  C   UNL     1      29.342   1.575 103.684  1.00  0.00     0.125 A 
ATOM     11  C   UNL     1      28.142   1.048 103.148  1.00  0.00     0.069 A 
ENDROOT
BRANCH   1  12
ATOM     12  C   UNL     1      23.398   4.160 103.061  1.00  0.00    -0.011 A 
ATOM     13  C   UNL     1      23.025   4.866 101.902  1.00  0.00     0.013 A 
ATOM     14  C   UNL     1      21.830   5.591 101.871  1.00  0.00     0.047 A 
ATOM     15  C   UNL     1      20.996   5.624 102.996  1.00  0.00     0.115 A 
ATOM     16  C   UNL     1      22.559   4.206 104.187  1.00  0.00     0.013 A 
ATOM     17  C   UNL     1      21.364   4.931 104.152  1.00  0.00     0.047 A 
BRANCH  15  18
ATOM     18  O   UNL     1      19.803   6.343 102.974  1.00  0.00    -0.508 OA
ATOM     19  H   UNL     1      18.933   5.917 102.677  1.00  0.00     0.293 HD
ENDBRANCH  15  18
ENDBRANCH   1  12
BRANCH  11  20
ATOM     20  C   UNL     1      28.061  -0.392 102.653  1.00  0.00     0.188 C 
ATOM     21  C   UNL     1      28.282  -0.452 101.124  1.00  0.00     0.179 C 
ATOM     22  O   UNL     1      26.814  -0.970 103.011  1.00  0.00    -0.362 OA
ATOM     23  C   UNL     1      28.177  -1.921 100.658  1.00  0.00     0.177 C 
ATOM     24  C   UNL     1      26.795  -2.357 102.710  1.00  0.00     0.176 C 
ATOM     25  C   UNL     1      26.885  -2.584 101.184  1.00  0.00     0.177 C 
BRANCH  21  26
ATOM     26  O   UNL     1      27.323   0.344 100.471  1.00  0.00    -0.387 OA
ATOM     27  H   UNL     1      27.160   1.137 101.046  1.00  0.00     0.211 HD
ENDBRANCH  21  26
BRANCH  23  28
ATOM     28  O   UNL     1      28.302  -2.042  99.261  1.00  0.00    -0.387 OA
ATOM     29  H   UNL     1      27.648  -2.718  98.946  1.00  0.00     0.211 HD
ENDBRANCH  23  28
BRANCH  24  30
ATOM     30  C   UNL     1      25.514  -2.978 103.285  1.00  0.00     0.191 C 
BRANCH  30  31
ATOM     31  O   UNL     1      24.409  -2.159 103.010  1.00  0.00    -0.394 OA
ATOM     32  H   UNL     1      23.911  -2.054 103.862  1.00  0.00     0.210 HD
ENDBRANCH  30  31
ENDBRANCH  24  30
BRANCH  25  33
ATOM     33  O   UNL     1      25.754  -2.031 100.557  1.00  0.00    -0.388 OA
ATOM     34  H   UNL     1      25.138  -2.783 100.349  1.00  0.00     0.211 HD
ENDBRANCH  25  33
ENDBRANCH  11  20
BRANCH  10  35
ATOM     35  O   UNL     1      30.492   0.790 103.761  1.00  0.00    -0.507 OA
ATOM     36  H   UNL     1      30.960   0.612 104.642  1.00  0.00     0.293 HD
ENDBRANCH  10  35
TORSDOF 9
ENDMDL
MODEL 6
REMARK VINA RESULT:    -5.828      4.628      8.339
REMARK INTER + INTRA:          -8.979
REMARK INTER:                  -7.896
REMARK INTRA:                  -1.084
REMARK UNBOUND:                -1.106
REMARK SMILES O=c1c(-c2ccc(O)cc2)coc2c([C@H]3O[C@@H](CO)[C@@H](O)[C@@H](O)[C@H]3O)c(O)ccc12
REMARK SMILES IDX 3 1 11 2 12 3 13 4 30 5 2 6 1 7 29 8 28 9 26 10 14 11 4 12
REMARK SMILES IDX 5 13 6 14 7 15 10 16 9 17 8 18 15 20 24 21 16 22 22 23 17 24
REMARK SMILES IDX 20 25 25 26 23 28 18 30 19 31 21 33 27 35
REMARK H PARENT 8 19 25 27 23 29 19 32 21 34 27 36
REMARK Flexibility Score: inf
ROOT
ATOM      1  C   UNL     1      30.845  -1.855 107.873  1.00  0.00     0.065 A 
ATOM      2  C   UNL     1      31.589  -0.668 107.917  1.00  0.00     0.208 A 
ATOM      3  O   UNL     1      31.445   0.262 106.982  1.00  0.00    -0.463 OA
ATOM      4  C   UNL     1      30.605   0.141 105.957  1.00  0.00     0.147 A 
ATOM      5  C   UNL     1      29.814  -1.025 105.834  1.00  0.00     0.066 A 
ATOM      6  C   UNL     1      29.948  -2.036 106.804  1.00  0.00     0.200 A 
ATOM      7  O   UNL     1      29.282  -3.104 106.708  1.00  0.00    -0.288 OA
ATOM      8  C   UNL     1      28.920  -1.148 104.760  1.00  0.00     0.020 A 
ATOM      9  C   UNL     1      28.799  -0.120 103.829  1.00  0.00     0.047 A 
ATOM     10  C   UNL     1      29.572   1.043 103.941  1.00  0.00     0.125 A 
ATOM     11  C   UNL     1      30.507   1.175 104.997  1.00  0.00     0.069 A 
ENDROOT
BRANCH   1  12
ATOM     12  C   UNL     1      31.020  -2.878 108.934  1.00  0.00    -0.011 A 
ATOM     13  C   UNL     1      30.225  -2.850 110.095  1.00  0.00     0.013 A 
ATOM     14  C   UNL     1      30.402  -3.811 111.095  1.00  0.00     0.047 A 
ATOM     15  C   UNL     1      31.375  -4.808 110.951  1.00  0.00     0.115 A 
ATOM     16  C   UNL     1      31.999  -3.878 108.802  1.00  0.00     0.013 A 
ATOM     17  C   UNL     1      32.171  -4.838 109.803  1.00  0.00     0.047 A 
BRANCH  15  18
ATOM     18  O   UNL     1      31.557  -5.771 111.941  1.00  0.00    -0.508 OA
ATOM     19  H   UNL     1      32.291  -6.466 111.876  1.00  0.00     0.293 HD
ENDBRANCH  15  18
ENDBRANCH   1  12
BRANCH  11  20
ATOM     20  C   UNL     1      31.346   2.438 105.157  1.00  0.00     0.188 C 
ATOM     21  C   UNL     1      30.529   3.544 105.865  1.00  0.00     0.179 C 
ATOM     22  O   UNL     1      31.819   2.882 103.894  1.00  0.00    -0.362 OA
ATOM     23  C   UNL     1      31.405   4.810 105.994  1.00  0.00     0.177 C 
ATOM     24  C   UNL     1      32.740   3.952 104.047  1.00  0.00     0.176 C 
ATOM     25  C   UNL     1      32.037   5.194 104.639  1.00  0.00     0.177 C 
BRANCH  21  26
ATOM     26  O   UNL     1      29.363   3.822 105.128  1.00  0.00    -0.387 OA
ATOM     27  H   UNL     1      28.804   3.003 105.146  1.00  0.00     0.211 HD
ENDBRANCH  21  26
BRANCH  23  28
ATOM     28  O   UNL     1      30.700   5.883 106.571  1.00  0.00    -0.387 OA
ATOM     29  H   UNL     1      30.586   6.588 105.883  1.00  0.00     0.211 HD
ENDBRANCH  23  28
BRANCH  24  30
ATOM     30  C   UNL     1      33.370   4.271 102.683  1.00  0.00     0.191 C 
BRANCH  30  31
ATOM     31  O   UNL     1      33.488   5.657 102.513  1.00  0.00    -0.394 OA
ATOM     32  H   UNL     1      34.405   5.827 102.174  1.00  0.00     0.210 HD
ENDBRANCH  30  31
ENDBRANCH  24  30
BRANCH  25  33
ATOM     33  O   UNL     1      31.052   5.651 103.744  1.00  0.00    -0.388 OA
ATOM     34  H   UNL     1      30.227   5.128 103.925  1.00  0.00     0.211 HD
ENDBRANCH  25  33
ENDBRANCH  11  20
BRANCH  10  35
ATOM     35  O   UNL     1      29.403   2.065 103.008  1.00  0.00    -0.507 OA
ATOM     36  H   UNL     1      30.048   2.843 102.943  1.00  0.00     0.293 HD
ENDBRANCH  10  35
TORSDOF 9
ENDMDL
MODEL 7
REMARK VINA RESULT:    -5.801      3.266      4.023
REMARK INTER + INTRA:          -8.942
REMARK INTER:                  -8.093
REMARK INTRA:                  -0.849
REMARK UNBOUND:                -1.106
REMARK SMILES O=c1c(-c2ccc(O)cc2)coc2c([C@H]3O[C@@H](CO)[C@@H](O)[C@@H](O)[C@H]3O)c(O)ccc12
REMARK SMILES IDX 3 1 11 2 12 3 13 4 30 5 2 6 1 7 29 8 28 9 26 10 14 11 4 12
REMARK SMILES IDX 5 13 6 14 7 15 10 16 9 17 8 18 15 20 24 21 16 22 22 23 17 24
REMARK SMILES IDX 20 25 25 26 23 28 18 30 19 31 21 33 27 35
REMARK H PARENT 8 19 25 27 23 29 19 32 21 34 27 36
REMARK Flexibility Score: inf
ROOT
ATOM      1  C   UNL     1      26.502   0.001 103.578  1.00  0.00     0.065 A 
ATOM      2  C   UNL     1      26.976   1.266 103.204  1.00  0.00     0.208 A 
ATOM      3  O   UNL     1      28.068   1.777 103.758  1.00  0.00    -0.463 OA
ATOM      4  C   UNL     1      28.778   1.144 104.689  1.00  0.00     0.147 A 
ATOM      5  C   UNL     1      28.372  -0.139 105.125  1.00  0.00     0.066 A 
ATOM      6  C   UNL     1      27.213  -0.707 104.565  1.00  0.00     0.200 A 
ATOM      7  O   UNL     1      26.804  -1.836 104.954  1.00  0.00    -0.288 OA
ATOM      8  C   UNL     1      29.127  -0.812 106.097  1.00  0.00     0.020 A 
ATOM      9  C   UNL     1      30.280  -0.229 106.617  1.00  0.00     0.047 A 
ATOM     10  C   UNL     1      30.696   1.039 106.189  1.00  0.00     0.125 A 
ATOM     11  C   UNL     1      29.931   1.753 105.235  1.00  0.00     0.069 A 
ENDROOT
BRANCH   1  12
ATOM     12  C   UNL     1      25.282  -0.552 102.939  1.00  0.00    -0.011 A 
ATOM     13  C   UNL     1      24.056   0.134 103.019  1.00  0.00     0.013 A 
ATOM     14  C   UNL     1      22.909  -0.397 102.424  1.00  0.00     0.047 A 
ATOM     15  C   UNL     1      22.969  -1.621 101.745  1.00  0.00     0.115 A 
ATOM     16  C   UNL     1      25.331  -1.783 102.262  1.00  0.00     0.013 A 
ATOM     17  C   UNL     1      24.182  -2.310 101.667  1.00  0.00     0.047 A 
BRANCH  15  18
ATOM     18  O   UNL     1      21.831  -2.158 101.146  1.00  0.00    -0.508 OA
ATOM     19  H   UNL     1      21.876  -2.629 100.251  1.00  0.00     0.293 HD
ENDBRANCH  15  18
ENDBRANCH   1  12
BRANCH  11  20
ATOM     20  C   UNL     1      30.371   3.124 104.734  1.00  0.00     0.188 C 
ATOM     21  C   UNL     1      31.416   2.979 103.604  1.00  0.00     0.179 C 
ATOM     22  O   UNL     1      30.884   3.902 105.806  1.00  0.00    -0.362 OA
ATOM     23  C   UNL     1      31.849   4.386 103.135  1.00  0.00     0.177 C 
ATOM     24  C   UNL     1      31.134   5.236 105.389  1.00  0.00     0.176 C 
ATOM     25  C   UNL     1      32.261   5.272 104.331  1.00  0.00     0.177 C 
BRANCH  21  26
ATOM     26  O   UNL     1      32.525   2.250 104.071  1.00  0.00    -0.387 OA
ATOM     27  H   UNL     1      32.176   1.530 104.658  1.00  0.00     0.211 HD
ENDBRANCH  21  26
BRANCH  23  28
ATOM     28  O   UNL     1      32.852   4.328 102.151  1.00  0.00    -0.387 OA
ATOM     29  H   UNL     1      32.714   3.509 101.610  1.00  0.00     0.211 HD
ENDBRANCH  23  28
BRANCH  24  30
ATOM     30  C   UNL     1      31.501   6.085 106.615  1.00  0.00     0.191 C 
BRANCH  30  31
ATOM     31  O   UNL     1      31.869   5.260 107.687  1.00  0.00    -0.394 OA
ATOM     32  H   UNL     1      31.601   4.335 107.443  1.00  0.00     0.210 HD
ENDBRANCH  30  31
ENDBRANCH  24  30
BRANCH  25  33
ATOM     33  O   UNL     1      33.460   4.808 104.902  1.00  0.00    -0.388 OA
ATOM     34  H   UNL     1      33.240   3.989 105.419  1.00  0.00     0.211 HD
ENDBRANCH  25  33
ENDBRANCH  11  20
BRANCH  10  35
ATOM     35  O   UNL     1      31.871   1.580 106.709  1.00  0.00    -0.507 OA
ATOM     36  H   UNL     1      32.748   1.540 106.203  1.00  0.00     0.293 HD
ENDBRANCH  10  35
TORSDOF 9
ENDMDL
MODEL 8
REMARK VINA RESULT:    -5.775      7.624     12.016
REMARK INTER + INTRA:          -8.907
REMARK INTER:                  -7.819
REMARK INTRA:                  -1.088
REMARK UNBOUND:                -1.106
REMARK SMILES O=c1c(-c2ccc(O)cc2)coc2c([C@H]3O[C@@H](CO)[C@@H](O)[C@@H](O)[C@H]3O)c(O)ccc12
REMARK SMILES IDX 3 1 11 2 12 3 13 4 30 5 2 6 1 7 29 8 28 9 26 10 14 11 4 12
REMARK SMILES IDX 5 13 6 14 7 15 10 16 9 17 8 18 15 20 24 21 16 22 22 23 17 24
REMARK SMILES IDX 20 25 25 26 23 28 18 30 19 31 21 33 27 35
REMARK H PARENT 8 19 25 27 23 29 19 32 21 34 27 36
REMARK Flexibility Score: inf
ROOT
ATOM      1  C   UNL     1      27.801  -3.986  97.446  1.00  0.00     0.065 A 
ATOM      2  C   UNL     1      26.589  -4.690  97.474  1.00  0.00     0.208 A 
ATOM      3  O   UNL     1      25.784  -4.622  98.526  1.00  0.00    -0.463 OA
ATOM      4  C   UNL     1      26.060  -3.899  99.609  1.00  0.00     0.147 A 
ATOM      5  C   UNL     1      27.262  -3.155  99.667  1.00  0.00     0.066 A 
ATOM      6  C   UNL     1      28.142  -3.212  98.571  1.00  0.00     0.200 A 
ATOM      7  O   UNL     1      29.239  -2.587  98.602  1.00  0.00    -0.288 OA
ATOM      8  C   UNL     1      27.546  -2.383 100.803  1.00  0.00     0.020 A 
ATOM      9  C   UNL     1      26.642  -2.334 101.861  1.00  0.00     0.047 A 
ATOM     10  C   UNL     1      25.446  -3.062 101.815  1.00  0.00     0.125 A 
ATOM     11  C   UNL     1      25.152  -3.876 100.694  1.00  0.00     0.069 A 
ENDROOT
BRANCH   1  12
ATOM     12  C   UNL     1      28.682  -4.073  96.255  1.00  0.00    -0.011 A 
ATOM     13  C   UNL     1      29.830  -4.887  96.270  1.00  0.00     0.013 A 
ATOM     14  C   UNL     1      30.660  -4.957  95.148  1.00  0.00     0.047 A 
ATOM     15  C   UNL     1      30.358  -4.213  94.000  1.00  0.00     0.115 A 
ATOM     16  C   UNL     1      28.391  -3.325  95.102  1.00  0.00     0.013 A 
ATOM     17  C   UNL     1      29.223  -3.398  93.981  1.00  0.00     0.047 A 
BRANCH  15  18
ATOM     18  O   UNL     1      31.179  -4.278  92.876  1.00  0.00    -0.508 OA
ATOM     19  H   UNL     1      31.079  -5.015  92.188  1.00  0.00     0.293 HD
ENDBRANCH  15  18
ENDBRANCH   1  12
BRANCH  11  20
ATOM     20  C   UNL     1      23.849  -4.661 100.606  1.00  0.00     0.188 C 
ATOM     21  C   UNL     1      22.731  -3.787  99.990  1.00  0.00     0.179 C 
ATOM     22  O   UNL     1      23.472  -5.142 101.888  1.00  0.00    -0.362 OA
ATOM     23  C   UNL     1      21.424  -4.609  99.933  1.00  0.00     0.177 C 
ATOM     24  C   UNL     1      22.358  -6.017 101.793  1.00  0.00     0.176 C 
ATOM     25  C   UNL     1      21.108  -5.253 101.300  1.00  0.00     0.177 C 
BRANCH  21  26
ATOM     26  O   UNL     1      22.552  -2.626 100.765  1.00  0.00    -0.387 OA
ATOM     27  H   UNL     1      22.502  -1.859 100.137  1.00  0.00     0.211 HD
ENDBRANCH  21  26
BRANCH  23  28
ATOM     28  O   UNL     1      20.345  -3.850  99.444  1.00  0.00    -0.387 OA
ATOM     29  H   UNL     1      20.032  -4.261  98.597  1.00  0.00     0.211 HD
ENDBRANCH  23  28
BRANCH  24  30
ATOM     30  C   UNL     1      22.107  -6.660 103.164  1.00  0.00     0.191 C 
BRANCH  30  31
ATOM     31  O   UNL     1      20.757  -7.017 103.295  1.00  0.00    -0.394 OA
ATOM     32  H   UNL     1      20.690  -7.979 103.057  1.00  0.00     0.210 HD
ENDBRANCH  30  31
ENDBRANCH  24  30
BRANCH  25  33
ATOM     33  O   UNL     1      20.754  -4.269 102.242  1.00  0.00    -0.388 OA
ATOM     34  H   UNL     1      19.793  -4.402 102.457  1.00  0.00     0.211 HD
ENDBRANCH  25  33
ENDBRANCH  11  20
BRANCH  10  35
ATOM     35  O   UNL     1      24.550  -2.966 102.879  1.00  0.00    -0.507 OA
ATOM     36  H   UNL     1      24.753  -3.368 103.787  1.00  0.00     0.293 HD
ENDBRANCH  10  35
TORSDOF 9
ENDMDL
MODEL 9
REMARK VINA RESULT:    -5.769      3.330      8.594
REMARK INTER + INTRA:          -8.899
REMARK INTER:                  -7.832
REMARK INTRA:                  -1.068
REMARK UNBOUND:                -1.106
REMARK SMILES O=c1c(-c2ccc(O)cc2)coc2c([C@H]3O[C@@H](CO)[C@@H](O)[C@@H](O)[C@H]3O)c(O)ccc12
REMARK SMILES IDX 3 1 11 2 12 3 13 4 30 5 2 6 1 7 29 8 28 9 26 10 14 11 4 12
REMARK SMILES IDX 5 13 6 14 7 15 10 16 9 17 8 18 15 20 24 21 16 22 22 23 17 24
REMARK SMILES IDX 20 25 25 26 23 28 18 30 19 31 21 33 27 35
REMARK H PARENT 8 19 25 27 23 29 19 32 21 34 27 36
REMARK Flexibility Score: inf
ROOT
ATOM      1  C   UNL     1      30.277   1.953 103.713  1.00  0.00     0.065 A 
ATOM      2  C   UNL     1      29.153   2.058 102.882  1.00  0.00     0.208 A 
ATOM      3  O   UNL     1      28.240   1.095 102.845  1.00  0.00    -0.463 OA
ATOM      4  C   UNL     1      28.322  -0.015 103.574  1.00  0.00     0.147 A 
ATOM      5  C   UNL     1      29.424  -0.203 104.441  1.00  0.00     0.066 A 
ATOM      6  C   UNL     1      30.414   0.794 104.499  1.00  0.00     0.200 A 
ATOM      7  O   UNL     1      31.428   0.644 105.237  1.00  0.00    -0.288 OA
ATOM      8  C   UNL     1      29.503  -1.368 105.220  1.00  0.00     0.020 A 
ATOM      9  C   UNL     1      28.495  -2.326 105.152  1.00  0.00     0.047 A 
ATOM     10  C   UNL     1      27.395  -2.149 104.302  1.00  0.00     0.125 A 
ATOM     11  C   UNL     1      27.310  -0.999 103.481  1.00  0.00     0.069 A 
ENDROOT
BRANCH   1  12
ATOM     12  C   UNL     1      31.281   3.046 103.742  1.00  0.00    -0.011 A 
ATOM     13  C   UNL     1      31.137   4.130 104.627  1.00  0.00     0.013 A 
ATOM     14  C   UNL     1      32.081   5.161 104.642  1.00  0.00     0.047 A 
ATOM     15  C   UNL     1      33.178   5.124 103.771  1.00  0.00     0.115 A 
ATOM     16  C   UNL     1      32.381   3.022 102.866  1.00  0.00     0.013 A 
ATOM     17  C   UNL     1      33.323   4.054 102.885  1.00  0.00     0.047 A 
BRANCH  15  18
ATOM     18  O   UNL     1      34.125   6.146 103.779  1.00  0.00    -0.508 OA
ATOM     19  H   UNL     1      33.856   7.117 103.885  1.00  0.00     0.293 HD
ENDBRANCH  15  18
ENDBRANCH   1  12
BRANCH  11  20
ATOM     20  C   UNL     1      26.115  -0.769 102.562  1.00  0.00     0.188 C 
ATOM     21  C   UNL     1      24.913  -0.219 103.365  1.00  0.00     0.179 C 
ATOM     22  O   UNL     1      25.771  -1.970 101.887  1.00  0.00    -0.362 OA
ATOM     23  C   UNL     1      23.719  -0.015 102.405  1.00  0.00     0.177 C 
ATOM     24  C   UNL     1      24.776  -1.730 100.904  1.00  0.00     0.176 C 
ATOM     25  C   UNL     1      23.452  -1.284 101.567  1.00  0.00     0.177 C 
BRANCH  21  26
ATOM     26  O   UNL     1      24.574  -1.118 104.393  1.00  0.00    -0.387 OA
ATOM     27  H   UNL     1      23.599  -1.025 104.553  1.00  0.00     0.211 HD
ENDBRANCH  21  26
BRANCH  23  28
ATOM     28  O   UNL     1      22.566   0.421 103.083  1.00  0.00    -0.387 OA
ATOM     29  H   UNL     1      22.020   0.962 102.456  1.00  0.00     0.211 HD
ENDBRANCH  23  28
BRANCH  24  30
ATOM     30  C   UNL     1      24.574  -3.005 100.072  1.00  0.00     0.191 C 
BRANCH  30  31
ATOM     31  O   UNL     1      23.292  -3.018  99.503  1.00  0.00    -0.394 OA
ATOM     32  H   UNL     1      22.816  -3.801  99.887  1.00  0.00     0.210 HD
ENDBRANCH  30  31
ENDBRANCH  24  30
BRANCH  25  33
ATOM     33  O   UNL     1      22.958  -2.321 102.379  1.00  0.00    -0.388 OA
ATOM     34  H   UNL     1      21.971  -2.332 102.271  1.00  0.00     0.211 HD
ENDBRANCH  25  33
ENDBRANCH  11  20
BRANCH  10  35
ATOM     35  O   UNL     1      26.389  -3.115 104.282  1.00  0.00    -0.507 OA
ATOM     36  H   UNL     1      26.542  -4.039 103.896  1.00  0.00     0.293 HD
ENDBRANCH  10  35
TORSDOF 9
ENDMDL
