MODEL 1
REMARK VINA RESULT:    -4.839      0.000      0.000
REMARK INTER + INTRA:          -7.533
REMARK INTER:                  -7.385
REMARK INTRA:                  -0.148
REMARK UNBOUND:                -0.148
REMARK SMILES CC1=CCC[C@@H](C)C(=O)C[C@H](C(C)C)C(=O)C1
REMARK SMILES IDX 8 1 9 2 6 3 7 4 5 5 4 6 3 7 2 8 1 9 10 11 11 12 15 13 16 14
REMARK SMILES IDX 17 15 12 17 13 18 14 19
REMARK H PARENT
REMARK Flexibility Score: 70.00
ROOT
ATOM      1  C   UNL     1     -13.226 -33.611  28.481  1.00  0.00     0.136 C 
ATOM      2  O   UNL     1     -13.987 -33.120  27.658  1.00  0.00    -0.299 OA
ENDROOT
BRANCH   1   3
ATOM      3  C   UNL     1     -12.573 -34.948  28.189  1.00  0.00     0.053 C 
ATOM      4  C   UNL     1     -11.863 -34.913  26.829  1.00  0.00     0.016 C 
BRANCH   3   5
ATOM      5  C   UNL     1     -13.620 -36.085  28.235  1.00  0.00     0.015 C 
BRANCH   5   6
ATOM      6  C   UNL     1     -13.314 -37.095  29.358  1.00  0.00     0.028 C 
BRANCH   6   7
ATOM      7  C   UNL     1     -11.953 -36.900  29.980  1.00  0.00    -0.028 C 
ATOM      8  C   UNL     1     -11.699 -36.181  31.102  1.00  0.00    -0.070 CG0
ATOM      9  C   UNL     1     -10.270 -36.016  31.555  1.00  0.00     0.039 C 
ATOM     10  G   UNL     1     -12.784 -35.620  32.009  1.00  0.00     0.000 G0
ENDBRANCH   6   7
ENDBRANCH   5   6
ENDBRANCH   3   5
ENDBRANCH   1   3
BRANCH   1  11
ATOM     11  C   UNL     1     -12.952 -32.858  29.765  1.00  0.00     0.087 C 
BRANCH  11  12
ATOM     12  C   UNL     1     -13.773 -33.418  30.954  1.00  0.00     0.066 C 
BRANCH  12  13
ATOM     13  C   UNL     1     -12.871 -34.098  31.973  1.00  0.00     0.140 C 
ATOM     14  O   UNL     1     -12.235 -33.437  32.782  1.00  0.00    -0.299 OA
BRANCH  13  15
ATOM     15  C   UNL     1     -12.782 -35.604  32.008  1.00  0.00     0.106 CG0
ATOM     16  G   UNL     1     -11.701 -36.183  31.108  1.00  0.00     0.000 G0
ENDBRANCH  13  15
ENDBRANCH  12  13
BRANCH  12  17
ATOM     17  C   UNL     1     -14.739 -32.353  31.565  1.00  0.00    -0.006 C 
ATOM     18  C   UNL     1     -15.548 -31.631  30.477  1.00  0.00     0.008 C 
ATOM     19  C   UNL     1     -15.677 -32.893  32.661  1.00  0.00     0.008 C 
ENDBRANCH  12  17
ENDBRANCH  11  12
ENDBRANCH   1  11
TORSDOF 1
ENDMDL
MODEL 2
REMARK VINA RESULT:    -4.309      1.971      3.731
REMARK INTER + INTRA:          -6.724
REMARK INTER:                  -6.558
REMARK INTRA:                  -0.166
REMARK UNBOUND:                -0.148
REMARK SMILES CC1=CCC[C@@H](C)C(=O)C[C@H](C(C)C)C(=O)C1
REMARK SMILES IDX 8 1 9 2 6 3 7 4 5 5 4 6 3 7 2 8 1 9 10 11 11 12 15 13 16 14
REMARK SMILES IDX 17 15 12 17 13 18 14 19
REMARK H PARENT
REMARK Flexibility Score: 70.00
ROOT
ATOM      1  C   UNL     1     -12.983 -34.507  28.585  1.00  0.00     0.136 C 
ATOM      2  O   UNL     1     -12.668 -34.849  27.454  1.00  0.00    -0.299 OA
ENDROOT
BRANCH   1   3
ATOM      3  C   UNL     1     -12.591 -33.129  29.084  1.00  0.00     0.053 C 
ATOM      4  C   UNL     1     -13.457 -32.051  28.419  1.00  0.00     0.016 C 
BRANCH   3   5
ATOM      5  C   UNL     1     -11.089 -32.866  28.825  1.00  0.00     0.015 C 
BRANCH   5   6
ATOM      6  C   UNL     1     -10.197 -33.671  29.790  1.00  0.00     0.028 C 
BRANCH   6   7
ATOM      7  C   UNL     1     -10.238 -33.158  31.209  1.00  0.00    -0.028 C 
ATOM      8  C   UNL     1     -10.770 -33.817  32.267  1.00  0.00    -0.070 CG0
ATOM      9  C   UNL     1     -10.803 -33.134  33.611  1.00  0.00     0.039 C 
ATOM     10  G   UNL     1     -11.237 -35.264  32.212  1.00  0.00     0.000 G0
ENDBRANCH   6   7
ENDBRANCH   5   6
ENDBRANCH   3   5
ENDBRANCH   1   3
BRANCH   1  11
ATOM     11  C   UNL     1     -13.767 -35.470  29.450  1.00  0.00     0.087 C 
BRANCH  11  12
ATOM     12  C   UNL     1     -12.852 -36.251  30.427  1.00  0.00     0.066 C 
BRANCH  12  13
ATOM     13  C   UNL     1     -12.637 -35.475  31.718  1.00  0.00     0.140 C 
ATOM     14  O   UNL     1     -13.588 -35.031  32.344  1.00  0.00    -0.299 OA
BRANCH  13  15
ATOM     15  C   UNL     1     -11.237 -35.277  32.248  1.00  0.00     0.106 CG0
ATOM     16  G   UNL     1     -10.784 -33.825  32.273  1.00  0.00     0.000 G0
ENDBRANCH  13  15
ENDBRANCH  12  13
BRANCH  12  17
ATOM     17  C   UNL     1     -13.327 -37.724  30.638  1.00  0.00    -0.006 C 
ATOM     18  C   UNL     1     -13.422 -38.485  29.307  1.00  0.00     0.008 C 
ATOM     19  C   UNL     1     -12.494 -38.526  31.656  1.00  0.00     0.008 C 
ENDBRANCH  12  17
ENDBRANCH  11  12
ENDBRANCH   1  11
TORSDOF 1
ENDMDL
MODEL 3
REMARK VINA RESULT:    -4.271      1.439      2.143
REMARK INTER + INTRA:          -6.666
REMARK INTER:                  -7.067
REMARK INTRA:                   0.401
REMARK UNBOUND:                -0.148
REMARK SMILES CC1=CCC[C@@H](C)C(=O)C[C@H](C(C)C)C(=O)C1
REMARK SMILES IDX 8 1 9 2 6 3 7 4 5 5 4 6 3 7 2 8 1 9 10 11 11 12 15 13 16 14
REMARK SMILES IDX 17 15 12 17 13 18 14 19
REMARK H PARENT
REMARK Flexibility Score: 70.00
ROOT
ATOM      1  C   UNL     1     -12.667 -33.401  28.936  1.00  0.00     0.136 C 
ATOM      2  O   UNL     1     -13.287 -32.392  28.629  1.00  0.00    -0.299 OA
ENDROOT
BRANCH   1   3
ATOM      3  C   UNL     1     -12.713 -34.612  28.023  1.00  0.00     0.053 C 
ATOM      4  C   UNL     1     -12.883 -34.175  26.562  1.00  0.00     0.016 C 
BRANCH   3   5
ATOM      5  C   UNL     1     -13.851 -35.568  28.449  1.00  0.00     0.015 C 
BRANCH   5   6
ATOM      6  C   UNL     1     -13.382 -37.036  28.469  1.00  0.00     0.028 C 
BRANCH   6   7
ATOM      7  C   UNL     1     -13.445 -37.664  29.840  1.00  0.00    -0.028 C 
ATOM      8  C   UNL     1     -12.446 -37.651  30.756  1.00  0.00    -0.070 CG0
ATOM      9  C   UNL     1     -12.637 -38.393  32.055  1.00  0.00     0.039 C 
ATOM     10  G   UNL     1     -11.174 -36.830  30.606  1.00  0.00     0.000 G0
ENDBRANCH   6   7
ENDBRANCH   5   6
ENDBRANCH   3   5
ENDBRANCH   1   3
BRANCH   1  11
ATOM     11  C   UNL     1     -11.862 -33.404  30.218  1.00  0.00     0.087 C 
BRANCH  11  12
ATOM     12  C   UNL     1     -12.306 -34.534  31.180  1.00  0.00     0.066 C 
BRANCH  12  13
ATOM     13  C   UNL     1     -11.184 -35.538  31.403  1.00  0.00     0.140 C 
ATOM     14  O   UNL     1     -10.306 -35.319  32.225  1.00  0.00    -0.299 OA
BRANCH  13  15
ATOM     15  C   UNL     1     -11.171 -36.831  30.624  1.00  0.00     0.106 CG0
ATOM     16  G   UNL     1     -12.449 -37.646  30.754  1.00  0.00     0.000 G0
ENDBRANCH  13  15
ENDBRANCH  12  13
BRANCH  12  17
ATOM     17  C   UNL     1     -12.940 -33.981  32.496  1.00  0.00    -0.006 C 
ATOM     18  C   UNL     1     -11.957 -33.088  33.267  1.00  0.00     0.008 C 
ATOM     19  C   UNL     1     -14.285 -33.257  32.304  1.00  0.00     0.008 C 
ENDBRANCH  12  17
ENDBRANCH  11  12
ENDBRANCH   1  11
TORSDOF 1
ENDMDL
MODEL 4
REMARK VINA RESULT:    -4.258      2.032      3.975
REMARK INTER + INTRA:          -6.647
REMARK INTER:                  -6.898
REMARK INTRA:                   0.251
REMARK UNBOUND:                -0.148
REMARK SMILES CC1=CCC[C@@H](C)C(=O)C[C@H](C(C)C)C(=O)C1
REMARK SMILES IDX 8 1 9 2 6 3 7 4 5 5 4 6 3 7 2 8 1 9 10 11 11 12 15 13 16 14
REMARK SMILES IDX 17 15 12 17 13 18 14 19
REMARK H PARENT
REMARK Flexibility Score: 70.00
ROOT
ATOM      1  C   UNL     1     -12.244 -35.455  32.170  1.00  0.00     0.136 C 
ATOM      2  O   UNL     1     -12.208 -36.574  31.677  1.00  0.00    -0.299 OA
ENDROOT
BRANCH   1   3
ATOM      3  C   UNL     1     -10.961 -34.820  32.673  1.00  0.00     0.053 C 
ATOM      4  C   UNL     1     -11.224 -33.387  33.154  1.00  0.00     0.016 C 
BRANCH   3   5
ATOM      5  C   UNL     1      -9.877 -34.841  31.570  1.00  0.00     0.015 C 
BRANCH   5   6
ATOM      6  C   UNL     1     -10.072 -33.691  30.563  1.00  0.00     0.028 C 
BRANCH   6   7
ATOM      7  C   UNL     1     -10.198 -34.163  29.135  1.00  0.00    -0.028 C 
ATOM      8  C   UNL     1     -11.326 -34.100  28.384  1.00  0.00    -0.070 CG0
ATOM      9  C   UNL     1     -11.312 -34.688  26.995  1.00  0.00     0.039 C 
ATOM     10  G   UNL     1     -12.585 -33.363  28.814  1.00  0.00     0.000 G0
ENDBRANCH   6   7
ENDBRANCH   5   6
ENDBRANCH   3   5
ENDBRANCH   1   3
BRANCH   1  11
ATOM     11  C   UNL     1     -13.571 -34.732  32.251  1.00  0.00     0.087 C 
BRANCH  11  12
ATOM     12  C   UNL     1     -13.684 -33.602  31.197  1.00  0.00     0.066 C 
BRANCH  12  13
ATOM     13  C   UNL     1     -13.464 -34.139  29.790  1.00  0.00     0.140 C 
ATOM     14  O   UNL     1     -13.997 -35.178  29.430  1.00  0.00    -0.299 OA
BRANCH  13  15
ATOM     15  C   UNL     1     -12.604 -33.366  28.820  1.00  0.00     0.106 CG0
ATOM     16  G   UNL     1     -11.352 -34.108  28.374  1.00  0.00     0.000 G0
ENDBRANCH  13  15
ENDBRANCH  12  13
BRANCH  12  17
ATOM     17  C   UNL     1     -14.989 -32.760  31.364  1.00  0.00    -0.006 C 
ATOM     18  C   UNL     1     -15.155 -32.250  32.803  1.00  0.00     0.008 C 
ATOM     19  C   UNL     1     -15.134 -31.597  30.364  1.00  0.00     0.008 C 
ENDBRANCH  12  17
ENDBRANCH  11  12
ENDBRANCH   1  11
TORSDOF 1
ENDMDL
MODEL 5
REMARK VINA RESULT:    -4.232      1.806      3.726
REMARK INTER + INTRA:          -6.608
REMARK INTER:                  -6.506
REMARK INTRA:                  -0.102
REMARK UNBOUND:                -0.148
REMARK SMILES CC1=CCC[C@@H](C)C(=O)C[C@H](C(C)C)C(=O)C1
REMARK SMILES IDX 8 1 9 2 6 3 7 4 5 5 4 6 3 7 2 8 1 9 10 11 11 12 15 13 16 14
REMARK SMILES IDX 17 15 12 17 13 18 14 19
REMARK H PARENT
REMARK Flexibility Score: 70.00
ROOT
ATOM      1  C   UNL     1     -12.758 -35.355  31.831  1.00  0.00     0.136 C 
ATOM      2  O   UNL     1     -12.052 -34.948  32.744  1.00  0.00    -0.299 OA
ENDROOT
BRANCH   1   3
ATOM      3  C   UNL     1     -12.307 -36.551  31.015  1.00  0.00     0.053 C 
ATOM      4  C   UNL     1     -12.362 -37.830  31.862  1.00  0.00     0.016 C 
BRANCH   3   5
ATOM      5  C   UNL     1     -10.883 -36.321  30.458  1.00  0.00     0.015 C 
BRANCH   5   6
ATOM      6  C   UNL     1     -10.789 -35.001  29.668  1.00  0.00     0.028 C 
BRANCH   6   7
ATOM      7  C   UNL     1     -11.780 -34.914  28.532  1.00  0.00    -0.028 C 
ATOM      8  C   UNL     1     -12.716 -33.945  28.380  1.00  0.00    -0.070 CG0
ATOM      9  C   UNL     1     -13.687 -34.042  27.230  1.00  0.00     0.039 C 
ATOM     10  G   UNL     1     -12.779 -32.690  29.238  1.00  0.00     0.000 G0
ENDBRANCH   6   7
ENDBRANCH   5   6
ENDBRANCH   3   5
ENDBRANCH   1   3
BRANCH   1  11
ATOM     11  C   UNL     1     -14.070 -34.654  31.552  1.00  0.00     0.087 C 
BRANCH  11  12
ATOM     12  C   UNL     1     -13.917 -33.112  31.549  1.00  0.00     0.066 C 
BRANCH  12  13
ATOM     13  C   UNL     1     -13.975 -32.557  30.133  1.00  0.00     0.140 C 
ATOM     14  O   UNL     1     -14.981 -31.997  29.724  1.00  0.00    -0.299 OA
BRANCH  13  15
ATOM     15  C   UNL     1     -12.767 -32.670  29.235  1.00  0.00     0.106 CG0
ATOM     16  G   UNL     1     -12.734 -33.939  28.397  1.00  0.00     0.000 G0
ENDBRANCH  13  15
ENDBRANCH  12  13
BRANCH  12  17
ATOM     17  C   UNL     1     -14.893 -32.415  32.550  1.00  0.00    -0.006 C 
ATOM     18  C   UNL     1     -16.090 -33.313  32.893  1.00  0.00     0.008 C 
ATOM     19  C   UNL     1     -14.226 -31.894  33.837  1.00  0.00     0.008 C 
ENDBRANCH  12  17
ENDBRANCH  11  12
ENDBRANCH   1  11
TORSDOF 1
ENDMDL
MODEL 6
REMARK VINA RESULT:    -4.169      1.873      3.905
REMARK INTER + INTRA:          -6.510
REMARK INTER:                  -6.424
REMARK INTRA:                  -0.087
REMARK UNBOUND:                -0.148
REMARK SMILES CC1=CCC[C@@H](C)C(=O)C[C@H](C(C)C)C(=O)C1
REMARK SMILES IDX 8 1 9 2 6 3 7 4 5 5 4 6 3 7 2 8 1 9 10 11 11 12 15 13 16 14
REMARK SMILES IDX 17 15 12 17 13 18 14 19
REMARK H PARENT
REMARK Flexibility Score: 70.00
ROOT
ATOM      1  C   UNL     1     -12.547 -33.525  30.705  1.00  0.00     0.136 C 
ATOM      2  O   UNL     1     -13.253 -33.784  31.669  1.00  0.00    -0.299 OA
ENDROOT
BRANCH   1   3
ATOM      3  C   UNL     1     -11.101 -33.121  30.927  1.00  0.00     0.053 C 
ATOM      4  C   UNL     1     -10.344 -33.083  29.592  1.00  0.00     0.016 C 
BRANCH   3   5
ATOM      5  C   UNL     1     -10.416 -34.087  31.921  1.00  0.00     0.015 C 
BRANCH   5   6
ATOM      6  C   UNL     1     -10.170 -35.471  31.291  1.00  0.00     0.028 C 
BRANCH   6   7
ATOM      7  C   UNL     1     -11.058 -36.552  31.859  1.00  0.00    -0.028 C 
ATOM      8  C   UNL     1     -11.977 -37.261  31.158  1.00  0.00    -0.070 CG0
ATOM      9  C   UNL     1     -12.843 -38.256  31.890  1.00  0.00     0.039 C 
ATOM     10  G   UNL     1     -12.114 -37.202  29.644  1.00  0.00     0.000 G0
ENDBRANCH   6   7
ENDBRANCH   5   6
ENDBRANCH   3   5
ENDBRANCH   1   3
BRANCH   1  11
ATOM     11  C   UNL     1     -13.137 -33.626  29.315  1.00  0.00     0.087 C 
BRANCH  11  12
ATOM     12  C   UNL     1     -12.605 -34.861  28.545  1.00  0.00     0.066 C 
BRANCH  12  13
ATOM     13  C   UNL     1     -13.114 -36.155  29.163  1.00  0.00     0.140 C 
ATOM     14  O   UNL     1     -14.314 -36.372  29.255  1.00  0.00    -0.299 OA
BRANCH  13  15
ATOM     15  C   UNL     1     -12.129 -37.195  29.640  1.00  0.00     0.106 CG0
ATOM     16  G   UNL     1     -11.975 -37.256  31.152  1.00  0.00     0.000 G0
ENDBRANCH  13  15
ENDBRANCH  12  13
BRANCH  12  17
ATOM     17  C   UNL     1     -12.842 -34.751  27.005  1.00  0.00    -0.006 C 
ATOM     18  C   UNL     1     -13.863 -33.654  26.666  1.00  0.00     0.008 C 
ATOM     19  C   UNL     1     -11.561 -34.568  26.171  1.00  0.00     0.008 C 
ENDBRANCH  12  17
ENDBRANCH  11  12
ENDBRANCH   1  11
TORSDOF 1
ENDMDL
MODEL 7
REMARK VINA RESULT:    -4.138      1.866      3.505
REMARK INTER + INTRA:          -6.463
REMARK INTER:                  -7.869
REMARK INTRA:                   1.406
REMARK UNBOUND:                -0.148
REMARK SMILES CC1=CCC[C@@H](C)C(=O)C[C@H](C(C)C)C(=O)C1
REMARK SMILES IDX 8 1 9 2 6 3 7 4 5 5 4 6 3 7 2 8 1 9 10 11 11 12 15 13 16 14
REMARK SMILES IDX 17 15 12 17 13 18 14 19
REMARK H PARENT
REMARK Flexibility Score: 70.00
ROOT
ATOM      1  C   UNL     1     -11.864 -36.461  29.448  1.00  0.00     0.136 C 
ATOM      2  O   UNL     1     -10.831 -36.438  30.104  1.00  0.00    -0.299 OA
ENDROOT
BRANCH   1   3
ATOM      3  C   UNL     1     -12.872 -37.570  29.685  1.00  0.00     0.053 C 
ATOM      4  C   UNL     1     -14.122 -37.350  28.822  1.00  0.00     0.016 C 
BRANCH   3   5
ATOM      5  C   UNL     1     -13.245 -37.653  31.183  1.00  0.00     0.015 C 
BRANCH   5   6
ATOM      6  C   UNL     1     -12.702 -36.445  31.970  1.00  0.00     0.028 C 
BRANCH   6   7
ATOM      7  C   UNL     1     -13.660 -35.279  32.012  1.00  0.00    -0.028 C 
ATOM      8  C   UNL     1     -13.312 -33.973  31.899  1.00  0.00    -0.070 CG0
ATOM      9  C   UNL     1     -14.381 -32.919  32.040  1.00  0.00     0.039 C 
ATOM     10  G   UNL     1     -11.916 -33.501  31.521  1.00  0.00     0.000 G0
ENDBRANCH   6   7
ENDBRANCH   5   6
ENDBRANCH   3   5
ENDBRANCH   1   3
BRANCH   1  11
ATOM     11  C   UNL     1     -12.108 -35.371  28.427  1.00  0.00     0.087 C 
BRANCH  11  12
ATOM     12  C   UNL     1     -12.661 -34.078  29.077  1.00  0.00     0.066 C 
BRANCH  12  13
ATOM     13  C   UNL     1     -11.649 -33.469  30.036  1.00  0.00     0.140 C 
ATOM     14  O   UNL     1     -10.634 -32.934  29.613  1.00  0.00    -0.299 OA
BRANCH  13  15
ATOM     15  C   UNL     1     -11.915 -33.496  31.521  1.00  0.00     0.106 CG0
ATOM     16  G   UNL     1     -13.320 -33.947  31.891  1.00  0.00     0.000 G0
ENDBRANCH  13  15
ENDBRANCH  12  13
BRANCH  12  17
ATOM     17  C   UNL     1     -13.226 -33.075  28.020  1.00  0.00    -0.006 C 
ATOM     18  C   UNL     1     -13.776 -33.803  26.785  1.00  0.00     0.008 C 
ATOM     19  C   UNL     1     -14.271 -32.087  28.570  1.00  0.00     0.008 C 
ENDBRANCH  12  17
ENDBRANCH  11  12
ENDBRANCH   1  11
TORSDOF 1
ENDMDL
MODEL 8
REMARK VINA RESULT:    -4.079      1.754      4.043
REMARK INTER + INTRA:          -6.374
REMARK INTER:                  -6.609
REMARK INTRA:                   0.235
REMARK UNBOUND:                -0.148
REMARK SMILES CC1=CCC[C@@H](C)C(=O)C[C@H](C(C)C)C(=O)C1
REMARK SMILES IDX 8 1 9 2 6 3 7 4 5 5 4 6 3 7 2 8 1 9 10 11 11 12 15 13 16 14
REMARK SMILES IDX 17 15 12 17 13 18 14 19
REMARK H PARENT
REMARK Flexibility Score: 70.00
ROOT
ATOM      1  C   UNL     1     -12.634 -35.179  28.270  1.00  0.00     0.136 C 
ATOM      2  O   UNL     1     -11.447 -35.191  28.567  1.00  0.00    -0.299 OA
ENDROOT
BRANCH   1   3
ATOM      3  C   UNL     1     -13.076 -34.496  26.989  1.00  0.00     0.053 C 
ATOM      4  C   UNL     1     -11.915 -34.431  25.988  1.00  0.00     0.016 C 
BRANCH   3   5
ATOM      5  C   UNL     1     -13.623 -33.082  27.291  1.00  0.00     0.015 C 
BRANCH   5   6
ATOM      6  C   UNL     1     -13.050 -32.521  28.607  1.00  0.00     0.028 C 
BRANCH   6   7
ATOM      7  C   UNL     1     -14.111 -32.210  29.635  1.00  0.00    -0.028 C 
ATOM      8  C   UNL     1     -14.200 -32.774  30.865  1.00  0.00    -0.070 CG0
ATOM      9  C   UNL     1     -15.367 -32.414  31.750  1.00  0.00     0.039 C 
ATOM     10  G   UNL     1     -13.125 -33.669  31.463  1.00  0.00     0.000 G0
ENDBRANCH   6   7
ENDBRANCH   5   6
ENDBRANCH   3   5
ENDBRANCH   1   3
BRANCH   1  11
ATOM     11  C   UNL     1     -13.626 -35.860  29.188  1.00  0.00     0.087 C 
BRANCH  11  12
ATOM     12  C   UNL     1     -13.023 -36.143  30.588  1.00  0.00     0.066 C 
BRANCH  12  13
ATOM     13  C   UNL     1     -13.509 -35.126  31.611  1.00  0.00     0.140 C 
ATOM     14  O   UNL     1     -14.195 -35.476  32.560  1.00  0.00    -0.299 OA
BRANCH  13  15
ATOM     15  C   UNL     1     -13.114 -33.676  31.470  1.00  0.00     0.106 CG0
ATOM     16  G   UNL     1     -14.192 -32.797  30.852  1.00  0.00     0.000 G0
ENDBRANCH  13  15
ENDBRANCH  12  13
BRANCH  12  17
ATOM     17  C   UNL     1     -13.208 -37.630  31.026  1.00  0.00    -0.006 C 
ATOM     18  C   UNL     1     -13.281 -38.573  29.816  1.00  0.00     0.008 C 
ATOM     19  C   UNL     1     -12.162 -38.135  32.038  1.00  0.00     0.008 C 
ENDBRANCH  12  17
ENDBRANCH  11  12
ENDBRANCH   1  11
TORSDOF 1
ENDMDL
MODEL 9
REMARK VINA RESULT:    -3.728      1.644      3.948
REMARK INTER + INTRA:          -5.838
REMARK INTER:                  -6.630
REMARK INTRA:                   0.792
REMARK UNBOUND:                -0.148
REMARK SMILES CC1=CCC[C@@H](C)C(=O)C[C@H](C(C)C)C(=O)C1
REMARK SMILES IDX 8 1 9 2 6 3 7 4 5 5 4 6 3 7 2 8 1 9 10 11 11 12 15 13 16 14
REMARK SMILES IDX 17 15 12 17 13 18 14 19
REMARK H PARENT
REMARK Flexibility Score: 70.00
ROOT
ATOM      1  C   UNL     1     -13.481 -34.001  31.944  1.00  0.00     0.136 C 
ATOM      2  O   UNL     1     -14.433 -34.633  32.379  1.00  0.00    -0.299 OA
ENDROOT
BRANCH   1   3
ATOM      3  C   UNL     1     -12.210 -33.904  32.769  1.00  0.00     0.053 C 
ATOM      4  C   UNL     1     -12.307 -32.743  33.768  1.00  0.00     0.016 C 
BRANCH   3   5
ATOM      5  C   UNL     1     -10.979 -33.738  31.849  1.00  0.00     0.015 C 
BRANCH   5   6
ATOM      6  C   UNL     1     -10.102 -35.005  31.840  1.00  0.00     0.028 C 
BRANCH   6   7
ATOM      7  C   UNL     1     -10.882 -36.272  32.098  1.00  0.00    -0.028 C 
ATOM      8  C   UNL     1     -11.706 -36.881  31.209  1.00  0.00    -0.070 CG0
ATOM      9  C   UNL     1     -12.477 -38.101  31.646  1.00  0.00     0.039 C 
ATOM     10  G   UNL     1     -11.817 -36.476  29.747  1.00  0.00     0.000 G0
ENDBRANCH   6   7
ENDBRANCH   5   6
ENDBRANCH   3   5
ENDBRANCH   1   3
BRANCH   1  11
ATOM     11  C   UNL     1     -13.597 -33.341  30.587  1.00  0.00     0.087 C 
BRANCH  11  12
ATOM     12  C   UNL     1     -12.670 -34.005  29.537  1.00  0.00     0.066 C 
BRANCH  12  13
ATOM     13  C   UNL     1     -12.936 -35.500  29.436  1.00  0.00     0.140 C 
ATOM     14  O   UNL     1     -14.034 -35.916  29.094  1.00  0.00    -0.299 OA
BRANCH  13  15
ATOM     15  C   UNL     1     -11.826 -36.479  29.733  1.00  0.00     0.106 CG0
ATOM     16  G   UNL     1     -11.726 -36.877  31.198  1.00  0.00     0.000 G0
ENDBRANCH  13  15
ENDBRANCH  12  13
BRANCH  12  17
ATOM     17  C   UNL     1     -12.694 -33.257  28.165  1.00  0.00    -0.006 C 
ATOM     18  C   UNL     1     -12.350 -34.198  27.001  1.00  0.00     0.008 C 
ATOM     19  C   UNL     1     -14.000 -32.496  27.872  1.00  0.00     0.008 C 
ENDBRANCH  12  17
ENDBRANCH  11  12
ENDBRANCH   1  11
TORSDOF 1
ENDMDL
