MODEL 1
REMARK VINA RESULT:    -4.338      0.000      0.000
REMARK INTER + INTRA:          -6.568
REMARK INTER:                  -5.860
REMARK INTRA:                  -0.708
REMARK UNBOUND:                -0.708
REMARK SMILES O=C[C@@H](O)[C@H](O)[C@H](O)CO
REMARK SMILES IDX 7 1 9 2 10 3 5 5 3 6 2 7 1 8 4 9 6 11 8 13
REMARK H PARENT 10 4 4 10 6 12 8 14
REMARK Flexibility Score: inf
ROOT
ATOM      1  C   UNL     1      16.045  13.053  30.564  1.00  0.00     0.171 C 
ENDROOT
BRANCH   1   2
ATOM      2  C   UNL     1      14.813  12.199  30.207  1.00  0.00     0.190 C 
BRANCH   2   3
ATOM      3  O   UNL     1      13.899  12.926  29.429  1.00  0.00    -0.394 OA
ATOM      4  H   UNL     1      14.408  13.298  28.664  1.00  0.00     0.210 HD
ENDBRANCH   2   3
ENDBRANCH   1   2
BRANCH   1   5
ATOM      5  C   UNL     1      16.893  13.394  29.311  1.00  0.00     0.181 C 
BRANCH   5   6
ATOM      6  C   UNL     1      16.785  14.889  28.920  1.00  0.00     0.209 C 
BRANCH   6   7
ATOM      7  C   UNL     1      16.344  15.069  27.492  1.00  0.00     0.258 C 
ATOM      8  O   UNL     1      17.124  14.879  26.570  1.00  0.00    -0.300 OA
ENDBRANCH   6   7
BRANCH   6   9
ATOM      9  O   UNL     1      15.865  15.530  29.765  1.00  0.00    -0.383 OA
ATOM     10  H   UNL     1      15.026  15.645  29.246  1.00  0.00     0.211 HD
ENDBRANCH   6   9
ENDBRANCH   5   6
BRANCH   5  11
ATOM     11  O   UNL     1      16.444  12.610  28.233  1.00  0.00    -0.387 OA
ATOM     12  H   UNL     1      15.536  12.933  27.993  1.00  0.00     0.211 HD
ENDBRANCH   5  11
ENDBRANCH   1   5
BRANCH   1  13
ATOM     13  O   UNL     1      16.828  12.363  31.503  1.00  0.00    -0.388 OA
ATOM     14  H   UNL     1      16.261  11.638  31.875  1.00  0.00     0.211 HD
ENDBRANCH   1  13
TORSDOF 8
ENDMDL
MODEL 2
REMARK VINA RESULT:    -3.988     15.753     16.583
REMARK INTER + INTRA:          -6.096
REMARK INTER:                  -5.691
REMARK INTRA:                  -0.405
REMARK UNBOUND:                -0.708
REMARK SMILES O=C[C@@H](O)[C@H](O)[C@H](O)CO
REMARK SMILES IDX 7 1 9 2 10 3 5 5 3 6 2 7 1 8 4 9 6 11 8 13
REMARK H PARENT 10 4 4 10 6 12 8 14
REMARK Flexibility Score: inf
ROOT
ATOM      1  C   UNL     1       7.596   3.106  18.809  1.00  0.00     0.171 C 
ENDROOT
BRANCH   1   2
ATOM      2  C   UNL     1       7.138   4.247  19.738  1.00  0.00     0.190 C 
BRANCH   2   3
ATOM      3  O   UNL     1       7.374   3.931  21.085  1.00  0.00    -0.394 OA
ATOM      4  H   UNL     1       6.915   4.625  21.625  1.00  0.00     0.210 HD
ENDBRANCH   2   3
ENDBRANCH   1   2
BRANCH   1   5
ATOM      5  C   UNL     1       8.900   3.469  18.050  1.00  0.00     0.181 C 
BRANCH   5   6
ATOM      6  C   UNL     1       9.949   2.331  18.111  1.00  0.00     0.209 C 
BRANCH   6   7
ATOM      7  C   UNL     1      11.347   2.838  17.876  1.00  0.00     0.258 C 
ATOM      8  O   UNL     1      11.918   3.509  18.722  1.00  0.00    -0.300 OA
ENDBRANCH   6   7
BRANCH   6   9
ATOM      9  O   UNL     1       9.896   1.710  19.370  1.00  0.00    -0.383 OA
ATOM     10  H   UNL     1       8.945   1.716  19.655  1.00  0.00     0.211 HD
ENDBRANCH   6   9
ENDBRANCH   5   6
BRANCH   5  11
ATOM     11  O   UNL     1       9.452   4.626  18.627  1.00  0.00    -0.387 OA
ATOM     12  H   UNL     1       8.769   5.003  19.242  1.00  0.00     0.211 HD
ENDBRANCH   5  11
ENDBRANCH   1   5
BRANCH   1  13
ATOM     13  O   UNL     1       6.571   2.815  17.894  1.00  0.00    -0.388 OA
ATOM     14  H   UNL     1       5.711   2.964  18.368  1.00  0.00     0.211 HD
ENDBRANCH   1  13
TORSDOF 8
ENDMDL
MODEL 3
REMARK VINA RESULT:    -3.890      1.455      2.087
REMARK INTER + INTRA:          -5.963
REMARK INTER:                  -5.610
REMARK INTRA:                  -0.353
REMARK UNBOUND:                -0.708
REMARK SMILES O=C[C@@H](O)[C@H](O)[C@H](O)CO
REMARK SMILES IDX 7 1 9 2 10 3 5 5 3 6 2 7 1 8 4 9 6 11 8 13
REMARK H PARENT 10 4 4 10 6 12 8 14
REMARK Flexibility Score: inf
ROOT
ATOM      1  C   UNL     1      15.753  14.265  29.022  1.00  0.00     0.171 C 
ENDROOT
BRANCH   1   2
ATOM      2  C   UNL     1      15.318  13.054  29.871  1.00  0.00     0.190 C 
BRANCH   2   3
ATOM      3  O   UNL     1      14.049  12.595  29.488  1.00  0.00    -0.394 OA
ATOM      4  H   UNL     1      13.980  11.655  29.798  1.00  0.00     0.210 HD
ENDBRANCH   2   3
ENDBRANCH   1   2
BRANCH   1   5
ATOM      5  C   UNL     1      16.926  13.911  28.070  1.00  0.00     0.181 C 
BRANCH   5   6
ATOM      6  C   UNL     1      16.936  14.798  26.800  1.00  0.00     0.209 C 
BRANCH   6   7
ATOM      7  C   UNL     1      17.125  13.987  25.545  1.00  0.00     0.258 C 
ATOM      8  O   UNL     1      16.683  14.380  24.477  1.00  0.00    -0.300 OA
ENDBRANCH   6   7
BRANCH   6   9
ATOM      9  O   UNL     1      15.724  15.502  26.709  1.00  0.00    -0.383 OA
ATOM     10  H   UNL     1      15.580  15.945  27.586  1.00  0.00     0.211 HD
ENDBRANCH   6   9
ENDBRANCH   5   6
BRANCH   5  11
ATOM     11  O   UNL     1      16.802  12.565  27.681  1.00  0.00    -0.387 OA
ATOM     12  H   UNL     1      15.891  12.267  27.939  1.00  0.00     0.211 HD
ENDBRANCH   5  11
ENDBRANCH   1   5
BRANCH   1  13
ATOM     13  O   UNL     1      16.126  15.316  29.875  1.00  0.00    -0.388 OA
ATOM     14  H   UNL     1      16.462  14.903  30.713  1.00  0.00     0.211 HD
ENDBRANCH   1  13
TORSDOF 8
ENDMDL
MODEL 4
REMARK VINA RESULT:    -3.784     15.739     16.866
REMARK INTER + INTRA:          -5.819
REMARK INTER:                  -5.531
REMARK INTRA:                  -0.289
REMARK UNBOUND:                -0.708
REMARK SMILES O=C[C@@H](O)[C@H](O)[C@H](O)CO
REMARK SMILES IDX 7 1 9 2 10 3 5 5 3 6 2 7 1 8 4 9 6 11 8 13
REMARK H PARENT 10 4 4 10 6 12 8 14
REMARK Flexibility Score: inf
ROOT
ATOM      1  C   UNL     1       9.849   2.297  18.291  1.00  0.00     0.171 C 
ENDROOT
BRANCH   1   2
ATOM      2  C   UNL     1      10.601   3.616  18.023  1.00  0.00     0.190 C 
BRANCH   2   3
ATOM      3  O   UNL     1      11.731   3.732  18.847  1.00  0.00    -0.394 OA
ATOM      4  H   UNL     1      12.410   3.103  18.491  1.00  0.00     0.210 HD
ENDBRANCH   2   3
ENDBRANCH   1   2
BRANCH   1   5
ATOM      5  C   UNL     1       8.315   2.466  18.134  1.00  0.00     0.181 C 
BRANCH   5   6
ATOM      6  C   UNL     1       7.796   3.757  18.815  1.00  0.00     0.209 C 
BRANCH   6   7
ATOM      7  C   UNL     1       6.552   4.285  18.150  1.00  0.00     0.258 C 
ATOM      8  O   UNL     1       6.353   5.487  18.066  1.00  0.00    -0.300 OA
ENDBRANCH   6   7
BRANCH   6   9
ATOM      9  O   UNL     1       7.515   3.495  20.166  1.00  0.00    -0.383 OA
ATOM     10  H   UNL     1       6.536   3.341  20.233  1.00  0.00     0.211 HD
ENDBRANCH   6   9
ENDBRANCH   5   6
BRANCH   5  11
ATOM     11  O   UNL     1       7.676   1.358  18.718  1.00  0.00    -0.387 OA
ATOM     12  H   UNL     1       6.911   1.117  18.132  1.00  0.00     0.211 HD
ENDBRANCH   5  11
ENDBRANCH   1   5
BRANCH   1  13
ATOM     13  O   UNL     1      10.155   1.845  19.584  1.00  0.00    -0.388 OA
ATOM     14  H   UNL     1       9.290   1.696  20.050  1.00  0.00     0.211 HD
ENDBRANCH   1  13
TORSDOF 8
ENDMDL
MODEL 5
REMARK VINA RESULT:    -3.472      1.216      4.033
REMARK INTER + INTRA:          -5.399
REMARK INTER:                  -5.105
REMARK INTRA:                  -0.293
REMARK UNBOUND:                -0.708
REMARK SMILES O=C[C@@H](O)[C@H](O)[C@H](O)CO
REMARK SMILES IDX 7 1 9 2 10 3 5 5 3 6 2 7 1 8 4 9 6 11 8 13
REMARK H PARENT 10 4 4 10 6 12 8 14
REMARK Flexibility Score: inf
ROOT
ATOM      1  C   UNL     1      16.820  14.918  27.448  1.00  0.00     0.171 C 
ENDROOT
BRANCH   1   2
ATOM      2  C   UNL     1      17.125  13.706  26.546  1.00  0.00     0.190 C 
BRANCH   2   3
ATOM      3  O   UNL     1      16.744  13.952  25.218  1.00  0.00    -0.394 OA
ATOM      4  H   UNL     1      16.394  13.097  24.859  1.00  0.00     0.210 HD
ENDBRANCH   2   3
ENDBRANCH   1   2
BRANCH   1   5
ATOM      5  C   UNL     1      16.715  14.514  28.942  1.00  0.00     0.181 C 
BRANCH   5   6
ATOM      6  C   UNL     1      15.990  13.158  29.132  1.00  0.00     0.209 C 
BRANCH   6   7
ATOM      7  C   UNL     1      16.344  12.506  30.442  1.00  0.00     0.258 C 
ATOM      8  O   UNL     1      15.557  11.755  30.997  1.00  0.00    -0.300 OA
ENDBRANCH   6   7
BRANCH   6   9
ATOM      9  O   UNL     1      14.600  13.358  29.084  1.00  0.00    -0.383 OA
ATOM     10  H   UNL     1      14.346  13.396  28.125  1.00  0.00     0.211 HD
ENDBRANCH   6   9
ENDBRANCH   5   6
BRANCH   5  11
ATOM     11  O   UNL     1      16.000  15.510  29.631  1.00  0.00    -0.387 OA
ATOM     12  H   UNL     1      15.037  15.276  29.572  1.00  0.00     0.211 HD
ENDBRANCH   5  11
ENDBRANCH   1   5
BRANCH   1  13
ATOM     13  O   UNL     1      15.623  15.518  27.026  1.00  0.00    -0.388 OA
ATOM     14  H   UNL     1      14.899  14.856  27.177  1.00  0.00     0.211 HD
ENDBRANCH   1  13
TORSDOF 8
ENDMDL
MODEL 6
REMARK VINA RESULT:    -3.240      1.278      2.327
REMARK INTER + INTRA:          -5.085
REMARK INTER:                  -4.951
REMARK INTRA:                  -0.134
REMARK UNBOUND:                -0.708
REMARK SMILES O=C[C@@H](O)[C@H](O)[C@H](O)CO
REMARK SMILES IDX 7 1 9 2 10 3 5 5 3 6 2 7 1 8 4 9 6 11 8 13
REMARK H PARENT 10 4 4 10 6 12 8 14
REMARK Flexibility Score: inf
ROOT
ATOM      1  C   UNL     1      15.512  13.151  29.229  1.00  0.00     0.171 C 
ENDROOT
BRANCH   1   2
ATOM      2  C   UNL     1      16.183  12.796  30.570  1.00  0.00     0.190 C 
BRANCH   2   3
ATOM      3  O   UNL     1      15.525  11.731  31.202  1.00  0.00    -0.394 OA
ATOM      4  H   UNL     1      16.229  11.152  31.593  1.00  0.00     0.210 HD
ENDBRANCH   2   3
ENDBRANCH   1   2
BRANCH   1   5
ATOM      5  C   UNL     1      15.717  14.643  28.857  1.00  0.00     0.181 C 
BRANCH   5   6
ATOM      6  C   UNL     1      16.770  14.827  27.736  1.00  0.00     0.209 C 
BRANCH   6   7
ATOM      7  C   UNL     1      17.120  13.523  27.070  1.00  0.00     0.258 C 
ATOM      8  O   UNL     1      17.114  13.424  25.852  1.00  0.00    -0.300 OA
ENDBRANCH   6   7
BRANCH   6   9
ATOM      9  O   UNL     1      16.273  15.715  26.767  1.00  0.00    -0.383 OA
ATOM     10  H   UNL     1      15.759  16.413  27.250  1.00  0.00     0.211 HD
ENDBRANCH   6   9
ENDBRANCH   5   6
BRANCH   5  11
ATOM     11  O   UNL     1      16.148  15.339  30.001  1.00  0.00    -0.387 OA
ATOM     12  H   UNL     1      16.242  14.674  30.732  1.00  0.00     0.211 HD
ENDBRANCH   5  11
ENDBRANCH   1   5
BRANCH   1  13
ATOM     13  O   UNL     1      14.140  12.859  29.307  1.00  0.00    -0.388 OA
ATOM     14  H   UNL     1      13.675  13.711  29.513  1.00  0.00     0.211 HD
ENDBRANCH   1  13
TORSDOF 8
ENDMDL
MODEL 7
REMARK VINA RESULT:    -3.160     15.957     17.024
REMARK INTER + INTRA:          -4.977
REMARK INTER:                  -5.235
REMARK INTRA:                   0.257
REMARK UNBOUND:                -0.708
REMARK SMILES O=C[C@@H](O)[C@H](O)[C@H](O)CO
REMARK SMILES IDX 7 1 9 2 10 3 5 5 3 6 2 7 1 8 4 9 6 11 8 13
REMARK H PARENT 10 4 4 10 6 12 8 14
REMARK Flexibility Score: inf
ROOT
ATOM      1  C   UNL     1       7.892   4.271  18.895  1.00  0.00     0.171 C 
ENDROOT
BRANCH   1   2
ATOM      2  C   UNL     1       6.640   4.507  18.028  1.00  0.00     0.190 C 
BRANCH   2   3
ATOM      3  O   UNL     1       5.729   3.447  18.152  1.00  0.00    -0.394 OA
ATOM      4  H   UNL     1       4.947   3.675  17.586  1.00  0.00     0.210 HD
ENDBRANCH   2   3
ENDBRANCH   1   2
BRANCH   1   5
ATOM      5  C   UNL     1       9.055   3.655  18.073  1.00  0.00     0.181 C 
BRANCH   5   6
ATOM      6  C   UNL     1       9.097   2.110  18.185  1.00  0.00     0.209 C 
BRANCH   6   7
ATOM      7  C   UNL     1      10.183   1.640  19.115  1.00  0.00     0.258 C 
ATOM      8  O   UNL     1      11.353   1.651  18.763  1.00  0.00    -0.300 OA
ENDBRANCH   6   7
BRANCH   6   9
ATOM      9  O   UNL     1       7.859   1.640  18.655  1.00  0.00    -0.383 OA
ATOM     10  H   UNL     1       7.971   1.448  19.622  1.00  0.00     0.211 HD
ENDBRANCH   6   9
ENDBRANCH   5   6
BRANCH   5  11
ATOM     11  O   UNL     1      10.271   4.176  18.550  1.00  0.00    -0.387 OA
ATOM     12  H   UNL     1      10.565   3.599  19.302  1.00  0.00     0.211 HD
ENDBRANCH   5  11
ENDBRANCH   1   5
BRANCH   1  13
ATOM     13  O   UNL     1       7.560   3.427  19.967  1.00  0.00    -0.388 OA
ATOM     14  H   UNL     1       6.580   3.275  19.921  1.00  0.00     0.211 HD
ENDBRANCH   1  13
TORSDOF 8
ENDMDL
MODEL 8
REMARK VINA RESULT:    -2.677     14.452     15.312
REMARK INTER + INTRA:          -4.325
REMARK INTER:                  -3.678
REMARK INTRA:                  -0.647
REMARK UNBOUND:                -0.708
REMARK SMILES O=C[C@@H](O)[C@H](O)[C@H](O)CO
REMARK SMILES IDX 7 1 9 2 10 3 5 5 3 6 2 7 1 8 4 9 6 11 8 13
REMARK H PARENT 10 4 4 10 6 12 8 14
REMARK Flexibility Score: inf
ROOT
ATOM      1  C   UNL     1      10.896   2.655  18.585  1.00  0.00     0.171 C 
ENDROOT
BRANCH   1   2
ATOM      2  C   UNL     1       9.445   2.235  18.284  1.00  0.00     0.190 C 
BRANCH   2   3
ATOM      3  O   UNL     1       8.559   2.739  19.249  1.00  0.00    -0.394 OA
ATOM      4  H   UNL     1       8.918   2.469  20.134  1.00  0.00     0.210 HD
ENDBRANCH   2   3
ENDBRANCH   1   2
BRANCH   1   5
ATOM      5  C   UNL     1      11.272   3.982  17.875  1.00  0.00     0.181 C 
BRANCH   5   6
ATOM      6  C   UNL     1      12.476   4.686  18.548  1.00  0.00     0.209 C 
BRANCH   6   7
ATOM      7  C   UNL     1      12.326   6.185  18.552  1.00  0.00     0.258 C 
ATOM      8  O   UNL     1      11.838   6.759  19.513  1.00  0.00    -0.300 OA
ENDBRANCH   6   7
BRANCH   6   9
ATOM      9  O   UNL     1      12.602   4.237  19.873  1.00  0.00    -0.383 OA
ATOM     10  H   UNL     1      12.904   5.013  20.414  1.00  0.00     0.211 HD
ENDBRANCH   6   9
ENDBRANCH   5   6
BRANCH   5  11
ATOM     11  O   UNL     1      10.163   4.846  17.915  1.00  0.00    -0.387 OA
ATOM     12  H   UNL     1       9.928   5.068  16.976  1.00  0.00     0.211 HD
ENDBRANCH   5  11
ENDBRANCH   1   5
BRANCH   1  13
ATOM     13  O   UNL     1      11.767   1.630  18.182  1.00  0.00    -0.388 OA
ATOM     14  H   UNL     1      12.243   1.319  18.996  1.00  0.00     0.211 HD
ENDBRANCH   1  13
TORSDOF 8
ENDMDL
MODEL 9
REMARK VINA RESULT:    -2.643     12.745     13.742
REMARK INTER + INTRA:          -4.278
REMARK INTER:                  -3.980
REMARK INTRA:                  -0.299
REMARK UNBOUND:                -0.708
REMARK SMILES O=C[C@@H](O)[C@H](O)[C@H](O)CO
REMARK SMILES IDX 7 1 9 2 10 3 5 5 3 6 2 7 1 8 4 9 6 11 8 13
REMARK H PARENT 10 4 4 10 6 12 8 14
REMARK Flexibility Score: inf
ROOT
ATOM      1  C   UNL     1      12.863   6.311  19.975  1.00  0.00     0.171 C 
ENDROOT
BRANCH   1   2
ATOM      2  C   UNL     1      14.263   6.848  20.330  1.00  0.00     0.190 C 
BRANCH   2   3
ATOM      3  O   UNL     1      14.190   7.853  21.307  1.00  0.00    -0.394 OA
ATOM      4  H   UNL     1      14.713   8.623  20.964  1.00  0.00     0.210 HD
ENDBRANCH   2   3
ENDBRANCH   1   2
BRANCH   1   5
ATOM      5  C   UNL     1      12.679   6.147  18.444  1.00  0.00     0.181 C 
BRANCH   5   6
ATOM      6  C   UNL     1      11.637   5.056  18.092  1.00  0.00     0.209 C 
BRANCH   6   7
ATOM      7  C   UNL     1      12.217   3.669  18.188  1.00  0.00     0.258 C 
ATOM      8  O   UNL     1      11.539   2.691  17.913  1.00  0.00    -0.300 OA
ENDBRANCH   6   7
BRANCH   6   9
ATOM      9  O   UNL     1      10.542   5.154  18.966  1.00  0.00    -0.383 OA
ATOM     10  H   UNL     1       9.785   4.676  18.537  1.00  0.00     0.211 HD
ENDBRANCH   6   9
ENDBRANCH   5   6
BRANCH   5  11
ATOM     11  O   UNL     1      13.916   5.792  17.875  1.00  0.00    -0.387 OA
ATOM     12  H   UNL     1      14.201   6.547  17.296  1.00  0.00     0.211 HD
ENDBRANCH   5  11
ENDBRANCH   1   5
BRANCH   1  13
ATOM     13  O   UNL     1      11.890   7.185  20.486  1.00  0.00    -0.388 OA
ATOM     14  H   UNL     1      11.266   7.390  19.742  1.00  0.00     0.211 HD
ENDBRANCH   1  13
TORSDOF 8
ENDMDL
