MODEL 1
REMARK VINA RESULT:    -3.104      0.000      0.000
REMARK INTER + INTRA:          -3.487
REMARK INTER:                  -3.467
REMARK INTRA:                  -0.020
REMARK UNBOUND:                -0.020
REMARK SMILES CCCC(=O)[O-]
REMARK SMILES IDX 3 1 4 2 5 3 6 4 2 5 1 6
REMARK H PARENT
REMARK Flexibility Score: inf
ROOT
ATOM      1  C   UNL     1      -2.949 -36.246  21.725  1.00  0.00     0.052 C 
ENDROOT
BRANCH   1   2
ATOM      2  C   UNL     1      -1.824 -35.257  21.748  1.00  0.00     0.041 C 
ATOM      3  O   UNL     1      -1.844 -34.294  22.560  1.00  0.00    -0.550 OA
ATOM      4  O   UNL     1      -0.738 -35.418  20.898  1.00  0.00    -0.550 OA
ENDBRANCH   1   2
BRANCH   1   5
ATOM      5  C   UNL     1      -2.547 -37.549  21.025  1.00  0.00     0.003 C 
ATOM      6  C   UNL     1      -3.665 -38.106  20.145  1.00  0.00     0.004 C 
ENDBRANCH   1   5
TORSDOF 2
ENDMDL
MODEL 2
REMARK VINA RESULT:    -3.049      2.742      3.429
REMARK INTER + INTRA:          -3.425
REMARK INTER:                  -3.419
REMARK INTRA:                  -0.006
REMARK UNBOUND:                -0.020
REMARK SMILES CCCC(=O)[O-]
REMARK SMILES IDX 3 1 4 2 5 3 6 4 2 5 1 6
REMARK H PARENT
REMARK Flexibility Score: inf
ROOT
ATOM      1  C   UNL     1      -1.485 -33.793  22.820  1.00  0.00     0.052 C 
ENDROOT
BRANCH   1   2
ATOM      2  C   UNL     1      -2.012 -32.844  23.852  1.00  0.00     0.041 C 
ATOM      3  O   UNL     1      -2.954 -32.059  23.568  1.00  0.00    -0.550 OA
ATOM      4  O   UNL     1      -1.486 -32.851  25.138  1.00  0.00    -0.550 OA
ENDBRANCH   1   2
BRANCH   1   5
ATOM      5  C   UNL     1      -2.463 -34.943  22.551  1.00  0.00     0.003 C 
ATOM      6  C   UNL     1      -2.055 -35.783  21.341  1.00  0.00     0.004 C 
ENDBRANCH   1   5
TORSDOF 2
ENDMDL
MODEL 3
REMARK VINA RESULT:    -2.957      1.964      3.327
REMARK INTER + INTRA:          -3.323
REMARK INTER:                  -3.312
REMARK INTRA:                  -0.011
REMARK UNBOUND:                -0.020
REMARK SMILES CCCC(=O)[O-]
REMARK SMILES IDX 3 1 4 2 5 3 6 4 2 5 1 6
REMARK H PARENT
REMARK Flexibility Score: inf
ROOT
ATOM      1  C   UNL     1      -2.913 -36.042  21.800  1.00  0.00     0.052 C 
ENDROOT
BRANCH   1   2
ATOM      2  C   UNL     1      -2.581 -37.321  21.094  1.00  0.00     0.041 C 
ATOM      3  O   UNL     1      -3.502 -38.051  20.640  1.00  0.00    -0.550 OA
ATOM      4  O   UNL     1      -1.255 -37.690  20.906  1.00  0.00    -0.550 OA
ENDBRANCH   1   2
BRANCH   1   5
ATOM      5  C   UNL     1      -1.713 -35.088  21.844  1.00  0.00     0.003 C 
ATOM      6  C   UNL     1      -1.868 -34.006  22.911  1.00  0.00     0.004 C 
ENDBRANCH   1   5
TORSDOF 2
ENDMDL
MODEL 4
REMARK VINA RESULT:    -2.922      1.368      2.124
REMARK INTER + INTRA:          -3.283
REMARK INTER:                  -3.218
REMARK INTRA:                  -0.065
REMARK UNBOUND:                -0.020
REMARK SMILES CCCC(=O)[O-]
REMARK SMILES IDX 3 1 4 2 5 3 6 4 2 5 1 6
REMARK H PARENT
REMARK Flexibility Score: inf
ROOT
ATOM      1  C   UNL     1      -2.570 -37.789  20.625  1.00  0.00     0.052 C 
ENDROOT
BRANCH   1   2
ATOM      2  C   UNL     1      -2.596 -36.402  21.189  1.00  0.00     0.041 C 
ATOM      3  O   UNL     1      -1.763 -35.543  20.797  1.00  0.00    -0.550 OA
ATOM      4  O   UNL     1      -3.562 -36.047  22.122  1.00  0.00    -0.550 OA
ENDBRANCH   1   2
BRANCH   1   5
ATOM      5  C   UNL     1      -3.868 -38.125  19.880  1.00  0.00     0.003 C 
ATOM      6  C   UNL     1      -3.990 -37.373  18.555  1.00  0.00     0.004 C 
ENDBRANCH   1   5
TORSDOF 2
ENDMDL
MODEL 5
REMARK VINA RESULT:    -2.872      1.847      2.371
REMARK INTER + INTRA:          -3.227
REMARK INTER:                  -3.213
REMARK INTRA:                  -0.014
REMARK UNBOUND:                -0.020
REMARK SMILES CCCC(=O)[O-]
REMARK SMILES IDX 3 1 4 2 5 3 6 4 2 5 1 6
REMARK H PARENT
REMARK Flexibility Score: inf
ROOT
ATOM      1  C   UNL     1      -1.034 -35.586  21.265  1.00  0.00     0.052 C 
ENDROOT
BRANCH   1   2
ATOM      2  C   UNL     1      -2.111 -35.099  22.185  1.00  0.00     0.041 C 
ATOM      3  O   UNL     1      -3.218 -35.697  22.237  1.00  0.00    -0.550 OA
ATOM      4  O   UNL     1      -1.880 -34.006  23.011  1.00  0.00    -0.550 OA
ENDBRANCH   1   2
BRANCH   1   5
ATOM      5  C   UNL     1      -1.190 -37.078  20.945  1.00  0.00     0.003 C 
ATOM      6  C   UNL     1       0.129 -37.840  21.068  1.00  0.00     0.004 C 
ENDBRANCH   1   5
TORSDOF 2
ENDMDL
MODEL 6
REMARK VINA RESULT:    -2.809      2.214      2.538
REMARK INTER + INTRA:          -3.157
REMARK INTER:                  -3.133
REMARK INTRA:                  -0.024
REMARK UNBOUND:                -0.020
REMARK SMILES CCCC(=O)[O-]
REMARK SMILES IDX 3 1 4 2 5 3 6 4 2 5 1 6
REMARK H PARENT
REMARK Flexibility Score: inf
ROOT
ATOM      1  C   UNL     1      -1.033 -35.447  21.253  1.00  0.00     0.052 C 
ENDROOT
BRANCH   1   2
ATOM      2  C   UNL     1       0.236 -36.142  20.868  1.00  0.00     0.041 C 
ATOM      3  O   UNL     1       0.468 -37.310  21.276  1.00  0.00    -0.550 OA
ATOM      4  O   UNL     1       1.148 -35.512  20.031  1.00  0.00    -0.550 OA
ENDBRANCH   1   2
BRANCH   1   5
ATOM      5  C   UNL     1      -2.269 -36.187  20.728  1.00  0.00     0.003 C 
ATOM      6  C   UNL     1      -3.344 -36.361  21.801  1.00  0.00     0.004 C 
ENDBRANCH   1   5
TORSDOF 2
ENDMDL
MODEL 7
REMARK VINA RESULT:    -2.803      2.158      3.438
REMARK INTER + INTRA:          -3.150
REMARK INTER:                  -3.145
REMARK INTRA:                  -0.005
REMARK UNBOUND:                -0.020
REMARK SMILES CCCC(=O)[O-]
REMARK SMILES IDX 3 1 4 2 5 3 6 4 2 5 1 6
REMARK H PARENT
REMARK Flexibility Score: inf
ROOT
ATOM      1  C   UNL     1      -1.357 -35.355  21.537  1.00  0.00     0.052 C 
ENDROOT
BRANCH   1   2
ATOM      2  C   UNL     1      -1.948 -36.524  20.810  1.00  0.00     0.041 C 
ATOM      3  O   UNL     1      -1.548 -37.693  21.060  1.00  0.00    -0.550 OA
ATOM      4  O   UNL     1      -2.963 -36.328  19.883  1.00  0.00    -0.550 OA
ENDBRANCH   1   2
BRANCH   1   5
ATOM      5  C   UNL     1      -2.344 -34.753  22.543  1.00  0.00     0.003 C 
ATOM      6  C   UNL     1      -1.794 -33.496  23.217  1.00  0.00     0.004 C 
ENDBRANCH   1   5
TORSDOF 2
ENDMDL
MODEL 8
REMARK VINA RESULT:    -2.791      4.862      5.373
REMARK INTER + INTRA:          -3.137
REMARK INTER:                  -3.108
REMARK INTRA:                  -0.028
REMARK UNBOUND:                -0.020
REMARK SMILES CCCC(=O)[O-]
REMARK SMILES IDX 3 1 4 2 5 3 6 4 2 5 1 6
REMARK H PARENT
REMARK Flexibility Score: inf
ROOT
ATOM      1  C   UNL     1       2.006 -35.829  19.481  1.00  0.00     0.052 C 
ENDROOT
BRANCH   1   2
ATOM      2  C   UNL     1       2.218 -36.149  20.929  1.00  0.00     0.041 C 
ATOM      3  O   UNL     1       1.744 -35.396  21.820  1.00  0.00    -0.550 OA
ATOM      4  O   UNL     1       2.910 -37.297  21.295  1.00  0.00    -0.550 OA
ENDBRANCH   1   2
BRANCH   1   5
ATOM      5  C   UNL     1       3.260 -36.113  18.646  1.00  0.00     0.003 C 
ATOM      6  C   UNL     1       2.957 -36.967  17.414  1.00  0.00     0.004 C 
ENDBRANCH   1   5
TORSDOF 2
ENDMDL
MODEL 9
REMARK VINA RESULT:    -2.508      4.951      6.033
REMARK INTER + INTRA:          -2.821
REMARK INTER:                  -2.786
REMARK INTRA:                  -0.035
REMARK UNBOUND:                -0.020
REMARK SMILES CCCC(=O)[O-]
REMARK SMILES IDX 3 1 4 2 5 3 6 4 2 5 1 6
REMARK H PARENT
REMARK Flexibility Score: inf
ROOT
ATOM      1  C   UNL     1       2.664 -35.828  19.030  1.00  0.00     0.052 C 
ENDROOT
BRANCH   1   2
ATOM      2  C   UNL     1       2.504 -37.064  18.201  1.00  0.00     0.041 C 
ATOM      3  O   UNL     1       3.145 -37.192  17.124  1.00  0.00    -0.550 OA
ATOM      4  O   UNL     1       1.675 -38.091  18.633  1.00  0.00    -0.550 OA
ENDBRANCH   1   2
BRANCH   1   5
ATOM      5  C   UNL     1       2.767 -36.155  20.525  1.00  0.00     0.003 C 
ATOM      6  C   UNL     1       1.504 -35.768  21.294  1.00  0.00     0.004 C 
ENDBRANCH   1   5
TORSDOF 2
ENDMDL
