MODEL 1
REMARK VINA RESULT:     5.874      0.000      0.000
REMARK INTER + INTRA:           9.493
REMARK INTER:                   8.792
REMARK INTRA:                   0.701
REMARK UNBOUND:                 0.701
REMARK SMILES C=C(CC[C@@H](C(=O)[O-])[C@@H]1[C@@H](O)C[C@]2(C)C3=C(CC[C@]12C)[C@@]1(C)CC[C@H](OC(C)=O)C(C)(C)[C@@H]1CC3)C(C)C
REMARK SMILES IDX 4 1 5 2 6 3 7 4 8 5 9 6 10 7 19 8 12 9 13 10 18 11 20 12
REMARK SMILES IDX 14 13 15 14 17 15 16 16 35 17 21 18 34 19 33 20 23 21 22 22
REMARK SMILES IDX 30 23 24 24 25 25 31 26 32 27 11 28 26 30 27 31 29 32 28 33
REMARK SMILES IDX 3 34 2 35 1 36 36 37 37 38 38 39
REMARK H PARENT 11 29
REMARK Flexibility Score: inf
ROOT
ATOM      1  C   UNL     1       5.429  13.158  48.691  1.00  0.00     0.014 C 
ENDROOT
BRANCH   1   2
ATOM      2  C   UNL     1       5.412  11.749  48.052  1.00  0.00     0.042 C 
BRANCH   2   3
ATOM      3  C   UNL     1       5.954  10.760  49.058  1.00  0.00     0.045 C 
ATOM      4  O   UNL     1       5.244   9.792  49.440  1.00  0.00    -0.550 OA
ATOM      5  O   UNL     1       7.232  10.917  49.582  1.00  0.00    -0.550 OA
ENDBRANCH   2   3
BRANCH   2   6
ATOM      6  C   UNL     1       3.983  11.303  47.572  1.00  0.00     0.033 C 
ATOM      7  C   UNL     1       3.949  11.088  46.037  1.00  0.00     0.119 C 
ATOM      8  C   UNL     1       2.756  12.244  47.881  1.00  0.00    -0.017 C 
ATOM      9  C   UNL     1       2.618  11.636  45.520  1.00  0.00     0.043 C 
ATOM     10  C   UNL     1       1.726  11.889  46.746  1.00  0.00    -0.003 C 
ATOM     11  C   UNL     1       3.167  13.730  47.749  1.00  0.00     0.012 C 
ATOM     12  C   UNL     1       2.147  11.999  49.297  1.00  0.00     0.013 C 
ATOM     13  C   UNL     1       0.970  10.561  47.076  1.00  0.00     0.017 C 
ATOM     14  C   UNL     1       0.701  13.010  46.410  1.00  0.00    -0.064 C 
ATOM     15  C   UNL     1       1.966  14.657  47.823  1.00  0.00     0.032 C 
ATOM     16  C   UNL     1       0.878  14.315  46.813  1.00  0.00    -0.064 C 
ATOM     17  C   UNL     1      -0.382  12.637  45.388  1.00  0.00     0.032 C 
ATOM     18  C   UNL     1      -0.192  15.397  46.501  1.00  0.00    -0.008 C 
ATOM     19  C   UNL     1      -1.433  13.705  45.085  1.00  0.00     0.009 C 
ATOM     20  C   UNL     1      -0.793  15.099  45.079  1.00  0.00     0.009 C 
ATOM     21  C   UNL     1       0.436  16.823  46.483  1.00  0.00     0.015 C 
ATOM     22  C   UNL     1      -1.221  15.315  47.662  1.00  0.00     0.016 C 
ATOM     23  C   UNL     1      -1.677  16.226  44.395  1.00  0.00     0.005 C 
ATOM     24  C   UNL     1      -0.511  17.901  45.956  1.00  0.00     0.047 C 
ATOM     25  C   UNL     1      -0.941  17.596  44.516  1.00  0.00     0.182 C 
ATOM     26  C   UNL     1      -1.804  15.920  42.875  1.00  0.00     0.015 C 
ATOM     27  C   UNL     1      -3.124  16.326  44.955  1.00  0.00     0.015 C 
BRANCH   7  28
ATOM     28  O   UNL     1       4.064   9.719  45.743  1.00  0.00    -0.393 OA
ATOM     29  H   UNL     1       3.349   9.256  46.255  1.00  0.00     0.210 HD
ENDBRANCH   7  28
BRANCH  25  30
ATOM     30  O   UNL     1      -1.771  18.655  44.026  1.00  0.00    -0.462 OA
BRANCH  30  31
ATOM     31  C   UNL     1      -2.391  19.597  44.855  1.00  0.00     0.302 C 
ATOM     32  O   UNL     1      -3.021  19.234  45.885  1.00  0.00    -0.253 OA
ATOM     33  C   UNL     1      -2.243  21.049  44.555  1.00  0.00     0.139 C 
ENDBRANCH  30  31
ENDBRANCH  25  30
ENDBRANCH   2   6
ENDBRANCH   1   2
BRANCH   1  34
ATOM     34  C   UNL     1       6.826  13.807  48.760  1.00  0.00     0.031 C 
BRANCH  34  35
ATOM     35  C   UNL     1       7.426  14.041  47.383  1.00  0.00    -0.075 C 
ATOM     36  C   UNL     1       8.722  14.384  47.277  1.00  0.00     0.008 C 
BRANCH  35  37
ATOM     37  C   UNL     1       6.548  14.039  46.135  1.00  0.00     0.008 C 
ATOM     38  C   UNL     1       6.498  15.418  45.468  1.00  0.00     0.012 C 
ATOM     39  C   UNL     1       7.014  12.965  45.147  1.00  0.00     0.012 C 
ENDBRANCH  35  37
ENDBRANCH  34  35
ENDBRANCH   1  34
TORSDOF 9
ENDMDL
