MODEL 1
REMARK VINA RESULT:    16.969      0.000      0.000
REMARK INTER + INTRA:          22.961
REMARK INTER:                  22.921
REMARK INTRA:                   0.041
REMARK UNBOUND:                 0.041
REMARK SMILES O=c1c(-c2ccc(O)cc2)coc2c([C@H]3O[C@H](CO)[C@@H](O)[C@@H](O)[C@@H]3O)c(O)ccc12
REMARK SMILES IDX 3 1 11 2 12 3 13 4 30 5 2 6 1 7 29 8 28 9 26 10 14 11 4 12
REMARK SMILES IDX 5 13 6 14 7 15 10 16 9 17 8 18 15 20 24 21 16 22 22 23 17 24
REMARK SMILES IDX 20 25 25 26 23 28 18 30 19 31 21 33 27 35
REMARK H PARENT 8 19 25 27 23 29 19 32 21 34 27 36
REMARK Flexibility Score: inf
ROOT
ATOM      1  C   UNL     1      31.958  40.494  28.336  1.00  0.00     0.065 A 
ATOM      2  C   UNL     1      30.634  40.062  28.494  1.00  0.00     0.208 A 
ATOM      3  O   UNL     1      30.185  38.995  27.845  1.00  0.00    -0.463 OA
ATOM      4  C   UNL     1      30.937  38.275  27.017  1.00  0.00     0.147 A 
ATOM      5  C   UNL     1      32.283  38.645  26.793  1.00  0.00     0.066 A 
ATOM      6  C   UNL     1      32.792  39.775  27.460  1.00  0.00     0.200 A 
ATOM      7  O   UNL     1      33.978  40.153  27.257  1.00  0.00    -0.288 OA
ATOM      8  C   UNL     1      33.069  37.892  25.909  1.00  0.00     0.020 A 
ATOM      9  C   UNL     1      32.526  36.792  25.249  1.00  0.00     0.047 A 
ATOM     10  C   UNL     1      31.193  36.421  25.459  1.00  0.00     0.125 A 
ATOM     11  C   UNL     1      30.386  37.149  26.361  1.00  0.00     0.069 A 
ENDROOT
BRANCH   1  12
ATOM     12  C   UNL     1      32.441  41.682  29.086  1.00  0.00    -0.011 A 
ATOM     13  C   UNL     1      33.619  41.610  29.850  1.00  0.00     0.013 A 
ATOM     14  C   UNL     1      34.093  42.737  30.527  1.00  0.00     0.047 A 
ATOM     15  C   UNL     1      33.402  43.950  30.449  1.00  0.00     0.115 A 
ATOM     16  C   UNL     1      31.751  42.906  29.009  1.00  0.00     0.013 A 
ATOM     17  C   UNL     1      32.229  44.032  29.687  1.00  0.00     0.047 A 
BRANCH  15  18
ATOM     18  O   UNL     1      33.892  45.068  31.121  1.00  0.00    -0.508 OA
ATOM     19  H   UNL     1      33.429  45.966  31.064  1.00  0.00     0.293 HD
ENDBRANCH  15  18
ENDBRANCH   1  12
BRANCH  11  20
ATOM     20  C   UNL     1      28.928  36.763  26.578  1.00  0.00     0.188 C 
ATOM     21  C   UNL     1      28.785  35.223  26.615  1.00  0.00     0.179 C 
ATOM     22  O   UNL     1      28.150  37.336  25.538  1.00  0.00    -0.362 OA
ATOM     23  C   UNL     1      27.312  34.843  26.809  1.00  0.00     0.177 C 
ATOM     24  C   UNL     1      26.758  37.082  25.668  1.00  0.00     0.176 C 
ATOM     25  C   UNL     1      26.416  35.570  25.786  1.00  0.00     0.177 C 
BRANCH  21  26
ATOM     26  O   UNL     1      29.534  34.693  27.680  1.00  0.00    -0.387 OA
ATOM     27  H   UNL     1      30.016  33.898  27.331  1.00  0.00     0.211 HD
ENDBRANCH  21  26
BRANCH  23  28
ATOM     28  O   UNL     1      27.152  33.453  26.667  1.00  0.00    -0.387 OA
ATOM     29  H   UNL     1      26.269  33.220  27.058  1.00  0.00     0.211 HD
ENDBRANCH  23  28
BRANCH  24  30
ATOM     30  C   UNL     1      26.079  37.988  26.721  1.00  0.00     0.191 C 
BRANCH  30  31
ATOM     31  O   UNL     1      24.793  37.543  27.049  1.00  0.00    -0.394 OA
ATOM     32  H   UNL     1      24.179  37.966  26.395  1.00  0.00     0.210 HD
ENDBRANCH  30  31
ENDBRANCH  24  30
BRANCH  25  33
ATOM     33  O   UNL     1      26.492  34.946  24.526  1.00  0.00    -0.388 OA
ATOM     34  H   UNL     1      27.413  35.065  24.178  1.00  0.00     0.211 HD
ENDBRANCH  25  33
ENDBRANCH  11  20
BRANCH  10  35
ATOM     35  O   UNL     1      30.668  35.331  24.762  1.00  0.00    -0.507 OA
ATOM     36  H   UNL     1      30.685  35.285  23.750  1.00  0.00     0.293 HD
ENDBRANCH  10  35
TORSDOF 9
ENDMDL
MODEL 2
REMARK VINA RESULT:    18.367      0.931      2.196
REMARK INTER + INTRA:          24.851
REMARK INTER:                  23.823
REMARK INTRA:                   1.027
REMARK UNBOUND:                 0.041
REMARK SMILES O=c1c(-c2ccc(O)cc2)coc2c([C@H]3O[C@H](CO)[C@@H](O)[C@@H](O)[C@@H]3O)c(O)ccc12
REMARK SMILES IDX 3 1 11 2 12 3 13 4 30 5 2 6 1 7 29 8 28 9 26 10 14 11 4 12
REMARK SMILES IDX 5 13 6 14 7 15 10 16 9 17 8 18 15 20 24 21 16 22 22 23 17 24
REMARK SMILES IDX 20 25 25 26 23 28 18 30 19 31 21 33 27 35
REMARK H PARENT 8 19 25 27 23 29 19 32 21 34 27 36
REMARK Flexibility Score: inf
ROOT
ATOM      1  C   UNL     1      31.955  40.433  28.119  1.00  0.00     0.065 A 
ATOM      2  C   UNL     1      30.590  40.113  28.095  1.00  0.00     0.208 A 
ATOM      3  O   UNL     1      30.147  39.078  27.392  1.00  0.00    -0.463 OA
ATOM      4  C   UNL     1      30.943  38.288  26.676  1.00  0.00     0.147 A 
ATOM      5  C   UNL     1      32.333  38.544  26.638  1.00  0.00     0.066 A 
ATOM      6  C   UNL     1      32.837  39.637  27.366  1.00  0.00     0.200 A 
ATOM      7  O   UNL     1      34.067  39.914  27.327  1.00  0.00    -0.288 OA
ATOM      8  C   UNL     1      33.167  37.718  25.870  1.00  0.00     0.020 A 
ATOM      9  C   UNL     1      32.629  36.658  25.144  1.00  0.00     0.047 A 
ATOM     10  C   UNL     1      31.254  36.399  25.170  1.00  0.00     0.125 A 
ATOM     11  C   UNL     1      30.394  37.202  25.952  1.00  0.00     0.069 A 
ENDROOT
BRANCH   1  12
ATOM     12  C   UNL     1      32.427  41.587  28.926  1.00  0.00    -0.011 A 
ATOM     13  C   UNL     1      33.636  41.508  29.639  1.00  0.00     0.013 A 
ATOM     14  C   UNL     1      34.100  42.605  30.371  1.00  0.00     0.047 A 
ATOM     15  C   UNL     1      33.367  43.796  30.396  1.00  0.00     0.115 A 
ATOM     16  C   UNL     1      31.695  42.788  28.954  1.00  0.00     0.013 A 
ATOM     17  C   UNL     1      32.163  43.885  29.685  1.00  0.00     0.047 A 
BRANCH  15  18
ATOM     18  O   UNL     1      33.846  44.885  31.122  1.00  0.00    -0.508 OA
ATOM     19  H   UNL     1      34.839  45.055  31.227  1.00  0.00     0.293 HD
ENDBRANCH  15  18
ENDBRANCH   1  12
BRANCH  11  20
ATOM     20  C   UNL     1      28.894  36.940  25.968  1.00  0.00     0.188 C 
ATOM     21  C   UNL     1      28.127  38.254  26.248  1.00  0.00     0.179 C 
ATOM     22  O   UNL     1      28.619  35.954  26.952  1.00  0.00    -0.362 OA
ATOM     23  C   UNL     1      26.619  37.977  26.287  1.00  0.00     0.177 C 
ATOM     24  C   UNL     1      27.247  35.590  27.020  1.00  0.00     0.176 C 
ATOM     25  C   UNL     1      26.299  36.804  27.236  1.00  0.00     0.177 C 
BRANCH  21  26
ATOM     26  O   UNL     1      28.389  39.192  25.235  1.00  0.00    -0.387 OA
ATOM     27  H   UNL     1      27.523  39.397  24.795  1.00  0.00     0.211 HD
ENDBRANCH  21  26
BRANCH  23  28
ATOM     28  O   UNL     1      25.930  39.126  26.714  1.00  0.00    -0.387 OA
ATOM     29  H   UNL     1      25.938  39.768  25.956  1.00  0.00     0.211 HD
ENDBRANCH  23  28
BRANCH  24  30
ATOM     30  C   UNL     1      26.824  34.627  25.886  1.00  0.00     0.191 C 
BRANCH  30  31
ATOM     31  O   UNL     1      26.811  35.257  24.636  1.00  0.00    -0.394 OA
ATOM     32  H   UNL     1      27.649  35.786  24.585  1.00  0.00     0.210 HD
ENDBRANCH  30  31
ENDBRANCH  24  30
BRANCH  25  33
ATOM     33  O   UNL     1      26.335  37.226  28.579  1.00  0.00    -0.388 OA
ATOM     34  H   UNL     1      25.468  36.989  29.000  1.00  0.00     0.211 HD
ENDBRANCH  25  33
ENDBRANCH  11  20
BRANCH  10  35
ATOM     35  O   UNL     1      30.740  35.348  24.409  1.00  0.00    -0.507 OA
ATOM     36  H   UNL     1      29.806  34.986  24.557  1.00  0.00     0.293 HD
ENDBRANCH  10  35
TORSDOF 9
ENDMDL
MODEL 3
REMARK VINA RESULT:    18.450      1.449      2.183
REMARK INTER + INTRA:          24.962
REMARK INTER:                  22.296
REMARK INTRA:                   2.666
REMARK UNBOUND:                 0.041
REMARK SMILES O=c1c(-c2ccc(O)cc2)coc2c([C@H]3O[C@H](CO)[C@@H](O)[C@@H](O)[C@@H]3O)c(O)ccc12
REMARK SMILES IDX 3 1 11 2 12 3 13 4 30 5 2 6 1 7 29 8 28 9 26 10 14 11 4 12
REMARK SMILES IDX 5 13 6 14 7 15 10 16 9 17 8 18 15 20 24 21 16 22 22 23 17 24
REMARK SMILES IDX 20 25 25 26 23 28 18 30 19 31 21 33 27 35
REMARK H PARENT 8 19 25 27 23 29 19 32 21 34 27 36
REMARK Flexibility Score: inf
ROOT
ATOM      1  C   UNL     1      31.827  40.516  28.550  1.00  0.00     0.065 A 
ATOM      2  C   UNL     1      30.498  40.200  28.863  1.00  0.00     0.208 A 
ATOM      3  O   UNL     1      29.921  39.114  28.363  1.00  0.00    -0.463 OA
ATOM      4  C   UNL     1      30.544  38.268  27.547  1.00  0.00     0.147 A 
ATOM      5  C   UNL     1      31.885  38.515  27.173  1.00  0.00     0.066 A 
ATOM      6  C   UNL     1      32.526  39.660  27.679  1.00  0.00     0.200 A 
ATOM      7  O   UNL     1      33.710  39.929  27.338  1.00  0.00    -0.288 OA
ATOM      8  C   UNL     1      32.534  37.628  26.301  1.00  0.00     0.020 A 
ATOM      9  C   UNL     1      31.860  36.516  25.801  1.00  0.00     0.047 A 
ATOM     10  C   UNL     1      30.531  36.264  26.161  1.00  0.00     0.125 A 
ATOM     11  C   UNL     1      29.861  37.130  27.054  1.00  0.00     0.069 A 
ENDROOT
BRANCH   1  12
ATOM     12  C   UNL     1      32.454  41.728  29.135  1.00  0.00    -0.011 A 
ATOM     13  C   UNL     1      31.811  42.976  29.044  1.00  0.00     0.013 A 
ATOM     14  C   UNL     1      32.383  44.111  29.626  1.00  0.00     0.047 A 
ATOM     15  C   UNL     1      33.600  44.017  30.309  1.00  0.00     0.115 A 
ATOM     16  C   UNL     1      33.677  41.639  29.826  1.00  0.00     0.013 A 
ATOM     17  C   UNL     1      34.245  42.777  30.407  1.00  0.00     0.047 A 
BRANCH  15  18
ATOM     18  O   UNL     1      34.153  45.155  30.891  1.00  0.00    -0.508 OA
ATOM     19  H   UNL     1      34.588  45.124  31.805  1.00  0.00     0.293 HD
ENDBRANCH  15  18
ENDBRANCH   1  12
BRANCH  11  20
ATOM     20  C   UNL     1      28.408  36.875  27.433  1.00  0.00     0.188 C 
ATOM     21  C   UNL     1      27.541  36.739  26.159  1.00  0.00     0.179 C 
ATOM     22  O   UNL     1      27.962  37.941  28.258  1.00  0.00    -0.362 OA
ATOM     23  C   UNL     1      26.077  36.506  26.549  1.00  0.00     0.177 C 
ATOM     24  C   UNL     1      26.627  37.782  28.716  1.00  0.00     0.176 C 
ATOM     25  C   UNL     1      25.603  37.565  27.566  1.00  0.00     0.177 C 
BRANCH  21  26
ATOM     26  O   UNL     1      27.983  35.650  25.388  1.00  0.00    -0.387 OA
ATOM     27  H   UNL     1      27.322  34.919  25.510  1.00  0.00     0.211 HD
ENDBRANCH  21  26
BRANCH  23  28
ATOM     28  O   UNL     1      25.261  36.559  25.406  1.00  0.00    -0.387 OA
ATOM     29  H   UNL     1      24.918  37.488  25.335  1.00  0.00     0.211 HD
ENDBRANCH  23  28
BRANCH  24  30
ATOM     30  C   UNL     1      26.511  36.781  29.890  1.00  0.00     0.191 C 
BRANCH  30  31
ATOM     31  O   UNL     1      27.091  37.276  31.064  1.00  0.00    -0.394 OA
ATOM     32  H   UNL     1      27.799  37.910  30.777  1.00  0.00     0.210 HD
ENDBRANCH  30  31
ENDBRANCH  24  30
BRANCH  25  33
ATOM     33  O   UNL     1      25.319  38.783  26.921  1.00  0.00    -0.388 OA
ATOM     34  H   UNL     1      25.691  38.740  26.002  1.00  0.00     0.211 HD
ENDBRANCH  25  33
ENDBRANCH  11  20
BRANCH  10  35
ATOM     35  O   UNL     1      29.873  35.158  25.622  1.00  0.00    -0.507 OA
ATOM     36  H   UNL     1      29.256  35.239  24.823  1.00  0.00     0.293 HD
ENDBRANCH  10  35
TORSDOF 9
ENDMDL
MODEL 4
REMARK VINA RESULT:    18.844      3.606      6.507
REMARK INTER + INTRA:          25.494
REMARK INTER:                  25.475
REMARK INTRA:                   0.019
REMARK UNBOUND:                 0.041
REMARK SMILES O=c1c(-c2ccc(O)cc2)coc2c([C@H]3O[C@H](CO)[C@@H](O)[C@@H](O)[C@@H]3O)c(O)ccc12
REMARK SMILES IDX 3 1 11 2 12 3 13 4 30 5 2 6 1 7 29 8 28 9 26 10 14 11 4 12
REMARK SMILES IDX 5 13 6 14 7 15 10 16 9 17 8 18 15 20 24 21 16 22 22 23 17 24
REMARK SMILES IDX 20 25 25 26 23 28 18 30 19 31 21 33 27 35
REMARK H PARENT 8 19 25 27 23 29 19 32 21 34 27 36
REMARK Flexibility Score: inf
ROOT
ATOM      1  C   UNL     1      31.871  37.360  23.644  1.00  0.00     0.065 A 
ATOM      2  C   UNL     1      30.569  37.736  24.003  1.00  0.00     0.208 A 
ATOM      3  O   UNL     1      30.182  37.720  25.272  1.00  0.00    -0.463 OA
ATOM      4  C   UNL     1      30.979  37.353  26.273  1.00  0.00     0.147 A 
ATOM      5  C   UNL     1      32.306  36.952  26.000  1.00  0.00     0.066 A 
ATOM      6  C   UNL     1      32.749  36.951  24.664  1.00  0.00     0.200 A 
ATOM      7  O   UNL     1      33.917  36.565  24.382  1.00  0.00    -0.288 OA
ATOM      8  C   UNL     1      33.139  36.553  27.055  1.00  0.00     0.020 A 
ATOM      9  C   UNL     1      32.660  36.545  28.363  1.00  0.00     0.047 A 
ATOM     10  C   UNL     1      31.345  36.936  28.645  1.00  0.00     0.125 A 
ATOM     11  C   UNL     1      30.493  37.362  27.602  1.00  0.00     0.069 A 
ENDROOT
BRANCH   1  12
ATOM     12  C   UNL     1      32.284  37.403  22.219  1.00  0.00    -0.011 A 
ATOM     13  C   UNL     1      31.452  36.864  21.221  1.00  0.00     0.013 A 
ATOM     14  C   UNL     1      31.823  36.935  19.875  1.00  0.00     0.047 A 
ATOM     15  C   UNL     1      33.025  37.547  19.506  1.00  0.00     0.115 A 
ATOM     16  C   UNL     1      33.491  38.020  21.841  1.00  0.00     0.013 A 
ATOM     17  C   UNL     1      33.858  38.090  20.493  1.00  0.00     0.047 A 
BRANCH  15  18
ATOM     18  O   UNL     1      33.377  37.619  18.160  1.00  0.00    -0.508 OA
ATOM     19  H   UNL     1      34.163  38.176  17.847  1.00  0.00     0.293 HD
ENDBRANCH  15  18
ENDBRANCH   1  12
BRANCH  11  20
ATOM     20  C   UNL     1      29.055  37.769  27.898  1.00  0.00     0.188 C 
ATOM     21  C   UNL     1      28.997  38.625  29.186  1.00  0.00     0.179 C 
ATOM     22  O   UNL     1      28.269  36.592  28.018  1.00  0.00    -0.362 OA
ATOM     23  C   UNL     1      27.544  39.009  29.489  1.00  0.00     0.177 C 
ATOM     24  C   UNL     1      26.891  36.853  28.244  1.00  0.00     0.176 C 
ATOM     25  C   UNL     1      26.632  37.766  29.476  1.00  0.00     0.177 C 
BRANCH  21  26
ATOM     26  O   UNL     1      29.751  39.800  29.018  1.00  0.00    -0.387 OA
ATOM     27  H   UNL     1      30.582  39.547  28.536  1.00  0.00     0.211 HD
ENDBRANCH  21  26
BRANCH  23  28
ATOM     28  O   UNL     1      27.465  39.635  30.746  1.00  0.00    -0.387 OA
ATOM     29  H   UNL     1      26.534  39.519  31.071  1.00  0.00     0.211 HD
ENDBRANCH  23  28
BRANCH  24  30
ATOM     30  C   UNL     1      26.138  37.266  26.958  1.00  0.00     0.191 C 
BRANCH  30  31
ATOM     31  O   UNL     1      24.857  37.759  27.231  1.00  0.00    -0.394 OA
ATOM     32  H   UNL     1      24.250  37.327  26.577  1.00  0.00     0.210 HD
ENDBRANCH  30  31
ENDBRANCH  24  30
BRANCH  25  33
ATOM     33  O   UNL     1      26.770  37.034  30.671  1.00  0.00    -0.388 OA
ATOM     34  H   UNL     1      26.592  36.079  30.471  1.00  0.00     0.211 HD
ENDBRANCH  25  33
ENDBRANCH  11  20
BRANCH  10  35
ATOM     35  O   UNL     1      30.884  36.890  29.961  1.00  0.00    -0.507 OA
ATOM     36  H   UNL     1      31.324  37.424  30.701  1.00  0.00     0.293 HD
ENDBRANCH  10  35
TORSDOF 9
ENDMDL
