MODEL 1
REMARK VINA RESULT:     0.612      0.000      0.000
REMARK INTER + INTRA:           1.579
REMARK INTER:                   0.951
REMARK INTRA:                   0.627
REMARK UNBOUND:                 0.627
REMARK SMILES COc1cc(CNC(=O)CCCCC=CC(C)C)ccc1O
REMARK SMILES IDX 11 1 12 2 13 3 14 4 15 5 16 6 17 7 18 8 10 9 8 10 9 11 7 12
REMARK SMILES IDX 6 14 5 15 4 16 19 17 3 18 20 19 21 20 2 21 1 22 22 23
REMARK H PARENT 7 13 22 24
REMARK Flexibility Score: inf
ROOT
ATOM      1  C   UNL     1     143.520 173.056 179.054  1.00  0.00     0.010 C 
ENDROOT
BRANCH   1   2
ATOM      2  C   UNL     1     144.715 172.092 179.019  1.00  0.00     0.005 C 
BRANCH   2   3
ATOM      3  C   UNL     1     144.949 171.488 177.625  1.00  0.00     0.027 C 
BRANCH   3   4
ATOM      4  C   UNL     1     143.821 170.571 177.234  1.00  0.00    -0.031 C 
ATOM      5  C   UNL     1     143.172 170.711 176.066  1.00  0.00    -0.028 C 
BRANCH   5   6
ATOM      6  C   UNL     1     142.041 169.799 175.644  1.00  0.00     0.005 C 
ATOM      7  C   UNL     1     142.023 168.508 176.472  1.00  0.00     0.012 C 
ATOM      8  C   UNL     1     140.690 170.518 175.709  1.00  0.00     0.012 C 
ENDBRANCH   5   6
ENDBRANCH   3   4
ENDBRANCH   2   3
ENDBRANCH   1   2
BRANCH   1   9
ATOM      9  C   UNL     1     142.349 172.580 178.184  1.00  0.00     0.100 C 
BRANCH   9  10
ATOM     10  C   UNL     1     141.777 173.730 177.411  1.00  0.00     0.220 C 
ATOM     11  O   UNL     1     141.096 174.604 178.013  1.00  0.00    -0.275 OA
ATOM     12  N   UNL     1     142.044 173.860 176.009  1.00  0.00    -0.352 N 
ATOM     13  H   UNL     1     142.579 173.105 175.520  1.00  0.00     0.163 HD
BRANCH  12  14
ATOM     14  C   UNL     1     141.662 175.044 175.245  1.00  0.00     0.151 C 
BRANCH  14  15
ATOM     15  C   UNL     1     142.713 175.349 174.214  1.00  0.00    -0.025 A 
ATOM     16  C   UNL     1     142.342 175.558 172.875  1.00  0.00     0.056 A 
ATOM     17  C   UNL     1     144.070 175.380 174.566  1.00  0.00     0.009 A 
ATOM     18  C   UNL     1     143.318 175.821 171.894  1.00  0.00     0.160 A 
ATOM     19  C   UNL     1     145.042 175.640 173.596  1.00  0.00     0.050 A 
ATOM     20  C   UNL     1     144.670 175.862 172.263  1.00  0.00     0.157 A 
BRANCH  18  21
ATOM     21  O   UNL     1     142.985 176.046 170.549  1.00  0.00    -0.493 OA
ATOM     22  C   UNL     1     141.675 175.904 170.008  1.00  0.00     0.278 C 
ENDBRANCH  18  21
BRANCH  20  23
ATOM     23  O   UNL     1     145.641 176.122 171.297  1.00  0.00    -0.504 OA
ATOM     24  H   UNL     1     145.649 175.634 170.408  1.00  0.00     0.293 HD
ENDBRANCH  20  23
ENDBRANCH  14  15
ENDBRANCH  12  14
ENDBRANCH   9  10
ENDBRANCH   1   9
TORSDOF 10
ENDMDL
MODEL 2
REMARK VINA RESULT:     1.904      1.064      2.193
REMARK INTER + INTRA:           3.589
REMARK INTER:                   4.449
REMARK INTRA:                  -0.860
REMARK UNBOUND:                 0.627
REMARK SMILES COc1cc(CNC(=O)CCCCC=CC(C)C)ccc1O
REMARK SMILES IDX 11 1 12 2 13 3 14 4 15 5 16 6 17 7 18 8 10 9 8 10 9 11 7 12
REMARK SMILES IDX 6 14 5 15 4 16 19 17 3 18 20 19 21 20 2 21 1 22 22 23
REMARK H PARENT 7 13 22 24
REMARK Flexibility Score: inf
ROOT
ATOM      1  C   UNL     1     144.438 172.689 178.234  1.00  0.00     0.010 C 
ENDROOT
BRANCH   1   2
ATOM      2  C   UNL     1     144.753 171.199 178.433  1.00  0.00     0.005 C 
BRANCH   2   3
ATOM      3  C   UNL     1     144.641 170.390 177.131  1.00  0.00     0.027 C 
BRANCH   3   4
ATOM      4  C   UNL     1     143.203 170.110 176.788  1.00  0.00    -0.031 C 
ATOM      5  C   UNL     1     142.580 170.751 175.784  1.00  0.00    -0.028 C 
BRANCH   5   6
ATOM      6  C   UNL     1     141.139 170.483 175.411  1.00  0.00     0.005 C 
ATOM      7  C   UNL     1     141.030 169.402 174.329  1.00  0.00     0.012 C 
ATOM      8  C   UNL     1     140.302 170.120 176.642  1.00  0.00     0.012 C 
ENDBRANCH   5   6
ENDBRANCH   3   4
ENDBRANCH   2   3
ENDBRANCH   1   2
BRANCH   1   9
ATOM      9  C   UNL     1     143.076 173.090 178.816  1.00  0.00     0.100 C 
BRANCH   9  10
ATOM     10  C   UNL     1     142.097 173.353 177.711  1.00  0.00     0.220 C 
ATOM     11  O   UNL     1     140.902 172.972 177.838  1.00  0.00    -0.275 OA
ATOM     12  N   UNL     1     142.507 174.076 176.543  1.00  0.00    -0.352 N 
ATOM     13  H   UNL     1     143.510 174.351 176.439  1.00  0.00     0.163 HD
BRANCH  12  14
ATOM     14  C   UNL     1     141.560 174.512 175.520  1.00  0.00     0.151 C 
BRANCH  14  15
ATOM     15  C   UNL     1     142.302 174.915 174.276  1.00  0.00    -0.025 A 
ATOM     16  C   UNL     1     143.697 175.076 174.313  1.00  0.00     0.056 A 
ATOM     17  C   UNL     1     141.610 175.178 173.085  1.00  0.00     0.009 A 
ATOM     18  C   UNL     1     144.403 175.477 173.162  1.00  0.00     0.160 A 
ATOM     19  C   UNL     1     142.305 175.576 171.940  1.00  0.00     0.050 A 
ATOM     20  C   UNL     1     143.698 175.724 171.975  1.00  0.00     0.157 A 
BRANCH  18  21
ATOM     21  O   UNL     1     145.798 175.639 173.157  1.00  0.00    -0.493 OA
ATOM     22  C   UNL     1     146.576 175.960 174.306  1.00  0.00     0.278 C 
ENDBRANCH  18  21
BRANCH  20  23
ATOM     23  O   UNL     1     144.391 176.121 170.831  1.00  0.00    -0.504 OA
ATOM     24  H   UNL     1     145.318 176.528 170.887  1.00  0.00     0.293 HD
ENDBRANCH  20  23
ENDBRANCH  14  15
ENDBRANCH  12  14
ENDBRANCH   9  10
ENDBRANCH   1   9
TORSDOF 10
ENDMDL
MODEL 3
REMARK VINA RESULT:     1.934      0.920      3.322
REMARK INTER + INTRA:           3.635
REMARK INTER:                   2.281
REMARK INTRA:                   1.354
REMARK UNBOUND:                 0.627
REMARK SMILES COc1cc(CNC(=O)CCCCC=CC(C)C)ccc1O
REMARK SMILES IDX 11 1 12 2 13 3 14 4 15 5 16 6 17 7 18 8 10 9 8 10 9 11 7 12
REMARK SMILES IDX 6 14 5 15 4 16 19 17 3 18 20 19 21 20 2 21 1 22 22 23
REMARK H PARENT 7 13 22 24
REMARK Flexibility Score: inf
ROOT
ATOM      1  C   UNL     1     140.847 171.185 176.073  1.00  0.00     0.010 C 
ENDROOT
BRANCH   1   2
ATOM      2  C   UNL     1     141.627 169.893 175.788  1.00  0.00     0.005 C 
BRANCH   2   3
ATOM      3  C   UNL     1     143.141 170.055 176.003  1.00  0.00     0.027 C 
BRANCH   3   4
ATOM      4  C   UNL     1     143.431 170.818 177.267  1.00  0.00    -0.031 C 
ATOM      5  C   UNL     1     144.690 171.097 177.648  1.00  0.00    -0.028 C 
BRANCH   5   6
ATOM      6  C   UNL     1     145.010 171.869 178.908  1.00  0.00     0.005 C 
ATOM      7  C   UNL     1     146.459 172.375 178.904  1.00  0.00     0.012 C 
ATOM      8  C   UNL     1     144.023 173.020 179.125  1.00  0.00     0.012 C 
ENDBRANCH   5   6
ENDBRANCH   3   4
ENDBRANCH   2   3
ENDBRANCH   1   2
BRANCH   1   9
ATOM      9  C   UNL     1     141.397 171.955 177.281  1.00  0.00     0.100 C 
BRANCH   9  10
ATOM     10  C   UNL     1     141.397 173.427 177.001  1.00  0.00     0.220 C 
ATOM     11  O   UNL     1     141.177 174.237 177.942  1.00  0.00    -0.275 OA
ATOM     12  N   UNL     1     141.693 173.911 175.685  1.00  0.00    -0.352 N 
ATOM     13  H   UNL     1     141.836 173.223 174.910  1.00  0.00     0.163 HD
BRANCH  12  14
ATOM     14  C   UNL     1     141.879 175.330 175.395  1.00  0.00     0.151 C 
BRANCH  14  15
ATOM     15  C   UNL     1     142.683 175.493 174.135  1.00  0.00    -0.025 A 
ATOM     16  C   UNL     1     144.076 175.660 174.210  1.00  0.00     0.056 A 
ATOM     17  C   UNL     1     142.051 175.527 172.884  1.00  0.00     0.009 A 
ATOM     18  C   UNL     1     144.840 175.838 173.040  1.00  0.00     0.160 A 
ATOM     19  C   UNL     1     142.804 175.704 171.720  1.00  0.00     0.050 A 
ATOM     20  C   UNL     1     144.195 175.858 171.794  1.00  0.00     0.157 A 
BRANCH  18  21
ATOM     21  O   UNL     1     146.234 175.999 173.073  1.00  0.00    -0.493 OA
ATOM     22  C   UNL     1     147.028 175.910 174.252  1.00  0.00     0.278 C 
ENDBRANCH  18  21
BRANCH  20  23
ATOM     23  O   UNL     1     144.945 176.034 170.632  1.00  0.00    -0.504 OA
ATOM     24  H   UNL     1     145.793 175.504 170.463  1.00  0.00     0.293 HD
ENDBRANCH  20  23
ENDBRANCH  14  15
ENDBRANCH  12  14
ENDBRANCH   9  10
ENDBRANCH   1   9
TORSDOF 10
ENDMDL
MODEL 4
REMARK VINA RESULT:     2.882      2.462      6.971
REMARK INTER + INTRA:           5.110
REMARK INTER:                   4.413
REMARK INTRA:                   0.697
REMARK UNBOUND:                 0.627
REMARK SMILES COc1cc(CNC(=O)CCCCC=CC(C)C)ccc1O
REMARK SMILES IDX 11 1 12 2 13 3 14 4 15 5 16 6 17 7 18 8 10 9 8 10 9 11 7 12
REMARK SMILES IDX 6 14 5 15 4 16 19 17 3 18 20 19 21 20 2 21 1 22 22 23
REMARK H PARENT 7 13 22 24
REMARK Flexibility Score: inf
ROOT
ATOM      1  C   UNL     1     143.646 174.946 173.406  1.00  0.00     0.010 C 
ENDROOT
BRANCH   1   2
ATOM      2  C   UNL     1     143.574 175.303 171.914  1.00  0.00     0.005 C 
BRANCH   2   3
ATOM      3  C   UNL     1     142.325 176.125 171.559  1.00  0.00     0.027 C 
BRANCH   3   4
ATOM      4  C   UNL     1     141.442 175.382 170.593  1.00  0.00    -0.031 C 
ATOM      5  C   UNL     1     140.504 176.014 169.867  1.00  0.00    -0.028 C 
BRANCH   5   6
ATOM      6  C   UNL     1     139.609 175.293 168.883  1.00  0.00     0.005 C 
ATOM      7  C   UNL     1     139.294 173.867 169.351  1.00  0.00     0.012 C 
ATOM      8  C   UNL     1     138.325 176.084 168.614  1.00  0.00     0.012 C 
ENDBRANCH   5   6
ENDBRANCH   3   4
ENDBRANCH   2   3
ENDBRANCH   1   2
BRANCH   1   9
ATOM      9  C   UNL     1     142.457 175.498 174.204  1.00  0.00     0.100 C 
BRANCH   9  10
ATOM     10  C   UNL     1     141.968 174.473 175.182  1.00  0.00     0.220 C 
ATOM     11  O   UNL     1     141.835 173.276 174.810  1.00  0.00    -0.275 OA
ATOM     12  N   UNL     1     141.702 174.842 176.542  1.00  0.00    -0.352 N 
ATOM     13  H   UNL     1     141.782 175.847 176.822  1.00  0.00     0.163 HD
BRANCH  12  14
ATOM     14  C   UNL     1     141.394 173.858 177.575  1.00  0.00     0.151 C 
BRANCH  14  15
ATOM     15  C   UNL     1     142.328 172.686 177.460  1.00  0.00    -0.025 A 
ATOM     16  C   UNL     1     141.915 171.523 176.789  1.00  0.00     0.056 A 
ATOM     17  C   UNL     1     143.596 172.723 178.057  1.00  0.00     0.009 A 
ATOM     18  C   UNL     1     142.771 170.408 176.694  1.00  0.00     0.160 A 
ATOM     19  C   UNL     1     144.449 171.620 177.966  1.00  0.00     0.050 A 
ATOM     20  C   UNL     1     144.041 170.465 177.286  1.00  0.00     0.157 A 
BRANCH  18  21
ATOM     21  O   UNL     1     142.397 169.233 176.024  1.00  0.00    -0.493 OA
ATOM     22  C   UNL     1     141.051 168.838 175.777  1.00  0.00     0.278 C 
ENDBRANCH  18  21
BRANCH  20  23
ATOM     23  O   UNL     1     144.893 169.365 177.195  1.00  0.00    -0.504 OA
ATOM     24  H   UNL     1     145.752 169.313 177.731  1.00  0.00     0.293 HD
ENDBRANCH  20  23
ENDBRANCH  14  15
ENDBRANCH  12  14
ENDBRANCH   9  10
ENDBRANCH   1   9
TORSDOF 10
ENDMDL
MODEL 5
REMARK VINA RESULT:     3.342      2.788      7.224
REMARK INTER + INTRA:           5.826
REMARK INTER:                   6.002
REMARK INTRA:                  -0.176
REMARK UNBOUND:                 0.627
REMARK SMILES COc1cc(CNC(=O)CCCCC=CC(C)C)ccc1O
REMARK SMILES IDX 11 1 12 2 13 3 14 4 15 5 16 6 17 7 18 8 10 9 8 10 9 11 7 12
REMARK SMILES IDX 6 14 5 15 4 16 19 17 3 18 20 19 21 20 2 21 1 22 22 23
REMARK H PARENT 7 13 22 24
REMARK Flexibility Score: inf
ROOT
ATOM      1  C   UNL     1     142.870 175.331 172.435  1.00  0.00     0.010 C 
ENDROOT
BRANCH   1   2
ATOM      2  C   UNL     1     141.859 176.125 171.594  1.00  0.00     0.005 C 
BRANCH   2   3
ATOM      3  C   UNL     1     141.997 175.852 170.087  1.00  0.00     0.027 C 
BRANCH   3   4
ATOM      4  C   UNL     1     142.739 174.568 169.833  1.00  0.00    -0.031 C 
ATOM      5  C   UNL     1     142.707 173.961 168.635  1.00  0.00    -0.028 C 
BRANCH   5   6
ATOM      6  C   UNL     1     143.450 172.674 168.349  1.00  0.00     0.005 C 
ATOM      7  C   UNL     1     144.093 172.695 166.957  1.00  0.00     0.012 C 
ATOM      8  C   UNL     1     144.489 172.377 169.435  1.00  0.00     0.012 C 
ENDBRANCH   5   6
ENDBRANCH   3   4
ENDBRANCH   2   3
ENDBRANCH   1   2
BRANCH   1   9
ATOM      9  C   UNL     1     142.851 175.731 173.917  1.00  0.00     0.100 C 
BRANCH   9  10
ATOM     10  C   UNL     1     142.059 174.737 174.712  1.00  0.00     0.220 C 
ATOM     11  O   UNL     1     141.553 173.740 174.129  1.00  0.00    -0.275 OA
ATOM     12  N   UNL     1     141.922 174.894 176.130  1.00  0.00    -0.352 N 
ATOM     13  H   UNL     1     142.317 175.746 176.589  1.00  0.00     0.163 HD
BRANCH  12  14
ATOM     14  C   UNL     1     141.315 173.870 176.976  1.00  0.00     0.151 C 
BRANCH  14  15
ATOM     15  C   UNL     1     142.170 172.634 176.977  1.00  0.00    -0.025 A 
ATOM     16  C   UNL     1     143.305 172.568 177.803  1.00  0.00     0.056 A 
ATOM     17  C   UNL     1     141.874 171.560 176.126  1.00  0.00     0.009 A 
ATOM     18  C   UNL     1     144.130 171.425 177.797  1.00  0.00     0.160 A 
ATOM     19  C   UNL     1     142.689 170.425 176.115  1.00  0.00     0.050 A 
ATOM     20  C   UNL     1     143.814 170.354 176.948  1.00  0.00     0.157 A 
BRANCH  18  21
ATOM     21  O   UNL     1     145.266 171.318 178.614  1.00  0.00    -0.493 OA
ATOM     22  C   UNL     1     146.004 172.427 179.119  1.00  0.00     0.278 C 
ENDBRANCH  18  21
BRANCH  20  23
ATOM     23  O   UNL     1     144.625 169.220 176.938  1.00  0.00    -0.504 OA
ATOM     24  H   UNL     1     145.609 169.270 177.177  1.00  0.00     0.293 HD
ENDBRANCH  20  23
ENDBRANCH  14  15
ENDBRANCH  12  14
ENDBRANCH   9  10
ENDBRANCH   1   9
TORSDOF 10
ENDMDL
MODEL 6
REMARK VINA RESULT:     3.458      2.161      7.000
REMARK INTER + INTRA:           6.006
REMARK INTER:                   3.837
REMARK INTRA:                   2.169
REMARK UNBOUND:                 0.627
REMARK SMILES COc1cc(CNC(=O)CCCCC=CC(C)C)ccc1O
REMARK SMILES IDX 11 1 12 2 13 3 14 4 15 5 16 6 17 7 18 8 10 9 8 10 9 11 7 12
REMARK SMILES IDX 6 14 5 15 4 16 19 17 3 18 20 19 21 20 2 21 1 22 22 23
REMARK H PARENT 7 13 22 24
REMARK Flexibility Score: inf
ROOT
ATOM      1  C   UNL     1     142.388 175.216 172.897  1.00  0.00     0.010 C 
ENDROOT
BRANCH   1   2
ATOM      2  C   UNL     1     141.642 175.534 171.593  1.00  0.00     0.005 C 
BRANCH   2   3
ATOM      3  C   UNL     1     142.581 176.012 170.473  1.00  0.00     0.027 C 
BRANCH   3   4
ATOM      4  C   UNL     1     144.005 176.088 170.954  1.00  0.00    -0.031 C 
ATOM      5  C   UNL     1     144.309 176.057 172.262  1.00  0.00    -0.028 C 
BRANCH   5   6
ATOM      6  C   UNL     1     145.732 176.125 172.773  1.00  0.00     0.005 C 
ATOM      7  C   UNL     1     145.974 175.106 173.894  1.00  0.00     0.012 C 
ATOM      8  C   UNL     1     146.742 175.947 171.635  1.00  0.00     0.012 C 
ENDBRANCH   5   6
ENDBRANCH   3   4
ENDBRANCH   2   3
ENDBRANCH   1   2
BRANCH   1   9
ATOM      9  C   UNL     1     141.750 175.883 174.123  1.00  0.00     0.100 C 
BRANCH   9  10
ATOM     10  C   UNL     1     142.070 175.104 175.363  1.00  0.00     0.220 C 
ATOM     11  O   UNL     1     143.274 174.862 175.649  1.00  0.00    -0.275 OA
ATOM     12  N   UNL     1     141.019 174.681 176.241  1.00  0.00    -0.352 N 
ATOM     13  H   UNL     1     140.025 174.858 175.968  1.00  0.00     0.163 HD
BRANCH  12  14
ATOM     14  C   UNL     1     141.282 174.076 177.543  1.00  0.00     0.151 C 
BRANCH  14  15
ATOM     15  C   UNL     1     142.178 172.880 177.380  1.00  0.00    -0.025 A 
ATOM     16  C   UNL     1     143.283 172.711 178.231  1.00  0.00     0.056 A 
ATOM     17  C   UNL     1     141.949 171.951 176.355  1.00  0.00     0.009 A 
ATOM     18  C   UNL     1     144.146 171.608 178.075  1.00  0.00     0.160 A 
ATOM     19  C   UNL     1     142.802 170.856 176.195  1.00  0.00     0.050 A 
ATOM     20  C   UNL     1     143.898 170.681 177.052  1.00  0.00     0.157 A 
BRANCH  18  21
ATOM     21  O   UNL     1     145.254 171.400 178.911  1.00  0.00    -0.493 OA
ATOM     22  C   UNL     1     146.308 172.340 179.100  1.00  0.00     0.278 C 
ENDBRANCH  18  21
BRANCH  20  23
ATOM     23  O   UNL     1     144.747 169.587 176.893  1.00  0.00    -0.504 OA
ATOM     24  H   UNL     1     144.392 168.671 176.643  1.00  0.00     0.293 HD
ENDBRANCH  20  23
ENDBRANCH  14  15
ENDBRANCH  12  14
ENDBRANCH   9  10
ENDBRANCH   1   9
TORSDOF 10
ENDMDL
