MODEL 1
REMARK VINA RESULT:    -6.977      0.000      0.000
REMARK INTER + INTRA:          -7.638
REMARK INTER:                  -7.385
REMARK INTRA:                  -0.253
REMARK UNBOUND:                -0.253
REMARK SMILES O=c1cc(-c2ccccc2)oc2ccccc12
REMARK SMILES IDX 4 1 3 2 2 3 1 4 17 5 16 6 15 7 14 8 13 9 12 10 11 11 5 12
REMARK SMILES IDX 8 13 7 14 9 15 6 16 10 17
REMARK H PARENT
REMARK Flexibility Score: inf
ROOT
ATOM      1  C   UNL     1       7.467  -2.694  38.586  1.00  0.00     0.138 A 
ATOM      2  C   UNL     1       7.754  -3.661  37.598  1.00  0.00     0.100 A 
ATOM      3  C   UNL     1       7.342  -3.445  36.282  1.00  0.00     0.193 A 
ATOM      4  O   UNL     1       7.599  -4.309  35.400  1.00  0.00    -0.289 OA
ATOM      5  C   UNL     1       6.649  -2.269  35.960  1.00  0.00     0.065 A 
ATOM      6  C   UNL     1       6.206  -1.990  34.654  1.00  0.00     0.016 A 
ATOM      7  C   UNL     1       5.518  -0.802  34.387  1.00  0.00     0.001 A 
ATOM      8  C   UNL     1       5.268   0.112  35.416  1.00  0.00     0.004 A 
ATOM      9  C   UNL     1       5.705  -0.158  36.716  1.00  0.00     0.048 A 
ATOM     10  C   UNL     1       6.393  -1.344  36.994  1.00  0.00     0.138 A 
ATOM     11  O   UNL     1       6.805  -1.591  38.233  1.00  0.00    -0.456 OA
ENDROOT
BRANCH   1  12
ATOM     12  C   UNL     1       7.871  -2.848  40.017  1.00  0.00     0.017 A 
ATOM     13  C   UNL     1       8.650  -3.039  42.723  1.00  0.00     0.000 A 
ATOM     14  C   UNL     1       8.626  -1.798  42.090  1.00  0.00     0.001 A 
ATOM     15  C   UNL     1       8.289  -4.187  42.018  1.00  0.00     0.001 A 
ATOM     16  C   UNL     1       8.241  -1.700  40.750  1.00  0.00     0.012 A 
ATOM     17  C   UNL     1       7.901  -4.098  40.677  1.00  0.00     0.012 A 
ENDBRANCH   1  12
TORSDOF 1
ENDMDL
MODEL 2
REMARK VINA RESULT:    -6.598      5.255      7.063
REMARK INTER + INTRA:          -7.237
REMARK INTER:                  -7.005
REMARK INTRA:                  -0.232
REMARK UNBOUND:                -0.253
REMARK SMILES O=c1cc(-c2ccccc2)oc2ccccc12
REMARK SMILES IDX 4 1 3 2 2 3 1 4 17 5 16 6 15 7 14 8 13 9 12 10 11 11 5 12
REMARK SMILES IDX 8 13 7 14 9 15 6 16 10 17
REMARK H PARENT
REMARK Flexibility Score: inf
ROOT
ATOM      1  C   UNL     1       8.441  -7.260  42.166  1.00  0.00     0.138 A 
ATOM      2  C   UNL     1       9.488  -7.193  41.222  1.00  0.00     0.100 A 
ATOM      3  C   UNL     1      10.028  -5.952  40.880  1.00  0.00     0.193 A 
ATOM      4  O   UNL     1      10.964  -5.893  40.036  1.00  0.00    -0.289 OA
ATOM      5  C   UNL     1       9.525  -4.790  41.481  1.00  0.00     0.065 A 
ATOM      6  C   UNL     1      10.025  -3.509  41.181  1.00  0.00     0.016 A 
ATOM      7  C   UNL     1       9.485  -2.383  41.809  1.00  0.00     0.001 A 
ATOM      8  C   UNL     1       8.448  -2.524  42.736  1.00  0.00     0.004 A 
ATOM      9  C   UNL     1       7.945  -3.793  43.040  1.00  0.00     0.048 A 
ATOM     10  C   UNL     1       8.477  -4.926  42.416  1.00  0.00     0.138 A 
ATOM     11  O   UNL     1       7.992  -6.128  42.712  1.00  0.00    -0.456 OA
ENDROOT
BRANCH   1  12
ATOM     12  C   UNL     1       7.806  -8.547  42.587  1.00  0.00     0.017 A 
ATOM     13  C   UNL     1       6.639 -10.959  43.475  1.00  0.00     0.000 A 
ATOM     14  C   UNL     1       7.327 -10.144  44.373  1.00  0.00     0.001 A 
ATOM     15  C   UNL     1       6.528 -10.580  42.137  1.00  0.00     0.001 A 
ATOM     16  C   UNL     1       7.906  -8.950  43.936  1.00  0.00     0.012 A 
ATOM     17  C   UNL     1       7.104  -9.386  41.692  1.00  0.00     0.012 A 
ENDBRANCH   1  12
TORSDOF 1
ENDMDL
MODEL 3
REMARK VINA RESULT:    -6.593      3.658      5.771
REMARK INTER + INTRA:          -7.232
REMARK INTER:                  -6.966
REMARK INTRA:                  -0.266
REMARK UNBOUND:                -0.253
REMARK SMILES O=c1cc(-c2ccccc2)oc2ccccc12
REMARK SMILES IDX 4 1 3 2 2 3 1 4 17 5 16 6 15 7 14 8 13 9 12 10 11 11 5 12
REMARK SMILES IDX 8 13 7 14 9 15 6 16 10 17
REMARK H PARENT
REMARK Flexibility Score: inf
ROOT
ATOM      1  C   UNL     1       8.094  -4.921  41.859  1.00  0.00     0.138 A 
ATOM      2  C   UNL     1       7.831  -4.527  40.529  1.00  0.00     0.100 A 
ATOM      3  C   UNL     1       7.924  -3.178  40.180  1.00  0.00     0.193 A 
ATOM      4  O   UNL     1       7.690  -2.827  38.991  1.00  0.00    -0.289 OA
ATOM      5  C   UNL     1       8.279  -2.235  41.154  1.00  0.00     0.065 A 
ATOM      6  C   UNL     1       8.391  -0.861  40.868  1.00  0.00     0.016 A 
ATOM      7  C   UNL     1       8.748   0.037  41.878  1.00  0.00     0.001 A 
ATOM      8  C   UNL     1       8.995  -0.425  43.175  1.00  0.00     0.004 A 
ATOM      9  C   UNL     1       8.886  -1.788  43.467  1.00  0.00     0.048 A 
ATOM     10  C   UNL     1       8.528  -2.695  42.464  1.00  0.00     0.138 A 
ATOM     11  O   UNL     1       8.428  -3.988  42.753  1.00  0.00    -0.456 OA
ENDROOT
BRANCH   1  12
ATOM     12  C   UNL     1       8.016  -6.342  42.317  1.00  0.00     0.017 A 
ATOM     13  C   UNL     1       7.842  -9.051  43.089  1.00  0.00     0.000 A 
ATOM     14  C   UNL     1       7.583  -8.683  41.770  1.00  0.00     0.001 A 
ATOM     15  C   UNL     1       8.188  -8.078  44.027  1.00  0.00     0.001 A 
ATOM     16  C   UNL     1       7.668  -7.343  41.384  1.00  0.00     0.012 A 
ATOM     17  C   UNL     1       8.276  -6.735  43.650  1.00  0.00     0.012 A 
ENDBRANCH   1  12
TORSDOF 1
ENDMDL
MODEL 4
REMARK VINA RESULT:    -6.495      3.321      5.773
REMARK INTER + INTRA:          -7.128
REMARK INTER:                  -6.862
REMARK INTRA:                  -0.265
REMARK UNBOUND:                -0.253
REMARK SMILES O=c1cc(-c2ccccc2)oc2ccccc12
REMARK SMILES IDX 4 1 3 2 2 3 1 4 17 5 16 6 15 7 14 8 13 9 12 10 11 11 5 12
REMARK SMILES IDX 8 13 7 14 9 15 6 16 10 17
REMARK H PARENT
REMARK Flexibility Score: inf
ROOT
ATOM      1  C   UNL     1       7.960  -5.642  42.044  1.00  0.00     0.138 A 
ATOM      2  C   UNL     1       8.168  -4.639  43.015  1.00  0.00     0.100 A 
ATOM      3  C   UNL     1       8.261  -3.304  42.616  1.00  0.00     0.193 A 
ATOM      4  O   UNL     1       8.446  -2.408  43.483  1.00  0.00    -0.289 OA
ATOM      5  C   UNL     1       8.146  -2.979  41.257  1.00  0.00     0.065 A 
ATOM      6  C   UNL     1       8.230  -1.655  40.789  1.00  0.00     0.016 A 
ATOM      7  C   UNL     1       8.109  -1.387  39.422  1.00  0.00     0.001 A 
ATOM      8  C   UNL     1       7.904  -2.432  38.516  1.00  0.00     0.004 A 
ATOM      9  C   UNL     1       7.819  -3.751  38.973  1.00  0.00     0.048 A 
ATOM     10  C   UNL     1       7.940  -4.030  40.338  1.00  0.00     0.138 A 
ATOM     11  O   UNL     1       7.857  -5.287  40.762  1.00  0.00    -0.456 OA
ENDROOT
BRANCH   1  12
ATOM     12  C   UNL     1       7.850  -7.094  42.385  1.00  0.00     0.017 A 
ATOM     13  C   UNL     1       7.668  -9.812  43.123  1.00  0.00     0.000 A 
ATOM     14  C   UNL     1       8.021  -8.853  44.072  1.00  0.00     0.001 A 
ATOM     15  C   UNL     1       7.406  -9.426  41.809  1.00  0.00     0.001 A 
ATOM     16  C   UNL     1       8.111  -7.507  43.710  1.00  0.00     0.012 A 
ATOM     17  C   UNL     1       7.494  -8.080  41.438  1.00  0.00     0.012 A 
ENDBRANCH   1  12
TORSDOF 1
ENDMDL
MODEL 5
REMARK VINA RESULT:    -6.449      5.840      8.463
REMARK INTER + INTRA:          -7.079
REMARK INTER:                  -6.857
REMARK INTRA:                  -0.222
REMARK UNBOUND:                -0.253
REMARK SMILES O=c1cc(-c2ccccc2)oc2ccccc12
REMARK SMILES IDX 4 1 3 2 2 3 1 4 17 5 16 6 15 7 14 8 13 9 12 10 11 11 5 12
REMARK SMILES IDX 8 13 7 14 9 15 6 16 10 17
REMARK H PARENT
REMARK Flexibility Score: inf
ROOT
ATOM      1  C   UNL     1       7.938  -7.556  42.612  1.00  0.00     0.138 A 
ATOM      2  C   UNL     1       7.956  -8.272  43.828  1.00  0.00     0.100 A 
ATOM      3  C   UNL     1       7.523  -9.599  43.852  1.00  0.00     0.193 A 
ATOM      4  O   UNL     1       7.540 -10.238  44.939  1.00  0.00    -0.289 OA
ATOM      5  C   UNL     1       7.078 -10.202  42.668  1.00  0.00     0.065 A 
ATOM      6  C   UNL     1       6.628 -11.535  42.623  1.00  0.00     0.016 A 
ATOM      7  C   UNL     1       6.193 -12.087  41.414  1.00  0.00     0.001 A 
ATOM      8  C   UNL     1       6.203 -11.318  40.247  1.00  0.00     0.004 A 
ATOM      9  C   UNL     1       6.648  -9.993  40.282  1.00  0.00     0.048 A 
ATOM     10  C   UNL     1       7.084  -9.431  41.486  1.00  0.00     0.138 A 
ATOM     11  O   UNL     1       7.505  -8.170  41.509  1.00  0.00    -0.456 OA
ENDROOT
BRANCH   1  12
ATOM     12  C   UNL     1       8.384  -6.133  42.498  1.00  0.00     0.017 A 
ATOM     13  C   UNL     1       9.136  -3.418  42.322  1.00  0.00     0.000 A 
ATOM     14  C   UNL     1       7.890  -3.765  42.843  1.00  0.00     0.001 A 
ATOM     15  C   UNL     1      10.010  -4.415  41.888  1.00  0.00     0.001 A 
ATOM     16  C   UNL     1       7.515  -5.108  42.931  1.00  0.00     0.012 A 
ATOM     17  C   UNL     1       9.643  -5.762  41.974  1.00  0.00     0.012 A 
ENDBRANCH   1  12
TORSDOF 1
ENDMDL
MODEL 6
REMARK VINA RESULT:    -6.328      1.691      5.991
REMARK INTER + INTRA:          -6.950
REMARK INTER:                  -6.693
REMARK INTRA:                  -0.257
REMARK UNBOUND:                -0.253
REMARK SMILES O=c1cc(-c2ccccc2)oc2ccccc12
REMARK SMILES IDX 4 1 3 2 2 3 1 4 17 5 16 6 15 7 14 8 13 9 12 10 11 11 5 12
REMARK SMILES IDX 8 13 7 14 9 15 6 16 10 17
REMARK H PARENT
REMARK Flexibility Score: inf
ROOT
ATOM      1  C   UNL     1       7.596  -2.368  39.217  1.00  0.00     0.138 A 
ATOM      2  C   UNL     1       7.825  -3.582  39.900  1.00  0.00     0.100 A 
ATOM      3  C   UNL     1       8.293  -3.555  41.215  1.00  0.00     0.193 A 
ATOM      4  O   UNL     1       8.497  -4.639  41.825  1.00  0.00    -0.289 OA
ATOM      5  C   UNL     1       8.529  -2.321  41.838  1.00  0.00     0.065 A 
ATOM      6  C   UNL     1       9.001  -2.223  43.161  1.00  0.00     0.016 A 
ATOM      7  C   UNL     1       9.221  -0.967  43.734  1.00  0.00     0.001 A 
ATOM      8  C   UNL     1       8.973   0.195  42.998  1.00  0.00     0.004 A 
ATOM      9  C   UNL     1       8.504   0.107  41.683  1.00  0.00     0.048 A 
ATOM     10  C   UNL     1       8.282  -1.145  41.100  1.00  0.00     0.138 A 
ATOM     11  O   UNL     1       7.836  -1.218  39.850  1.00  0.00    -0.456 OA
ENDROOT
BRANCH   1  12
ATOM     12  C   UNL     1       7.097  -2.308  37.809  1.00  0.00     0.017 A 
ATOM     13  C   UNL     1       6.112  -2.106  35.171  1.00  0.00     0.000 A 
ATOM     14  C   UNL     1       5.871  -1.083  36.087  1.00  0.00     0.001 A 
ATOM     15  C   UNL     1       6.841  -3.230  35.561  1.00  0.00     0.001 A 
ATOM     16  C   UNL     1       6.357  -1.180  37.393  1.00  0.00     0.012 A 
ATOM     17  C   UNL     1       7.331  -3.335  36.866  1.00  0.00     0.012 A 
ENDBRANCH   1  12
TORSDOF 1
ENDMDL
MODEL 7
REMARK VINA RESULT:    -6.251      5.247      7.194
REMARK INTER + INTRA:          -6.869
REMARK INTER:                  -6.637
REMARK INTRA:                  -0.233
REMARK UNBOUND:                -0.253
REMARK SMILES O=c1cc(-c2ccccc2)oc2ccccc12
REMARK SMILES IDX 4 1 3 2 2 3 1 4 17 5 16 6 15 7 14 8 13 9 12 10 11 11 5 12
REMARK SMILES IDX 8 13 7 14 9 15 6 16 10 17
REMARK H PARENT
REMARK Flexibility Score: inf
ROOT
ATOM      1  C   UNL     1       8.316  -6.948  42.282  1.00  0.00     0.138 A 
ATOM      2  C   UNL     1       7.799  -5.779  42.880  1.00  0.00     0.100 A 
ATOM      3  C   UNL     1       8.330  -4.535  42.534  1.00  0.00     0.193 A 
ATOM      4  O   UNL     1       7.868  -3.491  43.068  1.00  0.00    -0.289 OA
ATOM      5  C   UNL     1       9.369  -4.466  41.595  1.00  0.00     0.065 A 
ATOM      6  C   UNL     1       9.949  -3.245  41.202  1.00  0.00     0.016 A 
ATOM      7  C   UNL     1      10.984  -3.233  40.262  1.00  0.00     0.001 A 
ATOM      8  C   UNL     1      11.447  -4.431  39.710  1.00  0.00     0.004 A 
ATOM      9  C   UNL     1      10.877  -5.648  40.095  1.00  0.00     0.048 A 
ATOM     10  C   UNL     1       9.841  -5.672  41.036  1.00  0.00     0.138 A 
ATOM     11  O   UNL     1       9.306  -6.834  41.395  1.00  0.00    -0.456 OA
ENDROOT
BRANCH   1  12
ATOM     12  C   UNL     1       7.805  -8.318  42.598  1.00  0.00     0.017 A 
ATOM     13  C   UNL     1       6.867 -10.888  43.289  1.00  0.00     0.000 A 
ATOM     14  C   UNL     1       7.405 -10.055  44.268  1.00  0.00     0.001 A 
ATOM     15  C   UNL     1       6.793 -10.450  41.967  1.00  0.00     0.001 A 
ATOM     16  C   UNL     1       7.870  -8.782  43.929  1.00  0.00     0.012 A 
ATOM     17  C   UNL     1       7.256  -9.177  41.619  1.00  0.00     0.012 A 
ENDBRANCH   1  12
TORSDOF 1
ENDMDL
MODEL 8
REMARK VINA RESULT:    -6.109      1.483      6.394
REMARK INTER + INTRA:          -6.719
REMARK INTER:                  -6.461
REMARK INTRA:                  -0.258
REMARK UNBOUND:                -0.253
REMARK SMILES O=c1cc(-c2ccccc2)oc2ccccc12
REMARK SMILES IDX 4 1 3 2 2 3 1 4 17 5 16 6 15 7 14 8 13 9 12 10 11 11 5 12
REMARK SMILES IDX 8 13 7 14 9 15 6 16 10 17
REMARK H PARENT
REMARK Flexibility Score: inf
ROOT
ATOM      1  C   UNL     1       7.425  -2.276  38.858  1.00  0.00     0.138 A 
ATOM      2  C   UNL     1       7.840  -1.300  39.789  1.00  0.00     0.100 A 
ATOM      3  C   UNL     1       8.398  -1.701  41.004  1.00  0.00     0.193 A 
ATOM      4  O   UNL     1       8.768  -0.828  41.836  1.00  0.00    -0.289 OA
ATOM      5  C   UNL     1       8.539  -3.067  41.282  1.00  0.00     0.065 A 
ATOM      6  C   UNL     1       9.093  -3.538  42.487  1.00  0.00     0.016 A 
ATOM      7  C   UNL     1       9.210  -4.913  42.714  1.00  0.00     0.001 A 
ATOM      8  C   UNL     1       8.778  -5.824  41.745  1.00  0.00     0.004 A 
ATOM      9  C   UNL     1       8.226  -5.365  40.545  1.00  0.00     0.048 A 
ATOM     10  C   UNL     1       8.104  -3.992  40.309  1.00  0.00     0.138 A 
ATOM     11  O   UNL     1       7.578  -3.566  39.165  1.00  0.00    -0.456 OA
ENDROOT
BRANCH   1  12
ATOM     12  C   UNL     1       6.818  -1.933  37.535  1.00  0.00     0.017 A 
ATOM     13  C   UNL     1       5.705  -1.373  35.002  1.00  0.00     0.000 A 
ATOM     14  C   UNL     1       6.380  -2.574  35.218  1.00  0.00     0.001 A 
ATOM     15  C   UNL     1       5.581  -0.450  36.040  1.00  0.00     0.001 A 
ATOM     16  C   UNL     1       6.932  -2.854  36.471  1.00  0.00     0.012 A 
ATOM     17  C   UNL     1       6.129  -0.722  37.297  1.00  0.00     0.012 A 
ENDBRANCH   1  12
TORSDOF 1
ENDMDL
MODEL 9
REMARK VINA RESULT:    -6.032      3.785      6.370
REMARK INTER + INTRA:          -6.637
REMARK INTER:                  -6.414
REMARK INTRA:                  -0.223
REMARK UNBOUND:                -0.253
REMARK SMILES O=c1cc(-c2ccccc2)oc2ccccc12
REMARK SMILES IDX 4 1 3 2 2 3 1 4 17 5 16 6 15 7 14 8 13 9 12 10 11 11 5 12
REMARK SMILES IDX 8 13 7 14 9 15 6 16 10 17
REMARK H PARENT
REMARK Flexibility Score: inf
ROOT
ATOM      1  C   UNL     1       9.528  -0.758  43.624  1.00  0.00     0.138 A 
ATOM      2  C   UNL     1       9.121   0.153  42.626  1.00  0.00     0.100 A 
ATOM      3  C   UNL     1       8.568  -0.328  41.438  1.00  0.00     0.193 A 
ATOM      4  O   UNL     1       8.205   0.487  40.547  1.00  0.00    -0.289 OA
ATOM      5  C   UNL     1       8.424  -1.710  41.252  1.00  0.00     0.065 A 
ATOM      6  C   UNL     1       7.875  -2.260  40.079  1.00  0.00     0.016 A 
ATOM      7  C   UNL     1       7.755  -3.647  39.946  1.00  0.00     0.001 A 
ATOM      8  C   UNL     1       8.180  -4.491  40.976  1.00  0.00     0.004 A 
ATOM      9  C   UNL     1       8.727  -3.953  42.145  1.00  0.00     0.048 A 
ATOM     10  C   UNL     1       8.852  -2.567  42.288  1.00  0.00     0.138 A 
ATOM     11  O   UNL     1       9.373  -2.066  43.404  1.00  0.00    -0.456 OA
ENDROOT
BRANCH   1  12
ATOM     12  C   UNL     1      10.129  -0.328  44.923  1.00  0.00     0.017 A 
ATOM     13  C   UNL     1      11.348   0.508  47.328  1.00  0.00     0.000 A 
ATOM     14  C   UNL     1      12.048   0.591  46.125  1.00  0.00     0.001 A 
ATOM     15  C   UNL     1      10.045   0.011  47.341  1.00  0.00     0.001 A 
ATOM     16  C   UNL     1      11.447   0.178  44.933  1.00  0.00     0.012 A 
ATOM     17  C   UNL     1       9.436  -0.404  46.153  1.00  0.00     0.012 A 
ENDBRANCH   1  12
TORSDOF 1
ENDMDL
