MODEL 1
REMARK VINA RESULT:    -6.619      0.000      0.000
REMARK INTER + INTRA:         -13.511
REMARK INTER:                 -10.875
REMARK INTRA:                  -2.636
REMARK UNBOUND:                -2.636
REMARK SMILES COc1ccc([C@H]2CC(=O)c3c(O)cc(O[C@H]4O[C@@H](CO[C@H]5O[C@@H](C)[C@@H](O)[C@@H](O)[C@H]5O)[C@H](O)[C@@H](O)[C@@H]4O)cc3O2)cc1O
REMARK SMILES IDX 19 1 32 2 34 3 36 4 17 5 18 6 20 7 21 8 22 9 25 10 24 11
REMARK SMILES IDX 26 12 23 13 28 14 30 15 27 16 29 18 31 20 33 22 35 24 16 26
REMARK SMILES IDX 15 27 14 28 38 29 12 30 39 31 11 32 40 33 9 34 7 35 10 36
REMARK SMILES IDX 8 37 13 38 6 40 41 41 5 42 42 43 4 44 3 45 43 46 2 48 1 49
REMARK SMILES IDX 37 50
REMARK H PARENT 27 17 29 19 31 21 33 23 35 25 13 39 43 47 37 51
REMARK Flexibility Score: inf
ROOT
ATOM      1  C   UNL     1     483.768  39.549 459.897  1.00  0.00     0.180 C 
ATOM      2  C   UNL     1     484.994  39.132 459.038  1.00  0.00     0.177 C 
ATOM      3  C   UNL     1     484.587  38.271 457.813  1.00  0.00     0.180 C 
ATOM      4  C   UNL     1     483.189  38.636 457.263  1.00  0.00     0.214 C 
ATOM      5  C   UNL     1     482.140  38.857 458.396  1.00  0.00     0.339 C 
ATOM      6  O   UNL     1     482.682  38.668 459.692  1.00  0.00    -0.332 OA
ENDROOT
BRANCH   1   7
ATOM      7  C   UNL     1     484.112  39.555 461.392  1.00  0.00     0.198 C 
BRANCH   7   8
ATOM      8  O   UNL     1     482.946  39.346 462.165  1.00  0.00    -0.347 OA
BRANCH   8   9
ATOM      9  C   UNL     1     483.033  40.002 463.419  1.00  0.00     0.281 C 
ATOM     10  C   UNL     1     480.868  41.326 461.564  1.00  0.00     0.041 C 
ATOM     11  C   UNL     1     481.194  41.486 463.061  1.00  0.00     0.150 C 
ATOM     12  C   UNL     1     480.276  40.693 464.035  1.00  0.00     0.174 C 
ATOM     13  O   UNL     1     482.584  41.349 463.334  1.00  0.00    -0.344 OA
ATOM     14  C   UNL     1     480.758  39.257 464.329  1.00  0.00     0.179 C 
ATOM     15  C   UNL     1     482.286  39.213 464.509  1.00  0.00     0.202 C 
BRANCH  12  16
ATOM     16  O   UNL     1     478.950  40.686 463.566  1.00  0.00    -0.388 OA
ATOM     17  H   UNL     1     478.971  41.020 462.630  1.00  0.00     0.211 HD
ENDBRANCH  12  16
BRANCH  14  18
ATOM     18  O   UNL     1     480.294  38.316 463.390  1.00  0.00    -0.387 OA
ATOM     19  H   UNL     1     480.689  37.437 463.600  1.00  0.00     0.211 HD
ENDBRANCH  14  18
BRANCH  15  20
ATOM     20  O   UNL     1     482.748  37.885 464.535  1.00  0.00    -0.385 OA
ATOM     21  H   UNL     1     482.872  37.645 465.490  1.00  0.00     0.211 HD
ENDBRANCH  15  20
ENDBRANCH   8   9
ENDBRANCH   7   8
ENDBRANCH   1   7
BRANCH   2  22
ATOM     22  O   UNL     1     485.654  40.295 458.603  1.00  0.00    -0.387 OA
ATOM     23  H   UNL     1     485.016  40.795 458.030  1.00  0.00     0.211 HD
ENDBRANCH   2  22
BRANCH   3  24
ATOM     24  O   UNL     1     484.661  36.899 458.108  1.00  0.00    -0.387 OA
ATOM     25  H   UNL     1     485.128  36.792 458.976  1.00  0.00     0.211 HD
ENDBRANCH   3  24
BRANCH   5  26
ATOM     26  O   UNL     1     481.006  37.998 458.205  1.00  0.00    -0.462 OA
BRANCH  26  27
ATOM     27  C   UNL     1     479.948  37.832 459.112  1.00  0.00     0.130 A 
ATOM     28  C   UNL     1     479.692  36.551 459.614  1.00  0.00     0.093 A 
ATOM     29  C   UNL     1     479.131  38.899 459.510  1.00  0.00     0.094 A 
ATOM     30  C   UNL     1     478.669  36.337 460.549  1.00  0.00     0.133 A 
ATOM     31  C   UNL     1     478.110  38.699 460.443  1.00  0.00     0.138 A 
ATOM     32  C   UNL     1     477.877  37.422 460.980  1.00  0.00     0.102 A 
ATOM     33  O   UNL     1     477.334  39.795 460.836  1.00  0.00    -0.484 OA
ATOM     34  C   UNL     1     476.810  37.279 461.994  1.00  0.00     0.174 C 
ATOM     35  C   UNL     1     476.140  39.689 461.612  1.00  0.00     0.211 C 
ATOM     36  O   UNL     1     476.435  36.142 462.386  1.00  0.00    -0.294 OA
ATOM     37  C   UNL     1     476.189  38.502 462.601  1.00  0.00     0.131 C 
BRANCH  30  38
ATOM     38  O   UNL     1     478.458  35.056 461.057  1.00  0.00    -0.507 OA
ATOM     39  H   UNL     1     478.835  34.235 460.601  1.00  0.00     0.293 HD
ENDBRANCH  30  38
BRANCH  35  40
ATOM     40  C   UNL     1     474.929  39.668 460.695  1.00  0.00    -0.003 A 
ATOM     41  C   UNL     1     473.659  39.382 461.233  1.00  0.00     0.057 A 
ATOM     42  C   UNL     1     475.027  39.997 459.330  1.00  0.00     0.011 A 
ATOM     43  C   UNL     1     472.516  39.409 460.428  1.00  0.00     0.158 A 
ATOM     44  C   UNL     1     473.889  40.012 458.518  1.00  0.00     0.051 A 
ATOM     45  C   UNL     1     472.621  39.723 459.061  1.00  0.00     0.160 A 
BRANCH  43  46
ATOM     46  O   UNL     1     471.280  39.121 461.009  1.00  0.00    -0.504 OA
ATOM     47  H   UNL     1     470.955  38.169 461.134  1.00  0.00     0.293 HD
ENDBRANCH  43  46
BRANCH  45  48
ATOM     48  O   UNL     1     471.456  39.746 458.277  1.00  0.00    -0.493 OA
ATOM     49  C   UNL     1     471.250  38.958 457.109  1.00  0.00     0.278 C 
ENDBRANCH  45  48
ENDBRANCH  35  40
ENDBRANCH  26  27
ENDBRANCH   5  26
BRANCH   4  50
ATOM     50  O   UNL     1     483.301  39.804 456.488  1.00  0.00    -0.384 OA
ATOM     51  H   UNL     1     484.217  40.166 456.642  1.00  0.00     0.211 HD
ENDBRANCH   4  50
TORSDOF 15
ENDMDL
MODEL 2
REMARK VINA RESULT:    -6.468      2.072      2.960
REMARK INTER + INTRA:         -13.263
REMARK INTER:                 -11.018
REMARK INTRA:                  -2.245
REMARK UNBOUND:                -2.636
REMARK SMILES COc1ccc([C@H]2CC(=O)c3c(O)cc(O[C@H]4O[C@@H](CO[C@H]5O[C@@H](C)[C@@H](O)[C@@H](O)[C@H]5O)[C@H](O)[C@@H](O)[C@@H]4O)cc3O2)cc1O
REMARK SMILES IDX 19 1 32 2 34 3 36 4 17 5 18 6 20 7 21 8 22 9 25 10 24 11
REMARK SMILES IDX 26 12 23 13 28 14 30 15 27 16 29 18 31 20 33 22 35 24 16 26
REMARK SMILES IDX 15 27 14 28 38 29 12 30 39 31 11 32 40 33 9 34 7 35 10 36
REMARK SMILES IDX 8 37 13 38 6 40 41 41 5 42 42 43 4 44 3 45 43 46 2 48 1 49
REMARK SMILES IDX 37 50
REMARK H PARENT 27 17 29 19 31 21 33 23 35 25 13 39 43 47 37 51
REMARK Flexibility Score: inf
ROOT
ATOM      1  C   UNL     1     482.343  40.309 457.407  1.00  0.00     0.180 C 
ATOM      2  C   UNL     1     483.287  39.860 456.259  1.00  0.00     0.177 C 
ATOM      3  C   UNL     1     483.213  38.331 456.002  1.00  0.00     0.180 C 
ATOM      4  C   UNL     1     481.814  37.742 456.297  1.00  0.00     0.214 C 
ATOM      5  C   UNL     1     481.193  38.304 457.612  1.00  0.00     0.339 C 
ATOM      6  O   UNL     1     482.042  39.230 458.268  1.00  0.00    -0.332 OA
ENDROOT
BRANCH   1   7
ATOM      7  C   UNL     1     482.976  41.432 458.240  1.00  0.00     0.198 C 
BRANCH   7   8
ATOM      8  O   UNL     1     483.593  40.899 459.396  1.00  0.00    -0.347 OA
BRANCH   8   9
ATOM      9  C   UNL     1     484.982  40.698 459.195  1.00  0.00     0.281 C 
ATOM     10  C   UNL     1     484.429  42.685 461.567  1.00  0.00     0.041 C 
ATOM     11  C   UNL     1     485.702  41.960 461.092  1.00  0.00     0.150 C 
ATOM     12  C   UNL     1     486.079  40.677 461.887  1.00  0.00     0.174 C 
ATOM     13  O   UNL     1     485.742  41.798 459.679  1.00  0.00    -0.344 OA
ATOM     14  C   UNL     1     485.431  39.386 461.347  1.00  0.00     0.179 C 
ATOM     15  C   UNL     1     485.442  39.364 459.808  1.00  0.00     0.202 C 
BRANCH  12  16
ATOM     16  O   UNL     1     485.792  40.843 463.255  1.00  0.00    -0.388 OA
ATOM     17  H   UNL     1     486.391  40.226 463.754  1.00  0.00     0.211 HD
ENDBRANCH  12  16
BRANCH  14  18
ATOM     18  O   UNL     1     484.153  39.143 461.886  1.00  0.00    -0.387 OA
ATOM     19  H   UNL     1     483.711  40.008 462.057  1.00  0.00     0.211 HD
ENDBRANCH  14  18
BRANCH  15  20
ATOM     20  O   UNL     1     484.643  38.315 459.319  1.00  0.00    -0.385 OA
ATOM     21  H   UNL     1     485.258  37.568 459.099  1.00  0.00     0.211 HD
ENDBRANCH  15  20
ENDBRANCH   8   9
ENDBRANCH   7   8
ENDBRANCH   1   7
BRANCH   2  22
ATOM     22  O   UNL     1     482.934  40.555 455.088  1.00  0.00    -0.387 OA
ATOM     23  H   UNL     1     482.800  41.505 455.344  1.00  0.00     0.211 HD
ENDBRANCH   2  22
BRANCH   3  24
ATOM     24  O   UNL     1     484.202  37.644 456.728  1.00  0.00    -0.387 OA
ATOM     25  H   UNL     1     484.490  36.858 456.195  1.00  0.00     0.211 HD
ENDBRANCH   3  24
BRANCH   5  26
ATOM     26  O   UNL     1     480.847  37.234 458.503  1.00  0.00    -0.462 OA
BRANCH  26  27
ATOM     27  C   UNL     1     479.758  37.230 459.387  1.00  0.00     0.130 A 
ATOM     28  C   UNL     1     479.394  36.023 459.995  1.00  0.00     0.093 A 
ATOM     29  C   UNL     1     479.014  38.386 459.662  1.00  0.00     0.094 A 
ATOM     30  C   UNL     1     478.335  35.972 460.913  1.00  0.00     0.133 A 
ATOM     31  C   UNL     1     477.960  38.349 460.577  1.00  0.00     0.138 A 
ATOM     32  C   UNL     1     477.618  37.148 461.219  1.00  0.00     0.102 A 
ATOM     33  O   UNL     1     477.260  39.530 460.846  1.00  0.00    -0.484 OA
ATOM     34  C   UNL     1     476.519  37.178 462.209  1.00  0.00     0.174 C 
ATOM     35  C   UNL     1     476.043  39.585 461.591  1.00  0.00     0.211 C 
ATOM     36  O   UNL     1     476.050  36.112 462.691  1.00  0.00    -0.294 OA
ATOM     37  C   UNL     1     475.977  38.494 462.684  1.00  0.00     0.131 C 
BRANCH  30  38
ATOM     38  O   UNL     1     478.015  34.763 461.528  1.00  0.00    -0.507 OA
ATOM     39  H   UNL     1     478.472  34.462 462.380  1.00  0.00     0.293 HD
ENDBRANCH  30  38
BRANCH  35  40
ATOM     40  C   UNL     1     474.856  39.567 460.643  1.00  0.00    -0.003 A 
ATOM     41  C   UNL     1     473.559  39.385 461.161  1.00  0.00     0.057 A 
ATOM     42  C   UNL     1     475.006  39.802 459.263  1.00  0.00     0.011 A 
ATOM     43  C   UNL     1     472.440  39.419 460.323  1.00  0.00     0.158 A 
ATOM     44  C   UNL     1     473.892  39.824 458.419  1.00  0.00     0.051 A 
ATOM     45  C   UNL     1     472.597  39.638 458.942  1.00  0.00     0.160 A 
BRANCH  43  46
ATOM     46  O   UNL     1     471.175  39.236 460.886  1.00  0.00    -0.504 OA
ATOM     47  H   UNL     1     471.023  39.285 461.887  1.00  0.00     0.293 HD
ENDBRANCH  43  46
BRANCH  45  48
ATOM     48  O   UNL     1     471.454  39.672 458.125  1.00  0.00    -0.493 OA
ATOM     49  C   UNL     1     471.218  38.794 457.030  1.00  0.00     0.278 C 
ENDBRANCH  45  48
ENDBRANCH  35  40
ENDBRANCH  26  27
ENDBRANCH   5  26
BRANCH   4  50
ATOM     50  O   UNL     1     480.967  38.031 455.211  1.00  0.00    -0.384 OA
ATOM     51  H   UNL     1     480.733  38.998 455.277  1.00  0.00     0.211 HD
ENDBRANCH   4  50
TORSDOF 15
ENDMDL
MODEL 3
REMARK VINA RESULT:    -6.306      1.795      2.952
REMARK INTER + INTRA:         -12.997
REMARK INTER:                 -10.987
REMARK INTRA:                  -2.009
REMARK UNBOUND:                -2.636
REMARK SMILES COc1ccc([C@H]2CC(=O)c3c(O)cc(O[C@H]4O[C@@H](CO[C@H]5O[C@@H](C)[C@@H](O)[C@@H](O)[C@H]5O)[C@H](O)[C@@H](O)[C@@H]4O)cc3O2)cc1O
REMARK SMILES IDX 19 1 32 2 34 3 36 4 17 5 18 6 20 7 21 8 22 9 25 10 24 11
REMARK SMILES IDX 26 12 23 13 28 14 30 15 27 16 29 18 31 20 33 22 35 24 16 26
REMARK SMILES IDX 15 27 14 28 38 29 12 30 39 31 11 32 40 33 9 34 7 35 10 36
REMARK SMILES IDX 8 37 13 38 6 40 41 41 5 42 42 43 4 44 3 45 43 46 2 48 1 49
REMARK SMILES IDX 37 50
REMARK H PARENT 27 17 29 19 31 21 33 23 35 25 13 39 43 47 37 51
REMARK Flexibility Score: inf
ROOT
ATOM      1  C   UNL     1     483.773  39.543 460.051  1.00  0.00     0.180 C 
ATOM      2  C   UNL     1     485.005  39.135 459.197  1.00  0.00     0.177 C 
ATOM      3  C   UNL     1     484.604  38.315 457.942  1.00  0.00     0.180 C 
ATOM      4  C   UNL     1     483.218  38.714 457.384  1.00  0.00     0.214 C 
ATOM      5  C   UNL     1     482.156  38.916 458.509  1.00  0.00     0.339 C 
ATOM      6  O   UNL     1     482.678  38.683 459.805  1.00  0.00    -0.332 OA
ENDROOT
BRANCH   1   7
ATOM      7  C   UNL     1     484.096  39.501 461.550  1.00  0.00     0.198 C 
BRANCH   7   8
ATOM      8  O   UNL     1     485.148  40.397 461.851  1.00  0.00    -0.347 OA
BRANCH   8   9
ATOM      9  C   UNL     1     484.681  41.734 461.933  1.00  0.00     0.281 C 
ATOM     10  C   UNL     1     485.117  40.481 464.783  1.00  0.00     0.041 C 
ATOM     11  C   UNL     1     484.857  41.923 464.309  1.00  0.00     0.150 C 
ATOM     12  C   UNL     1     486.115  42.833 464.211  1.00  0.00     0.174 C 
ATOM     13  O   UNL     1     484.012  41.977 463.165  1.00  0.00    -0.344 OA
ATOM     14  C   UNL     1     486.836  42.771 462.849  1.00  0.00     0.179 C 
ATOM     15  C   UNL     1     485.824  42.735 461.689  1.00  0.00     0.202 C 
BRANCH  12  16
ATOM     16  O   UNL     1     487.009  42.552 465.261  1.00  0.00    -0.388 OA
ATOM     17  H   UNL     1     487.807  42.119 464.854  1.00  0.00     0.211 HD
ENDBRANCH  12  16
BRANCH  14  18
ATOM     18  O   UNL     1     487.786  41.734 462.775  1.00  0.00    -0.387 OA
ATOM     19  H   UNL     1     487.401  40.921 463.179  1.00  0.00     0.211 HD
ENDBRANCH  14  18
BRANCH  15  20
ATOM     20  O   UNL     1     486.468  42.435 460.475  1.00  0.00    -0.385 OA
ATOM     21  H   UNL     1     486.461  43.269 459.936  1.00  0.00     0.211 HD
ENDBRANCH  15  20
ENDBRANCH   8   9
ENDBRANCH   7   8
ENDBRANCH   1   7
BRANCH   2  22
ATOM     22  O   UNL     1     485.686  40.300 458.805  1.00  0.00    -0.387 OA
ATOM     23  H   UNL     1     485.026  41.042 458.819  1.00  0.00     0.211 HD
ENDBRANCH   2  22
BRANCH   3  24
ATOM     24  O   UNL     1     484.655  36.934 458.198  1.00  0.00    -0.387 OA
ATOM     25  H   UNL     1     483.820  36.672 458.665  1.00  0.00     0.211 HD
ENDBRANCH   3  24
BRANCH   5  26
ATOM     26  O   UNL     1     481.014  38.079 458.278  1.00  0.00    -0.462 OA
BRANCH  26  27
ATOM     27  C   UNL     1     479.941  37.902 459.164  1.00  0.00     0.130 A 
ATOM     28  C   UNL     1     479.692  36.620 459.665  1.00  0.00     0.093 A 
ATOM     29  C   UNL     1     479.103  38.959 459.543  1.00  0.00     0.094 A 
ATOM     30  C   UNL     1     478.654  36.395 460.581  1.00  0.00     0.133 A 
ATOM     31  C   UNL     1     478.067  38.749 460.456  1.00  0.00     0.138 A 
ATOM     32  C   UNL     1     477.840  37.471 460.993  1.00  0.00     0.102 A 
ATOM     33  O   UNL     1     477.269  39.836 460.832  1.00  0.00    -0.484 OA
ATOM     34  C   UNL     1     476.755  37.317 461.987  1.00  0.00     0.174 C 
ATOM     35  C   UNL     1     476.062  39.717 461.585  1.00  0.00     0.211 C 
ATOM     36  O   UNL     1     476.388  36.176 462.375  1.00  0.00    -0.294 OA
ATOM     37  C   UNL     1     476.106  38.534 462.578  1.00  0.00     0.131 C 
BRANCH  30  38
ATOM     38  O   UNL     1     478.449  35.113 461.089  1.00  0.00    -0.507 OA
ATOM     39  H   UNL     1     477.518  34.750 461.256  1.00  0.00     0.293 HD
ENDBRANCH  30  38
BRANCH  35  40
ATOM     40  C   UNL     1     474.869  39.677 460.644  1.00  0.00    -0.003 A 
ATOM     41  C   UNL     1     473.595  39.364 461.156  1.00  0.00     0.057 A 
ATOM     42  C   UNL     1     474.986  40.017 459.283  1.00  0.00     0.011 A 
ATOM     43  C   UNL     1     472.467  39.373 460.329  1.00  0.00     0.158 A 
ATOM     44  C   UNL     1     473.864  40.015 458.450  1.00  0.00     0.051 A 
ATOM     45  C   UNL     1     472.592  39.698 458.967  1.00  0.00     0.160 A 
BRANCH  43  46
ATOM     46  O   UNL     1     471.226  39.058 460.885  1.00  0.00    -0.504 OA
ATOM     47  H   UNL     1     470.367  39.483 460.552  1.00  0.00     0.293 HD
ENDBRANCH  43  46
BRANCH  45  48
ATOM     48  O   UNL     1     471.442  39.703 458.161  1.00  0.00    -0.493 OA
ATOM     49  C   UNL     1     471.230  38.840 457.048  1.00  0.00     0.278 C 
ENDBRANCH  45  48
ENDBRANCH  35  40
ENDBRANCH  26  27
ENDBRANCH   5  26
BRANCH   4  50
ATOM     50  O   UNL     1     483.357  39.903 456.644  1.00  0.00    -0.384 OA
ATOM     51  H   UNL     1     482.633  39.902 455.959  1.00  0.00     0.211 HD
ENDBRANCH   4  50
TORSDOF 15
ENDMDL
MODEL 4
REMARK VINA RESULT:    -6.254      1.658      2.470
REMARK INTER + INTRA:         -12.912
REMARK INTER:                 -10.957
REMARK INTRA:                  -1.955
REMARK UNBOUND:                -2.636
REMARK SMILES COc1ccc([C@H]2CC(=O)c3c(O)cc(O[C@H]4O[C@@H](CO[C@H]5O[C@@H](C)[C@@H](O)[C@@H](O)[C@H]5O)[C@H](O)[C@@H](O)[C@@H]4O)cc3O2)cc1O
REMARK SMILES IDX 19 1 32 2 34 3 36 4 17 5 18 6 20 7 21 8 22 9 25 10 24 11
REMARK SMILES IDX 26 12 23 13 28 14 30 15 27 16 29 18 31 20 33 22 35 24 16 26
REMARK SMILES IDX 15 27 14 28 38 29 12 30 39 31 11 32 40 33 9 34 7 35 10 36
REMARK SMILES IDX 8 37 13 38 6 40 41 41 5 42 42 43 4 44 3 45 43 46 2 48 1 49
REMARK SMILES IDX 37 50
REMARK H PARENT 27 17 29 19 31 21 33 23 35 25 13 39 43 47 37 51
REMARK Flexibility Score: inf
ROOT
ATOM      1  C   UNL     1     484.363  40.673 458.388  1.00  0.00     0.180 C 
ATOM      2  C   UNL     1     485.247  39.469 458.813  1.00  0.00     0.177 C 
ATOM      3  C   UNL     1     484.568  38.106 458.508  1.00  0.00     0.180 C 
ATOM      4  C   UNL     1     483.660  38.156 457.259  1.00  0.00     0.214 C 
ATOM      5  C   UNL     1     482.787  39.448 457.204  1.00  0.00     0.339 C 
ATOM      6  O   UNL     1     483.001  40.302 458.314  1.00  0.00    -0.332 OA
ENDROOT
BRANCH   1   7
ATOM      7  C   UNL     1     484.496  41.837 459.378  1.00  0.00     0.198 C 
BRANCH   7   8
ATOM      8  O   UNL     1     483.873  41.511 460.606  1.00  0.00    -0.347 OA
BRANCH   8   9
ATOM      9  C   UNL     1     484.499  42.169 461.695  1.00  0.00     0.281 C 
ATOM     10  C   UNL     1     481.508  41.446 462.341  1.00  0.00     0.041 C 
ATOM     11  C   UNL     1     482.674  41.936 463.221  1.00  0.00     0.150 C 
ATOM     12  C   UNL     1     483.408  40.833 464.036  1.00  0.00     0.174 C 
ATOM     13  O   UNL     1     483.547  42.821 462.526  1.00  0.00    -0.344 OA
ATOM     14  C   UNL     1     484.575  40.162 463.282  1.00  0.00     0.179 C 
ATOM     15  C   UNL     1     485.390  41.198 462.489  1.00  0.00     0.202 C 
BRANCH  12  16
ATOM     16  O   UNL     1     482.492  39.869 464.496  1.00  0.00    -0.388 OA
ATOM     17  H   UNL     1     482.235  40.131 465.420  1.00  0.00     0.211 HD
ENDBRANCH  12  16
BRANCH  14  18
ATOM     18  O   UNL     1     484.165  39.071 462.492  1.00  0.00    -0.387 OA
ATOM     19  H   UNL     1     483.816  38.363 463.084  1.00  0.00     0.211 HD
ENDBRANCH  14  18
BRANCH  15  20
ATOM     20  O   UNL     1     486.294  40.562 461.619  1.00  0.00    -0.385 OA
ATOM     21  H   UNL     1     486.379  39.625 461.933  1.00  0.00     0.211 HD
ENDBRANCH  15  20
ENDBRANCH   8   9
ENDBRANCH   7   8
ENDBRANCH   1   7
BRANCH   2  22
ATOM     22  O   UNL     1     486.474  39.550 458.132  1.00  0.00    -0.387 OA
ATOM     23  H   UNL     1     486.851  40.450 458.317  1.00  0.00     0.211 HD
ENDBRANCH   2  22
BRANCH   3  24
ATOM     24  O   UNL     1     483.852  37.634 459.622  1.00  0.00    -0.387 OA
ATOM     25  H   UNL     1     483.159  37.002 459.301  1.00  0.00     0.211 HD
ENDBRANCH   3  24
BRANCH   5  26
ATOM     26  O   UNL     1     481.396  39.111 457.100  1.00  0.00    -0.462 OA
BRANCH  26  27
ATOM     27  C   UNL     1     480.639  38.465 458.087  1.00  0.00     0.130 A 
ATOM     28  C   UNL     1     480.413  37.090 457.964  1.00  0.00     0.093 A 
ATOM     29  C   UNL     1     480.084  39.155 459.174  1.00  0.00     0.094 A 
ATOM     30  C   UNL     1     479.691  36.390 458.942  1.00  0.00     0.133 A 
ATOM     31  C   UNL     1     479.366  38.469 460.157  1.00  0.00     0.138 A 
ATOM     32  C   UNL     1     479.172  37.081 460.057  1.00  0.00     0.102 A 
ATOM     33  O   UNL     1     478.853  39.188 461.241  1.00  0.00    -0.484 OA
ATOM     34  C   UNL     1     478.439  36.402 461.148  1.00  0.00     0.174 C 
ATOM     35  C   UNL     1     477.933  38.650 462.192  1.00  0.00     0.211 C 
ATOM     36  O   UNL     1     478.083  35.198 461.039  1.00  0.00    -0.294 OA
ATOM     37  C   UNL     1     478.149  37.137 462.423  1.00  0.00     0.131 C 
BRANCH  30  38
ATOM     38  O   UNL     1     479.509  35.014 458.811  1.00  0.00    -0.507 OA
ATOM     39  H   UNL     1     478.697  34.546 459.194  1.00  0.00     0.293 HD
ENDBRANCH  30  38
BRANCH  35  40
ATOM     40  C   UNL     1     476.511  39.009 461.794  1.00  0.00    -0.003 A 
ATOM     41  C   UNL     1     475.500  39.018 462.774  1.00  0.00     0.057 A 
ATOM     42  C   UNL     1     476.186  39.404 460.483  1.00  0.00     0.011 A 
ATOM     43  C   UNL     1     474.193  39.397 462.453  1.00  0.00     0.158 A 
ATOM     44  C   UNL     1     474.878  39.771 460.154  1.00  0.00     0.051 A 
ATOM     45  C   UNL     1     473.869  39.776 461.138  1.00  0.00     0.160 A 
BRANCH  43  46
ATOM     46  O   UNL     1     473.227  39.393 463.461  1.00  0.00    -0.504 OA
ATOM     47  H   UNL     1     472.947  40.243 463.938  1.00  0.00     0.293 HD
ENDBRANCH  43  46
BRANCH  45  48
ATOM     48  O   UNL     1     472.549  40.156 460.845  1.00  0.00    -0.493 OA
ATOM     49  C   UNL     1     471.560  39.288 460.301  1.00  0.00     0.278 C 
ENDBRANCH  45  48
ENDBRANCH  35  40
ENDBRANCH  26  27
ENDBRANCH   5  26
BRANCH   4  50
ATOM     50  O   UNL     1     484.470  38.083 456.111  1.00  0.00    -0.384 OA
ATOM     51  H   UNL     1     483.902  37.716 455.379  1.00  0.00     0.211 HD
ENDBRANCH   4  50
TORSDOF 15
ENDMDL
MODEL 5
REMARK VINA RESULT:    -6.228      2.964      5.948
REMARK INTER + INTRA:         -12.868
REMARK INTER:                 -10.716
REMARK INTRA:                  -2.152
REMARK UNBOUND:                -2.636
REMARK SMILES COc1ccc([C@H]2CC(=O)c3c(O)cc(O[C@H]4O[C@@H](CO[C@H]5O[C@@H](C)[C@@H](O)[C@@H](O)[C@H]5O)[C@H](O)[C@@H](O)[C@@H]4O)cc3O2)cc1O
REMARK SMILES IDX 19 1 32 2 34 3 36 4 17 5 18 6 20 7 21 8 22 9 25 10 24 11
REMARK SMILES IDX 26 12 23 13 28 14 30 15 27 16 29 18 31 20 33 22 35 24 16 26
REMARK SMILES IDX 15 27 14 28 38 29 12 30 39 31 11 32 40 33 9 34 7 35 10 36
REMARK SMILES IDX 8 37 13 38 6 40 41 41 5 42 42 43 4 44 3 45 43 46 2 48 1 49
REMARK SMILES IDX 37 50
REMARK H PARENT 27 17 29 19 31 21 33 23 35 25 13 39 43 47 37 51
REMARK Flexibility Score: inf
ROOT
ATOM      1  C   UNL     1     484.825  39.320 459.032  1.00  0.00     0.180 C 
ATOM      2  C   UNL     1     484.583  40.764 458.512  1.00  0.00     0.177 C 
ATOM      3  C   UNL     1     484.200  41.742 459.655  1.00  0.00     0.180 C 
ATOM      4  C   UNL     1     484.857  41.372 461.005  1.00  0.00     0.214 C 
ATOM      5  C   UNL     1     484.811  39.840 461.293  1.00  0.00     0.339 C 
ATOM      6  O   UNL     1     484.168  39.107 460.264  1.00  0.00    -0.332 OA
ENDROOT
BRANCH   1   7
ATOM      7  C   UNL     1     484.322  38.276 458.026  1.00  0.00     0.198 C 
BRANCH   7   8
ATOM      8  O   UNL     1     483.036  38.628 457.554  1.00  0.00    -0.347 OA
BRANCH   8   9
ATOM      9  C   UNL     1     482.773  38.048 456.288  1.00  0.00     0.281 C 
ATOM     10  C   UNL     1     480.477  37.435 458.345  1.00  0.00     0.041 C 
ATOM     11  C   UNL     1     480.582  37.253 456.820  1.00  0.00     0.150 C 
ATOM     12  C   UNL     1     479.900  38.357 455.964  1.00  0.00     0.174 C 
ATOM     13  O   UNL     1     481.903  36.927 456.400  1.00  0.00    -0.344 OA
ATOM     14  C   UNL     1     480.811  39.560 455.642  1.00  0.00     0.179 C 
ATOM     15  C   UNL     1     482.238  39.097 455.298  1.00  0.00     0.202 C 
BRANCH  12  16
ATOM     16  O   UNL     1     478.707  38.786 456.573  1.00  0.00    -0.388 OA
ATOM     17  H   UNL     1     478.678  39.777 456.489  1.00  0.00     0.211 HD
ENDBRANCH  12  16
BRANCH  14  18
ATOM     18  O   UNL     1     480.787  40.553 456.640  1.00  0.00    -0.387 OA
ATOM     19  H   UNL     1     480.423  41.384 456.253  1.00  0.00     0.211 HD
ENDBRANCH  14  18
BRANCH  15  20
ATOM     20  O   UNL     1     483.118  40.192 455.244  1.00  0.00    -0.385 OA
ATOM     21  H   UNL     1     482.972  40.716 456.074  1.00  0.00     0.211 HD
ENDBRANCH  15  20
ENDBRANCH   8   9
ENDBRANCH   7   8
ENDBRANCH   1   7
BRANCH   2  22
ATOM     22  O   UNL     1     485.751  41.214 457.874  1.00  0.00    -0.387 OA
ATOM     23  H   UNL     1     486.368  41.531 458.586  1.00  0.00     0.211 HD
ENDBRANCH   2  22
BRANCH   3  24
ATOM     24  O   UNL     1     482.804  41.841 459.795  1.00  0.00    -0.387 OA
ATOM     25  H   UNL     1     482.464  42.449 459.089  1.00  0.00     0.211 HD
ENDBRANCH   3  24
BRANCH   5  26
ATOM     26  O   UNL     1     484.174  39.584 462.553  1.00  0.00    -0.462 OA
BRANCH  26  27
ATOM     27  C   UNL     1     482.808  39.749 462.824  1.00  0.00     0.130 A 
ATOM     28  C   UNL     1     482.426  40.182 464.099  1.00  0.00     0.093 A 
ATOM     29  C   UNL     1     481.819  39.473 461.870  1.00  0.00     0.094 A 
ATOM     30  C   UNL     1     481.075  40.395 464.410  1.00  0.00     0.133 A 
ATOM     31  C   UNL     1     480.470  39.684 462.167  1.00  0.00     0.138 A 
ATOM     32  C   UNL     1     480.086  40.158 463.433  1.00  0.00     0.102 A 
ATOM     33  O   UNL     1     479.514  39.424 461.179  1.00  0.00    -0.484 OA
ATOM     34  C   UNL     1     478.648  40.402 463.676  1.00  0.00     0.174 C 
ATOM     35  C   UNL     1     478.107  39.398 461.418  1.00  0.00     0.211 C 
ATOM     36  O   UNL     1     478.220  40.660 464.833  1.00  0.00    -0.294 OA
ATOM     37  C   UNL     1     477.683  40.387 462.527  1.00  0.00     0.131 C 
BRANCH  30  38
ATOM     38  O   UNL     1     480.726  40.858 465.678  1.00  0.00    -0.507 OA
ATOM     39  H   UNL     1     479.820  41.273 465.861  1.00  0.00     0.293 HD
ENDBRANCH  30  38
BRANCH  35  40
ATOM     40  C   UNL     1     477.653  37.970 461.670  1.00  0.00    -0.003 A 
ATOM     41  C   UNL     1     478.408  36.902 461.148  1.00  0.00     0.057 A 
ATOM     42  C   UNL     1     476.536  37.678 462.476  1.00  0.00     0.011 A 
ATOM     43  C   UNL     1     478.050  35.575 461.408  1.00  0.00     0.158 A 
ATOM     44  C   UNL     1     476.166  36.354 462.728  1.00  0.00     0.051 A 
ATOM     45  C   UNL     1     476.924  35.289 462.201  1.00  0.00     0.160 A 
BRANCH  43  46
ATOM     46  O   UNL     1     478.833  34.552 460.870  1.00  0.00    -0.504 OA
ATOM     47  H   UNL     1     478.962  34.446 459.870  1.00  0.00     0.293 HD
ENDBRANCH  43  46
BRANCH  45  48
ATOM     48  O   UNL     1     476.590  33.947 462.449  1.00  0.00    -0.493 OA
ATOM     49  C   UNL     1     475.500  33.521 463.259  1.00  0.00     0.278 C 
ENDBRANCH  45  48
ENDBRANCH  35  40
ENDBRANCH  26  27
ENDBRANCH   5  26
BRANCH   4  50
ATOM     50  O   UNL     1     486.194  41.810 460.989  1.00  0.00    -0.384 OA
ATOM     51  H   UNL     1     486.221  42.632 460.425  1.00  0.00     0.211 HD
ENDBRANCH   4  50
TORSDOF 15
ENDMDL
MODEL 6
REMARK VINA RESULT:    -6.209      3.062      5.894
REMARK INTER + INTRA:         -12.837
REMARK INTER:                 -10.201
REMARK INTRA:                  -2.636
REMARK UNBOUND:                -2.636
REMARK SMILES COc1ccc([C@H]2CC(=O)c3c(O)cc(O[C@H]4O[C@@H](CO[C@H]5O[C@@H](C)[C@@H](O)[C@@H](O)[C@H]5O)[C@H](O)[C@@H](O)[C@@H]4O)cc3O2)cc1O
REMARK SMILES IDX 19 1 32 2 34 3 36 4 17 5 18 6 20 7 21 8 22 9 25 10 24 11
REMARK SMILES IDX 26 12 23 13 28 14 30 15 27 16 29 18 31 20 33 22 35 24 16 26
REMARK SMILES IDX 15 27 14 28 38 29 12 30 39 31 11 32 40 33 9 34 7 35 10 36
REMARK SMILES IDX 8 37 13 38 6 40 41 41 5 42 42 43 4 44 3 45 43 46 2 48 1 49
REMARK SMILES IDX 37 50
REMARK H PARENT 27 17 29 19 31 21 33 23 35 25 13 39 43 47 37 51
REMARK Flexibility Score: inf
ROOT
ATOM      1  C   UNL     1     485.312  41.059 460.542  1.00  0.00     0.180 C 
ATOM      2  C   UNL     1     485.513  42.509 461.062  1.00  0.00     0.177 C 
ATOM      3  C   UNL     1     485.112  42.658 462.554  1.00  0.00     0.180 C 
ATOM      4  C   UNL     1     485.358  41.368 463.371  1.00  0.00     0.214 C 
ATOM      5  C   UNL     1     484.913  40.083 462.608  1.00  0.00     0.339 C 
ATOM      6  O   UNL     1     484.369  40.363 461.330  1.00  0.00    -0.332 OA
ENDROOT
BRANCH   1   7
ATOM      7  C   UNL     1     484.826  41.053 459.086  1.00  0.00     0.198 C 
BRANCH   7   8
ATOM      8  O   UNL     1     483.654  40.272 458.963  1.00  0.00    -0.347 OA
BRANCH   8   9
ATOM      9  C   UNL     1     482.840  40.724 457.894  1.00  0.00     0.281 C 
ATOM     10  C   UNL     1     484.294  38.029 457.184  1.00  0.00     0.041 C 
ATOM     11  C   UNL     1     483.153  38.806 456.502  1.00  0.00     0.150 C 
ATOM     12  C   UNL     1     481.718  38.280 456.790  1.00  0.00     0.174 C 
ATOM     13  O   UNL     1     483.292  40.215 456.644  1.00  0.00    -0.344 OA
ATOM     14  C   UNL     1     481.060  38.890 458.045  1.00  0.00     0.179 C 
ATOM     15  C   UNL     1     481.358  40.396 458.148  1.00  0.00     0.202 C 
BRANCH  12  16
ATOM     16  O   UNL     1     481.713  36.874 456.859  1.00  0.00    -0.388 OA
ATOM     17  H   UNL     1     482.309  36.546 456.133  1.00  0.00     0.211 HD
ENDBRANCH  12  16
BRANCH  14  18
ATOM     18  O   UNL     1     481.373  38.191 459.226  1.00  0.00    -0.387 OA
ATOM     19  H   UNL     1     480.548  38.075 459.755  1.00  0.00     0.211 HD
ENDBRANCH  14  18
BRANCH  15  20
ATOM     20  O   UNL     1     480.970  40.897 459.404  1.00  0.00    -0.385 OA
ATOM     21  H   UNL     1     479.978  40.869 459.426  1.00  0.00     0.211 HD
ENDBRANCH  15  20
ENDBRANCH   8   9
ENDBRANCH   7   8
ENDBRANCH   1   7
BRANCH   2  22
ATOM     22  O   UNL     1     486.864  42.863 460.896  1.00  0.00    -0.387 OA
ATOM     23  H   UNL     1     487.359  42.491 461.673  1.00  0.00     0.211 HD
ENDBRANCH   2  22
BRANCH   3  24
ATOM     24  O   UNL     1     483.777  43.079 462.683  1.00  0.00    -0.387 OA
ATOM     25  H   UNL     1     483.611  43.298 463.636  1.00  0.00     0.211 HD
ENDBRANCH   3  24
BRANCH   5  26
ATOM     26  O   UNL     1     483.974  39.332 463.392  1.00  0.00    -0.462 OA
BRANCH  26  27
ATOM     27  C   UNL     1     482.588  39.541 463.422  1.00  0.00     0.130 A 
ATOM     28  C   UNL     1     482.024  40.129 464.560  1.00  0.00     0.093 A 
ATOM     29  C   UNL     1     481.752  39.161 462.364  1.00  0.00     0.094 A 
ATOM     30  C   UNL     1     480.648  40.391 464.627  1.00  0.00     0.133 A 
ATOM     31  C   UNL     1     480.380  39.419 462.417  1.00  0.00     0.138 A 
ATOM     32  C   UNL     1     479.817  40.046 463.540  1.00  0.00     0.102 A 
ATOM     33  O   UNL     1     479.583  39.051 461.328  1.00  0.00    -0.484 OA
ATOM     34  C   UNL     1     478.366  40.332 463.523  1.00  0.00     0.174 C 
ATOM     35  C   UNL     1     478.155  39.066 461.342  1.00  0.00     0.211 C 
ATOM     36  O   UNL     1     477.770  40.731 464.559  1.00  0.00    -0.294 OA
ATOM     37  C   UNL     1     477.591  40.186 462.246  1.00  0.00     0.131 C 
BRANCH  30  38
ATOM     38  O   UNL     1     480.119  41.007 465.760  1.00  0.00    -0.507 OA
ATOM     39  H   UNL     1     480.680  41.613 466.347  1.00  0.00     0.293 HD
ENDBRANCH  30  38
BRANCH  35  40
ATOM     40  C   UNL     1     477.627  37.683 461.687  1.00  0.00    -0.003 A 
ATOM     41  C   UNL     1     478.364  36.547 461.302  1.00  0.00     0.057 A 
ATOM     42  C   UNL     1     476.455  37.505 462.446  1.00  0.00     0.011 A 
ATOM     43  C   UNL     1     477.936  35.262 461.652  1.00  0.00     0.158 A 
ATOM     44  C   UNL     1     476.016  36.223 462.787  1.00  0.00     0.051 A 
ATOM     45  C   UNL     1     476.756  35.088 462.397  1.00  0.00     0.160 A 
BRANCH  43  46
ATOM     46  O   UNL     1     478.703  34.167 461.250  1.00  0.00    -0.504 OA
ATOM     47  H   UNL     1     478.474  33.221 461.533  1.00  0.00     0.293 HD
ENDBRANCH  43  46
BRANCH  45  48
ATOM     48  O   UNL     1     476.352  33.786 462.737  1.00  0.00    -0.493 OA
ATOM     49  C   UNL     1     475.242  33.476 463.574  1.00  0.00     0.278 C 
ENDBRANCH  45  48
ENDBRANCH  35  40
ENDBRANCH  26  27
ENDBRANCH   5  26
BRANCH   4  50
ATOM     50  O   UNL     1     486.728  41.286 463.680  1.00  0.00    -0.384 OA
ATOM     51  H   UNL     1     486.913  41.991 464.360  1.00  0.00     0.211 HD
ENDBRANCH   4  50
TORSDOF 15
ENDMDL
MODEL 7
REMARK VINA RESULT:    -6.096      2.409      5.000
REMARK INTER + INTRA:         -12.651
REMARK INTER:                  -9.078
REMARK INTRA:                  -3.573
REMARK UNBOUND:                -2.636
REMARK SMILES COc1ccc([C@H]2CC(=O)c3c(O)cc(O[C@H]4O[C@@H](CO[C@H]5O[C@@H](C)[C@@H](O)[C@@H](O)[C@H]5O)[C@H](O)[C@@H](O)[C@@H]4O)cc3O2)cc1O
REMARK SMILES IDX 19 1 32 2 34 3 36 4 17 5 18 6 20 7 21 8 22 9 25 10 24 11
REMARK SMILES IDX 26 12 23 13 28 14 30 15 27 16 29 18 31 20 33 22 35 24 16 26
REMARK SMILES IDX 15 27 14 28 38 29 12 30 39 31 11 32 40 33 9 34 7 35 10 36
REMARK SMILES IDX 8 37 13 38 6 40 41 41 5 42 42 43 4 44 3 45 43 46 2 48 1 49
REMARK SMILES IDX 37 50
REMARK H PARENT 27 17 29 19 31 21 33 23 35 25 13 39 43 47 37 51
REMARK Flexibility Score: inf
ROOT
ATOM      1  C   UNL     1     484.117  40.708 458.151  1.00  0.00     0.180 C 
ATOM      2  C   UNL     1     484.845  39.483 458.768  1.00  0.00     0.177 C 
ATOM      3  C   UNL     1     484.164  38.142 458.386  1.00  0.00     0.180 C 
ATOM      4  C   UNL     1     483.502  38.183 456.989  1.00  0.00     0.214 C 
ATOM      5  C   UNL     1     482.723  39.510 456.735  1.00  0.00     0.339 C 
ATOM      6  O   UNL     1     482.774  40.397 457.840  1.00  0.00    -0.332 OA
ENDROOT
BRANCH   1   7
ATOM      7  C   UNL     1     484.127  41.903 459.113  1.00  0.00     0.198 C 
BRANCH   7   8
ATOM      8  O   UNL     1     484.064  41.456 460.454  1.00  0.00    -0.347 OA
BRANCH   8   9
ATOM      9  C   UNL     1     484.942  42.193 461.288  1.00  0.00     0.281 C 
ATOM     10  C   UNL     1     482.014  42.152 462.433  1.00  0.00     0.041 C 
ATOM     11  C   UNL     1     483.361  42.591 463.037  1.00  0.00     0.150 C 
ATOM     12  C   UNL     1     484.042  41.557 463.979  1.00  0.00     0.174 C 
ATOM     13  O   UNL     1     484.236  43.154 462.065  1.00  0.00    -0.344 OA
ATOM     14  C   UNL     1     484.965  40.555 463.256  1.00  0.00     0.179 C 
ATOM     15  C   UNL     1     485.792  41.255 462.163  1.00  0.00     0.202 C 
BRANCH  12  16
ATOM     16  O   UNL     1     483.076  40.880 464.746  1.00  0.00    -0.388 OA
ATOM     17  H   UNL     1     483.479  40.012 465.019  1.00  0.00     0.211 HD
ENDBRANCH  12  16
BRANCH  14  18
ATOM     18  O   UNL     1     484.282  39.420 462.779  1.00  0.00    -0.387 OA
ATOM     19  H   UNL     1     484.408  38.681 463.420  1.00  0.00     0.211 HD
ENDBRANCH  14  18
BRANCH  15  20
ATOM     20  O   UNL     1     486.445  40.311 461.350  1.00  0.00    -0.385 OA
ATOM     21  H   UNL     1     486.295  39.423 461.769  1.00  0.00     0.211 HD
ENDBRANCH  15  20
ENDBRANCH   8   9
ENDBRANCH   7   8
ENDBRANCH   1   7
BRANCH   2  22
ATOM     22  O   UNL     1     486.179  39.481 458.323  1.00  0.00    -0.387 OA
ATOM     23  H   UNL     1     486.725  39.901 459.039  1.00  0.00     0.211 HD
ENDBRANCH   2  22
BRANCH   3  24
ATOM     24  O   UNL     1     483.233  37.747 459.363  1.00  0.00    -0.387 OA
ATOM     25  H   UNL     1     482.831  38.563 459.758  1.00  0.00     0.211 HD
ENDBRANCH   3  24
BRANCH   5  26
ATOM     26  O   UNL     1     481.359  39.233 456.387  1.00  0.00    -0.462 OA
BRANCH  26  27
ATOM     27  C   UNL     1     480.251  39.406 457.231  1.00  0.00     0.130 A 
ATOM     28  C   UNL     1     479.381  40.473 456.982  1.00  0.00     0.093 A 
ATOM     29  C   UNL     1     480.005  38.562 458.322  1.00  0.00     0.094 A 
ATOM     30  C   UNL     1     478.240  40.669 457.775  1.00  0.00     0.133 A 
ATOM     31  C   UNL     1     478.871  38.745 459.118  1.00  0.00     0.138 A 
ATOM     32  C   UNL     1     477.973  39.790 458.845  1.00  0.00     0.102 A 
ATOM     33  O   UNL     1     478.645  37.864 460.180  1.00  0.00    -0.484 OA
ATOM     34  C   UNL     1     476.769  39.910 459.696  1.00  0.00     0.174 C 
ATOM     35  C   UNL     1     477.650  38.065 461.185  1.00  0.00     0.211 C 
ATOM     36  O   UNL     1     476.017  40.918 459.618  1.00  0.00    -0.294 OA
ATOM     37  C   UNL     1     476.406  38.800 460.638  1.00  0.00     0.131 C 
BRANCH  30  38
ATOM     38  O   UNL     1     477.372  41.720 457.484  1.00  0.00    -0.507 OA
ATOM     39  H   UNL     1     476.933  42.264 458.216  1.00  0.00     0.293 HD
ENDBRANCH  30  38
BRANCH  35  40
ATOM     40  C   UNL     1     478.270  38.739 462.398  1.00  0.00    -0.003 A 
ATOM     41  C   UNL     1     479.599  38.436 462.753  1.00  0.00     0.057 A 
ATOM     42  C   UNL     1     477.578  39.715 463.138  1.00  0.00     0.011 A 
ATOM     43  C   UNL     1     480.219  39.079 463.829  1.00  0.00     0.158 A 
ATOM     44  C   UNL     1     478.188  40.351 464.223  1.00  0.00     0.051 A 
ATOM     45  C   UNL     1     479.517  40.043 464.576  1.00  0.00     0.160 A 
BRANCH  43  46
ATOM     46  O   UNL     1     481.539  38.747 464.140  1.00  0.00    -0.504 OA
ATOM     47  H   UNL     1     481.989  37.926 463.751  1.00  0.00     0.293 HD
ENDBRANCH  43  46
BRANCH  45  48
ATOM     48  O   UNL     1     480.166  40.676 465.649  1.00  0.00    -0.493 OA
ATOM     49  C   UNL     1     480.035  42.056 465.974  1.00  0.00     0.278 C 
ENDBRANCH  45  48
ENDBRANCH  35  40
ENDBRANCH  26  27
ENDBRANCH   5  26
BRANCH   4  50
ATOM     50  O   UNL     1     484.503  38.028 456.013  1.00  0.00    -0.384 OA
ATOM     51  H   UNL     1     485.324  37.719 456.488  1.00  0.00     0.211 HD
ENDBRANCH   4  50
TORSDOF 15
ENDMDL
MODEL 8
REMARK VINA RESULT:    -5.727      3.172      5.536
REMARK INTER + INTRA:         -12.046
REMARK INTER:                  -9.351
REMARK INTRA:                  -2.694
REMARK UNBOUND:                -2.636
REMARK SMILES COc1ccc([C@H]2CC(=O)c3c(O)cc(O[C@H]4O[C@@H](CO[C@H]5O[C@@H](C)[C@@H](O)[C@@H](O)[C@H]5O)[C@H](O)[C@@H](O)[C@@H]4O)cc3O2)cc1O
REMARK SMILES IDX 19 1 32 2 34 3 36 4 17 5 18 6 20 7 21 8 22 9 25 10 24 11
REMARK SMILES IDX 26 12 23 13 28 14 30 15 27 16 29 18 31 20 33 22 35 24 16 26
REMARK SMILES IDX 15 27 14 28 38 29 12 30 39 31 11 32 40 33 9 34 7 35 10 36
REMARK SMILES IDX 8 37 13 38 6 40 41 41 5 42 42 43 4 44 3 45 43 46 2 48 1 49
REMARK SMILES IDX 37 50
REMARK H PARENT 27 17 29 19 31 21 33 23 35 25 13 39 43 47 37 51
REMARK Flexibility Score: inf
ROOT
ATOM      1  C   UNL     1     484.936  42.095 463.664  1.00  0.00     0.180 C 
ATOM      2  C   UNL     1     486.400  42.572 463.870  1.00  0.00     0.177 C 
ATOM      3  C   UNL     1     487.207  42.580 462.544  1.00  0.00     0.180 C 
ATOM      4  C   UNL     1     486.327  42.889 461.311  1.00  0.00     0.214 C 
ATOM      5  C   UNL     1     484.963  42.133 461.344  1.00  0.00     0.339 C 
ATOM      6  O   UNL     1     484.816  41.315 462.492  1.00  0.00    -0.332 OA
ENDROOT
BRANCH   1   7
ATOM      7  C   UNL     1     484.451  41.258 464.855  1.00  0.00     0.198 C 
BRANCH   7   8
ATOM      8  O   UNL     1     483.091  40.904 464.685  1.00  0.00    -0.347 OA
BRANCH   8   9
ATOM      9  C   UNL     1     482.865  39.545 465.020  1.00  0.00     0.281 C 
ATOM     10  C   UNL     1     480.292  41.295 465.470  1.00  0.00     0.041 C 
ATOM     11  C   UNL     1     480.525  39.772 465.450  1.00  0.00     0.150 C 
ATOM     12  C   UNL     1     480.142  39.053 464.125  1.00  0.00     0.174 C 
ATOM     13  O   UNL     1     481.804  39.410 465.958  1.00  0.00    -0.344 OA
ATOM     14  C   UNL     1     481.280  38.998 463.085  1.00  0.00     0.179 C 
ATOM     15  C   UNL     1     482.631  38.696 463.758  1.00  0.00     0.202 C 
BRANCH  12  16
ATOM     16  O   UNL     1     478.986  39.629 463.568  1.00  0.00    -0.388 OA
ATOM     17  H   UNL     1     479.160  39.748 462.596  1.00  0.00     0.211 HD
ENDBRANCH  12  16
BRANCH  14  18
ATOM     18  O   UNL     1     481.326  40.137 462.258  1.00  0.00    -0.387 OA
ATOM     19  H   UNL     1     482.138  40.091 461.699  1.00  0.00     0.211 HD
ENDBRANCH  14  18
BRANCH  15  20
ATOM     20  O   UNL     1     483.692  38.886 462.854  1.00  0.00    -0.385 OA
ATOM     21  H   UNL     1     483.717  39.856 462.646  1.00  0.00     0.211 HD
ENDBRANCH  15  20
ENDBRANCH   8   9
ENDBRANCH   7   8
ENDBRANCH   1   7
BRANCH   2  22
ATOM     22  O   UNL     1     486.378  43.866 464.420  1.00  0.00    -0.387 OA
ATOM     23  H   UNL     1     486.029  43.782 465.347  1.00  0.00     0.211 HD
ENDBRANCH   2  22
BRANCH   3  24
ATOM     24  O   UNL     1     487.905  41.373 462.366  1.00  0.00    -0.387 OA
ATOM     25  H   UNL     1     488.874  41.557 462.463  1.00  0.00     0.211 HD
ENDBRANCH   3  24
BRANCH   5  26
ATOM     26  O   UNL     1     484.792  41.351 460.154  1.00  0.00    -0.462 OA
BRANCH  26  27
ATOM     27  C   UNL     1     483.562  41.004 459.576  1.00  0.00     0.130 A 
ATOM     28  C   UNL     1     482.624  42.016 459.342  1.00  0.00     0.093 A 
ATOM     29  C   UNL     1     483.236  39.680 459.251  1.00  0.00     0.094 A 
ATOM     30  C   UNL     1     481.393  41.728 458.735  1.00  0.00     0.133 A 
ATOM     31  C   UNL     1     482.014  39.381 458.644  1.00  0.00     0.138 A 
ATOM     32  C   UNL     1     481.087  40.400 458.369  1.00  0.00     0.102 A 
ATOM     33  O   UNL     1     481.737  38.051 458.308  1.00  0.00    -0.484 OA
ATOM     34  C   UNL     1     479.828  40.029 457.688  1.00  0.00     0.174 C 
ATOM     35  C   UNL     1     480.456  37.586 457.881  1.00  0.00     0.211 C 
ATOM     36  O   UNL     1     478.886  40.858 457.568  1.00  0.00    -0.294 OA
ATOM     37  C   UNL     1     479.677  38.661 457.090  1.00  0.00     0.131 C 
BRANCH  30  38
ATOM     38  O   UNL     1     480.491  42.760 458.483  1.00  0.00    -0.507 OA
ATOM     39  H   UNL     1     480.799  43.717 458.360  1.00  0.00     0.293 HD
ENDBRANCH  30  38
BRANCH  35  40
ATOM     40  C   UNL     1     479.688  37.028 459.068  1.00  0.00    -0.003 A 
ATOM     41  C   UNL     1     478.944  37.903 459.883  1.00  0.00     0.057 A 
ATOM     42  C   UNL     1     479.639  35.647 459.336  1.00  0.00     0.011 A 
ATOM     43  C   UNL     1     478.182  37.416 460.949  1.00  0.00     0.158 A 
ATOM     44  C   UNL     1     478.889  35.157 460.409  1.00  0.00     0.051 A 
ATOM     45  C   UNL     1     478.148  36.037 461.223  1.00  0.00     0.160 A 
BRANCH  43  46
ATOM     46  O   UNL     1     477.459  38.323 461.726  1.00  0.00    -0.504 OA
ATOM     47  H   UNL     1     476.537  38.103 462.087  1.00  0.00     0.293 HD
ENDBRANCH  43  46
BRANCH  45  48
ATOM     48  O   UNL     1     477.371  35.576 462.298  1.00  0.00    -0.493 OA
ATOM     49  C   UNL     1     477.038  34.211 462.529  1.00  0.00     0.278 C 
ENDBRANCH  45  48
ENDBRANCH  35  40
ENDBRANCH  26  27
ENDBRANCH   5  26
BRANCH   4  50
ATOM     50  O   UNL     1     486.100  44.276 461.257  1.00  0.00    -0.384 OA
ATOM     51  H   UNL     1     486.172  44.617 462.190  1.00  0.00     0.211 HD
ENDBRANCH   4  50
TORSDOF 15
ENDMDL
MODEL 9
REMARK VINA RESULT:    -5.689      3.386      7.171
REMARK INTER + INTRA:         -11.983
REMARK INTER:                  -8.892
REMARK INTRA:                  -3.092
REMARK UNBOUND:                -2.636
REMARK SMILES COc1ccc([C@H]2CC(=O)c3c(O)cc(O[C@H]4O[C@@H](CO[C@H]5O[C@@H](C)[C@@H](O)[C@@H](O)[C@H]5O)[C@H](O)[C@@H](O)[C@@H]4O)cc3O2)cc1O
REMARK SMILES IDX 19 1 32 2 34 3 36 4 17 5 18 6 20 7 21 8 22 9 25 10 24 11
REMARK SMILES IDX 26 12 23 13 28 14 30 15 27 16 29 18 31 20 33 22 35 24 16 26
REMARK SMILES IDX 15 27 14 28 38 29 12 30 39 31 11 32 40 33 9 34 7 35 10 36
REMARK SMILES IDX 8 37 13 38 6 40 41 41 5 42 42 43 4 44 3 45 43 46 2 48 1 49
REMARK SMILES IDX 37 50
REMARK H PARENT 27 17 29 19 31 21 33 23 35 25 13 39 43 47 37 51
REMARK Flexibility Score: inf
ROOT
ATOM      1  C   UNL     1     481.892  40.113 456.720  1.00  0.00     0.180 C 
ATOM      2  C   UNL     1     482.068  39.095 455.560  1.00  0.00     0.177 C 
ATOM      3  C   UNL     1     481.401  37.729 455.871  1.00  0.00     0.180 C 
ATOM      4  C   UNL     1     480.145  37.866 456.762  1.00  0.00     0.214 C 
ATOM      5  C   UNL     1     480.348  38.876 457.933  1.00  0.00     0.339 C 
ATOM      6  O   UNL     1     481.644  39.451 457.943  1.00  0.00    -0.332 OA
ENDROOT
BRANCH   1   7
ATOM      7  C   UNL     1     483.141  40.988 456.886  1.00  0.00     0.198 C 
BRANCH   7   8
ATOM      8  O   UNL     1     483.613  40.922 458.218  1.00  0.00    -0.347 OA
BRANCH   8   9
ATOM      9  C   UNL     1     485.008  40.676 458.261  1.00  0.00     0.281 C 
ATOM     10  C   UNL     1     483.907  41.599 461.057  1.00  0.00     0.041 C 
ATOM     11  C   UNL     1     485.255  40.996 460.617  1.00  0.00     0.150 C 
ATOM     12  C   UNL     1     485.423  39.471 460.875  1.00  0.00     0.174 C 
ATOM     13  O   UNL     1     485.634  41.407 459.308  1.00  0.00    -0.344 OA
ATOM     14  C   UNL     1     484.919  38.576 459.723  1.00  0.00     0.179 C 
ATOM     15  C   UNL     1     485.302  39.168 458.355  1.00  0.00     0.202 C 
BRANCH  12  16
ATOM     16  O   UNL     1     484.815  39.107 462.090  1.00  0.00    -0.388 OA
ATOM     17  H   UNL     1     484.534  38.157 462.001  1.00  0.00     0.211 HD
ENDBRANCH  12  16
BRANCH  14  18
ATOM     18  O   UNL     1     483.548  38.272 459.821  1.00  0.00    -0.387 OA
ATOM     19  H   UNL     1     483.070  39.064 460.164  1.00  0.00     0.211 HD
ENDBRANCH  14  18
BRANCH  15  20
ATOM     20  O   UNL     1     484.640  38.490 457.316  1.00  0.00    -0.385 OA
ATOM     21  H   UNL     1     484.230  39.185 456.738  1.00  0.00     0.211 HD
ENDBRANCH  15  20
ENDBRANCH   8   9
ENDBRANCH   7   8
ENDBRANCH   1   7
BRANCH   2  22
ATOM     22  O   UNL     1     481.507  39.642 454.392  1.00  0.00    -0.387 OA
ATOM     23  H   UNL     1     480.531  39.463 454.428  1.00  0.00     0.211 HD
ENDBRANCH   2  22
BRANCH   3  24
ATOM     24  O   UNL     1     482.320  36.832 456.445  1.00  0.00    -0.387 OA
ATOM     25  H   UNL     1     482.317  35.998 455.909  1.00  0.00     0.211 HD
ENDBRANCH   3  24
BRANCH   5  26
ATOM     26  O   UNL     1     480.077  38.246 459.193  1.00  0.00    -0.462 OA
BRANCH  26  27
ATOM     27  C   UNL     1     479.769  38.914 460.388  1.00  0.00     0.130 A 
ATOM     28  C   UNL     1     478.809  39.932 460.357  1.00  0.00     0.093 A 
ATOM     29  C   UNL     1     480.406  38.611 461.599  1.00  0.00     0.094 A 
ATOM     30  C   UNL     1     478.440  40.607 461.529  1.00  0.00     0.133 A 
ATOM     31  C   UNL     1     480.045  39.274 462.774  1.00  0.00     0.138 A 
ATOM     32  C   UNL     1     479.053  40.268 462.754  1.00  0.00     0.102 A 
ATOM     33  O   UNL     1     480.683  38.923 463.968  1.00  0.00    -0.484 OA
ATOM     34  C   UNL     1     478.683  40.907 464.036  1.00  0.00     0.174 C 
ATOM     35  C   UNL     1     480.560  39.659 465.186  1.00  0.00     0.211 C 
ATOM     36  O   UNL     1     477.931  41.918 464.064  1.00  0.00    -0.294 OA
ATOM     37  C   UNL     1     479.172  40.324 465.329  1.00  0.00     0.131 C 
BRANCH  30  38
ATOM     38  O   UNL     1     477.458  41.595 461.475  1.00  0.00    -0.507 OA
ATOM     39  H   UNL     1     476.482  41.366 461.326  1.00  0.00     0.293 HD
ENDBRANCH  30  38
BRANCH  35  40
ATOM     40  C   UNL     1     481.718  40.634 465.318  1.00  0.00    -0.003 A 
ATOM     41  C   UNL     1     482.983  40.279 464.812  1.00  0.00     0.057 A 
ATOM     42  C   UNL     1     481.547  41.918 465.870  1.00  0.00     0.011 A 
ATOM     43  C   UNL     1     484.056  41.174 464.867  1.00  0.00     0.158 A 
ATOM     44  C   UNL     1     482.620  42.812 465.940  1.00  0.00     0.051 A 
ATOM     45  C   UNL     1     483.884  42.450 465.433  1.00  0.00     0.160 A 
BRANCH  43  46
ATOM     46  O   UNL     1     485.289  40.776 464.348  1.00  0.00    -0.504 OA
ATOM     47  H   UNL     1     486.059  41.427 464.237  1.00  0.00     0.293 HD
ENDBRANCH  43  46
BRANCH  45  48
ATOM     48  O   UNL     1     484.978  43.330 465.472  1.00  0.00    -0.493 OA
ATOM     49  C   UNL     1     485.136  44.463 464.625  1.00  0.00     0.278 C 
ENDBRANCH  45  48
ENDBRANCH  35  40
ENDBRANCH  26  27
ENDBRANCH   5  26
BRANCH   4  50
ATOM     50  O   UNL     1     479.068  38.282 455.959  1.00  0.00    -0.384 OA
ATOM     51  H   UNL     1     478.771  39.167 456.309  1.00  0.00     0.211 HD
ENDBRANCH   4  50
TORSDOF 15
ENDMDL
