MODEL 1
REMARK VINA RESULT:    -5.362      0.000      0.000
REMARK INTER + INTRA:          -8.324
REMARK INTER:                  -6.616
REMARK INTRA:                  -1.708
REMARK UNBOUND:                -1.708
REMARK SMILES C=C(CCC=C(C)C)[C@@H]1CC=C(C)CC1
REMARK SMILES IDX 3 1 2 2 1 3 9 4 13 5 12 6 11 7 14 8 10 9 15 10 4 11 5 12
REMARK SMILES IDX 6 13 7 14 8 15
REMARK H PARENT
REMARK Flexibility Score: inf
ROOT
ATOM      1  C   UNL     1     101.262 107.097 128.822  1.00  0.00     0.035 C 
ENDROOT
BRANCH   1   2
ATOM      2  C   UNL     1     100.906 105.772 128.159  1.00  0.00    -0.074 C 
ATOM      3  C   UNL     1     100.414 104.803 128.953  1.00  0.00     0.008 C 
BRANCH   2   4
ATOM      4  C   UNL     1     101.083 105.498 126.663  1.00  0.00     0.018 C 
ATOM      5  C   UNL     1     104.249 107.648 124.516  1.00  0.00     0.039 C 
ATOM      6  C   UNL     1     103.190 106.696 124.999  1.00  0.00    -0.077 C 
ATOM      7  C   UNL     1     103.503 105.727 125.875  1.00  0.00    -0.027 C 
ATOM      8  C   UNL     1     101.747 106.857 124.586  1.00  0.00     0.031 C 
ATOM      9  C   UNL     1     102.437 104.782 126.368  1.00  0.00     0.035 C 
ATOM     10  C   UNL     1     100.860 106.799 125.835  1.00  0.00     0.013 C 
ENDBRANCH   2   4
ENDBRANCH   1   2
BRANCH   1  11
ATOM     11  C   UNL     1     102.725 107.252 129.265  1.00  0.00     0.032 C 
BRANCH  11  12
ATOM     12  C   UNL     1     103.398 108.363 128.498  1.00  0.00    -0.028 C 
ATOM     13  C   UNL     1     104.718 108.396 128.202  1.00  0.00    -0.080 C 
ATOM     14  C   UNL     1     105.291 109.573 127.457  1.00  0.00     0.039 C 
ATOM     15  C   UNL     1     105.648 107.263 128.562  1.00  0.00     0.039 C 
ENDBRANCH  11  12
ENDBRANCH   1  11
TORSDOF 4
ENDMDL
MODEL 2
REMARK VINA RESULT:    -5.337      4.455      5.821
REMARK INTER + INTRA:          -8.293
REMARK INTER:                  -6.577
REMARK INTRA:                  -1.716
REMARK UNBOUND:                -1.708
REMARK SMILES C=C(CCC=C(C)C)[C@@H]1CC=C(C)CC1
REMARK SMILES IDX 3 1 2 2 1 3 9 4 13 5 12 6 11 7 14 8 10 9 15 10 4 11 5 12
REMARK SMILES IDX 6 13 7 14 8 15
REMARK H PARENT
REMARK Flexibility Score: inf
ROOT
ATOM      1  C   UNL     1     105.395 101.283 128.880  1.00  0.00     0.035 C 
ENDROOT
BRANCH   1   2
ATOM      2  C   UNL     1     106.712 100.920 128.206  1.00  0.00    -0.074 C 
ATOM      3  C   UNL     1     107.691 100.436 128.994  1.00  0.00     0.008 C 
BRANCH   2   4
ATOM      4  C   UNL     1     106.969 101.079 126.705  1.00  0.00     0.018 C 
ATOM      5  C   UNL     1     104.883 104.296 124.570  1.00  0.00     0.039 C 
ATOM      6  C   UNL     1     105.810 103.211 125.045  1.00  0.00    -0.077 C 
ATOM      7  C   UNL     1     106.801 103.500 125.905  1.00  0.00    -0.027 C 
ATOM      8  C   UNL     1     105.599 101.772 124.644  1.00  0.00     0.031 C 
ATOM      9  C   UNL     1     107.721 102.409 126.391  1.00  0.00     0.035 C 
ATOM     10  C   UNL     1     105.649 100.890 125.898  1.00  0.00     0.013 C 
ENDBRANCH   2   4
ENDBRANCH   1   2
BRANCH   1  11
ATOM     11  C   UNL     1     105.208 102.768 129.226  1.00  0.00     0.032 C 
BRANCH  11  12
ATOM     12  C   UNL     1     104.058 103.355 128.446  1.00  0.00    -0.028 C 
ATOM     13  C   UNL     1     103.922 104.670 128.159  1.00  0.00    -0.080 C 
ATOM     14  C   UNL     1     102.714 105.152 127.399  1.00  0.00     0.039 C 
ATOM     15  C   UNL     1     104.970 105.687 128.545  1.00  0.00     0.039 C 
ENDBRANCH  11  12
ENDBRANCH   1  11
TORSDOF 4
ENDMDL
MODEL 3
REMARK VINA RESULT:    -5.317      5.271      8.230
REMARK INTER + INTRA:          -8.267
REMARK INTER:                  -6.497
REMARK INTRA:                  -1.770
REMARK UNBOUND:                -1.708
REMARK SMILES C=C(CCC=C(C)C)[C@@H]1CC=C(C)CC1
REMARK SMILES IDX 3 1 2 2 1 3 9 4 13 5 12 6 11 7 14 8 10 9 15 10 4 11 5 12
REMARK SMILES IDX 6 13 7 14 8 15
REMARK H PARENT
REMARK Flexibility Score: inf
ROOT
ATOM      1  C   UNL     1     111.112 105.318 128.997  1.00  0.00     0.035 C 
ENDROOT
BRANCH   1   2
ATOM      2  C   UNL     1     111.548 106.632 128.363  1.00  0.00    -0.074 C 
ATOM      3  C   UNL     1     111.948 107.611 129.196  1.00  0.00     0.008 C 
BRANCH   2   4
ATOM      4  C   UNL     1     111.548 106.887 126.852  1.00  0.00     0.018 C 
ATOM      5  C   UNL     1     108.182 105.361 124.487  1.00  0.00     0.039 C 
ATOM      6  C   UNL     1     109.375 106.091 125.040  1.00  0.00    -0.077 C 
ATOM      7  C   UNL     1     109.203 107.133 125.870  1.00  0.00    -0.027 C 
ATOM      8  C   UNL     1     110.781 105.623 124.751  1.00  0.00     0.031 C 
ATOM      9  C   UNL     1     110.399 107.855 126.435  1.00  0.00     0.035 C 
ATOM     10  C   UNL     1     111.561 105.540 126.068  1.00  0.00     0.013 C 
ENDBRANCH   2   4
ENDBRANCH   1   2
BRANCH   1  11
ATOM     11  C   UNL     1     109.606 105.170 129.262  1.00  0.00     0.032 C 
BRANCH  11  12
ATOM     12  C   UNL     1     109.019 104.076 128.406  1.00  0.00    -0.028 C 
ATOM     13  C   UNL     1     107.763 104.090 127.903  1.00  0.00    -0.080 C 
ATOM     14  C   UNL     1     107.269 102.926 127.084  1.00  0.00     0.039 C 
ATOM     15  C   UNL     1     106.835 105.264 128.100  1.00  0.00     0.039 C 
ENDBRANCH  11  12
ENDBRANCH   1  11
TORSDOF 4
ENDMDL
MODEL 4
REMARK VINA RESULT:    -5.307      4.443      5.818
REMARK INTER + INTRA:          -8.255
REMARK INTER:                  -6.575
REMARK INTRA:                  -1.681
REMARK UNBOUND:                -1.708
REMARK SMILES C=C(CCC=C(C)C)[C@@H]1CC=C(C)CC1
REMARK SMILES IDX 3 1 2 2 1 3 9 4 13 5 12 6 11 7 14 8 10 9 15 10 4 11 5 12
REMARK SMILES IDX 6 13 7 14 8 15
REMARK H PARENT
REMARK Flexibility Score: inf
ROOT
ATOM      1  C   UNL     1     107.104 111.102 128.944  1.00  0.00     0.035 C 
ENDROOT
BRANCH   1   2
ATOM      2  C   UNL     1     105.767 111.444 128.299  1.00  0.00    -0.074 C 
ATOM      3  C   UNL     1     104.797 111.908 129.110  1.00  0.00     0.008 C 
BRANCH   2   4
ATOM      4  C   UNL     1     105.480 111.284 126.803  1.00  0.00     0.018 C 
ATOM      5  C   UNL     1     107.764 108.283 124.559  1.00  0.00     0.039 C 
ATOM      6  C   UNL     1     106.764 109.280 125.078  1.00  0.00    -0.077 C 
ATOM      7  C   UNL     1     105.825 108.898 125.960  1.00  0.00    -0.027 C 
ATOM      8  C   UNL     1     106.843 110.737 124.694  1.00  0.00     0.031 C 
ATOM      9  C   UNL     1     104.833 109.900 126.489  1.00  0.00     0.035 C 
ATOM     10  C   UNL     1     106.756 111.594 125.963  1.00  0.00     0.013 C 
ENDBRANCH   2   4
ENDBRANCH   1   2
BRANCH   1  11
ATOM     11  C   UNL     1     107.333 109.617 129.263  1.00  0.00     0.032 C 
BRANCH  11  12
ATOM     12  C   UNL     1     108.511 109.081 128.488  1.00  0.00    -0.028 C 
ATOM     13  C   UNL     1     108.703 107.775 128.196  1.00  0.00    -0.080 C 
ATOM     14  C   UNL     1     109.935 107.347 127.442  1.00  0.00     0.039 C 
ATOM     15  C   UNL     1     107.694 106.714 128.568  1.00  0.00     0.039 C 
ENDBRANCH  11  12
ENDBRANCH   1  11
TORSDOF 4
ENDMDL
MODEL 5
REMARK VINA RESULT:    -5.261      1.688      4.874
REMARK INTER + INTRA:          -8.199
REMARK INTER:                  -7.478
REMARK INTRA:                  -0.722
REMARK UNBOUND:                -1.708
REMARK SMILES C=C(CCC=C(C)C)[C@@H]1CC=C(C)CC1
REMARK SMILES IDX 3 1 2 2 1 3 9 4 13 5 12 6 11 7 14 8 10 9 15 10 4 11 5 12
REMARK SMILES IDX 6 13 7 14 8 15
REMARK H PARENT
REMARK Flexibility Score: inf
ROOT
ATOM      1  C   UNL     1     103.732 107.276 129.376  1.00  0.00     0.035 C 
ENDROOT
BRANCH   1   2
ATOM      2  C   UNL     1     104.663 108.232 128.642  1.00  0.00    -0.074 C 
ATOM      3  C   UNL     1     105.986 108.068 128.835  1.00  0.00     0.008 C 
BRANCH   2   4
ATOM      4  C   UNL     1     104.175 109.350 127.716  1.00  0.00     0.018 C 
ATOM      5  C   UNL     1     107.120 111.380 125.176  1.00  0.00     0.039 C 
ATOM      6  C   UNL     1     105.893 110.799 125.822  1.00  0.00    -0.077 C 
ATOM      7  C   UNL     1     105.527 109.534 125.556  1.00  0.00    -0.027 C 
ATOM      8  C   UNL     1     105.101 111.581 126.840  1.00  0.00     0.031 C 
ATOM      9  C   UNL     1     104.305 108.947 126.215  1.00  0.00     0.035 C 
ATOM     10  C   UNL     1     104.864 110.701 128.074  1.00  0.00     0.013 C 
ENDBRANCH   2   4
ENDBRANCH   1   2
BRANCH   1  11
ATOM     11  C   UNL     1     102.229 107.507 129.158  1.00  0.00     0.032 C 
BRANCH  11  12
ATOM     12  C   UNL     1     101.757 106.796 127.914  1.00  0.00    -0.028 C 
ATOM     13  C   UNL     1     101.083 105.623 127.913  1.00  0.00    -0.080 C 
ATOM     14  C   UNL     1     100.687 104.985 126.607  1.00  0.00     0.039 C 
ATOM     15  C   UNL     1     100.672 104.935 129.193  1.00  0.00     0.039 C 
ENDBRANCH  11  12
ENDBRANCH   1  11
TORSDOF 4
ENDMDL
MODEL 6
REMARK VINA RESULT:    -5.148      5.237      7.357
REMARK INTER + INTRA:          -8.060
REMARK INTER:                  -7.406
REMARK INTRA:                  -0.653
REMARK UNBOUND:                -1.708
REMARK SMILES C=C(CCC=C(C)C)[C@@H]1CC=C(C)CC1
REMARK SMILES IDX 3 1 2 2 1 3 9 4 13 5 12 6 11 7 14 8 10 9 15 10 4 11 5 12
REMARK SMILES IDX 6 13 7 14 8 15
REMARK H PARENT
REMARK Flexibility Score: inf
ROOT
ATOM      1  C   UNL     1     108.706 104.982 129.323  1.00  0.00     0.035 C 
ENDROOT
BRANCH   1   2
ATOM      2  C   UNL     1     107.882 104.502 128.135  1.00  0.00    -0.074 C 
ATOM      3  C   UNL     1     107.153 105.426 127.481  1.00  0.00     0.008 C 
BRANCH   2   4
ATOM      4  C   UNL     1     107.844 103.046 127.662  1.00  0.00     0.018 C 
ATOM      5  C   UNL     1     104.929 100.337 129.510  1.00  0.00     0.039 C 
ATOM      6  C   UNL     1     105.923 101.042 128.630  1.00  0.00    -0.077 C 
ATOM      7  C   UNL     1     105.515 102.005 127.787  1.00  0.00    -0.027 C 
ATOM      8  C   UNL     1     107.401 100.752 128.731  1.00  0.00     0.031 C 
ATOM      9  C   UNL     1     106.514 102.721 126.916  1.00  0.00     0.035 C 
ATOM     10  C   UNL     1     108.165 102.077 128.840  1.00  0.00     0.013 C 
ENDBRANCH   2   4
ENDBRANCH   1   2
BRANCH   1  11
ATOM     11  C   UNL     1     110.230 104.908 129.154  1.00  0.00     0.032 C 
BRANCH  11  12
ATOM     12  C   UNL     1     110.666 105.654 127.917  1.00  0.00    -0.028 C 
ATOM     13  C   UNL     1     111.386 106.799 127.930  1.00  0.00    -0.080 C 
ATOM     14  C   UNL     1     111.739 107.478 126.632  1.00  0.00     0.039 C 
ATOM     15  C   UNL     1     111.890 107.415 129.212  1.00  0.00     0.039 C 
ENDBRANCH  11  12
ENDBRANCH   1  11
TORSDOF 4
ENDMDL
MODEL 7
REMARK VINA RESULT:    -5.101      2.639      5.661
REMARK INTER + INTRA:          -8.001
REMARK INTER:                  -6.089
REMARK INTRA:                  -1.912
REMARK UNBOUND:                -1.708
REMARK SMILES C=C(CCC=C(C)C)[C@@H]1CC=C(C)CC1
REMARK SMILES IDX 3 1 2 2 1 3 9 4 13 5 12 6 11 7 14 8 10 9 15 10 4 11 5 12
REMARK SMILES IDX 6 13 7 14 8 15
REMARK H PARENT
REMARK Flexibility Score: inf
ROOT
ATOM      1  C   UNL     1     107.886 109.350 128.479  1.00  0.00     0.035 C 
ENDROOT
BRANCH   1   2
ATOM      2  C   UNL     1     107.152 110.639 128.134  1.00  0.00    -0.074 C 
ATOM      3  C   UNL     1     106.727 111.396 129.163  1.00  0.00     0.008 C 
BRANCH   2   4
ATOM      4  C   UNL     1     106.877 111.101 126.700  1.00  0.00     0.018 C 
ATOM      5  C   UNL     1     104.217 108.662 124.203  1.00  0.00     0.039 C 
ATOM      6  C   UNL     1     105.049 109.739 124.844  1.00  0.00    -0.077 C 
ATOM      7  C   UNL     1     104.550 110.461 125.862  1.00  0.00    -0.027 C 
ATOM      8  C   UNL     1     106.479 109.976 124.424  1.00  0.00     0.031 C 
ATOM      9  C   UNL     1     105.390 111.530 126.511  1.00  0.00     0.035 C 
ATOM     10  C   UNL     1     107.365 110.033 125.675  1.00  0.00     0.013 C 
ENDBRANCH   2   4
ENDBRANCH   1   2
BRANCH   1  11
ATOM     11  C   UNL     1     107.064 108.293 129.232  1.00  0.00     0.032 C 
BRANCH  11  12
ATOM     12  C   UNL     1     106.272 107.446 128.267  1.00  0.00    -0.028 C 
ATOM     13  C   UNL     1     104.932 107.523 128.105  1.00  0.00    -0.080 C 
ATOM     14  C   UNL     1     104.239 106.605 127.133  1.00  0.00     0.039 C 
ATOM     15  C   UNL     1     104.092 108.538 128.844  1.00  0.00     0.039 C 
ENDBRANCH  11  12
ENDBRANCH   1  11
TORSDOF 4
ENDMDL
MODEL 8
REMARK VINA RESULT:    -5.088      4.031      5.513
REMARK INTER + INTRA:          -7.985
REMARK INTER:                  -7.269
REMARK INTRA:                  -0.716
REMARK UNBOUND:                -1.708
REMARK SMILES C=C(CCC=C(C)C)[C@@H]1CC=C(C)CC1
REMARK SMILES IDX 3 1 2 2 1 3 9 4 13 5 12 6 11 7 14 8 10 9 15 10 4 11 5 12
REMARK SMILES IDX 6 13 7 14 8 15
REMARK H PARENT
REMARK Flexibility Score: inf
ROOT
ATOM      1  C   UNL     1     105.128 103.653 128.362  1.00  0.00     0.035 C 
ENDROOT
BRANCH   1   2
ATOM      2  C   UNL     1     105.320 102.160 128.132  1.00  0.00    -0.074 C 
ATOM      3  C   UNL     1     105.233 101.358 129.211  1.00  0.00     0.008 C 
BRANCH   2   4
ATOM      4  C   UNL     1     105.606 101.542 126.760  1.00  0.00     0.018 C 
ATOM      5  C   UNL     1     108.135 103.780 123.959  1.00  0.00     0.039 C 
ATOM      6  C   UNL     1     107.358 102.751 124.733  1.00  0.00    -0.077 C 
ATOM      7  C   UNL     1     107.896 102.180 125.824  1.00  0.00    -0.027 C 
ATOM      8  C   UNL     1     105.937 102.403 124.362  1.00  0.00     0.031 C 
ATOM      9  C   UNL     1     107.110 101.159 126.607  1.00  0.00     0.035 C 
ATOM     10  C   UNL     1     105.064 102.457 125.622  1.00  0.00     0.013 C 
ENDBRANCH   2   4
ENDBRANCH   1   2
BRANCH   1  11
ATOM     11  C   UNL     1     103.735 104.081 128.846  1.00  0.00     0.032 C 
BRANCH  11  12
ATOM     12  C   UNL     1     102.861 104.469 127.680  1.00  0.00    -0.028 C 
ATOM     13  C   UNL     1     101.551 104.792 127.780  1.00  0.00    -0.080 C 
ATOM     14  C   UNL     1     100.765 105.133 126.542  1.00  0.00     0.039 C 
ATOM     15  C   UNL     1     100.844 104.864 129.112  1.00  0.00     0.039 C 
ENDBRANCH  11  12
ENDBRANCH   1  11
TORSDOF 4
ENDMDL
MODEL 9
REMARK VINA RESULT:    -5.011      3.977      6.268
REMARK INTER + INTRA:          -7.891
REMARK INTER:                  -5.962
REMARK INTRA:                  -1.929
REMARK UNBOUND:                -1.708
REMARK SMILES C=C(CCC=C(C)C)[C@@H]1CC=C(C)CC1
REMARK SMILES IDX 3 1 2 2 1 3 9 4 13 5 12 6 11 7 14 8 10 9 15 10 4 11 5 12
REMARK SMILES IDX 6 13 7 14 8 15
REMARK H PARENT
REMARK Flexibility Score: inf
ROOT
ATOM      1  C   UNL     1     107.246 101.858 128.450  1.00  0.00     0.035 C 
ENDROOT
BRANCH   1   2
ATOM      2  C   UNL     1     107.427 103.371 128.469  1.00  0.00    -0.074 C 
ATOM      3  C   UNL     1     108.653 103.845 128.174  1.00  0.00     0.008 C 
BRANCH   2   4
ATOM      4  C   UNL     1     106.303 104.355 128.805  1.00  0.00     0.018 C 
ATOM      5  C   UNL     1     103.015 104.811 125.936  1.00  0.00     0.039 C 
ATOM      6  C   UNL     1     103.921 104.778 127.136  1.00  0.00    -0.077 C 
ATOM      7  C   UNL     1     104.034 103.655 127.864  1.00  0.00    -0.027 C 
ATOM      8  C   UNL     1     104.783 105.962 127.497  1.00  0.00     0.031 C 
ATOM      9  C   UNL     1     104.953 103.618 129.058  1.00  0.00     0.035 C 
ATOM     10  C   UNL     1     106.221 105.482 127.731  1.00  0.00     0.013 C 
ENDBRANCH   2   4
ENDBRANCH   1   2
BRANCH   1  11
ATOM     11  C   UNL     1     107.527 101.168 127.107  1.00  0.00     0.032 C 
BRANCH  11  12
ATOM     12  C   UNL     1     106.323 101.253 126.203  1.00  0.00    -0.028 C 
ATOM     13  C   UNL     1     106.193 102.133 125.184  1.00  0.00    -0.080 C 
ATOM     14  C   UNL     1     104.930 102.152 124.363  1.00  0.00     0.039 C 
ATOM     15  C   UNL     1     107.298 103.089 124.806  1.00  0.00     0.039 C 
ENDBRANCH  11  12
ENDBRANCH   1  11
TORSDOF 4
ENDMDL
