MODEL 1
REMARK VINA RESULT:    -4.403      0.000      0.000
REMARK INTER + INTRA:          -7.423
REMARK INTER:                  -6.720
REMARK INTRA:                  -0.703
REMARK UNBOUND:                -0.703
REMARK SMILES CCCCCCCCCCC(=O)[O-]
REMARK SMILES IDX 7 1 8 2 9 3 10 4 11 5 12 6 13 7 6 8 5 9 4 10 3 11 2 12 1 13
REMARK H PARENT
REMARK Flexibility Score: inf
ROOT
ATOM      1  C   UNL     1      -9.507   2.839  17.055  1.00  0.00     0.000 C 
ENDROOT
BRANCH   1   2
ATOM      2  C   UNL     1      -9.629   2.426  15.573  1.00  0.00     0.000 C 
BRANCH   2   3
ATOM      3  C   UNL     1      -9.836   0.916  15.370  1.00  0.00     0.006 C 
BRANCH   3   4
ATOM      4  C   UNL     1     -10.511   0.579  14.036  1.00  0.00     0.053 C 
BRANCH   4   5
ATOM      5  C   UNL     1     -11.979   0.368  14.231  1.00  0.00     0.041 C 
ATOM      6  O   UNL     1     -12.664  -0.189  13.333  1.00  0.00    -0.550 OA
ATOM      7  O   UNL     1     -12.601   0.831  15.384  1.00  0.00    -0.550 OA
ENDBRANCH   4   5
ENDBRANCH   3   4
ENDBRANCH   2   3
ENDBRANCH   1   2
BRANCH   1   8
ATOM      8  C   UNL     1     -10.841   2.693  17.808  1.00  0.00     0.000 C 
BRANCH   8   9
ATOM      9  C   UNL     1     -10.822   1.542  18.827  1.00  0.00    -0.000 C 
BRANCH   9  10
ATOM     10  C   UNL     1      -9.401   1.211  19.317  1.00  0.00    -0.000 C 
BRANCH  10  11
ATOM     11  C   UNL     1      -9.026  -0.262  19.087  1.00  0.00    -0.000 C 
BRANCH  11  12
ATOM     12  C   UNL     1      -9.677  -1.202  20.112  1.00  0.00    -0.003 C 
ATOM     13  C   UNL     1      -9.134  -0.946  21.515  1.00  0.00     0.004 C 
ENDBRANCH  11  12
ENDBRANCH  10  11
ENDBRANCH   9  10
ENDBRANCH   8   9
ENDBRANCH   1   8
TORSDOF 9
ENDMDL
MODEL 2
REMARK VINA RESULT:    -4.214      0.783      1.400
REMARK INTER + INTRA:          -7.134
REMARK INTER:                  -6.635
REMARK INTRA:                  -0.498
REMARK UNBOUND:                -0.703
REMARK SMILES CCCCCCCCCCC(=O)[O-]
REMARK SMILES IDX 7 1 8 2 9 3 10 4 11 5 12 6 13 7 6 8 5 9 4 10 3 11 2 12 1 13
REMARK H PARENT
REMARK Flexibility Score: inf
ROOT
ATOM      1  C   UNL     1      -9.414   3.048  16.718  1.00  0.00     0.000 C 
ENDROOT
BRANCH   1   2
ATOM      2  C   UNL     1      -9.812   2.477  15.341  1.00  0.00     0.000 C 
BRANCH   2   3
ATOM      3  C   UNL     1      -9.939   0.945  15.323  1.00  0.00     0.006 C 
BRANCH   3   4
ATOM      4  C   UNL     1     -10.548   0.411  14.023  1.00  0.00     0.053 C 
BRANCH   4   5
ATOM      5  C   UNL     1     -12.012   0.152  14.198  1.00  0.00     0.041 C 
ATOM      6  O   UNL     1     -12.639   0.681  15.153  1.00  0.00    -0.550 OA
ATOM      7  O   UNL     1     -12.673  -0.712  13.336  1.00  0.00    -0.550 OA
ENDBRANCH   4   5
ENDBRANCH   3   4
ENDBRANCH   2   3
ENDBRANCH   1   2
BRANCH   1   8
ATOM      8  C   UNL     1      -9.911   2.165  17.877  1.00  0.00     0.000 C 
BRANCH   8   9
ATOM      9  C   UNL     1      -8.829   1.919  18.940  1.00  0.00    -0.000 C 
BRANCH   9  10
ATOM     10  C   UNL     1      -9.239   0.844  19.961  1.00  0.00    -0.000 C 
BRANCH  10  11
ATOM     11  C   UNL     1      -9.249  -0.570  19.359  1.00  0.00    -0.000 C 
BRANCH  11  12
ATOM     12  C   UNL     1     -10.051  -1.567  20.208  1.00  0.00    -0.003 C 
ATOM     13  C   UNL     1     -11.552  -1.339  20.051  1.00  0.00     0.004 C 
ENDBRANCH  11  12
ENDBRANCH  10  11
ENDBRANCH   9  10
ENDBRANCH   8   9
ENDBRANCH   1   8
TORSDOF 9
ENDMDL
MODEL 3
REMARK VINA RESULT:    -4.179      2.106      3.022
REMARK INTER + INTRA:          -7.080
REMARK INTER:                  -6.514
REMARK INTRA:                  -0.566
REMARK UNBOUND:                -0.703
REMARK SMILES CCCCCCCCCCC(=O)[O-]
REMARK SMILES IDX 7 1 8 2 9 3 10 4 11 5 12 6 13 7 6 8 5 9 4 10 3 11 2 12 1 13
REMARK H PARENT
REMARK Flexibility Score: inf
ROOT
ATOM      1  C   UNL     1      -9.508   3.119  16.750  1.00  0.00     0.000 C 
ENDROOT
BRANCH   1   2
ATOM      2  C   UNL     1      -9.635   2.473  15.354  1.00  0.00     0.000 C 
BRANCH   2   3
ATOM      3  C   UNL     1      -9.898   0.958  15.399  1.00  0.00     0.006 C 
BRANCH   3   4
ATOM      4  C   UNL     1     -10.512   0.421  14.102  1.00  0.00     0.053 C 
BRANCH   4   5
ATOM      5  C   UNL     1     -11.999   0.316  14.232  1.00  0.00     0.041 C 
ATOM      6  O   UNL     1     -12.673  -0.264  13.342  1.00  0.00    -0.550 OA
ATOM      7  O   UNL     1     -12.646   0.904  15.311  1.00  0.00    -0.550 OA
ENDBRANCH   4   5
ENDBRANCH   3   4
ENDBRANCH   2   3
ENDBRANCH   1   2
BRANCH   1   8
ATOM      8  C   UNL     1      -9.829   2.125  17.880  1.00  0.00     0.000 C 
BRANCH   8   9
ATOM      9  C   UNL     1      -8.700   2.024  18.918  1.00  0.00    -0.000 C 
BRANCH   9  10
ATOM     10  C   UNL     1      -8.741   3.167  19.947  1.00  0.00    -0.000 C 
BRANCH  10  11
ATOM     11  C   UNL     1      -7.589   4.168  19.764  1.00  0.00    -0.000 C 
BRANCH  11  12
ATOM     12  C   UNL     1      -6.493   3.639  18.827  1.00  0.00    -0.003 C 
ATOM     13  C   UNL     1      -5.185   4.399  19.027  1.00  0.00     0.004 C 
ENDBRANCH  11  12
ENDBRANCH  10  11
ENDBRANCH   9  10
ENDBRANCH   8   9
ENDBRANCH   1   8
TORSDOF 9
ENDMDL
MODEL 4
REMARK VINA RESULT:    -4.151      1.496      2.574
REMARK INTER + INTRA:          -7.038
REMARK INTER:                  -6.430
REMARK INTRA:                  -0.607
REMARK UNBOUND:                -0.703
REMARK SMILES CCCCCCCCCCC(=O)[O-]
REMARK SMILES IDX 7 1 8 2 9 3 10 4 11 5 12 6 13 7 6 8 5 9 4 10 3 11 2 12 1 13
REMARK H PARENT
REMARK Flexibility Score: inf
ROOT
ATOM      1  C   UNL     1     -10.973   0.922  18.699  1.00  0.00     0.000 C 
ENDROOT
BRANCH   1   2
ATOM      2  C   UNL     1     -11.394   2.018  17.697  1.00  0.00     0.000 C 
BRANCH   2   3
ATOM      3  C   UNL     1     -11.660   1.486  16.279  1.00  0.00     0.006 C 
BRANCH   3   4
ATOM      4  C   UNL     1     -10.454   1.641  15.347  1.00  0.00     0.053 C 
BRANCH   4   5
ATOM      5  C   UNL     1     -10.488   0.603  14.270  1.00  0.00     0.041 C 
ATOM      6  O   UNL     1      -9.417   0.196  13.748  1.00  0.00    -0.550 OA
ATOM      7  O   UNL     1     -11.705   0.120  13.808  1.00  0.00    -0.550 OA
ENDBRANCH   4   5
ENDBRANCH   3   4
ENDBRANCH   2   3
ENDBRANCH   1   2
BRANCH   1   8
ATOM      8  C   UNL     1      -9.449   0.885  18.911  1.00  0.00     0.000 C 
BRANCH   8   9
ATOM      9  C   UNL     1      -8.956  -0.478  19.421  1.00  0.00    -0.000 C 
BRANCH   9  10
ATOM     10  C   UNL     1      -9.744  -0.971  20.648  1.00  0.00    -0.000 C 
BRANCH  10  11
ATOM     11  C   UNL     1      -8.898  -0.974  21.931  1.00  0.00    -0.000 C 
BRANCH  11  12
ATOM     12  C   UNL     1      -9.438  -0.007  22.995  1.00  0.00    -0.003 C 
ATOM     13  C   UNL     1     -10.815   0.524  22.606  1.00  0.00     0.004 C 
ENDBRANCH  11  12
ENDBRANCH  10  11
ENDBRANCH   9  10
ENDBRANCH   8   9
ENDBRANCH   1   8
TORSDOF 9
ENDMDL
MODEL 5
REMARK VINA RESULT:    -4.067      2.697      5.276
REMARK INTER + INTRA:          -6.909
REMARK INTER:                  -5.940
REMARK INTRA:                  -0.968
REMARK UNBOUND:                -0.703
REMARK SMILES CCCCCCCCCCC(=O)[O-]
REMARK SMILES IDX 7 1 8 2 9 3 10 4 11 5 12 6 13 7 6 8 5 9 4 10 3 11 2 12 1 13
REMARK H PARENT
REMARK Flexibility Score: inf
ROOT
ATOM      1  C   UNL     1     -11.325   3.068  18.522  1.00  0.00     0.000 C 
ENDROOT
BRANCH   1   2
ATOM      2  C   UNL     1     -11.032   1.899  19.485  1.00  0.00     0.000 C 
BRANCH   2   3
ATOM      3  C   UNL     1      -9.554   1.472  19.503  1.00  0.00     0.006 C 
BRANCH   3   4
ATOM      4  C   UNL     1      -9.345   0.027  19.040  1.00  0.00     0.053 C 
BRANCH   4   5
ATOM      5  C   UNL     1      -9.576  -0.924  20.171  1.00  0.00     0.041 C 
ATOM      6  O   UNL     1     -10.184  -2.009  19.974  1.00  0.00    -0.550 OA
ATOM      7  O   UNL     1      -9.163  -0.590  21.455  1.00  0.00    -0.550 OA
ENDBRANCH   4   5
ENDBRANCH   3   4
ENDBRANCH   2   3
ENDBRANCH   1   2
BRANCH   1   8
ATOM      8  C   UNL     1     -11.762   2.577  17.131  1.00  0.00     0.000 C 
BRANCH   8   9
ATOM      9  C   UNL     1     -10.921   3.185  15.997  1.00  0.00    -0.000 C 
BRANCH   9  10
ATOM     10  C   UNL     1      -9.627   2.395  15.733  1.00  0.00    -0.000 C 
BRANCH  10  11
ATOM     11  C   UNL     1      -9.890   0.905  15.462  1.00  0.00    -0.000 C 
BRANCH  11  12
ATOM     12  C   UNL     1     -10.351   0.641  14.021  1.00  0.00    -0.003 C 
ATOM     13  C   UNL     1     -11.807   0.187  13.985  1.00  0.00     0.004 C 
ENDBRANCH  11  12
ENDBRANCH  10  11
ENDBRANCH   9  10
ENDBRANCH   8   9
ENDBRANCH   1   8
TORSDOF 9
ENDMDL
MODEL 6
REMARK VINA RESULT:    -4.026      1.608      2.190
REMARK INTER + INTRA:          -6.848
REMARK INTER:                  -5.871
REMARK INTRA:                  -0.976
REMARK UNBOUND:                -0.703
REMARK SMILES CCCCCCCCCCC(=O)[O-]
REMARK SMILES IDX 7 1 8 2 9 3 10 4 11 5 12 6 13 7 6 8 5 9 4 10 3 11 2 12 1 13
REMARK H PARENT
REMARK Flexibility Score: inf
ROOT
ATOM      1  C   UNL     1     -11.847   4.215  17.969  1.00  0.00     0.000 C 
ENDROOT
BRANCH   1   2
ATOM      2  C   UNL     1     -12.500   3.534  16.748  1.00  0.00     0.000 C 
BRANCH   2   3
ATOM      3  C   UNL     1     -11.562   2.564  16.009  1.00  0.00     0.006 C 
BRANCH   3   4
ATOM      4  C   UNL     1     -12.173   1.172  15.818  1.00  0.00     0.053 C 
BRANCH   4   5
ATOM      5  C   UNL     1     -11.746   0.589  14.508  1.00  0.00     0.041 C 
ATOM      6  O   UNL     1     -12.597   0.074  13.736  1.00  0.00    -0.550 OA
ATOM      7  O   UNL     1     -10.402   0.569  14.161  1.00  0.00    -0.550 OA
ENDBRANCH   4   5
ENDBRANCH   3   4
ENDBRANCH   2   3
ENDBRANCH   1   2
BRANCH   1   8
ATOM      8  C   UNL     1     -12.294   3.577  19.296  1.00  0.00     0.000 C 
BRANCH   8   9
ATOM      9  C   UNL     1     -11.414   2.387  19.707  1.00  0.00    -0.000 C 
BRANCH   9  10
ATOM     10  C   UNL     1      -9.929   2.769  19.842  1.00  0.00    -0.000 C 
BRANCH  10  11
ATOM     11  C   UNL     1      -9.017   1.922  18.942  1.00  0.00    -0.000 C 
BRANCH  11  12
ATOM     12  C   UNL     1      -9.595   0.526  18.665  1.00  0.00    -0.003 C 
ATOM     13  C   UNL     1      -8.888  -0.537  19.500  1.00  0.00     0.004 C 
ENDBRANCH  11  12
ENDBRANCH  10  11
ENDBRANCH   9  10
ENDBRANCH   8   9
ENDBRANCH   1   8
TORSDOF 9
ENDMDL
MODEL 7
REMARK VINA RESULT:    -3.922      1.547      2.882
REMARK INTER + INTRA:          -6.688
REMARK INTER:                  -5.859
REMARK INTRA:                  -0.830
REMARK UNBOUND:                -0.703
REMARK SMILES CCCCCCCCCCC(=O)[O-]
REMARK SMILES IDX 7 1 8 2 9 3 10 4 11 5 12 6 13 7 6 8 5 9 4 10 3 11 2 12 1 13
REMARK H PARENT
REMARK Flexibility Score: inf
ROOT
ATOM      1  C   UNL     1      -9.661   0.477  18.305  1.00  0.00     0.000 C 
ENDROOT
BRANCH   1   2
ATOM      2  C   UNL     1      -9.493   2.008  18.217  1.00  0.00     0.000 C 
BRANCH   2   3
ATOM      3  C   UNL     1      -9.759   2.576  16.812  1.00  0.00     0.006 C 
BRANCH   3   4
ATOM      4  C   UNL     1     -10.367   1.545  15.856  1.00  0.00     0.053 C 
BRANCH   4   5
ATOM      5  C   UNL     1     -11.847   1.740  15.749  1.00  0.00     0.041 C 
ATOM      6  O   UNL     1     -12.550   0.914  15.110  1.00  0.00    -0.550 OA
ATOM      7  O   UNL     1     -12.443   2.861  16.312  1.00  0.00    -0.550 OA
ENDBRANCH   4   5
ENDBRANCH   3   4
ENDBRANCH   2   3
ENDBRANCH   1   2
BRANCH   1   8
ATOM      8  C   UNL     1      -8.732  -0.148  19.360  1.00  0.00     0.000 C 
BRANCH   8   9
ATOM      9  C   UNL     1      -9.462  -1.145  20.274  1.00  0.00    -0.000 C 
BRANCH   9  10
ATOM     10  C   UNL     1      -9.216  -0.866  21.768  1.00  0.00    -0.000 C 
BRANCH  10  11
ATOM     11  C   UNL     1      -9.969   0.377  22.267  1.00  0.00    -0.000 C 
BRANCH  11  12
ATOM     12  C   UNL     1     -11.454   0.365  21.874  1.00  0.00    -0.003 C 
ATOM     13  C   UNL     1     -11.855   1.675  21.203  1.00  0.00     0.004 C 
ENDBRANCH  11  12
ENDBRANCH  10  11
ENDBRANCH   9  10
ENDBRANCH   8   9
ENDBRANCH   1   8
TORSDOF 9
ENDMDL
MODEL 8
REMARK VINA RESULT:    -3.899      1.659      2.487
REMARK INTER + INTRA:          -6.653
REMARK INTER:                  -5.461
REMARK INTRA:                  -1.192
REMARK UNBOUND:                -0.703
REMARK SMILES CCCCCCCCCCC(=O)[O-]
REMARK SMILES IDX 7 1 8 2 9 3 10 4 11 5 12 6 13 7 6 8 5 9 4 10 3 11 2 12 1 13
REMARK H PARENT
REMARK Flexibility Score: inf
ROOT
ATOM      1  C   UNL     1      -9.972   2.756  19.568  1.00  0.00     0.000 C 
ENDROOT
BRANCH   1   2
ATOM      2  C   UNL     1      -9.137   2.032  18.490  1.00  0.00     0.000 C 
BRANCH   2   3
ATOM      3  C   UNL     1      -9.942   1.004  17.676  1.00  0.00     0.006 C 
BRANCH   3   4
ATOM      4  C   UNL     1     -10.091   1.395  16.202  1.00  0.00     0.053 C 
BRANCH   4   5
ATOM      5  C   UNL     1     -11.465   1.925  15.937  1.00  0.00     0.041 C 
ATOM      6  O   UNL     1     -12.382   1.148  15.563  1.00  0.00    -0.550 OA
ATOM      7  O   UNL     1     -11.721   3.284  16.057  1.00  0.00    -0.550 OA
ENDBRANCH   4   5
ENDBRANCH   3   4
ENDBRANCH   2   3
ENDBRANCH   1   2
BRANCH   1   8
ATOM      8  C   UNL     1     -11.388   2.167  19.696  1.00  0.00     0.000 C 
BRANCH   8   9
ATOM      9  C   UNL     1     -11.731   1.761  21.138  1.00  0.00    -0.000 C 
BRANCH   9  10
ATOM     10  C   UNL     1     -11.444   0.275  21.416  1.00  0.00    -0.000 C 
BRANCH  10  11
ATOM     11  C   UNL     1     -10.068   0.050  22.062  1.00  0.00    -0.000 C 
BRANCH  11  12
ATOM     12  C   UNL     1      -9.170  -0.876  21.228  1.00  0.00    -0.003 C 
ATOM     13  C   UNL     1      -9.984  -1.634  20.183  1.00  0.00     0.004 C 
ENDBRANCH  11  12
ENDBRANCH  10  11
ENDBRANCH   9  10
ENDBRANCH   8   9
ENDBRANCH   1   8
TORSDOF 9
ENDMDL
MODEL 9
REMARK VINA RESULT:    -3.896      2.348      3.882
REMARK INTER + INTRA:          -6.649
REMARK INTER:                  -5.396
REMARK INTRA:                  -1.253
REMARK UNBOUND:                -0.703
REMARK SMILES CCCCCCCCCCC(=O)[O-]
REMARK SMILES IDX 7 1 8 2 9 3 10 4 11 5 12 6 13 7 6 8 5 9 4 10 3 11 2 12 1 13
REMARK H PARENT
REMARK Flexibility Score: inf
ROOT
ATOM      1  C   UNL     1      -8.830  -0.470  19.219  1.00  0.00     0.000 C 
ENDROOT
BRANCH   1   2
ATOM      2  C   UNL     1      -9.325   0.948  18.863  1.00  0.00     0.000 C 
BRANCH   2   3
ATOM      3  C   UNL     1     -10.754   0.976  18.294  1.00  0.00     0.006 C 
BRANCH   3   4
ATOM      4  C   UNL     1     -11.376   2.376  18.311  1.00  0.00     0.053 C 
BRANCH   4   5
ATOM      5  C   UNL     1     -11.836   2.761  16.941  1.00  0.00     0.041 C 
ATOM      6  O   UNL     1     -11.183   2.398  15.928  1.00  0.00    -0.550 OA
ATOM      7  O   UNL     1     -12.959   3.563  16.785  1.00  0.00    -0.550 OA
ENDBRANCH   4   5
ENDBRANCH   3   4
ENDBRANCH   2   3
ENDBRANCH   1   2
BRANCH   1   8
ATOM      8  C   UNL     1      -9.677  -1.116  20.329  1.00  0.00     0.000 C 
BRANCH   8   9
ATOM      9  C   UNL     1      -9.062  -0.932  21.726  1.00  0.00    -0.000 C 
BRANCH   9  10
ATOM     10  C   UNL     1      -9.906  -0.012  22.626  1.00  0.00    -0.000 C 
BRANCH  10  11
ATOM     11  C   UNL     1     -11.298   0.271  22.040  1.00  0.00    -0.000 C 
BRANCH  11  12
ATOM     12  C   UNL     1     -11.605   1.773  21.949  1.00  0.00    -0.003 C 
ATOM     13  C   UNL     1     -10.320   2.596  21.934  1.00  0.00     0.004 C 
ENDBRANCH  11  12
ENDBRANCH  10  11
ENDBRANCH   9  10
ENDBRANCH   8   9
ENDBRANCH   1   8
TORSDOF 9
ENDMDL
