MODEL 1
REMARK VINA RESULT:    -3.410      0.000      0.000
REMARK INTER + INTRA:          -4.732
REMARK INTER:                  -4.507
REMARK INTRA:                  -0.225
REMARK UNBOUND:                -0.225
REMARK SMILES CCCCC=CC=CCO
REMARK SMILES IDX 5 1 6 2 4 3 3 4 2 5 1 6 7 7 8 8 9 9 10 10
REMARK H PARENT 10 11
REMARK Flexibility Score: inf
ROOT
ATOM      1  C   UNL     1      10.660  40.721  66.820  1.00  0.00    -0.027 C 
ATOM      2  C   UNL     1      10.321  39.590  66.195  1.00  0.00    -0.005 C 
ENDROOT
BRANCH   1   3
ATOM      3  C   UNL     1       9.877  41.989  66.636  1.00  0.00     0.027 C 
BRANCH   3   4
ATOM      4  C   UNL     1      10.781  43.223  66.465  1.00  0.00     0.004 C 
BRANCH   4   5
ATOM      5  C   UNL     1      10.655  44.256  67.599  1.00  0.00    -0.003 C 
ATOM      6  C   UNL     1      11.678  44.041  68.715  1.00  0.00     0.004 C 
ENDBRANCH   4   5
ENDBRANCH   3   4
ENDBRANCH   1   3
BRANCH   2   7
ATOM      7  C   UNL     1      11.101  38.357  66.382  1.00  0.00    -0.002 C 
ATOM      8  C   UNL     1      11.889  38.195  67.446  1.00  0.00     0.001 C 
BRANCH   8   9
ATOM      9  C   UNL     1      12.683  36.937  67.631  1.00  0.00     0.183 C 
BRANCH   9  10
ATOM     10  O   UNL     1      13.965  37.083  67.084  1.00  0.00    -0.392 OA
ATOM     11  H   UNL     1      14.053  36.390  66.377  1.00  0.00     0.210 HD
ENDBRANCH   9  10
ENDBRANCH   8   9
ENDBRANCH   2   7
TORSDOF 6
ENDMDL
MODEL 2
REMARK VINA RESULT:    -3.370      2.905      5.776
REMARK INTER + INTRA:          -4.679
REMARK INTER:                  -4.346
REMARK INTRA:                  -0.333
REMARK UNBOUND:                -0.225
REMARK SMILES CCCCC=CC=CCO
REMARK SMILES IDX 5 1 6 2 4 3 3 4 2 5 1 6 7 7 8 8 9 9 10 10
REMARK H PARENT 10 11
REMARK Flexibility Score: inf
ROOT
ATOM      1  C   UNL     1      10.663  39.653  66.477  1.00  0.00    -0.027 C 
ATOM      2  C   UNL     1      11.800  40.353  66.478  1.00  0.00    -0.005 C 
ENDROOT
BRANCH   1   3
ATOM      3  C   UNL     1      10.610  38.236  65.982  1.00  0.00     0.027 C 
BRANCH   3   4
ATOM      4  C   UNL     1      10.509  37.212  67.127  1.00  0.00     0.004 C 
BRANCH   4   5
ATOM      5  C   UNL     1      11.744  36.306  67.269  1.00  0.00    -0.003 C 
ATOM      6  C   UNL     1      12.927  37.012  67.933  1.00  0.00     0.004 C 
ENDBRANCH   4   5
ENDBRANCH   3   4
ENDBRANCH   1   3
BRANCH   2   7
ATOM      7  C   UNL     1      11.836  41.742  66.962  1.00  0.00    -0.002 C 
ATOM      8  C   UNL     1      10.951  42.644  66.534  1.00  0.00     0.001 C 
BRANCH   8   9
ATOM      9  C   UNL     1      10.992  44.058  67.029  1.00  0.00     0.183 C 
BRANCH   9  10
ATOM     10  O   UNL     1      10.666  44.947  65.996  1.00  0.00    -0.392 OA
ATOM     11  H   UNL     1       9.741  44.723  65.710  1.00  0.00     0.210 HD
ENDBRANCH   9  10
ENDBRANCH   8   9
ENDBRANCH   2   7
TORSDOF 6
ENDMDL
MODEL 3
REMARK VINA RESULT:    -3.337      1.267      1.793
REMARK INTER + INTRA:          -4.634
REMARK INTER:                  -4.455
REMARK INTRA:                  -0.179
REMARK UNBOUND:                -0.225
REMARK SMILES CCCCC=CC=CCO
REMARK SMILES IDX 5 1 6 2 4 3 3 4 2 5 1 6 7 7 8 8 9 9 10 10
REMARK H PARENT 10 11
REMARK Flexibility Score: inf
ROOT
ATOM      1  C   UNL     1      11.284  39.443  67.386  1.00  0.00    -0.027 C 
ATOM      2  C   UNL     1      11.768  38.448  66.638  1.00  0.00    -0.005 C 
ENDROOT
BRANCH   1   3
ATOM      3  C   UNL     1      10.911  40.770  66.788  1.00  0.00     0.027 C 
BRANCH   3   4
ATOM      4  C   UNL     1      12.028  41.820  66.935  1.00  0.00     0.004 C 
BRANCH   4   5
ATOM      5  C   UNL     1      11.621  43.236  66.489  1.00  0.00    -0.003 C 
ATOM      6  C   UNL     1      10.953  44.041  67.604  1.00  0.00     0.004 C 
ENDBRANCH   4   5
ENDBRANCH   3   4
ENDBRANCH   1   3
BRANCH   2   7
ATOM      7  C   UNL     1      12.133  37.156  67.239  1.00  0.00    -0.002 C 
ATOM      8  C   UNL     1      12.985  37.089  68.264  1.00  0.00     0.001 C 
BRANCH   8   9
ATOM      9  C   UNL     1      13.355  35.770  68.872  1.00  0.00     0.183 C 
BRANCH   9  10
ATOM     10  O   UNL     1      14.641  35.388  68.465  1.00  0.00    -0.392 OA
ATOM     11  H   UNL     1      15.279  35.962  68.964  1.00  0.00     0.210 HD
ENDBRANCH   9  10
ENDBRANCH   8   9
ENDBRANCH   2   7
TORSDOF 6
ENDMDL
MODEL 4
REMARK VINA RESULT:    -3.266      1.330      1.436
REMARK INTER + INTRA:          -4.541
REMARK INTER:                  -4.377
REMARK INTRA:                  -0.164
REMARK UNBOUND:                -0.225
REMARK SMILES CCCCC=CC=CCO
REMARK SMILES IDX 5 1 6 2 4 3 3 4 2 5 1 6 7 7 8 8 9 9 10 10
REMARK H PARENT 10 11
REMARK Flexibility Score: inf
ROOT
ATOM      1  C   UNL     1      11.311  40.357  67.038  1.00  0.00    -0.027 C 
ATOM      2  C   UNL     1      11.699  39.317  66.296  1.00  0.00    -0.005 C 
ENDROOT
BRANCH   1   3
ATOM      3  C   UNL     1      11.817  41.747  66.774  1.00  0.00     0.027 C 
BRANCH   3   4
ATOM      4  C   UNL     1      10.684  42.735  66.440  1.00  0.00     0.004 C 
BRANCH   4   5
ATOM      5  C   UNL     1      10.957  44.180  66.895  1.00  0.00    -0.003 C 
ATOM      6  C   UNL     1      11.253  44.286  68.391  1.00  0.00     0.004 C 
ENDBRANCH   4   5
ENDBRANCH   3   4
ENDBRANCH   1   3
BRANCH   2   7
ATOM      7  C   UNL     1      11.198  37.961  66.570  1.00  0.00    -0.002 C 
ATOM      8  C   UNL     1      12.015  37.000  67.004  1.00  0.00     0.001 C 
BRANCH   8   9
ATOM      9  C   UNL     1      11.501  35.620  67.281  1.00  0.00     0.183 C 
BRANCH   9  10
ATOM     10  O   UNL     1      12.474  34.860  67.944  1.00  0.00    -0.392 OA
ATOM     11  H   UNL     1      12.931  35.473  68.578  1.00  0.00     0.210 HD
ENDBRANCH   9  10
ENDBRANCH   8   9
ENDBRANCH   2   7
TORSDOF 6
ENDMDL
MODEL 5
REMARK VINA RESULT:    -2.495      1.546      2.195
REMARK INTER + INTRA:          -3.522
REMARK INTER:                  -3.292
REMARK INTRA:                  -0.231
REMARK UNBOUND:                -0.225
REMARK SMILES CCCCC=CC=CCO
REMARK SMILES IDX 5 1 6 2 4 3 3 4 2 5 1 6 7 7 8 8 9 9 10 10
REMARK H PARENT 10 11
REMARK Flexibility Score: inf
ROOT
ATOM      1  C   UNL     1       9.965  41.660  68.219  1.00  0.00    -0.027 C 
ATOM      2  C   UNL     1      10.726  40.638  68.616  1.00  0.00    -0.005 C 
ENDROOT
BRANCH   1   3
ATOM      3  C   UNL     1       9.876  42.933  69.012  1.00  0.00     0.027 C 
BRANCH   3   4
ATOM      4  C   UNL     1      10.744  44.060  68.422  1.00  0.00     0.004 C 
BRANCH   4   5
ATOM      5  C   UNL     1      10.894  44.001  66.892  1.00  0.00    -0.003 C 
ATOM      6  C   UNL     1      12.171  43.286  66.447  1.00  0.00     0.004 C 
ENDBRANCH   4   5
ENDBRANCH   3   4
ENDBRANCH   1   3
BRANCH   2   7
ATOM      7  C   UNL     1      10.799  39.396  67.831  1.00  0.00    -0.002 C 
ATOM      8  C   UNL     1      10.865  39.426  66.499  1.00  0.00     0.001 C 
BRANCH   8   9
ATOM      9  C   UNL     1      10.938  38.158  65.703  1.00  0.00     0.183 C 
BRANCH   9  10
ATOM     10  O   UNL     1      11.864  37.275  66.275  1.00  0.00    -0.392 OA
ATOM     11  H   UNL     1      11.520  37.049  67.179  1.00  0.00     0.210 HD
ENDBRANCH   9  10
ENDBRANCH   8   9
ENDBRANCH   2   7
TORSDOF 6
ENDMDL
MODEL 6
REMARK VINA RESULT:    -2.277      3.602      4.828
REMARK INTER + INTRA:          -3.234
REMARK INTER:                  -3.096
REMARK INTRA:                  -0.137
REMARK UNBOUND:                -0.225
REMARK SMILES CCCCC=CC=CCO
REMARK SMILES IDX 5 1 6 2 4 3 3 4 2 5 1 6 7 7 8 8 9 9 10 10
REMARK H PARENT 10 11
REMARK Flexibility Score: inf
ROOT
ATOM      1  C   UNL     1      13.591  42.504  68.782  1.00  0.00    -0.027 C 
ATOM      2  C   UNL     1      12.274  42.686  68.662  1.00  0.00    -0.005 C 
ENDROOT
BRANCH   1   3
ATOM      3  C   UNL     1      14.521  43.644  69.086  1.00  0.00     0.027 C 
BRANCH   3   4
ATOM      4  C   UNL     1      15.997  43.210  69.124  1.00  0.00     0.004 C 
BRANCH   4   5
ATOM      5  C   UNL     1      16.998  44.377  69.044  1.00  0.00    -0.003 C 
ATOM      6  C   UNL     1      18.302  43.994  68.345  1.00  0.00     0.004 C 
ENDBRANCH   4   5
ENDBRANCH   3   4
ENDBRANCH   1   3
BRANCH   2   7
ATOM      7  C   UNL     1      11.377  41.559  68.359  1.00  0.00    -0.002 C 
ATOM      8  C   UNL     1      11.646  40.713  67.364  1.00  0.00     0.001 C 
BRANCH   8   9
ATOM      9  C   UNL     1      10.728  39.567  67.059  1.00  0.00     0.183 C 
BRANCH   9  10
ATOM     10  O   UNL     1      10.913  39.131  65.740  1.00  0.00    -0.392 OA
ATOM     11  H   UNL     1      10.992  39.947  65.179  1.00  0.00     0.210 HD
ENDBRANCH   9  10
ENDBRANCH   8   9
ENDBRANCH   2   7
TORSDOF 6
ENDMDL
MODEL 7
REMARK VINA RESULT:    -2.153      3.580      5.578
REMARK INTER + INTRA:          -3.070
REMARK INTER:                  -2.858
REMARK INTRA:                  -0.213
REMARK UNBOUND:                -0.225
REMARK SMILES CCCCC=CC=CCO
REMARK SMILES IDX 5 1 6 2 4 3 3 4 2 5 1 6 7 7 8 8 9 9 10 10
REMARK H PARENT 10 11
REMARK Flexibility Score: inf
ROOT
ATOM      1  C   UNL     1      12.508  43.119  67.843  1.00  0.00    -0.027 C 
ATOM      2  C   UNL     1      13.187  43.207  68.989  1.00  0.00    -0.005 C 
ENDROOT
BRANCH   1   3
ATOM      3  C   UNL     1      11.018  43.306  67.792  1.00  0.00     0.027 C 
BRANCH   3   4
ATOM      4  C   UNL     1      10.267  41.993  67.503  1.00  0.00     0.004 C 
BRANCH   4   5
ATOM      5  C   UNL     1      11.168  40.746  67.478  1.00  0.00    -0.003 C 
ATOM      6  C   UNL     1      10.669  39.671  66.512  1.00  0.00     0.004 C 
ENDBRANCH   4   5
ENDBRANCH   3   4
ENDBRANCH   1   3
BRANCH   2   7
ATOM      7  C   UNL     1      14.645  43.017  69.023  1.00  0.00    -0.002 C 
ATOM      8  C   UNL     1      15.475  44.060  69.091  1.00  0.00     0.001 C 
BRANCH   8   9
ATOM      9  C   UNL     1      16.960  43.861  69.125  1.00  0.00     0.183 C 
BRANCH   9  10
ATOM     10  O   UNL     1      17.553  44.407  67.978  1.00  0.00    -0.392 OA
ATOM     11  H   UNL     1      16.841  44.456  67.286  1.00  0.00     0.210 HD
ENDBRANCH   9  10
ENDBRANCH   8   9
ENDBRANCH   2   7
TORSDOF 6
ENDMDL
MODEL 8
REMARK VINA RESULT:    -2.152      4.618      6.317
REMARK INTER + INTRA:          -3.069
REMARK INTER:                  -2.927
REMARK INTRA:                  -0.142
REMARK UNBOUND:                -0.225
REMARK SMILES CCCCC=CC=CCO
REMARK SMILES IDX 5 1 6 2 4 3 3 4 2 5 1 6 7 7 8 8 9 9 10 10
REMARK H PARENT 10 11
REMARK Flexibility Score: inf
ROOT
ATOM      1  C   UNL     1      14.627  43.529  68.760  1.00  0.00    -0.027 C 
ATOM      2  C   UNL     1      13.771  42.542  68.484  1.00  0.00    -0.005 C 
ENDROOT
BRANCH   1   3
ATOM      3  C   UNL     1      16.058  43.253  69.125  1.00  0.00     0.027 C 
BRANCH   3   4
ATOM      4  C   UNL     1      16.963  44.486  68.947  1.00  0.00     0.004 C 
BRANCH   4   5
ATOM      5  C   UNL     1      18.240  44.215  68.131  1.00  0.00    -0.003 C 
ATOM      6  C   UNL     1      19.378  43.649  68.980  1.00  0.00     0.004 C 
ENDBRANCH   4   5
ENDBRANCH   3   4
ENDBRANCH   1   3
BRANCH   2   7
ATOM      7  C   UNL     1      12.371  42.829  68.132  1.00  0.00    -0.002 C 
ATOM      8  C   UNL     1      11.999  42.990  66.861  1.00  0.00     0.001 C 
BRANCH   8   9
ATOM      9  C   UNL     1      10.572  43.283  66.508  1.00  0.00     0.183 C 
BRANCH   9  10
ATOM     10  O   UNL     1       9.886  42.095  66.221  1.00  0.00    -0.392 OA
ATOM     11  H   UNL     1      10.362  41.669  65.460  1.00  0.00     0.210 HD
ENDBRANCH   9  10
ENDBRANCH   8   9
ENDBRANCH   2   7
TORSDOF 6
ENDMDL
