MODEL 1
REMARK VINA RESULT:    -2.757      0.000      0.000
REMARK INTER + INTRA:          -7.105
REMARK INTER:                  -4.691
REMARK INTRA:                  -2.414
REMARK UNBOUND:                -2.414
REMARK SMILES CC(=O)CCC[C@H](C)CCC[C@@H](C)CCCC(C)C
REMARK SMILES IDX 10 1 11 2 12 3 13 4 14 5 15 6 16 7 17 8 18 9 19 10 9 11 7 12
REMARK SMILES IDX 8 13 6 14 5 15 4 16 2 17 3 18 1 19
REMARK H PARENT
REMARK Flexibility Score: inf
ROOT
ATOM      1  C   UNL     1     156.742 154.934 139.095  1.00  0.00     0.001 C 
ENDROOT
BRANCH   1   2
ATOM      2  C   UNL     1     157.646 154.124 140.046  1.00  0.00     0.003 C 
BRANCH   2   3
ATOM      3  C   UNL     1     158.950 153.568 139.411  1.00  0.00    -0.014 C 
ATOM      4  C   UNL     1     160.194 154.045 140.182  1.00  0.00     0.007 C 
BRANCH   3   5
ATOM      5  C   UNL     1     158.931 152.019 139.367  1.00  0.00     0.003 C 
BRANCH   5   6
ATOM      6  C   UNL     1     158.393 151.466 138.034  1.00  0.00     0.001 C 
BRANCH   6   7
ATOM      7  C   UNL     1     157.193 150.516 138.216  1.00  0.00     0.003 C 
BRANCH   7   8
ATOM      8  C   UNL     1     155.800 151.187 138.140  1.00  0.00    -0.017 C 
ATOM      9  C   UNL     1     154.842 150.301 137.332  1.00  0.00     0.007 C 
ATOM     10  C   UNL     1     155.208 151.457 139.531  1.00  0.00     0.007 C 
ENDBRANCH   7   8
ENDBRANCH   6   7
ENDBRANCH   5   6
ENDBRANCH   3   5
ENDBRANCH   2   3
ENDBRANCH   1   2
BRANCH   1  11
ATOM     11  C   UNL     1     157.197 154.850 137.623  1.00  0.00     0.003 C 
BRANCH  11  12
ATOM     12  C   UNL     1     156.039 154.744 136.600  1.00  0.00    -0.014 C 
ATOM     13  C   UNL     1     156.332 153.699 135.511  1.00  0.00     0.007 C 
BRANCH  12  14
ATOM     14  C   UNL     1     154.680 154.493 137.300  1.00  0.00     0.004 C 
BRANCH  14  15
ATOM     15  C   UNL     1     153.537 155.424 136.846  1.00  0.00     0.008 C 
BRANCH  15  16
ATOM     16  C   UNL     1     152.810 156.152 137.990  1.00  0.00     0.075 C 
BRANCH  16  17
ATOM     17  C   UNL     1     153.593 157.336 138.498  1.00  0.00     0.129 C 
ATOM     18  O   UNL     1     154.292 157.214 139.492  1.00  0.00    -0.300 OA
ATOM     19  C   UNL     1     153.530 158.666 137.806  1.00  0.00     0.087 C 
ENDBRANCH  16  17
ENDBRANCH  15  16
ENDBRANCH  14  15
ENDBRANCH  12  14
ENDBRANCH  11  12
ENDBRANCH   1  11
TORSDOF 12
ENDMDL
MODEL 2
REMARK VINA RESULT:    -2.739      3.112      6.108
REMARK INTER + INTRA:          -7.074
REMARK INTER:                  -4.506
REMARK INTRA:                  -2.568
REMARK UNBOUND:                -2.414
REMARK SMILES CC(=O)CCC[C@H](C)CCC[C@@H](C)CCCC(C)C
REMARK SMILES IDX 10 1 11 2 12 3 13 4 14 5 15 6 16 7 17 8 18 9 19 10 9 11 7 12
REMARK SMILES IDX 8 13 6 14 5 15 4 16 2 17 3 18 1 19
REMARK H PARENT
REMARK Flexibility Score: inf
ROOT
ATOM      1  C   UNL     1     155.848 151.960 140.206  1.00  0.00     0.001 C 
ENDROOT
BRANCH   1   2
ATOM      2  C   UNL     1     155.714 152.757 138.893  1.00  0.00     0.003 C 
BRANCH   2   3
ATOM      3  C   UNL     1     156.213 154.227 138.952  1.00  0.00    -0.014 C 
ATOM      4  C   UNL     1     157.377 154.382 139.947  1.00  0.00     0.007 C 
BRANCH   3   5
ATOM      5  C   UNL     1     156.659 154.719 137.552  1.00  0.00     0.003 C 
BRANCH   5   6
ATOM      6  C   UNL     1     156.988 153.563 136.589  1.00  0.00     0.001 C 
BRANCH   6   7
ATOM      7  C   UNL     1     158.500 153.400 136.336  1.00  0.00     0.003 C 
BRANCH   7   8
ATOM      8  C   UNL     1     159.375 154.605 136.759  1.00  0.00    -0.017 C 
ATOM      9  C   UNL     1     160.570 154.111 137.585  1.00  0.00     0.007 C 
ATOM     10  C   UNL     1     159.875 155.412 135.553  1.00  0.00     0.007 C 
ENDBRANCH   7   8
ENDBRANCH   6   7
ENDBRANCH   5   6
ENDBRANCH   3   5
ENDBRANCH   2   3
ENDBRANCH   1   2
BRANCH   1  11
ATOM     11  C   UNL     1     156.692 150.680 140.044  1.00  0.00     0.003 C 
BRANCH  11  12
ATOM     12  C   UNL     1     157.710 150.728 138.878  1.00  0.00    -0.014 C 
ATOM     13  C   UNL     1     159.099 151.193 139.350  1.00  0.00     0.007 C 
BRANCH  12  14
ATOM     14  C   UNL     1     157.773 149.379 138.120  1.00  0.00     0.004 C 
BRANCH  14  15
ATOM     15  C   UNL     1     156.855 148.275 138.684  1.00  0.00     0.008 C 
BRANCH  15  16
ATOM     16  C   UNL     1     155.887 147.660 137.659  1.00  0.00     0.075 C 
BRANCH  16  17
ATOM     17  C   UNL     1     155.266 148.705 136.766  1.00  0.00     0.129 C 
ATOM     18  O   UNL     1     155.590 148.762 135.590  1.00  0.00    -0.300 OA
ATOM     19  C   UNL     1     154.255 149.680 137.295  1.00  0.00     0.087 C 
ENDBRANCH  16  17
ENDBRANCH  15  16
ENDBRANCH  14  15
ENDBRANCH  12  14
ENDBRANCH  11  12
ENDBRANCH   1  11
TORSDOF 12
ENDMDL
MODEL 3
REMARK VINA RESULT:    -2.722     10.908     13.847
REMARK INTER + INTRA:          -7.046
REMARK INTER:                  -4.514
REMARK INTRA:                  -2.532
REMARK UNBOUND:                -2.414
REMARK SMILES CC(=O)CCC[C@H](C)CCC[C@@H](C)CCCC(C)C
REMARK SMILES IDX 10 1 11 2 12 3 13 4 14 5 15 6 16 7 17 8 18 9 19 10 9 11 7 12
REMARK SMILES IDX 8 13 6 14 5 15 4 16 2 17 3 18 1 19
REMARK H PARENT
REMARK Flexibility Score: inf
ROOT
ATOM      1  C   UNL     1     143.872 146.477 137.270  1.00  0.00     0.001 C 
ENDROOT
BRANCH   1   2
ATOM      2  C   UNL     1     143.061 147.776 137.442  1.00  0.00     0.003 C 
BRANCH   2   3
ATOM      3  C   UNL     1     142.708 148.151 138.908  1.00  0.00    -0.014 C 
ATOM      4  C   UNL     1     143.060 147.008 139.877  1.00  0.00     0.007 C 
BRANCH   3   5
ATOM      5  C   UNL     1     143.443 149.444 139.343  1.00  0.00     0.003 C 
BRANCH   5   6
ATOM      6  C   UNL     1     144.922 149.199 139.699  1.00  0.00     0.001 C 
BRANCH   6   7
ATOM      7  C   UNL     1     145.897 149.952 138.773  1.00  0.00     0.003 C 
BRANCH   7   8
ATOM      8  C   UNL     1     145.236 150.745 137.619  1.00  0.00    -0.017 C 
ATOM      9  C   UNL     1     145.473 152.247 137.821  1.00  0.00     0.007 C 
ATOM     10  C   UNL     1     145.763 150.317 136.242  1.00  0.00     0.007 C 
ENDBRANCH   7   8
ENDBRANCH   6   7
ENDBRANCH   5   6
ENDBRANCH   3   5
ENDBRANCH   2   3
ENDBRANCH   1   2
BRANCH   1  11
ATOM     11  C   UNL     1     145.181 146.690 136.483  1.00  0.00     0.003 C 
BRANCH  11  12
ATOM     12  C   UNL     1     146.452 146.177 137.204  1.00  0.00    -0.014 C 
ATOM     13  C   UNL     1     147.585 147.217 137.176  1.00  0.00     0.007 C 
BRANCH  12  14
ATOM     14  C   UNL     1     146.138 145.695 138.642  1.00  0.00     0.004 C 
BRANCH  14  15
ATOM     15  C   UNL     1     147.022 144.534 139.143  1.00  0.00     0.008 C 
BRANCH  15  16
ATOM     16  C   UNL     1     147.647 143.677 138.028  1.00  0.00     0.075 C 
BRANCH  16  17
ATOM     17  C   UNL     1     149.147 143.818 137.977  1.00  0.00     0.129 C 
ATOM     18  O   UNL     1     149.759 143.399 137.007  1.00  0.00    -0.300 OA
ATOM     19  C   UNL     1     149.908 144.463 139.099  1.00  0.00     0.087 C 
ENDBRANCH  16  17
ENDBRANCH  15  16
ENDBRANCH  14  15
ENDBRANCH  12  14
ENDBRANCH  11  12
ENDBRANCH   1  11
TORSDOF 12
ENDMDL
MODEL 4
REMARK VINA RESULT:    -2.718      2.183      4.305
REMARK INTER + INTRA:          -7.039
REMARK INTER:                  -4.198
REMARK INTRA:                  -2.842
REMARK UNBOUND:                -2.414
REMARK SMILES CC(=O)CCC[C@H](C)CCC[C@@H](C)CCCC(C)C
REMARK SMILES IDX 10 1 11 2 12 3 13 4 14 5 15 6 16 7 17 8 18 9 19 10 9 11 7 12
REMARK SMILES IDX 8 13 6 14 5 15 4 16 2 17 3 18 1 19
REMARK H PARENT
REMARK Flexibility Score: inf
ROOT
ATOM      1  C   UNL     1     156.974 153.955 139.983  1.00  0.00     0.001 C 
ENDROOT
BRANCH   1   2
ATOM      2  C   UNL     1     156.265 152.650 139.569  1.00  0.00     0.003 C 
BRANCH   2   3
ATOM      3  C   UNL     1     157.205 151.488 139.144  1.00  0.00    -0.014 C 
ATOM      4  C   UNL     1     156.618 150.122 139.541  1.00  0.00     0.007 C 
BRANCH   3   5
ATOM      5  C   UNL     1     157.466 151.515 137.617  1.00  0.00     0.003 C 
BRANCH   5   6
ATOM      6  C   UNL     1     158.948 151.755 137.268  1.00  0.00     0.001 C 
BRANCH   6   7
ATOM      7  C   UNL     1     159.835 151.953 138.513  1.00  0.00     0.003 C 
BRANCH   7   8
ATOM      8  C   UNL     1     160.634 153.279 138.552  1.00  0.00    -0.017 C 
ATOM      9  C   UNL     1     160.066 154.255 137.514  1.00  0.00     0.007 C 
ATOM     10  C   UNL     1     160.612 153.929 139.943  1.00  0.00     0.007 C 
ENDBRANCH   7   8
ENDBRANCH   6   7
ENDBRANCH   5   6
ENDBRANCH   3   5
ENDBRANCH   2   3
ENDBRANCH   1   2
BRANCH   1  11
ATOM     11  C   UNL     1     156.731 155.108 138.988  1.00  0.00     0.003 C 
BRANCH  11  12
ATOM     12  C   UNL     1     155.378 155.032 138.238  1.00  0.00    -0.014 C 
ATOM     13  C   UNL     1     154.444 156.191 138.623  1.00  0.00     0.007 C 
BRANCH  12  14
ATOM     14  C   UNL     1     155.580 154.930 136.705  1.00  0.00     0.004 C 
BRANCH  14  15
ATOM     15  C   UNL     1     155.026 153.641 136.064  1.00  0.00     0.008 C 
BRANCH  15  16
ATOM     16  C   UNL     1     153.721 153.122 136.692  1.00  0.00     0.075 C 
BRANCH  16  17
ATOM     17  C   UNL     1     153.769 151.640 136.960  1.00  0.00     0.129 C 
ATOM     18  O   UNL     1     154.325 150.901 136.161  1.00  0.00    -0.300 OA
ATOM     19  C   UNL     1     153.144 151.049 138.190  1.00  0.00     0.087 C 
ENDBRANCH  16  17
ENDBRANCH  15  16
ENDBRANCH  14  15
ENDBRANCH  12  14
ENDBRANCH  11  12
ENDBRANCH   1  11
TORSDOF 12
ENDMDL
MODEL 5
REMARK VINA RESULT:    -2.692      7.389     10.928
REMARK INTER + INTRA:          -6.994
REMARK INTER:                  -5.119
REMARK INTRA:                  -1.875
REMARK UNBOUND:                -2.414
REMARK SMILES CC(=O)CCC[C@H](C)CCC[C@@H](C)CCCC(C)C
REMARK SMILES IDX 10 1 11 2 12 3 13 4 14 5 15 6 16 7 17 8 18 9 19 10 9 11 7 12
REMARK SMILES IDX 8 13 6 14 5 15 4 16 2 17 3 18 1 19
REMARK H PARENT
REMARK Flexibility Score: inf
ROOT
ATOM      1  C   UNL     1     146.171 155.909 138.504  1.00  0.00     0.001 C 
ENDROOT
BRANCH   1   2
ATOM      2  C   UNL     1     146.610 157.112 137.646  1.00  0.00     0.003 C 
BRANCH   2   3
ATOM      3  C   UNL     1     147.028 158.379 138.441  1.00  0.00    -0.014 C 
ATOM      4  C   UNL     1     146.919 158.147 139.959  1.00  0.00     0.007 C 
BRANCH   3   5
ATOM      5  C   UNL     1     148.474 158.808 138.086  1.00  0.00     0.003 C 
BRANCH   5   6
ATOM      6  C   UNL     1     149.351 157.627 137.625  1.00  0.00     0.001 C 
BRANCH   6   7
ATOM      7  C   UNL     1     150.428 157.238 138.656  1.00  0.00     0.003 C 
BRANCH   7   8
ATOM      8  C   UNL     1     150.387 155.765 139.133  1.00  0.00    -0.017 C 
ATOM      9  C   UNL     1     149.517 155.653 140.392  1.00  0.00     0.007 C 
ATOM     10  C   UNL     1     149.855 154.818 138.048  1.00  0.00     0.007 C 
ENDBRANCH   7   8
ENDBRANCH   6   7
ENDBRANCH   5   6
ENDBRANCH   3   5
ENDBRANCH   2   3
ENDBRANCH   1   2
BRANCH   1  11
ATOM     11  C   UNL     1     146.229 154.574 137.734  1.00  0.00     0.003 C 
BRANCH  11  12
ATOM     12  C   UNL     1     145.237 153.499 138.242  1.00  0.00    -0.014 C 
ATOM     13  C   UNL     1     144.142 154.107 139.135  1.00  0.00     0.007 C 
BRANCH  12  14
ATOM     14  C   UNL     1     144.644 152.672 137.073  1.00  0.00     0.004 C 
BRANCH  14  15
ATOM     15  C   UNL     1     144.668 151.144 137.285  1.00  0.00     0.008 C 
BRANCH  15  16
ATOM     16  C   UNL     1     145.674 150.659 138.343  1.00  0.00     0.075 C 
BRANCH  16  17
ATOM     17  C   UNL     1     144.990 150.045 139.538  1.00  0.00     0.129 C 
ATOM     18  O   UNL     1     144.571 150.768 140.430  1.00  0.00    -0.300 OA
ATOM     19  C   UNL     1     144.813 148.560 139.657  1.00  0.00     0.087 C 
ENDBRANCH  16  17
ENDBRANCH  15  16
ENDBRANCH  14  15
ENDBRANCH  12  14
ENDBRANCH  11  12
ENDBRANCH   1  11
TORSDOF 12
ENDMDL
MODEL 6
REMARK VINA RESULT:    -2.677      7.085     10.210
REMARK INTER + INTRA:          -6.969
REMARK INTER:                  -4.447
REMARK INTRA:                  -2.522
REMARK UNBOUND:                -2.414
REMARK SMILES CC(=O)CCC[C@H](C)CCC[C@@H](C)CCCC(C)C
REMARK SMILES IDX 10 1 11 2 12 3 13 4 14 5 15 6 16 7 17 8 18 9 19 10 9 11 7 12
REMARK SMILES IDX 8 13 6 14 5 15 4 16 2 17 3 18 1 19
REMARK H PARENT
REMARK Flexibility Score: inf
ROOT
ATOM      1  C   UNL     1     146.972 157.081 139.623  1.00  0.00     0.001 C 
ENDROOT
BRANCH   1   2
ATOM      2  C   UNL     1     148.366 156.428 139.690  1.00  0.00     0.003 C 
BRANCH   2   3
ATOM      3  C   UNL     1     149.560 157.377 139.398  1.00  0.00    -0.014 C 
ATOM      4  C   UNL     1     150.904 156.704 139.730  1.00  0.00     0.007 C 
BRANCH   3   5
ATOM      5  C   UNL     1     149.561 157.830 137.915  1.00  0.00     0.003 C 
BRANCH   5   6
ATOM      6  C   UNL     1     149.308 159.341 137.752  1.00  0.00     0.001 C 
BRANCH   6   7
ATOM      7  C   UNL     1     149.390 160.114 139.082  1.00  0.00     0.003 C 
BRANCH   7   8
ATOM      8  C   UNL     1     148.154 160.984 139.419  1.00  0.00    -0.017 C 
ATOM      9  C   UNL     1     147.154 160.934 138.257  1.00  0.00     0.007 C 
ATOM     10  C   UNL     1     147.466 160.539 140.717  1.00  0.00     0.007 C 
ENDBRANCH   7   8
ENDBRANCH   6   7
ENDBRANCH   5   6
ENDBRANCH   3   5
ENDBRANCH   2   3
ENDBRANCH   1   2
BRANCH   1  11
ATOM     11  C   UNL     1     146.117 156.545 138.456  1.00  0.00     0.003 C 
BRANCH  11  12
ATOM     12  C   UNL     1     146.114 155.003 138.321  1.00  0.00    -0.014 C 
ATOM     13  C   UNL     1     144.803 154.386 138.837  1.00  0.00     0.007 C 
BRANCH  12  14
ATOM     14  C   UNL     1     146.439 154.555 136.874  1.00  0.00     0.004 C 
BRANCH  14  15
ATOM     15  C   UNL     1     147.427 155.470 136.121  1.00  0.00     0.008 C 
BRANCH  15  16
ATOM     16  C   UNL     1     146.816 156.232 134.932  1.00  0.00     0.075 C 
BRANCH  16  17
ATOM     17  C   UNL     1     147.184 157.693 134.943  1.00  0.00     0.129 C 
ATOM     18  O   UNL     1     148.293 158.038 134.564  1.00  0.00    -0.300 OA
ATOM     19  C   UNL     1     146.215 158.738 135.414  1.00  0.00     0.087 C 
ENDBRANCH  16  17
ENDBRANCH  15  16
ENDBRANCH  14  15
ENDBRANCH  12  14
ENDBRANCH  11  12
ENDBRANCH   1  11
TORSDOF 12
ENDMDL
MODEL 7
REMARK VINA RESULT:    -2.658     10.013     12.398
REMARK INTER + INTRA:          -6.937
REMARK INTER:                  -4.765
REMARK INTRA:                  -2.172
REMARK UNBOUND:                -2.414
REMARK SMILES CC(=O)CCC[C@H](C)CCC[C@@H](C)CCCC(C)C
REMARK SMILES IDX 10 1 11 2 12 3 13 4 14 5 15 6 16 7 17 8 18 9 19 10 9 11 7 12
REMARK SMILES IDX 8 13 6 14 5 15 4 16 2 17 3 18 1 19
REMARK H PARENT
REMARK Flexibility Score: inf
ROOT
ATOM      1  C   UNL     1     145.584 149.835 139.383  1.00  0.00     0.001 C 
ENDROOT
BRANCH   1   2
ATOM      2  C   UNL     1     146.067 149.940 137.923  1.00  0.00     0.003 C 
BRANCH   2   3
ATOM      3  C   UNL     1     145.897 148.651 137.072  1.00  0.00    -0.014 C 
ATOM      4  C   UNL     1     146.315 147.400 137.864  1.00  0.00     0.007 C 
BRANCH   3   5
ATOM      5  C   UNL     1     144.433 148.493 136.589  1.00  0.00     0.003 C 
BRANCH   5   6
ATOM      6  C   UNL     1     143.687 147.351 137.306  1.00  0.00     0.001 C 
BRANCH   6   7
ATOM      7  C   UNL     1     142.381 147.814 137.980  1.00  0.00     0.003 C 
BRANCH   7   8
ATOM      8  C   UNL     1     142.391 147.791 139.528  1.00  0.00    -0.017 C 
ATOM      9  C   UNL     1     141.015 147.353 140.048  1.00  0.00     0.007 C 
ATOM     10  C   UNL     1     143.477 146.862 140.089  1.00  0.00     0.007 C 
ENDBRANCH   7   8
ENDBRANCH   6   7
ENDBRANCH   5   6
ENDBRANCH   3   5
ENDBRANCH   2   3
ENDBRANCH   1   2
BRANCH   1  11
ATOM     11  C   UNL     1     144.498 150.874 139.729  1.00  0.00     0.003 C 
BRANCH  11  12
ATOM     12  C   UNL     1     144.061 151.764 138.539  1.00  0.00    -0.014 C 
ATOM     13  C   UNL     1     142.608 151.485 138.119  1.00  0.00     0.007 C 
BRANCH  12  14
ATOM     14  C   UNL     1     144.307 153.266 138.830  1.00  0.00     0.004 C 
BRANCH  14  15
ATOM     15  C   UNL     1     145.494 153.887 138.064  1.00  0.00     0.008 C 
BRANCH  15  16
ATOM     16  C   UNL     1     145.891 155.298 138.534  1.00  0.00     0.075 C 
BRANCH  16  17
ATOM     17  C   UNL     1     146.742 156.016 137.518  1.00  0.00     0.129 C 
ATOM     18  O   UNL     1     147.631 155.410 136.940  1.00  0.00    -0.300 OA
ATOM     19  C   UNL     1     146.520 157.466 137.201  1.00  0.00     0.087 C 
ENDBRANCH  16  17
ENDBRANCH  15  16
ENDBRANCH  14  15
ENDBRANCH  12  14
ENDBRANCH  11  12
ENDBRANCH   1  11
TORSDOF 12
ENDMDL
MODEL 8
REMARK VINA RESULT:    -2.635      1.763      3.744
REMARK INTER + INTRA:          -6.898
REMARK INTER:                  -4.173
REMARK INTRA:                  -2.725
REMARK UNBOUND:                -2.414
REMARK SMILES CC(=O)CCC[C@H](C)CCC[C@@H](C)CCCC(C)C
REMARK SMILES IDX 10 1 11 2 12 3 13 4 14 5 15 6 16 7 17 8 18 9 19 10 9 11 7 12
REMARK SMILES IDX 8 13 6 14 5 15 4 16 2 17 3 18 1 19
REMARK H PARENT
REMARK Flexibility Score: inf
ROOT
ATOM      1  C   UNL     1     158.535 151.319 139.381  1.00  0.00     0.001 C 
ENDROOT
BRANCH   1   2
ATOM      2  C   UNL     1     159.883 151.932 138.954  1.00  0.00     0.003 C 
BRANCH   2   3
ATOM      3  C   UNL     1     159.944 153.484 138.976  1.00  0.00    -0.014 C 
ATOM      4  C   UNL     1     160.093 154.016 140.413  1.00  0.00     0.007 C 
BRANCH   3   5
ATOM      5  C   UNL     1     161.116 154.007 138.107  1.00  0.00     0.003 C 
BRANCH   5   6
ATOM      6  C   UNL     1     160.647 154.589 136.759  1.00  0.00     0.001 C 
BRANCH   6   7
ATOM      7  C   UNL     1     159.112 154.624 136.619  1.00  0.00     0.003 C 
BRANCH   7   8
ATOM      8  C   UNL     1     158.543 153.876 135.389  1.00  0.00    -0.017 C 
ATOM      9  C   UNL     1     158.756 154.721 134.126  1.00  0.00     0.007 C 
ATOM     10  C   UNL     1     159.182 152.493 135.202  1.00  0.00     0.007 C 
ENDBRANCH   7   8
ENDBRANCH   6   7
ENDBRANCH   5   6
ENDBRANCH   3   5
ENDBRANCH   2   3
ENDBRANCH   1   2
BRANCH   1  11
ATOM     11  C   UNL     1     157.579 151.091 138.192  1.00  0.00     0.003 C 
BRANCH  11  12
ATOM     12  C   UNL     1     156.517 152.202 138.003  1.00  0.00    -0.014 C 
ATOM     13  C   UNL     1     155.264 151.679 137.281  1.00  0.00     0.007 C 
BRANCH  12  14
ATOM     14  C   UNL     1     156.170 152.894 139.345  1.00  0.00     0.004 C 
BRANCH  14  15
ATOM     15  C   UNL     1     156.460 154.409 139.386  1.00  0.00     0.008 C 
BRANCH  15  16
ATOM     16  C   UNL     1     156.007 155.182 138.135  1.00  0.00     0.075 C 
BRANCH  16  17
ATOM     17  C   UNL     1     154.602 155.709 138.271  1.00  0.00     0.129 C 
ATOM     18  O   UNL     1     154.376 156.633 139.037  1.00  0.00    -0.300 OA
ATOM     19  C   UNL     1     153.468 155.119 137.484  1.00  0.00     0.087 C 
ENDBRANCH  16  17
ENDBRANCH  15  16
ENDBRANCH  14  15
ENDBRANCH  12  14
ENDBRANCH  11  12
ENDBRANCH   1  11
TORSDOF 12
ENDMDL
MODEL 9
REMARK VINA RESULT:    -2.606      2.258      3.548
REMARK INTER + INTRA:          -6.848
REMARK INTER:                  -4.076
REMARK INTRA:                  -2.772
REMARK UNBOUND:                -2.414
REMARK SMILES CC(=O)CCC[C@H](C)CCC[C@@H](C)CCCC(C)C
REMARK SMILES IDX 10 1 11 2 12 3 13 4 14 5 15 6 16 7 17 8 18 9 19 10 9 11 7 12
REMARK SMILES IDX 8 13 6 14 5 15 4 16 2 17 3 18 1 19
REMARK H PARENT
REMARK Flexibility Score: inf
ROOT
ATOM      1  C   UNL     1     157.772 154.409 139.790  1.00  0.00     0.001 C 
ENDROOT
BRANCH   1   2
ATOM      2  C   UNL     1     159.167 153.807 139.528  1.00  0.00     0.003 C 
BRANCH   2   3
ATOM      3  C   UNL     1     159.484 153.488 138.041  1.00  0.00    -0.014 C 
ATOM      4  C   UNL     1     160.692 154.302 137.541  1.00  0.00     0.007 C 
BRANCH   3   5
ATOM      5  C   UNL     1     159.762 151.976 137.845  1.00  0.00     0.003 C 
BRANCH   5   6
ATOM      6  C   UNL     1     159.266 151.119 139.025  1.00  0.00     0.001 C 
BRANCH   6   7
ATOM      7  C   UNL     1     158.058 150.234 138.661  1.00  0.00     0.003 C 
BRANCH   7   8
ATOM      8  C   UNL     1     156.683 150.945 138.693  1.00  0.00    -0.017 C 
ATOM      9  C   UNL     1     155.657 150.122 137.903  1.00  0.00     0.007 C 
ATOM     10  C   UNL     1     156.177 151.169 140.125  1.00  0.00     0.007 C 
ENDBRANCH   7   8
ENDBRANCH   6   7
ENDBRANCH   5   6
ENDBRANCH   3   5
ENDBRANCH   2   3
ENDBRANCH   1   2
BRANCH   1  11
ATOM     11  C   UNL     1     157.011 154.740 138.490  1.00  0.00     0.003 C 
BRANCH  11  12
ATOM     12  C   UNL     1     155.469 154.672 138.616  1.00  0.00    -0.014 C 
ATOM     13  C   UNL     1     154.831 156.071 138.594  1.00  0.00     0.007 C 
BRANCH  12  14
ATOM     14  C   UNL     1     154.850 153.731 137.552  1.00  0.00     0.004 C 
BRANCH  14  15
ATOM     15  C   UNL     1     155.248 154.051 136.096  1.00  0.00     0.008 C 
BRANCH  15  16
ATOM     16  C   UNL     1     155.571 152.817 135.235  1.00  0.00     0.075 C 
BRANCH  16  17
ATOM     17  C   UNL     1     157.056 152.600 135.090  1.00  0.00     0.129 C 
ATOM     18  O   UNL     1     157.517 151.478 135.233  1.00  0.00    -0.300 OA
ATOM     19  C   UNL     1     157.983 153.737 134.772  1.00  0.00     0.087 C 
ENDBRANCH  16  17
ENDBRANCH  15  16
ENDBRANCH  14  15
ENDBRANCH  12  14
ENDBRANCH  11  12
ENDBRANCH   1  11
TORSDOF 12
ENDMDL
