MODEL 1
REMARK VINA RESULT:    -2.738      0.000      0.000
REMARK INTER + INTRA:          -3.277
REMARK INTER:                  -3.859
REMARK INTRA:                   0.582
REMARK UNBOUND:                 0.582
REMARK SMILES CC1=CCC(=C(C)C)C(=O)CC(C)=CCC1
REMARK SMILES IDX 12 1 14 2 13 3 15 4 16 5 2 6 1 7 3 8 11 10 9 11 10 12 5 13
REMARK SMILES IDX 6 14 7 15 8 16 4 17
REMARK H PARENT
REMARK Flexibility Score: 60.00
ROOT
ATOM      1  C   UNL     1      25.646  38.317  20.432  1.00  0.00    -0.070 C 
ATOM      2  C   UNL     1      25.360  39.360  21.242  1.00  0.00    -0.027 C 
ATOM      3  C   UNL     1      24.970  36.999  20.713  1.00  0.00     0.039 C 
ENDROOT
BRANCH   2   4
ATOM      4  C   UNL     1      25.859  40.777  21.066  1.00  0.00     0.032 C 
BRANCH   4   5
ATOM      5  C   UNL     1      27.148  41.111  21.846  1.00  0.00     0.034 C 
BRANCH   5   6
ATOM      6  C   UNL     1      28.412  40.893  21.033  1.00  0.00    -0.077 C 
ATOM      7  C   UNL     1      28.950  42.061  20.246  1.00  0.00     0.039 C 
ATOM      8  C   UNL     1      29.124  39.739  21.023  1.00  0.00    -0.023 CG0
ATOM      9  G   UNL     1      28.769  38.440  21.717  1.00  0.00     0.000 G0
ENDBRANCH   5   6
ENDBRANCH   4   5
ENDBRANCH   2   4
BRANCH   1  10
ATOM     10  C   UNL     1      26.536  38.431  19.212  1.00  0.00     0.111 C 
BRANCH  10  11
ATOM     11  C   UNL     1      27.862  37.750  19.424  1.00  0.00     0.163 C 
ATOM     12  O   UNL     1      28.612  37.584  18.423  1.00  0.00    -0.294 OA
BRANCH  11  13
ATOM     13  C   UNL     1      28.338  37.327  20.774  1.00  0.00    -0.002 C 
ATOM     14  C   UNL     1      28.453  36.002  21.091  1.00  0.00    -0.069 C 
ATOM     15  C   UNL     1      29.079  35.541  22.389  1.00  0.00     0.039 C 
ATOM     16  C   UNL     1      27.956  34.925  20.153  1.00  0.00     0.039 C 
BRANCH  13  17
ATOM     17  C   UNL     1      28.776  38.423  21.733  1.00  0.00     0.066 CG0
ATOM     18  G   UNL     1      29.105  39.718  21.017  1.00  0.00     0.000 G0
ENDBRANCH  13  17
ENDBRANCH  11  13
ENDBRANCH  10  11
ENDBRANCH   1  10
TORSDOF 0
ENDMDL
MODEL 2
REMARK VINA RESULT:    -2.614     12.991     14.886
REMARK INTER + INTRA:          -3.102
REMARK INTER:                  -3.486
REMARK INTRA:                   0.384
REMARK UNBOUND:                 0.582
REMARK SMILES CC1=CCC(=C(C)C)C(=O)CC(C)=CCC1
REMARK SMILES IDX 12 1 14 2 13 3 15 4 16 5 2 6 1 7 3 8 11 10 9 11 10 12 5 13
REMARK SMILES IDX 6 14 7 15 8 16 4 17
REMARK H PARENT
REMARK Flexibility Score: 60.00
ROOT
ATOM      1  C   UNL     1      25.705  25.538  28.330  1.00  0.00    -0.070 C 
ATOM      2  C   UNL     1      26.231  25.039  27.190  1.00  0.00    -0.027 C 
ATOM      3  C   UNL     1      24.577  26.531  28.212  1.00  0.00     0.039 C 
ENDROOT
BRANCH   2   4
ATOM      4  C   UNL     1      27.295  23.968  27.102  1.00  0.00     0.032 C 
BRANCH   4   5
ATOM      5  C   UNL     1      28.746  24.491  27.148  1.00  0.00     0.034 C 
BRANCH   5   6
ATOM      6  C   UNL     1      28.863  25.960  26.782  1.00  0.00    -0.077 C 
ATOM      7  C   UNL     1      28.856  26.321  25.318  1.00  0.00     0.039 C 
ATOM      8  C   UNL     1      28.904  26.971  27.684  1.00  0.00    -0.023 CG0
ATOM      9  G   UNL     1      28.940  26.848  29.194  1.00  0.00     0.000 G0
ENDBRANCH   5   6
ENDBRANCH   4   5
ENDBRANCH   2   4
BRANCH   1  10
ATOM     10  C   UNL     1      26.131  25.083  29.711  1.00  0.00     0.111 C 
BRANCH  10  11
ATOM     11  C   UNL     1      26.790  26.194  30.485  1.00  0.00     0.163 C 
ATOM     12  O   UNL     1      26.701  26.176  31.743  1.00  0.00    -0.294 OA
BRANCH  11  13
ATOM     13  C   UNL     1      27.589  27.267  29.822  1.00  0.00    -0.002 C 
ATOM     14  C   UNL     1      27.181  28.571  29.865  1.00  0.00    -0.069 C 
ATOM     15  C   UNL     1      28.044  29.698  29.343  1.00  0.00     0.039 C 
ATOM     16  C   UNL     1      25.836  28.952  30.443  1.00  0.00     0.039 C 
BRANCH  13  17
ATOM     17  C   UNL     1      28.910  26.860  29.189  1.00  0.00     0.066 CG0
ATOM     18  G   UNL     1      28.882  26.965  27.677  1.00  0.00     0.000 G0
ENDBRANCH  13  17
ENDBRANCH  11  13
ENDBRANCH  10  11
ENDBRANCH   1  10
TORSDOF 0
ENDMDL
MODEL 3
REMARK VINA RESULT:    -2.548     12.694     14.523
REMARK INTER + INTRA:          -3.009
REMARK INTER:                  -3.413
REMARK INTRA:                   0.404
REMARK UNBOUND:                 0.582
REMARK SMILES CC1=CCC(=C(C)C)C(=O)CC(C)=CCC1
REMARK SMILES IDX 12 1 14 2 13 3 15 4 16 5 2 6 1 7 3 8 11 10 9 11 10 12 5 13
REMARK SMILES IDX 6 14 7 15 8 16 4 17
REMARK H PARENT
REMARK Flexibility Score: 60.00
ROOT
ATOM      1  C   UNL     1      26.248  24.465  27.669  1.00  0.00    -0.070 C 
ATOM      2  C   UNL     1      27.520  24.711  27.286  1.00  0.00    -0.027 C 
ATOM      3  C   UNL     1      25.298  23.900  26.643  1.00  0.00     0.039 C 
ENDROOT
BRANCH   2   4
ATOM      4  C   UNL     1      28.638  25.183  28.189  1.00  0.00     0.032 C 
BRANCH   4   5
ATOM      5  C   UNL     1      29.125  26.623  27.917  1.00  0.00     0.034 C 
BRANCH   5   6
ATOM      6  C   UNL     1      28.335  27.325  26.828  1.00  0.00    -0.077 C 
ATOM      7  C   UNL     1      28.835  27.205  25.410  1.00  0.00     0.039 C 
ATOM      8  C   UNL     1      27.174  27.994  27.036  1.00  0.00    -0.023 CG0
ATOM      9  G   UNL     1      26.497  28.258  28.366  1.00  0.00     0.000 G0
ENDBRANCH   5   6
ENDBRANCH   4   5
ENDBRANCH   2   4
BRANCH   1  10
ATOM     10  C   UNL     1      25.759  24.642  29.092  1.00  0.00     0.111 C 
BRANCH  10  11
ATOM     11  C   UNL     1      25.900  26.068  29.555  1.00  0.00     0.163 C 
ATOM     12  O   UNL     1      26.472  26.281  30.659  1.00  0.00    -0.294 OA
BRANCH  11  13
ATOM     13  C   UNL     1      25.447  27.226  28.730  1.00  0.00    -0.002 C 
ATOM     14  C   UNL     1      24.130  27.371  28.391  1.00  0.00    -0.069 C 
ATOM     15  C   UNL     1      23.614  28.610  27.693  1.00  0.00     0.039 C 
ATOM     16  C   UNL     1      23.117  26.291  28.701  1.00  0.00     0.039 C 
BRANCH  13  17
ATOM     17  C   UNL     1      26.488  28.274  28.370  1.00  0.00     0.066 CG0
ATOM     18  G   UNL     1      27.176  27.975  27.054  1.00  0.00     0.000 G0
ENDBRANCH  13  17
ENDBRANCH  11  13
ENDBRANCH  10  11
ENDBRANCH   1  10
TORSDOF 0
ENDMDL
MODEL 4
REMARK VINA RESULT:    -2.455      1.681      2.446
REMARK INTER + INTRA:          -2.877
REMARK INTER:                  -3.537
REMARK INTRA:                   0.659
REMARK UNBOUND:                 0.582
REMARK SMILES CC1=CCC(=C(C)C)C(=O)CC(C)=CCC1
REMARK SMILES IDX 12 1 14 2 13 3 15 4 16 5 2 6 1 7 3 8 11 10 9 11 10 12 5 13
REMARK SMILES IDX 6 14 7 15 8 16 4 17
REMARK H PARENT
REMARK Flexibility Score: 60.00
ROOT
ATOM      1  C   UNL     1      27.827  38.956  18.297  1.00  0.00    -0.070 C 
ATOM      2  C   UNL     1      28.273  40.222  18.459  1.00  0.00    -0.027 C 
ATOM      3  C   UNL     1      28.739  37.967  17.618  1.00  0.00     0.039 C 
ENDROOT
BRANCH   2   4
ATOM      4  C   UNL     1      27.549  41.326  19.196  1.00  0.00     0.032 C 
BRANCH   4   5
ATOM      5  C   UNL     1      28.332  41.938  20.377  1.00  0.00     0.034 C 
BRANCH   5   6
ATOM      6  C   UNL     1      27.766  41.553  21.733  1.00  0.00    -0.077 C 
ATOM      7  C   UNL     1      26.997  42.603  22.495  1.00  0.00     0.039 C 
ATOM      8  C   UNL     1      27.848  40.312  22.271  1.00  0.00    -0.023 CG0
ATOM      9  G   UNL     1      28.580  39.114  21.699  1.00  0.00     0.000 G0
ENDBRANCH   5   6
ENDBRANCH   4   5
ENDBRANCH   2   4
BRANCH   1  10
ATOM     10  C   UNL     1      26.501  38.466  18.842  1.00  0.00     0.111 C 
BRANCH  10  11
ATOM     11  C   UNL     1      26.468  38.508  20.347  1.00  0.00     0.163 C 
ATOM     12  O   UNL     1      25.407  38.896  20.908  1.00  0.00    -0.294 OA
BRANCH  11  13
ATOM     13  C   UNL     1      27.615  38.052  21.186  1.00  0.00    -0.002 C 
ATOM     14  C   UNL     1      27.840  36.720  21.398  1.00  0.00    -0.069 C 
ATOM     15  C   UNL     1      29.079  36.220  22.108  1.00  0.00     0.039 C 
ATOM     16  C   UNL     1      26.854  35.674  20.927  1.00  0.00     0.039 C 
BRANCH  13  17
ATOM     17  C   UNL     1      28.565  39.119  21.706  1.00  0.00     0.066 CG0
ATOM     18  G   UNL     1      27.831  40.321  22.265  1.00  0.00     0.000 G0
ENDBRANCH  13  17
ENDBRANCH  11  13
ENDBRANCH  10  11
ENDBRANCH   1  10
TORSDOF 0
ENDMDL
MODEL 5
REMARK VINA RESULT:    -2.325     12.080     14.524
REMARK INTER + INTRA:          -2.695
REMARK INTER:                  -4.086
REMARK INTRA:                   1.391
REMARK UNBOUND:                 0.582
REMARK SMILES CC1=CCC(=C(C)C)C(=O)CC(C)=CCC1
REMARK SMILES IDX 12 1 14 2 13 3 15 4 16 5 2 6 1 7 3 8 11 10 9 11 10 12 5 13
REMARK SMILES IDX 6 14 7 15 8 16 4 17
REMARK H PARENT
REMARK Flexibility Score: 60.00
ROOT
ATOM      1  C   UNL     1      25.555  28.603  29.898  1.00  0.00    -0.070 C 
ATOM      2  C   UNL     1      24.512  28.258  29.111  1.00  0.00    -0.027 C 
ATOM      3  C   UNL     1      25.483  29.921  30.628  1.00  0.00     0.039 C 
ENDROOT
BRANCH   2   4
ATOM      4  C   UNL     1      24.355  26.943  28.379  1.00  0.00     0.032 C 
BRANCH   4   5
ATOM      5  C   UNL     1      25.084  25.748  29.030  1.00  0.00     0.034 C 
BRANCH   5   6
ATOM      6  C   UNL     1      25.655  24.773  28.017  1.00  0.00    -0.077 C 
ATOM      7  C   UNL     1      24.688  23.884  27.277  1.00  0.00     0.039 C 
ATOM      8  C   UNL     1      26.967  24.697  27.686  1.00  0.00    -0.023 CG0
ATOM      9  G   UNL     1      28.113  25.473  28.305  1.00  0.00     0.000 G0
ENDBRANCH   5   6
ENDBRANCH   4   5
ENDBRANCH   2   4
BRANCH   1  10
ATOM     10  C   UNL     1      26.742  27.696  30.152  1.00  0.00     0.111 C 
BRANCH  10  11
ATOM     11  C   UNL     1      27.831  27.908  29.134  1.00  0.00     0.163 C 
ATOM     12  O   UNL     1      28.604  28.893  29.287  1.00  0.00    -0.294 OA
BRANCH  11  13
ATOM     13  C   UNL     1      28.063  26.964  28.001  1.00  0.00    -0.002 C 
ATOM     14  C   UNL     1      28.301  27.433  26.739  1.00  0.00    -0.069 C 
ATOM     15  C   UNL     1      28.695  26.513  25.604  1.00  0.00     0.039 C 
ATOM     16  C   UNL     1      28.183  28.906  26.414  1.00  0.00     0.039 C 
BRANCH  13  17
ATOM     17  C   UNL     1      28.116  25.481  28.330  1.00  0.00     0.066 CG0
ATOM     18  G   UNL     1      26.992  24.704  27.675  1.00  0.00     0.000 G0
ENDBRANCH  13  17
ENDBRANCH  11  13
ENDBRANCH  10  11
ENDBRANCH   1  10
TORSDOF 0
ENDMDL
MODEL 6
REMARK VINA RESULT:    -2.236      2.476      3.909
REMARK INTER + INTRA:          -2.570
REMARK INTER:                  -4.025
REMARK INTRA:                   1.455
REMARK UNBOUND:                 0.582
REMARK SMILES CC1=CCC(=C(C)C)C(=O)CC(C)=CCC1
REMARK SMILES IDX 12 1 14 2 13 3 15 4 16 5 2 6 1 7 3 8 11 10 9 11 10 12 5 13
REMARK SMILES IDX 6 14 7 15 8 16 4 17
REMARK H PARENT
REMARK Flexibility Score: 60.00
ROOT
ATOM      1  C   UNL     1      26.599  42.616  22.222  1.00  0.00    -0.070 C 
ATOM      2  C   UNL     1      26.529  43.754  21.497  1.00  0.00    -0.027 C 
ATOM      3  C   UNL     1      27.200  42.694  23.602  1.00  0.00     0.039 C 
ENDROOT
BRANCH   2   4
ATOM      4  C   UNL     1      25.877  43.899  20.140  1.00  0.00     0.032 C 
BRANCH   4   5
ATOM      5  C   UNL     1      26.758  43.465  18.949  1.00  0.00     0.034 C 
BRANCH   5   6
ATOM      6  C   UNL     1      28.147  43.016  19.366  1.00  0.00    -0.077 C 
ATOM      7  C   UNL     1      29.092  44.064  19.897  1.00  0.00     0.039 C 
ATOM      8  C   UNL     1      28.569  41.728  19.356  1.00  0.00    -0.023 CG0
ATOM      9  G   UNL     1      27.806  40.520  18.852  1.00  0.00     0.000 G0
ENDBRANCH   5   6
ENDBRANCH   4   5
ENDBRANCH   2   4
BRANCH   1  10
ATOM     10  C   UNL     1      26.026  41.295  21.752  1.00  0.00     0.111 C 
BRANCH  10  11
ATOM     11  C   UNL     1      27.107  40.342  21.315  1.00  0.00     0.163 C 
ATOM     12  O   UNL     1      27.992  40.023  22.155  1.00  0.00    -0.294 OA
BRANCH  11  13
ATOM     13  C   UNL     1      27.128  39.722  19.957  1.00  0.00    -0.002 C 
ATOM     14  C   UNL     1      26.490  38.537  19.720  1.00  0.00    -0.069 C 
ATOM     15  C   UNL     1      26.359  37.963  18.326  1.00  0.00     0.039 C 
ATOM     16  C   UNL     1      25.879  37.736  20.848  1.00  0.00     0.039 C 
BRANCH  13  17
ATOM     17  C   UNL     1      27.801  40.509  18.844  1.00  0.00     0.066 CG0
ATOM     18  G   UNL     1      28.541  41.726  19.363  1.00  0.00     0.000 G0
ENDBRANCH  13  17
ENDBRANCH  11  13
ENDBRANCH  10  11
ENDBRANCH   1  10
TORSDOF 0
ENDMDL
MODEL 7
REMARK VINA RESULT:    -1.864      2.183      3.992
REMARK INTER + INTRA:          -2.045
REMARK INTER:                  -2.379
REMARK INTRA:                   0.334
REMARK UNBOUND:                 0.582
REMARK SMILES CC1=CCC(=C(C)C)C(=O)CC(C)=CCC1
REMARK SMILES IDX 12 1 14 2 13 3 15 4 16 5 2 6 1 7 3 8 11 10 9 11 10 12 5 13
REMARK SMILES IDX 6 14 7 15 8 16 4 17
REMARK H PARENT
REMARK Flexibility Score: 60.00
ROOT
ATOM      1  C   UNL     1      24.338  37.038  21.661  1.00  0.00    -0.070 C 
ATOM      2  C   UNL     1      24.636  36.407  22.818  1.00  0.00    -0.027 C 
ATOM      3  C   UNL     1      23.117  37.922  21.633  1.00  0.00     0.039 C 
ENDROOT
BRANCH   2   4
ATOM      4  C   UNL     1      25.864  35.560  23.071  1.00  0.00     0.032 C 
BRANCH   4   5
ATOM      5  C   UNL     1      27.198  36.336  23.069  1.00  0.00     0.034 C 
BRANCH   5   6
ATOM      6  C   UNL     1      28.254  35.707  22.178  1.00  0.00    -0.077 C 
ATOM      7  C   UNL     1      28.596  34.257  22.412  1.00  0.00     0.039 C 
ATOM      8  C   UNL     1      28.858  36.342  21.144  1.00  0.00    -0.023 CG0
ATOM      9  G   UNL     1      28.687  37.791  20.736  1.00  0.00     0.000 G0
ENDBRANCH   5   6
ENDBRANCH   4   5
ENDBRANCH   2   4
BRANCH   1  10
ATOM     10  C   UNL     1      25.215  36.970  20.427  1.00  0.00     0.111 C 
BRANCH  10  11
ATOM     11  C   UNL     1      26.169  38.133  20.359  1.00  0.00     0.163 C 
ATOM     12  O   UNL     1      25.812  39.226  20.878  1.00  0.00    -0.294 OA
BRANCH  11  13
ATOM     13  C   UNL     1      27.532  38.016  19.761  1.00  0.00    -0.002 C 
ATOM     14  C   UNL     1      27.724  38.194  18.419  1.00  0.00    -0.069 C 
ATOM     15  C   UNL     1      29.107  38.239  17.808  1.00  0.00     0.039 C 
ATOM     16  C   UNL     1      26.555  38.357  17.474  1.00  0.00     0.039 C 
BRANCH  13  17
ATOM     17  C   UNL     1      28.694  37.789  20.715  1.00  0.00     0.066 CG0
ATOM     18  G   UNL     1      28.831  36.335  21.120  1.00  0.00     0.000 G0
ENDBRANCH  13  17
ENDBRANCH  11  13
ENDBRANCH  10  11
ENDBRANCH   1  10
TORSDOF 0
ENDMDL
MODEL 8
REMARK VINA RESULT:    -1.803      2.433      4.109
REMARK INTER + INTRA:          -1.959
REMARK INTER:                  -2.392
REMARK INTRA:                   0.434
REMARK UNBOUND:                 0.582
REMARK SMILES CC1=CCC(=C(C)C)C(=O)CC(C)=CCC1
REMARK SMILES IDX 12 1 14 2 13 3 15 4 16 5 2 6 1 7 3 8 11 10 9 11 10 12 5 13
REMARK SMILES IDX 6 14 7 15 8 16 4 17
REMARK H PARENT
REMARK Flexibility Score: 60.00
ROOT
ATOM      1  C   UNL     1      27.807  37.927  19.778  1.00  0.00    -0.070 C 
ATOM      2  C   UNL     1      26.653  38.631  19.743  1.00  0.00    -0.027 C 
ATOM      3  C   UNL     1      28.564  37.749  18.487  1.00  0.00     0.039 C 
ENDROOT
BRANCH   2   4
ATOM      4  C   UNL     1      25.806  38.998  20.942  1.00  0.00     0.032 C 
BRANCH   4   5
ATOM      5  C   UNL     1      24.350  38.489  20.885  1.00  0.00     0.034 C 
BRANCH   5   6
ATOM      6  C   UNL     1      24.249  36.980  20.753  1.00  0.00    -0.077 C 
ATOM      7  C   UNL     1      23.496  36.429  19.568  1.00  0.00     0.039 C 
ATOM      8  C   UNL     1      24.848  36.098  21.590  1.00  0.00    -0.023 CG0
ATOM      9  G   UNL     1      25.633  36.418  22.846  1.00  0.00     0.000 G0
ENDBRANCH   5   6
ENDBRANCH   4   5
ENDBRANCH   2   4
BRANCH   1  10
ATOM     10  C   UNL     1      28.415  37.391  21.058  1.00  0.00     0.111 C 
BRANCH  10  11
ATOM     11  C   UNL     1      27.803  36.075  21.456  1.00  0.00     0.163 C 
ATOM     12  O   UNL     1      27.952  35.090  20.682  1.00  0.00    -0.294 OA
BRANCH  11  13
ATOM     13  C   UNL     1      27.088  35.885  22.753  1.00  0.00    -0.002 C 
ATOM     14  C   UNL     1      27.728  35.340  23.831  1.00  0.00    -0.069 C 
ATOM     15  C   UNL     1      27.083  35.279  25.199  1.00  0.00     0.039 C 
ATOM     16  C   UNL     1      29.123  34.769  23.708  1.00  0.00     0.039 C 
BRANCH  13  17
ATOM     17  C   UNL     1      25.663  36.407  22.845  1.00  0.00     0.066 CG0
ATOM     18  G   UNL     1      24.853  36.094  21.603  1.00  0.00     0.000 G0
ENDBRANCH  13  17
ENDBRANCH  11  13
ENDBRANCH  10  11
ENDBRANCH   1  10
TORSDOF 0
ENDMDL
MODEL 9
REMARK VINA RESULT:    -1.755      1.897      3.389
REMARK INTER + INTRA:          -1.892
REMARK INTER:                  -3.360
REMARK INTRA:                   1.468
REMARK UNBOUND:                 0.582
REMARK SMILES CC1=CCC(=C(C)C)C(=O)CC(C)=CCC1
REMARK SMILES IDX 12 1 14 2 13 3 15 4 16 5 2 6 1 7 3 8 11 10 9 11 10 12 5 13
REMARK SMILES IDX 6 14 7 15 8 16 4 17
REMARK H PARENT
REMARK Flexibility Score: 60.00
ROOT
ATOM      1  C   UNL     1      27.124  41.699  20.971  1.00  0.00    -0.070 C 
ATOM      2  C   UNL     1      27.526  41.870  19.692  1.00  0.00    -0.027 C 
ATOM      3  C   UNL     1      26.170  42.712  21.552  1.00  0.00     0.039 C 
ENDROOT
BRANCH   2   4
ATOM      4  C   UNL     1      28.398  40.917  18.905  1.00  0.00     0.032 C 
BRANCH   4   5
ATOM      5  C   UNL     1      27.646  39.730  18.266  1.00  0.00     0.034 C 
BRANCH   5   6
ATOM      6  C   UNL     1      28.517  38.499  18.084  1.00  0.00    -0.077 C 
ATOM      7  C   UNL     1      28.783  38.030  16.676  1.00  0.00     0.039 C 
ATOM      8  C   UNL     1      29.125  37.837  19.099  1.00  0.00    -0.023 CG0
ATOM      9  G   UNL     1      28.990  38.114  20.582  1.00  0.00     0.000 G0
ENDBRANCH   5   6
ENDBRANCH   4   5
ENDBRANCH   2   4
BRANCH   1  10
ATOM     10  C   UNL     1      27.511  40.499  21.810  1.00  0.00     0.111 C 
BRANCH  10  11
ATOM     11  C   UNL     1      26.835  39.243  21.331  1.00  0.00     0.163 C 
ATOM     12  O   UNL     1      25.602  39.294  21.068  1.00  0.00    -0.294 OA
BRANCH  11  13
ATOM     13  C   UNL     1      27.581  37.971  21.099  1.00  0.00    -0.002 C 
ATOM     14  C   UNL     1      26.963  36.760  21.252  1.00  0.00    -0.069 C 
ATOM     15  C   UNL     1      27.641  35.462  20.874  1.00  0.00     0.039 C 
ATOM     16  C   UNL     1      25.562  36.661  21.812  1.00  0.00     0.039 C 
BRANCH  13  17
ATOM     17  C   UNL     1      29.011  38.084  20.596  1.00  0.00     0.066 CG0
ATOM     18  G   UNL     1      29.119  37.837  19.105  1.00  0.00     0.000 G0
ENDBRANCH  13  17
ENDBRANCH  11  13
ENDBRANCH  10  11
ENDBRANCH   1  10
TORSDOF 0
ENDMDL
