MODEL 1
REMARK VINA RESULT:    -3.879      0.000      0.000
REMARK INTER + INTRA:          -4.127
REMARK INTER:                  -4.105
REMARK INTRA:                  -0.022
REMARK UNBOUND:                -0.022
REMARK SMILES O=C([O-])c1cccnc1
REMARK SMILES IDX 4 1 5 2 9 3 6 4 8 5 7 6 2 7 1 8 3 9
REMARK H PARENT
REMARK Flexibility Score: inf
ROOT
ATOM      1  C   UNL     1     -17.570  12.859 -12.360  1.00  0.00     0.016 A 
ATOM      2  C   UNL     1     -18.691  13.612 -11.971  1.00  0.00     0.013 A 
ATOM      3  C   UNL     1     -17.094  11.868 -11.484  1.00  0.00     0.120 A 
ATOM      4  C   UNL     1     -19.305  13.369 -10.741  1.00  0.00     0.021 A 
ATOM      5  N   UNL     1     -17.711  11.652 -10.292  1.00  0.00    -0.264 NA
ATOM      6  C   UNL     1     -18.796  12.374  -9.906  1.00  0.00     0.111 A 
ENDROOT
BRANCH   1   7
ATOM      7  C   UNL     1     -16.911  13.107 -13.660  1.00  0.00     0.073 C 
ATOM      8  O   UNL     1     -16.318  12.176 -14.266  1.00  0.00    -0.545 OA
ATOM      9  O   UNL     1     -16.936  14.375 -14.232  1.00  0.00    -0.545 OA
ENDBRANCH   1   7
TORSDOF 1
ENDMDL
MODEL 2
REMARK VINA RESULT:    -3.620      8.130      9.169
REMARK INTER + INTRA:          -3.853
REMARK INTER:                  -3.837
REMARK INTRA:                  -0.016
REMARK UNBOUND:                -0.022
REMARK SMILES O=C([O-])c1cccnc1
REMARK SMILES IDX 4 1 5 2 9 3 6 4 8 5 7 6 2 7 1 8 3 9
REMARK H PARENT
REMARK Flexibility Score: inf
ROOT
ATOM      1  C   UNL     1     -12.252  19.050 -13.403  1.00  0.00     0.016 A 
ATOM      2  C   UNL     1     -11.671  18.120 -12.525  1.00  0.00     0.013 A 
ATOM      3  C   UNL     1     -11.403  19.864 -14.173  1.00  0.00     0.120 A 
ATOM      4  C   UNL     1     -10.282  18.018 -12.431  1.00  0.00     0.021 A 
ATOM      5  N   UNL     1     -10.052  19.744 -14.062  1.00  0.00    -0.264 NA
ATOM      6  C   UNL     1      -9.481  18.847 -13.216  1.00  0.00     0.111 A 
ENDROOT
BRANCH   1   7
ATOM      7  C   UNL     1     -13.723  19.167 -13.511  1.00  0.00     0.073 C 
ATOM      8  O   UNL     1     -14.345  18.591 -14.443  1.00  0.00    -0.545 OA
ATOM      9  O   UNL     1     -14.439  19.916 -12.585  1.00  0.00    -0.545 OA
ENDBRANCH   1   7
TORSDOF 1
ENDMDL
MODEL 3
REMARK VINA RESULT:    -3.538      1.478      1.933
REMARK INTER + INTRA:          -3.766
REMARK INTER:                  -3.747
REMARK INTRA:                  -0.019
REMARK UNBOUND:                -0.022
REMARK SMILES O=C([O-])c1cccnc1
REMARK SMILES IDX 4 1 5 2 9 3 6 4 8 5 7 6 2 7 1 8 3 9
REMARK H PARENT
REMARK Flexibility Score: inf
ROOT
ATOM      1  C   UNL     1     -18.344  12.588 -11.743  1.00  0.00     0.016 A 
ATOM      2  C   UNL     1     -17.972  12.178 -10.452  1.00  0.00     0.013 A 
ATOM      3  C   UNL     1     -19.678  12.971 -11.965  1.00  0.00     0.120 A 
ATOM      4  C   UNL     1     -18.916  12.157  -9.424  1.00  0.00     0.021 A 
ATOM      5  N   UNL     1     -20.578  12.942 -10.945  1.00  0.00    -0.264 NA
ATOM      6  C   UNL     1     -20.228  12.547  -9.693  1.00  0.00     0.111 A 
ENDROOT
BRANCH   1   7
ATOM      7  C   UNL     1     -17.353  12.614 -12.840  1.00  0.00     0.073 C 
ATOM      8  O   UNL     1     -16.624  11.613 -13.070  1.00  0.00    -0.545 OA
ATOM      9  O   UNL     1     -17.212  13.747 -13.635  1.00  0.00    -0.545 OA
ENDBRANCH   1   7
TORSDOF 1
ENDMDL
MODEL 4
REMARK VINA RESULT:    -3.527      2.901      3.740
REMARK INTER + INTRA:          -3.755
REMARK INTER:                  -3.734
REMARK INTRA:                  -0.022
REMARK UNBOUND:                -0.022
REMARK SMILES O=C([O-])c1cccnc1
REMARK SMILES IDX 4 1 5 2 9 3 6 4 8 5 7 6 2 7 1 8 3 9
REMARK H PARENT
REMARK Flexibility Score: inf
ROOT
ATOM      1  C   UNL     1     -19.322  12.781 -11.206  1.00  0.00     0.016 A 
ATOM      2  C   UNL     1     -18.961  12.912 -12.557  1.00  0.00     0.013 A 
ATOM      3  C   UNL     1     -18.349  12.338 -10.293  1.00  0.00     0.120 A 
ATOM      4  C   UNL     1     -17.663  12.605 -12.968  1.00  0.00     0.021 A 
ATOM      5  N   UNL     1     -17.091  12.046 -10.720  1.00  0.00    -0.264 NA
ATOM      6  C   UNL     1     -16.732  12.169 -12.025  1.00  0.00     0.111 A 
ENDROOT
BRANCH   1   7
ATOM      7  C   UNL     1     -20.695  13.103 -10.758  1.00  0.00     0.073 C 
ATOM      8  O   UNL     1     -20.908  13.506  -9.584  1.00  0.00    -0.545 OA
ATOM      9  O   UNL     1     -21.770  12.964 -11.629  1.00  0.00    -0.545 OA
ENDBRANCH   1   7
TORSDOF 1
ENDMDL
MODEL 5
REMARK VINA RESULT:    -3.440      0.923      1.927
REMARK INTER + INTRA:          -3.663
REMARK INTER:                  -3.643
REMARK INTRA:                  -0.020
REMARK UNBOUND:                -0.022
REMARK SMILES O=C([O-])c1cccnc1
REMARK SMILES IDX 4 1 5 2 9 3 6 4 8 5 7 6 2 7 1 8 3 9
REMARK H PARENT
REMARK Flexibility Score: inf
ROOT
ATOM      1  C   UNL     1     -17.607  12.893 -12.434  1.00  0.00     0.016 A 
ATOM      2  C   UNL     1     -17.023  12.009 -11.512  1.00  0.00     0.013 A 
ATOM      3  C   UNL     1     -18.827  13.504 -12.094  1.00  0.00     0.120 A 
ATOM      4  C   UNL     1     -17.652  11.751 -10.293  1.00  0.00     0.021 A 
ATOM      5  N   UNL     1     -19.418  13.236 -10.899  1.00  0.00    -0.264 NA
ATOM      6  C   UNL     1     -18.862  12.381 -10.001  1.00  0.00     0.111 A 
ENDROOT
BRANCH   1   7
ATOM      7  C   UNL     1     -16.950  13.174 -13.729  1.00  0.00     0.073 C 
ATOM      8  O   UNL     1     -16.974  14.333 -14.222  1.00  0.00    -0.545 OA
ATOM      9  O   UNL     1     -16.297  12.160 -14.421  1.00  0.00    -0.545 OA
ENDBRANCH   1   7
TORSDOF 1
ENDMDL
MODEL 6
REMARK VINA RESULT:    -3.408      5.098      6.036
REMARK INTER + INTRA:          -3.629
REMARK INTER:                  -3.613
REMARK INTRA:                  -0.016
REMARK UNBOUND:                -0.022
REMARK SMILES O=C([O-])c1cccnc1
REMARK SMILES IDX 4 1 5 2 9 3 6 4 8 5 7 6 2 7 1 8 3 9
REMARK H PARENT
REMARK Flexibility Score: inf
ROOT
ATOM      1  C   UNL     1     -14.361  13.918 -17.039  1.00  0.00     0.016 A 
ATOM      2  C   UNL     1     -14.296  13.719 -15.650  1.00  0.00     0.013 A 
ATOM      3  C   UNL     1     -15.570  13.636 -17.700  1.00  0.00     0.120 A 
ATOM      4  C   UNL     1     -15.413  13.251 -14.957  1.00  0.00     0.021 A 
ATOM      5  N   UNL     1     -16.644  13.181 -16.999  1.00  0.00    -0.264 NA
ATOM      6  C   UNL     1     -16.591  12.986 -15.655  1.00  0.00     0.111 A 
ENDROOT
BRANCH   1   7
ATOM      7  C   UNL     1     -13.184  14.413 -17.785  1.00  0.00     0.073 C 
ATOM      8  O   UNL     1     -12.262  13.625 -18.125  1.00  0.00    -0.545 OA
ATOM      9  O   UNL     1     -13.079  15.758 -18.122  1.00  0.00    -0.545 OA
ENDBRANCH   1   7
TORSDOF 1
ENDMDL
MODEL 7
REMARK VINA RESULT:    -3.392      4.074      5.994
REMARK INTER + INTRA:          -3.612
REMARK INTER:                  -3.596
REMARK INTRA:                  -0.016
REMARK UNBOUND:                -0.022
REMARK SMILES O=C([O-])c1cccnc1
REMARK SMILES IDX 4 1 5 2 9 3 6 4 8 5 7 6 2 7 1 8 3 9
REMARK H PARENT
REMARK Flexibility Score: inf
ROOT
ATOM      1  C   UNL     1     -15.656  13.435 -15.731  1.00  0.00     0.016 A 
ATOM      2  C   UNL     1     -14.265  13.625 -15.664  1.00  0.00     0.013 A 
ATOM      3  C   UNL     1     -16.257  13.336 -16.998  1.00  0.00     0.120 A 
ATOM      4  C   UNL     1     -13.513  13.711 -16.836  1.00  0.00     0.021 A 
ATOM      5  N   UNL     1     -15.499  13.423 -18.125  1.00  0.00    -0.264 NA
ATOM      6  C   UNL     1     -14.154  13.607 -18.070  1.00  0.00     0.111 A 
ENDROOT
BRANCH   1   7
ATOM      7  C   UNL     1     -16.465  13.343 -14.496  1.00  0.00     0.073 C 
ATOM      8  O   UNL     1     -17.034  14.363 -14.025  1.00  0.00    -0.545 OA
ATOM      9  O   UNL     1     -16.607  12.126 -13.838  1.00  0.00    -0.545 OA
ENDBRANCH   1   7
TORSDOF 1
ENDMDL
MODEL 8
REMARK VINA RESULT:    -3.391      3.061      4.078
REMARK INTER + INTRA:          -3.611
REMARK INTER:                  -3.588
REMARK INTRA:                  -0.023
REMARK UNBOUND:                -0.022
REMARK SMILES O=C([O-])c1cccnc1
REMARK SMILES IDX 4 1 5 2 9 3 6 4 8 5 7 6 2 7 1 8 3 9
REMARK H PARENT
REMARK Flexibility Score: inf
ROOT
ATOM      1  C   UNL     1     -18.441  12.717 -11.025  1.00  0.00     0.016 A 
ATOM      2  C   UNL     1     -17.548  11.633 -11.009  1.00  0.00     0.013 A 
ATOM      3  C   UNL     1     -18.408  13.596 -12.122  1.00  0.00     0.120 A 
ATOM      4  C   UNL     1     -16.654  11.447 -12.065  1.00  0.00     0.021 A 
ATOM      5  N   UNL     1     -17.527  13.391 -13.138  1.00  0.00    -0.264 NA
ATOM      6  C   UNL     1     -16.659  12.345 -13.132  1.00  0.00     0.111 A 
ENDROOT
BRANCH   1   7
ATOM      7  C   UNL     1     -19.393  12.926  -9.912  1.00  0.00     0.073 C 
ATOM      8  O   UNL     1     -20.349  13.737 -10.030  1.00  0.00    -0.545 OA
ATOM      9  O   UNL     1     -19.244  12.228  -8.718  1.00  0.00    -0.545 OA
ENDBRANCH   1   7
TORSDOF 1
ENDMDL
MODEL 9
REMARK VINA RESULT:    -3.354      9.617     10.473
REMARK INTER + INTRA:          -3.571
REMARK INTER:                  -3.555
REMARK INTRA:                  -0.016
REMARK UNBOUND:                -0.022
REMARK SMILES O=C([O-])c1cccnc1
REMARK SMILES IDX 4 1 5 2 9 3 6 4 8 5 7 6 2 7 1 8 3 9
REMARK H PARENT
REMARK Flexibility Score: inf
ROOT
ATOM      1  C   UNL     1      -9.652  19.328 -13.364  1.00  0.00     0.016 A 
ATOM      2  C   UNL     1     -10.145  18.338 -12.498  1.00  0.00     0.013 A 
ATOM      3  C   UNL     1     -10.570  20.051 -14.146  1.00  0.00     0.120 A 
ATOM      4  C   UNL     1     -11.517  18.090 -12.427  1.00  0.00     0.021 A 
ATOM      5  N   UNL     1     -11.902  19.789 -14.057  1.00  0.00    -0.264 NA
ATOM      6  C   UNL     1     -12.389  18.834 -13.222  1.00  0.00     0.111 A 
ENDROOT
BRANCH   1   7
ATOM      7  C   UNL     1      -8.200  19.600 -13.448  1.00  0.00     0.073 C 
ATOM      8  O   UNL     1      -7.672  20.490 -12.730  1.00  0.00    -0.545 OA
ATOM      9  O   UNL     1      -7.398  18.876 -14.323  1.00  0.00    -0.545 OA
ENDBRANCH   1   7
TORSDOF 1
ENDMDL
