MODEL 1
REMARK VINA RESULT:    -3.158      0.000      0.000
REMARK INTER + INTRA:          -3.435
REMARK INTER:                  -3.435
REMARK INTRA:                   0.000
REMARK UNBOUND:                 0.000
REMARK SMILES [NH3+]CC(=O)[O-]
REMARK SMILES IDX 2 1 1 2 3 6 4 7 5 8
REMARK H PARENT 1 3 1 4 1 5
REMARK Flexibility Score: inf
ROOT
ATOM      1  C   UNL     1     140.723  -0.664   5.500  1.00  0.00     0.312 C 
ENDROOT
BRANCH   1   2
ATOM      2  N   UNL     1     141.417  -1.901   5.140  1.00  0.00    -0.353 N 
ATOM      3  H   UNL     1     142.068  -2.182   5.908  1.00  0.00     0.344 HD
ATOM      4  H   UNL     1     140.722  -2.664   4.966  1.00  0.00     0.344 HD
ATOM      5  H   UNL     1     141.969  -1.741   4.267  1.00  0.00     0.344 HD
ENDBRANCH   1   2
BRANCH   1   6
ATOM      6  C   UNL     1     140.635  -0.521   6.987  1.00  0.00     0.096 C 
ATOM      7  O   UNL     1     140.458   0.613   7.505  1.00  0.00    -0.544 OA
ATOM      8  O   UNL     1     140.800  -1.632   7.804  1.00  0.00    -0.544 OA
ENDBRANCH   1   6
TORSDOF 2
ENDMDL
MODEL 2
REMARK VINA RESULT:    -3.059     14.094     14.455
REMARK INTER + INTRA:          -3.328
REMARK INTER:                  -3.328
REMARK INTRA:                   0.000
REMARK UNBOUND:                 0.000
REMARK SMILES [NH3+]CC(=O)[O-]
REMARK SMILES IDX 2 1 1 2 3 6 4 7 5 8
REMARK H PARENT 1 3 1 4 1 5
REMARK Flexibility Score: inf
ROOT
ATOM      1  C   UNL     1     143.345  12.636   0.064  1.00  0.00     0.312 C 
ENDROOT
BRANCH   1   2
ATOM      2  N   UNL     1     142.971  11.416  -0.651  1.00  0.00    -0.353 N 
ATOM      3  H   UNL     1     142.605  11.655  -1.601  1.00  0.00     0.344 HD
ATOM      4  H   UNL     1     143.800  10.784  -0.740  1.00  0.00     0.344 HD
ATOM      5  H   UNL     1     142.224  10.921  -0.114  1.00  0.00     0.344 HD
ENDBRANCH   1   2
BRANCH   1   6
ATOM      6  C   UNL     1     143.154  12.464   1.539  1.00  0.00     0.096 C 
ATOM      7  O   UNL     1     142.098  11.941   1.983  1.00  0.00    -0.544 OA
ATOM      8  O   UNL     1     144.117  12.929   2.424  1.00  0.00    -0.544 OA
ENDBRANCH   1   6
TORSDOF 2
ENDMDL
MODEL 3
REMARK VINA RESULT:    -2.877     16.704     17.124
REMARK INTER + INTRA:          -3.130
REMARK INTER:                  -3.130
REMARK INTRA:                   0.000
REMARK UNBOUND:                 0.000
REMARK SMILES [NH3+]CC(=O)[O-]
REMARK SMILES IDX 2 1 1 2 3 6 4 7 5 8
REMARK H PARENT 1 3 1 4 1 5
REMARK Flexibility Score: inf
ROOT
ATOM      1  C   UNL     1     140.713  17.124   8.234  1.00  0.00     0.312 C 
ENDROOT
BRANCH   1   2
ATOM      2  N   UNL     1     139.867  17.112   9.427  1.00  0.00    -0.353 N 
ATOM      3  H   UNL     1     140.240  16.428  10.124  1.00  0.00     0.344 HD
ATOM      4  H   UNL     1     139.833  18.068   9.851  1.00  0.00     0.344 HD
ATOM      5  H   UNL     1     138.898  16.828   9.156  1.00  0.00     0.344 HD
ENDBRANCH   1   2
BRANCH   1   6
ATOM      6  C   UNL     1     141.053  15.728   7.814  1.00  0.00     0.096 C 
ATOM      7  O   UNL     1     140.168  14.832   7.820  1.00  0.00    -0.544 OA
ATOM      8  O   UNL     1     142.358  15.404   7.466  1.00  0.00    -0.544 OA
ENDBRANCH   1   6
TORSDOF 2
ENDMDL
MODEL 4
REMARK VINA RESULT:    -2.859     14.289     14.660
REMARK INTER + INTRA:          -3.109
REMARK INTER:                  -3.109
REMARK INTRA:                   0.000
REMARK UNBOUND:                 0.000
REMARK SMILES [NH3+]CC(=O)[O-]
REMARK SMILES IDX 2 1 1 2 3 6 4 7 5 8
REMARK H PARENT 1 3 1 4 1 5
REMARK Flexibility Score: inf
ROOT
ATOM      1  C   UNL     1     144.310  12.275   3.091  1.00  0.00     0.312 C 
ENDROOT
BRANCH   1   2
ATOM      2  N   UNL     1     145.078  13.504   3.287  1.00  0.00    -0.353 N 
ATOM      3  H   UNL     1     145.298  13.631   4.301  1.00  0.00     0.344 HD
ATOM      4  H   UNL     1     145.966  13.464   2.734  1.00  0.00     0.344 HD
ATOM      5  H   UNL     1     144.511  14.318   2.957  1.00  0.00     0.344 HD
ENDBRANCH   1   2
BRANCH   1   6
ATOM      6  C   UNL     1     143.371  12.417   1.933  1.00  0.00     0.096 C 
ATOM      7  O   UNL     1     142.158  12.105   2.061  1.00  0.00    -0.544 OA
ATOM      8  O   UNL     1     143.846  12.845   0.701  1.00  0.00    -0.544 OA
ENDBRANCH   1   6
TORSDOF 2
ENDMDL
MODEL 5
REMARK VINA RESULT:    -2.708     13.930     14.431
REMARK INTER + INTRA:          -2.945
REMARK INTER:                  -2.945
REMARK INTRA:                   0.000
REMARK UNBOUND:                 0.000
REMARK SMILES [NH3+]CC(=O)[O-]
REMARK SMILES IDX 2 1 1 2 3 6 4 7 5 8
REMARK H PARENT 1 3 1 4 1 5
REMARK Flexibility Score: inf
ROOT
ATOM      1  C   UNL     1     143.509  12.604   1.563  1.00  0.00     0.312 C 
ENDROOT
BRANCH   1   2
ATOM      2  N   UNL     1     142.145  12.182   1.881  1.00  0.00    -0.353 N 
ATOM      3  H   UNL     1     141.797  11.517   1.152  1.00  0.00     0.344 HD
ATOM      4  H   UNL     1     142.122  11.721   2.820  1.00  0.00     0.344 HD
ATOM      5  H   UNL     1     141.523  13.021   1.900  1.00  0.00     0.344 HD
ENDBRANCH   1   2
BRANCH   1   6
ATOM      6  C   UNL     1     144.361  12.611   2.794  1.00  0.00     0.096 C 
ATOM      7  O   UNL     1     144.498  11.560   3.474  1.00  0.00    -0.544 OA
ATOM      8  O   UNL     1     144.960  13.789   3.219  1.00  0.00    -0.544 OA
ENDBRANCH   1   6
TORSDOF 2
ENDMDL
MODEL 6
REMARK VINA RESULT:    -2.657     15.403     15.767
REMARK INTER + INTRA:          -2.891
REMARK INTER:                  -2.891
REMARK INTRA:                   0.000
REMARK UNBOUND:                 0.000
REMARK SMILES [NH3+]CC(=O)[O-]
REMARK SMILES IDX 2 1 1 2 3 6 4 7 5 8
REMARK H PARENT 1 3 1 4 1 5
REMARK Flexibility Score: inf
ROOT
ATOM      1  C   UNL     1     142.952  11.830  -0.147  1.00  0.00     0.312 C 
ENDROOT
BRANCH   1   2
ATOM      2  N   UNL     1     142.891  12.663   1.054  1.00  0.00    -0.353 N 
ATOM      3  H   UNL     1     142.067  12.389   1.637  1.00  0.00     0.344 HD
ATOM      4  H   UNL     1     143.770  12.555   1.610  1.00  0.00     0.344 HD
ATOM      5  H   UNL     1     142.790  13.664   0.771  1.00  0.00     0.344 HD
ENDBRANCH   1   2
BRANCH   1   6
ATOM      6  C   UNL     1     143.501  12.609  -1.302  1.00  0.00     0.096 C 
ATOM      7  O   UNL     1     144.745  12.756  -1.432  1.00  0.00    -0.544 OA
ATOM      8  O   UNL     1     142.639  13.215  -2.205  1.00  0.00    -0.544 OA
ENDBRANCH   1   6
TORSDOF 2
ENDMDL
MODEL 7
REMARK VINA RESULT:    -2.606     18.188     18.622
REMARK INTER + INTRA:          -2.834
REMARK INTER:                  -2.834
REMARK INTRA:                   0.000
REMARK UNBOUND:                 0.000
REMARK SMILES [NH3+]CC(=O)[O-]
REMARK SMILES IDX 2 1 1 2 3 6 4 7 5 8
REMARK H PARENT 1 3 1 4 1 5
REMARK Flexibility Score: inf
ROOT
ATOM      1  C   UNL     1     142.611  10.102  -8.372  1.00  0.00     0.312 C 
ENDROOT
BRANCH   1   2
ATOM      2  N   UNL     1     143.213  10.270  -7.050  1.00  0.00    -0.353 N 
ATOM      3  H   UNL     1     142.465  10.389  -6.329  1.00  0.00     0.344 HD
ATOM      4  H   UNL     1     143.802   9.437  -6.816  1.00  0.00     0.344 HD
ATOM      5  H   UNL     1     143.818  11.122  -7.056  1.00  0.00     0.344 HD
ENDBRANCH   1   2
BRANCH   1   6
ATOM      6  C   UNL     1     143.289   9.000  -9.126  1.00  0.00     0.096 C 
ATOM      7  O   UNL     1     144.054   9.270 -10.089  1.00  0.00    -0.544 OA
ATOM      8  O   UNL     1     143.036   7.675  -8.798  1.00  0.00    -0.544 OA
ENDBRANCH   1   6
TORSDOF 2
ENDMDL
MODEL 8
REMARK VINA RESULT:    -2.600     18.139     18.624
REMARK INTER + INTRA:          -2.828
REMARK INTER:                  -2.828
REMARK INTRA:                   0.000
REMARK UNBOUND:                 0.000
REMARK SMILES [NH3+]CC(=O)[O-]
REMARK SMILES IDX 2 1 1 2 3 6 4 7 5 8
REMARK H PARENT 1 3 1 4 1 5
REMARK Flexibility Score: inf
ROOT
ATOM      1  C   UNL     1     142.538   9.986  -8.328  1.00  0.00     0.312 C 
ENDROOT
BRANCH   1   2
ATOM      2  N   UNL     1     143.237  10.269  -7.074  1.00  0.00    -0.353 N 
ATOM      3  H   UNL     1     144.213   9.896  -7.117  1.00  0.00     0.344 HD
ATOM      4  H   UNL     1     143.259  11.301  -6.902  1.00  0.00     0.344 HD
ATOM      5  H   UNL     1     142.730   9.805  -6.288  1.00  0.00     0.344 HD
ENDBRANCH   1   2
BRANCH   1   6
ATOM      6  C   UNL     1     143.236   8.901  -9.088  1.00  0.00     0.096 C 
ATOM      7  O   UNL     1     143.078   7.695  -8.760  1.00  0.00    -0.544 OA
ATOM      8  O   UNL     1     144.101   9.224 -10.125  1.00  0.00    -0.544 OA
ENDBRANCH   1   6
TORSDOF 2
ENDMDL
MODEL 9
REMARK VINA RESULT:    -2.574     16.134     16.573
REMARK INTER + INTRA:          -2.799
REMARK INTER:                  -2.799
REMARK INTRA:                   0.000
REMARK UNBOUND:                 0.000
REMARK SMILES [NH3+]CC(=O)[O-]
REMARK SMILES IDX 2 1 1 2 3 6 4 7 5 8
REMARK H PARENT 1 3 1 4 1 5
REMARK Flexibility Score: inf
ROOT
ATOM      1  C   UNL     1     141.382  16.470   7.859  1.00  0.00     0.312 C 
ENDROOT
BRANCH   1   2
ATOM      2  N   UNL     1     142.536  15.649   7.493  1.00  0.00    -0.353 N 
ATOM      3  H   UNL     1     143.118  15.452   8.339  1.00  0.00     0.344 HD
ATOM      4  H   UNL     1     142.214  14.749   7.067  1.00  0.00     0.344 HD
ATOM      5  H   UNL     1     143.115  16.166   6.794  1.00  0.00     0.344 HD
ENDBRANCH   1   2
BRANCH   1   6
ATOM      6  C   UNL     1     140.204  15.608   8.191  1.00  0.00     0.096 C 
ATOM      7  O   UNL     1     139.480  15.882   9.185  1.00  0.00    -0.544 OA
ATOM      8  O   UNL     1     139.936  14.474   7.437  1.00  0.00    -0.544 OA
ENDBRANCH   1   6
TORSDOF 2
ENDMDL
