MODEL 1
REMARK VINA RESULT:    -8.063      0.000      0.000
REMARK INTER + INTRA:         -10.522
REMARK INTER:                  -9.948
REMARK INTRA:                  -0.574
REMARK UNBOUND:                -0.574
REMARK SMILES CC(C)=CCC[C@@H](C)c1ccc(C)cc1
REMARK SMILES IDX 6 1 7 2 8 3 9 4 13 5 12 6 11 7 14 8 10 9 15 10 5 11 4 12
REMARK SMILES IDX 2 13 1 14 3 15
REMARK H PARENT
REMARK Flexibility Score: inf
ROOT
ATOM      1  C   UNL     1      16.638  33.361  35.416  1.00  0.00     0.012 C 
ENDROOT
BRANCH   1   2
ATOM      2  C   UNL     1      15.113  33.445  35.656  1.00  0.00     0.016 C 
ATOM      3  C   UNL     1      14.772  34.030  37.035  1.00  0.00     0.013 C 
BRANCH   2   4
ATOM      4  C   UNL     1      14.450  34.256  34.558  1.00  0.00    -0.045 A 
ATOM      5  C   UNL     1      12.614  36.590  31.420  1.00  0.00     0.044 C 
ATOM      6  C   UNL     1      13.233  35.756  32.503  1.00  0.00    -0.051 A 
ATOM      7  C   UNL     1      12.718  35.796  33.806  1.00  0.00     0.004 A 
ATOM      8  C   UNL     1      14.374  34.985  32.236  1.00  0.00     0.004 A 
ATOM      9  C   UNL     1      13.317  35.048  34.825  1.00  0.00     0.004 A 
ATOM     10  C   UNL     1      14.973  34.237  33.252  1.00  0.00     0.004 A 
ENDBRANCH   2   4
ENDBRANCH   1   2
BRANCH   1  11
ATOM     11  C   UNL     1      17.137  31.913  35.290  1.00  0.00     0.028 C 
BRANCH  11  12
ATOM     12  C   UNL     1      16.740  31.106  36.502  1.00  0.00    -0.028 C 
ATOM     13  C   UNL     1      17.031  29.797  36.677  1.00  0.00    -0.080 C 
ATOM     14  C   UNL     1      16.604  29.133  37.960  1.00  0.00     0.039 C 
ATOM     15  C   UNL     1      17.750  28.990  35.622  1.00  0.00     0.039 C 
ENDBRANCH  11  12
ENDBRANCH   1  11
TORSDOF 4
ENDMDL
MODEL 2
REMARK VINA RESULT:    -7.475      1.162      6.677
REMARK INTER + INTRA:          -9.797
REMARK INTER:                  -9.073
REMARK INTRA:                  -0.724
REMARK UNBOUND:                -0.574
REMARK SMILES CC(C)=CCC[C@@H](C)c1ccc(C)cc1
REMARK SMILES IDX 6 1 7 2 8 3 9 4 13 5 12 6 11 7 14 8 10 9 15 10 5 11 4 12
REMARK SMILES IDX 2 13 1 14 3 15
REMARK H PARENT
REMARK Flexibility Score: inf
ROOT
ATOM      1  C   UNL     1      16.076  33.627  36.695  1.00  0.00     0.012 C 
ENDROOT
BRANCH   1   2
ATOM      2  C   UNL     1      16.562  32.710  35.550  1.00  0.00     0.016 C 
ATOM      3  C   UNL     1      17.836  33.242  34.877  1.00  0.00     0.013 C 
BRANCH   2   4
ATOM      4  C   UNL     1      16.783  31.298  36.062  1.00  0.00    -0.045 A 
ATOM      5  C   UNL     1      17.384  27.259  37.471  1.00  0.00     0.044 C 
ATOM      6  C   UNL     1      17.203  28.670  36.993  1.00  0.00    -0.051 A 
ATOM      7  C   UNL     1      16.580  29.619  37.815  1.00  0.00     0.004 A 
ATOM      8  C   UNL     1      17.591  29.031  35.695  1.00  0.00     0.004 A 
ATOM      9  C   UNL     1      16.377  30.924  37.357  1.00  0.00     0.004 A 
ATOM     10  C   UNL     1      17.389  30.335  35.235  1.00  0.00     0.004 A 
ENDBRANCH   2   4
ENDBRANCH   1   2
BRANCH   1  11
ATOM     11  C   UNL     1      14.694  34.239  36.418  1.00  0.00     0.028 C 
BRANCH  11  12
ATOM     12  C   UNL     1      14.306  34.043  34.973  1.00  0.00    -0.028 C 
ATOM     13  C   UNL     1      13.500  34.877  34.279  1.00  0.00    -0.080 C 
ATOM     14  C   UNL     1      13.233  34.575  32.828  1.00  0.00     0.039 C 
ATOM     15  C   UNL     1      12.853  36.082  34.922  1.00  0.00     0.039 C 
ENDBRANCH  11  12
ENDBRANCH   1  11
TORSDOF 4
ENDMDL
MODEL 3
REMARK VINA RESULT:    -7.195      1.091      1.871
REMARK INTER + INTRA:          -9.451
REMARK INTER:                  -8.962
REMARK INTRA:                  -0.489
REMARK UNBOUND:                -0.574
REMARK SMILES CC(C)=CCC[C@@H](C)c1ccc(C)cc1
REMARK SMILES IDX 6 1 7 2 8 3 9 4 13 5 12 6 11 7 14 8 10 9 15 10 5 11 4 12
REMARK SMILES IDX 2 13 1 14 3 15
REMARK H PARENT
REMARK Flexibility Score: inf
ROOT
ATOM      1  C   UNL     1      16.434  31.981  36.096  1.00  0.00     0.012 C 
ENDROOT
BRANCH   1   2
ATOM      2  C   UNL     1      16.814  33.360  35.512  1.00  0.00     0.016 C 
ATOM      3  C   UNL     1      18.144  33.322  34.744  1.00  0.00     0.013 C 
BRANCH   2   4
ATOM      4  C   UNL     1      15.702  33.881  34.619  1.00  0.00    -0.045 A 
ATOM      5  C   UNL     1      12.572  35.407  32.062  1.00  0.00     0.044 C 
ATOM      6  C   UNL     1      13.650  34.848  32.944  1.00  0.00    -0.051 A 
ATOM      7  C   UNL     1      13.408  34.638  34.309  1.00  0.00     0.004 A 
ATOM      8  C   UNL     1      14.928  34.598  32.425  1.00  0.00     0.004 A 
ATOM      9  C   UNL     1      14.422  34.153  35.140  1.00  0.00     0.004 A 
ATOM     10  C   UNL     1      15.944  34.113  33.253  1.00  0.00     0.004 A 
ENDBRANCH   2   4
ENDBRANCH   1   2
BRANCH   1  11
ATOM     11  C   UNL     1      17.602  30.984  36.066  1.00  0.00     0.028 C 
BRANCH  11  12
ATOM     12  C   UNL     1      17.097  29.577  35.859  1.00  0.00    -0.028 C 
ATOM     13  C   UNL     1      16.607  28.789  36.842  1.00  0.00    -0.080 C 
ATOM     14  C   UNL     1      16.099  27.419  36.477  1.00  0.00     0.039 C 
ATOM     15  C   UNL     1      16.571  29.239  38.284  1.00  0.00     0.039 C 
ENDBRANCH  11  12
ENDBRANCH   1  11
TORSDOF 4
ENDMDL
MODEL 4
REMARK VINA RESULT:    -6.405      9.953     11.785
REMARK INTER + INTRA:          -8.477
REMARK INTER:                  -8.025
REMARK INTRA:                  -0.452
REMARK UNBOUND:                -0.574
REMARK SMILES CC(C)=CCC[C@@H](C)c1ccc(C)cc1
REMARK SMILES IDX 6 1 7 2 8 3 9 4 13 5 12 6 11 7 14 8 10 9 15 10 5 11 4 12
REMARK SMILES IDX 2 13 1 14 3 15
REMARK H PARENT
REMARK Flexibility Score: inf
ROOT
ATOM      1  C   UNL     1      23.440  35.055  28.881  1.00  0.00     0.012 C 
ENDROOT
BRANCH   1   2
ATOM      2  C   UNL     1      22.034  34.415  28.924  1.00  0.00     0.016 C 
ATOM      3  C   UNL     1      20.948  35.356  28.380  1.00  0.00     0.013 C 
BRANCH   2   4
ATOM      4  C   UNL     1      22.028  33.102  28.162  1.00  0.00    -0.045 A 
ATOM      5  C   UNL     1      22.019  29.337  26.046  1.00  0.00     0.044 C 
ATOM      6  C   UNL     1      22.001  30.655  26.761  1.00  0.00    -0.051 A 
ATOM      7  C   UNL     1      22.895  31.671  26.393  1.00  0.00     0.004 A 
ATOM      8  C   UNL     1      21.139  30.857  27.849  1.00  0.00     0.004 A 
ATOM      9  C   UNL     1      22.905  32.886  27.083  1.00  0.00     0.004 A 
ATOM     10  C   UNL     1      21.148  32.072  28.540  1.00  0.00     0.004 A 
ENDBRANCH   2   4
ENDBRANCH   1   2
BRANCH   1  11
ATOM     11  C   UNL     1      23.443  36.511  29.374  1.00  0.00     0.028 C 
BRANCH  11  12
ATOM     12  C   UNL     1      24.673  37.236  28.885  1.00  0.00    -0.028 C 
ATOM     13  C   UNL     1      25.104  38.420  29.373  1.00  0.00    -0.080 C 
ATOM     14  C   UNL     1      26.375  39.006  28.814  1.00  0.00     0.039 C 
ATOM     15  C   UNL     1      24.343  39.171  30.440  1.00  0.00     0.039 C 
ENDBRANCH  11  12
ENDBRANCH   1  11
TORSDOF 4
ENDMDL
MODEL 5
REMARK VINA RESULT:    -6.129      1.345      6.786
REMARK INTER + INTRA:          -8.136
REMARK INTER:                  -7.591
REMARK INTRA:                  -0.545
REMARK UNBOUND:                -0.574
REMARK SMILES CC(C)=CCC[C@@H](C)c1ccc(C)cc1
REMARK SMILES IDX 6 1 7 2 8 3 9 4 13 5 12 6 11 7 14 8 10 9 15 10 5 11 4 12
REMARK SMILES IDX 2 13 1 14 3 15
REMARK H PARENT
REMARK Flexibility Score: inf
ROOT
ATOM      1  C   UNL     1      13.321  34.532  33.968  1.00  0.00     0.012 C 
ENDROOT
BRANCH   1   2
ATOM      2  C   UNL     1      14.343  34.893  35.070  1.00  0.00     0.016 C 
ATOM      3  C   UNL     1      13.664  35.263  36.397  1.00  0.00     0.013 C 
BRANCH   2   4
ATOM      4  C   UNL     1      15.322  33.752  35.276  1.00  0.00    -0.045 A 
ATOM      5  C   UNL     1      18.130  30.531  35.911  1.00  0.00     0.044 C 
ATOM      6  C   UNL     1      17.135  31.629  35.680  1.00  0.00    -0.051 A 
ATOM      7  C   UNL     1      17.118  32.322  34.461  1.00  0.00     0.004 A 
ATOM      8  C   UNL     1      16.261  32.018  36.705  1.00  0.00     0.004 A 
ATOM      9  C   UNL     1      16.217  33.371  34.257  1.00  0.00     0.004 A 
ATOM     10  C   UNL     1      15.358  33.066  36.503  1.00  0.00     0.004 A 
ENDBRANCH   2   4
ENDBRANCH   1   2
BRANCH   1  11
ATOM     11  C   UNL     1      12.555  35.758  33.447  1.00  0.00     0.028 C 
BRANCH  11  12
ATOM     12  C   UNL     1      13.331  36.443  32.348  1.00  0.00    -0.028 C 
ATOM     13  C   UNL     1      12.821  36.755  31.135  1.00  0.00    -0.080 C 
ATOM     14  C   UNL     1      13.704  37.477  30.151  1.00  0.00     0.039 C 
ATOM     15  C   UNL     1      11.410  36.388  30.742  1.00  0.00     0.039 C 
ENDBRANCH  11  12
ENDBRANCH   1  11
TORSDOF 4
ENDMDL
MODEL 6
REMARK VINA RESULT:    -6.056      8.972     10.462
REMARK INTER + INTRA:          -8.046
REMARK INTER:                  -7.274
REMARK INTRA:                  -0.772
REMARK UNBOUND:                -0.574
REMARK SMILES CC(C)=CCC[C@@H](C)c1ccc(C)cc1
REMARK SMILES IDX 6 1 7 2 8 3 9 4 13 5 12 6 11 7 14 8 10 9 15 10 5 11 4 12
REMARK SMILES IDX 2 13 1 14 3 15
REMARK H PARENT
REMARK Flexibility Score: inf
ROOT
ATOM      1  C   UNL     1      21.513  28.555  27.149  1.00  0.00     0.012 C 
ENDROOT
BRANCH   1   2
ATOM      2  C   UNL     1      21.700  29.665  26.090  1.00  0.00     0.016 C 
ATOM      3  C   UNL     1      20.663  29.573  24.960  1.00  0.00     0.013 C 
BRANCH   2   4
ATOM      4  C   UNL     1      21.651  31.034  26.744  1.00  0.00    -0.045 A 
ATOM      5  C   UNL     1      21.568  34.937  28.592  1.00  0.00     0.044 C 
ATOM      6  C   UNL     1      21.567  33.585  27.942  1.00  0.00    -0.051 A 
ATOM      7  C   UNL     1      21.209  32.448  28.678  1.00  0.00     0.004 A 
ATOM      8  C   UNL     1      21.992  33.441  26.613  1.00  0.00     0.004 A 
ATOM      9  C   UNL     1      21.245  31.182  28.084  1.00  0.00     0.004 A 
ATOM     10  C   UNL     1      22.028  32.177  26.018  1.00  0.00     0.004 A 
ENDBRANCH   2   4
ENDBRANCH   1   2
BRANCH   1  11
ATOM     11  C   UNL     1      20.368  27.592  26.801  1.00  0.00     0.028 C 
BRANCH  11  12
ATOM     12  C   UNL     1      19.490  27.352  28.005  1.00  0.00    -0.028 C 
ATOM     13  C   UNL     1      18.143  27.462  28.002  1.00  0.00    -0.080 C 
ATOM     14  C   UNL     1      17.395  27.151  29.272  1.00  0.00     0.039 C 
ATOM     15  C   UNL     1      17.380  27.902  26.775  1.00  0.00     0.039 C 
ENDBRANCH  11  12
ENDBRANCH   1  11
TORSDOF 4
ENDMDL
MODEL 7
REMARK VINA RESULT:    -5.964      9.125     11.852
REMARK INTER + INTRA:          -7.933
REMARK INTER:                  -7.244
REMARK INTRA:                  -0.689
REMARK UNBOUND:                -0.574
REMARK SMILES CC(C)=CCC[C@@H](C)c1ccc(C)cc1
REMARK SMILES IDX 6 1 7 2 8 3 9 4 13 5 12 6 11 7 14 8 10 9 15 10 5 11 4 12
REMARK SMILES IDX 2 13 1 14 3 15
REMARK H PARENT
REMARK Flexibility Score: inf
ROOT
ATOM      1  C   UNL     1      15.690  29.194  24.252  1.00  0.00     0.012 C 
ENDROOT
BRANCH   1   2
ATOM      2  C   UNL     1      15.831  27.950  25.159  1.00  0.00     0.016 C 
ATOM      3  C   UNL     1      15.497  26.646  24.417  1.00  0.00     0.013 C 
BRANCH   2   4
ATOM      4  C   UNL     1      17.228  27.882  25.749  1.00  0.00    -0.045 A 
ATOM      5  C   UNL     1      21.219  27.647  27.386  1.00  0.00     0.044 C 
ATOM      6  C   UNL     1      19.831  27.758  26.824  1.00  0.00    -0.051 A 
ATOM      7  C   UNL     1      18.718  27.505  27.638  1.00  0.00     0.004 A 
ATOM      8  C   UNL     1      19.640  28.047  25.466  1.00  0.00     0.004 A 
ATOM      9  C   UNL     1      17.427  27.571  27.108  1.00  0.00     0.004 A 
ATOM     10  C   UNL     1      18.350  28.114  24.934  1.00  0.00     0.004 A 
ENDBRANCH   2   4
ENDBRANCH   1   2
BRANCH   1  11
ATOM     11  C   UNL     1      14.388  29.968  24.509  1.00  0.00     0.028 C 
BRANCH  11  12
ATOM     12  C   UNL     1      14.664  31.446  24.640  1.00  0.00    -0.028 C 
ATOM     13  C   UNL     1      14.802  32.094  25.819  1.00  0.00    -0.080 C 
ATOM     14  C   UNL     1      15.118  33.567  25.794  1.00  0.00     0.039 C 
ATOM     15  C   UNL     1      14.633  31.389  27.144  1.00  0.00     0.039 C 
ENDBRANCH  11  12
ENDBRANCH   1  11
TORSDOF 4
ENDMDL
MODEL 8
REMARK VINA RESULT:    -5.960      0.921      6.617
REMARK INTER + INTRA:          -7.928
REMARK INTER:                  -7.279
REMARK INTRA:                  -0.650
REMARK UNBOUND:                -0.574
REMARK SMILES CC(C)=CCC[C@@H](C)c1ccc(C)cc1
REMARK SMILES IDX 6 1 7 2 8 3 9 4 13 5 12 6 11 7 14 8 10 9 15 10 5 11 4 12
REMARK SMILES IDX 2 13 1 14 3 15
REMARK H PARENT
REMARK Flexibility Score: inf
ROOT
ATOM      1  C   UNL     1      15.167  34.232  34.372  1.00  0.00     0.012 C 
ENDROOT
BRANCH   1   2
ATOM      2  C   UNL     1      15.628  33.985  35.826  1.00  0.00     0.016 C 
ATOM      3  C   UNL     1      14.482  34.146  36.837  1.00  0.00     0.013 C 
BRANCH   2   4
ATOM      4  C   UNL     1      16.259  32.611  35.954  1.00  0.00    -0.045 A 
ATOM      5  C   UNL     1      18.030  28.683  36.266  1.00  0.00     0.044 C 
ATOM      6  C   UNL     1      17.440  30.059  36.172  1.00  0.00    -0.051 A 
ATOM      7  C   UNL     1      16.600  30.537  37.187  1.00  0.00     0.004 A 
ATOM      8  C   UNL     1      17.667  30.849  35.036  1.00  0.00     0.004 A 
ATOM      9  C   UNL     1      16.018  31.805  37.083  1.00  0.00     0.004 A 
ATOM     10  C   UNL     1      17.087  32.116  34.930  1.00  0.00     0.004 A 
ENDBRANCH   2   4
ENDBRANCH   1   2
BRANCH   1  11
ATOM     11  C   UNL     1      13.637  34.229  34.228  1.00  0.00     0.028 C 
BRANCH  11  12
ATOM     12  C   UNL     1      13.223  34.871  32.927  1.00  0.00    -0.028 C 
ATOM     13  C   UNL     1      12.868  36.169  32.794  1.00  0.00    -0.080 C 
ATOM     14  C   UNL     1      12.518  36.680  31.421  1.00  0.00     0.039 C 
ATOM     15  C   UNL     1      12.799  37.103  33.979  1.00  0.00     0.039 C 
ENDBRANCH  11  12
ENDBRANCH   1  11
TORSDOF 4
ENDMDL
MODEL 9
REMARK VINA RESULT:    -5.794      9.564     11.753
REMARK INTER + INTRA:          -7.723
REMARK INTER:                  -6.726
REMARK INTRA:                  -0.996
REMARK UNBOUND:                -0.574
REMARK SMILES CC(C)=CCC[C@@H](C)c1ccc(C)cc1
REMARK SMILES IDX 6 1 7 2 8 3 9 4 13 5 12 6 11 7 14 8 10 9 15 10 5 11 4 12
REMARK SMILES IDX 2 13 1 14 3 15
REMARK H PARENT
REMARK Flexibility Score: inf
ROOT
ATOM      1  C   UNL     1      20.751  32.038  24.697  1.00  0.00     0.012 C 
ENDROOT
BRANCH   1   2
ATOM      2  C   UNL     1      21.724  30.842  24.806  1.00  0.00     0.016 C 
ATOM      3  C   UNL     1      23.047  31.226  25.486  1.00  0.00     0.013 C 
BRANCH   2   4
ATOM      4  C   UNL     1      21.064  29.691  25.544  1.00  0.00    -0.045 A 
ATOM      5  C   UNL     1      19.237  26.384  27.639  1.00  0.00     0.044 C 
ATOM      6  C   UNL     1      19.855  27.552  26.929  1.00  0.00    -0.051 A 
ATOM      7  C   UNL     1      19.258  28.073  25.773  1.00  0.00     0.004 A 
ATOM      8  C   UNL     1      21.072  28.086  27.375  1.00  0.00     0.004 A 
ATOM      9  C   UNL     1      19.853  29.137  25.088  1.00  0.00     0.004 A 
ATOM     10  C   UNL     1      21.668  29.150  26.693  1.00  0.00     0.004 A 
ENDBRANCH   2   4
ENDBRANCH   1   2
BRANCH   1  11
ATOM     11  C   UNL     1      20.050  32.354  26.027  1.00  0.00     0.028 C 
BRANCH  11  12
ATOM     12  C   UNL     1      20.695  33.540  26.700  1.00  0.00    -0.028 C 
ATOM     13  C   UNL     1      21.273  33.504  27.922  1.00  0.00    -0.080 C 
ATOM     14  C   UNL     1      21.916  34.760  28.449  1.00  0.00     0.039 C 
ATOM     15  C   UNL     1      21.276  32.252  28.768  1.00  0.00     0.039 C 
ENDBRANCH  11  12
ENDBRANCH   1  11
TORSDOF 4
ENDMDL
