MODEL 1
REMARK VINA RESULT:    -6.029      0.000      0.000
REMARK INTER + INTRA:         -14.024
REMARK INTER:                 -11.668
REMARK INTRA:                  -2.356
REMARK UNBOUND:                -2.356
REMARK SMILES CCCCCCCCCCCCCCCCCC(=O)[O-]
REMARK SMILES IDX 10 1 11 2 12 3 13 4 14 5 15 6 16 7 17 8 18 9 19 10 20 11
REMARK SMILES IDX 9 12 8 13 7 14 6 15 5 16 4 17 3 18 2 19 1 20
REMARK H PARENT
REMARK Flexibility Score: inf
ROOT
ATOM      1  C   UNL     1     -13.891   1.432 -18.653  1.00  0.00     0.000 C 
ENDROOT
BRANCH   1   2
ATOM      2  C   UNL     1     -14.644   1.591 -19.983  1.00  0.00     0.000 C 
BRANCH   2   3
ATOM      3  C   UNL     1     -15.488   0.347 -20.288  1.00  0.00     0.000 C 
BRANCH   3   4
ATOM      4  C   UNL     1     -16.513   0.092 -19.171  1.00  0.00     0.000 C 
BRANCH   4   5
ATOM      5  C   UNL     1     -16.729  -1.406 -18.897  1.00  0.00     0.000 C 
BRANCH   5   6
ATOM      6  C   UNL     1     -16.200  -1.837 -17.520  1.00  0.00     0.000 C 
BRANCH   6   7
ATOM      7  C   UNL     1     -16.070  -0.631 -16.579  1.00  0.00     0.006 C 
BRANCH   7   8
ATOM      8  C   UNL     1     -16.890  -0.804 -15.294  1.00  0.00     0.053 C 
BRANCH   8   9
ATOM      9  C   UNL     1     -18.364  -0.791 -15.569  1.00  0.00     0.041 C 
ATOM     10  O   UNL     1     -19.072  -1.788 -15.269  1.00  0.00    -0.550 OA
ATOM     11  O   UNL     1     -18.947   0.308 -16.186  1.00  0.00    -0.550 OA
ENDBRANCH   8   9
ENDBRANCH   7   8
ENDBRANCH   6   7
ENDBRANCH   5   6
ENDBRANCH   4   5
ENDBRANCH   3   4
ENDBRANCH   2   3
ENDBRANCH   1   2
BRANCH   1  12
ATOM     12  C   UNL     1     -13.327   2.762 -18.127  1.00  0.00     0.000 C 
BRANCH  12  13
ATOM     13  C   UNL     1     -13.677   3.007 -16.648  1.00  0.00    -0.000 C 
BRANCH  13  14
ATOM     14  C   UNL     1     -15.191   2.989 -16.389  1.00  0.00    -0.000 C 
BRANCH  14  15
ATOM     15  C   UNL     1     -15.541   2.664 -14.929  1.00  0.00    -0.000 C 
BRANCH  15  16
ATOM     16  C   UNL     1     -14.382   1.938 -14.235  1.00  0.00    -0.000 C 
BRANCH  16  17
ATOM     17  C   UNL     1     -14.837   1.308 -12.913  1.00  0.00    -0.000 C 
BRANCH  17  18
ATOM     18  C   UNL     1     -15.669   2.301 -12.088  1.00  0.00    -0.000 C 
BRANCH  18  19
ATOM     19  C   UNL     1     -16.691   1.601 -11.177  1.00  0.00    -0.003 C 
ATOM     20  C   UNL     1     -17.712   0.775 -11.960  1.00  0.00     0.004 C 
ENDBRANCH  18  19
ENDBRANCH  17  18
ENDBRANCH  16  17
ENDBRANCH  15  16
ENDBRANCH  14  15
ENDBRANCH  13  14
ENDBRANCH  12  13
ENDBRANCH   1  12
TORSDOF 16
ENDMDL
MODEL 2
REMARK VINA RESULT:    -6.026      2.083      5.404
REMARK INTER + INTRA:         -14.020
REMARK INTER:                 -11.675
REMARK INTRA:                  -2.345
REMARK UNBOUND:                -2.356
REMARK SMILES CCCCCCCCCCCCCCCCCC(=O)[O-]
REMARK SMILES IDX 10 1 11 2 12 3 13 4 14 5 15 6 16 7 17 8 18 9 19 10 20 11
REMARK SMILES IDX 9 12 8 13 7 14 6 15 5 16 4 17 3 18 2 19 1 20
REMARK H PARENT
REMARK Flexibility Score: inf
ROOT
ATOM      1  C   UNL     1     -15.337   2.389 -16.081  1.00  0.00     0.000 C 
ENDROOT
BRANCH   1   2
ATOM      2  C   UNL     1     -15.709   0.902 -15.964  1.00  0.00     0.000 C 
BRANCH   2   3
ATOM      3  C   UNL     1     -17.023   0.725 -15.192  1.00  0.00     0.000 C 
BRANCH   3   4
ATOM      4  C   UNL     1     -17.089  -0.661 -14.532  1.00  0.00     0.000 C 
BRANCH   4   5
ATOM      5  C   UNL     1     -18.088  -0.714 -13.364  1.00  0.00     0.000 C 
BRANCH   5   6
ATOM      6  C   UNL     1     -18.090   0.575 -12.528  1.00  0.00     0.000 C 
BRANCH   6   7
ATOM      7  C   UNL     1     -17.127   0.459 -11.338  1.00  0.00     0.006 C 
BRANCH   7   8
ATOM      8  C   UNL     1     -16.335   1.752 -11.102  1.00  0.00     0.053 C 
BRANCH   8   9
ATOM      9  C   UNL     1     -15.348   2.007 -12.199  1.00  0.00     0.041 C 
ATOM     10  O   UNL     1     -15.257   3.153 -12.715  1.00  0.00    -0.550 OA
ATOM     11  O   UNL     1     -14.553   0.973 -12.676  1.00  0.00    -0.550 OA
ENDBRANCH   8   9
ENDBRANCH   7   8
ENDBRANCH   6   7
ENDBRANCH   5   6
ENDBRANCH   4   5
ENDBRANCH   3   4
ENDBRANCH   2   3
ENDBRANCH   1   2
BRANCH   1  12
ATOM     12  C   UNL     1     -13.817   2.623 -16.075  1.00  0.00     0.000 C 
BRANCH  12  13
ATOM     13  C   UNL     1     -13.324   3.333 -17.348  1.00  0.00    -0.000 C 
BRANCH  13  14
ATOM     14  C   UNL     1     -14.197   3.019 -18.573  1.00  0.00    -0.000 C 
BRANCH  14  15
ATOM     15  C   UNL     1     -13.958   1.608 -19.128  1.00  0.00    -0.000 C 
BRANCH  15  16
ATOM     16  C   UNL     1     -15.100   1.182 -20.058  1.00  0.00    -0.000 C 
BRANCH  16  17
ATOM     17  C   UNL     1     -15.785  -0.091 -19.547  1.00  0.00    -0.000 C 
BRANCH  17  18
ATOM     18  C   UNL     1     -17.274   0.159 -19.268  1.00  0.00    -0.000 C 
BRANCH  18  19
ATOM     19  C   UNL     1     -17.916  -0.963 -18.437  1.00  0.00    -0.003 C 
ATOM     20  C   UNL     1     -16.910  -2.030 -18.006  1.00  0.00     0.004 C 
ENDBRANCH  18  19
ENDBRANCH  17  18
ENDBRANCH  16  17
ENDBRANCH  15  16
ENDBRANCH  14  15
ENDBRANCH  13  14
ENDBRANCH  12  13
ENDBRANCH   1  12
TORSDOF 16
ENDMDL
MODEL 3
REMARK VINA RESULT:    -6.002      2.258      6.265
REMARK INTER + INTRA:         -13.972
REMARK INTER:                 -11.750
REMARK INTRA:                  -2.222
REMARK UNBOUND:                -2.356
REMARK SMILES CCCCCCCCCCCCCCCCCC(=O)[O-]
REMARK SMILES IDX 10 1 11 2 12 3 13 4 14 5 15 6 16 7 17 8 18 9 19 10 20 11
REMARK SMILES IDX 9 12 8 13 7 14 6 15 5 16 4 17 3 18 2 19 1 20
REMARK H PARENT
REMARK Flexibility Score: inf
ROOT
ATOM      1  C   UNL     1     -15.754   1.575 -11.381  1.00  0.00     0.000 C 
ENDROOT
BRANCH   1   2
ATOM      2  C   UNL     1     -15.720   2.460 -12.636  1.00  0.00     0.000 C 
BRANCH   2   3
ATOM      3  C   UNL     1     -14.682   1.945 -13.642  1.00  0.00     0.000 C 
BRANCH   3   4
ATOM      4  C   UNL     1     -14.701   2.784 -14.929  1.00  0.00     0.000 C 
BRANCH   4   5
ATOM      5  C   UNL     1     -13.529   2.455 -15.868  1.00  0.00     0.000 C 
BRANCH   5   6
ATOM      6  C   UNL     1     -13.113   3.650 -16.738  1.00  0.00     0.000 C 
BRANCH   6   7
ATOM      7  C   UNL     1     -13.207   3.301 -18.231  1.00  0.00     0.006 C 
BRANCH   7   8
ATOM      8  C   UNL     1     -14.499   2.547 -18.572  1.00  0.00     0.053 C 
BRANCH   8   9
ATOM      9  C   UNL     1     -14.231   1.339 -19.416  1.00  0.00     0.041 C 
ATOM     10  O   UNL     1     -13.693   0.319 -18.908  1.00  0.00    -0.550 OA
ATOM     11  O   UNL     1     -14.543   1.351 -20.769  1.00  0.00    -0.550 OA
ENDBRANCH   8   9
ENDBRANCH   7   8
ENDBRANCH   6   7
ENDBRANCH   5   6
ENDBRANCH   4   5
ENDBRANCH   3   4
ENDBRANCH   2   3
ENDBRANCH   1   2
BRANCH   1  12
ATOM     12  C   UNL     1     -17.121   0.906 -11.162  1.00  0.00     0.000 C 
BRANCH  12  13
ATOM     13  C   UNL     1     -17.876   0.662 -12.481  1.00  0.00    -0.000 C 
BRANCH  13  14
ATOM     14  C   UNL     1     -17.643  -0.749 -13.043  1.00  0.00    -0.000 C 
BRANCH  14  15
ATOM     15  C   UNL     1     -17.091  -0.734 -14.475  1.00  0.00    -0.000 C 
BRANCH  15  16
ATOM     16  C   UNL     1     -17.752   0.370 -15.308  1.00  0.00    -0.000 C 
BRANCH  16  17
ATOM     17  C   UNL     1     -17.028   0.562 -16.647  1.00  0.00    -0.000 C 
BRANCH  17  18
ATOM     18  C   UNL     1     -18.030   0.809 -17.784  1.00  0.00    -0.000 C 
BRANCH  18  19
ATOM     19  C   UNL     1     -17.667   0.046 -19.067  1.00  0.00    -0.003 C 
ATOM     20  C   UNL     1     -17.022  -1.311 -18.786  1.00  0.00     0.004 C 
ENDBRANCH  18  19
ENDBRANCH  17  18
ENDBRANCH  16  17
ENDBRANCH  15  16
ENDBRANCH  14  15
ENDBRANCH  13  14
ENDBRANCH  12  13
ENDBRANCH   1  12
TORSDOF 16
ENDMDL
MODEL 4
REMARK VINA RESULT:    -5.997      2.036      5.543
REMARK INTER + INTRA:         -13.964
REMARK INTER:                 -11.896
REMARK INTRA:                  -2.068
REMARK UNBOUND:                -2.356
REMARK SMILES CCCCCCCCCCCCCCCCCC(=O)[O-]
REMARK SMILES IDX 10 1 11 2 12 3 13 4 14 5 15 6 16 7 17 8 18 9 19 10 20 11
REMARK SMILES IDX 9 12 8 13 7 14 6 15 5 16 4 17 3 18 2 19 1 20
REMARK H PARENT
REMARK Flexibility Score: inf
ROOT
ATOM      1  C   UNL     1     -17.998   0.672 -18.012  1.00  0.00     0.000 C 
ENDROOT
BRANCH   1   2
ATOM      2  C   UNL     1     -17.305   1.108 -16.712  1.00  0.00     0.000 C 
BRANCH   2   3
ATOM      3  C   UNL     1     -17.246  -0.050 -15.707  1.00  0.00     0.000 C 
BRANCH   3   4
ATOM      4  C   UNL     1     -16.236   0.245 -14.587  1.00  0.00     0.000 C 
BRANCH   4   5
ATOM      5  C   UNL     1     -15.683   1.678 -14.650  1.00  0.00     0.000 C 
BRANCH   5   6
ATOM      6  C   UNL     1     -14.853   2.048 -13.411  1.00  0.00     0.000 C 
BRANCH   6   7
ATOM      7  C   UNL     1     -15.756   2.554 -12.277  1.00  0.00     0.006 C 
BRANCH   7   8
ATOM      8  C   UNL     1     -15.890   1.532 -11.140  1.00  0.00     0.053 C 
BRANCH   8   9
ATOM      9  C   UNL     1     -17.316   1.127 -10.921  1.00  0.00     0.041 C 
ATOM     10  O   UNL     1     -18.159   1.254 -11.848  1.00  0.00    -0.550 OA
ATOM     11  O   UNL     1     -17.721   0.644  -9.684  1.00  0.00    -0.550 OA
ENDBRANCH   8   9
ENDBRANCH   7   8
ENDBRANCH   6   7
ENDBRANCH   5   6
ENDBRANCH   4   5
ENDBRANCH   3   4
ENDBRANCH   2   3
ENDBRANCH   1   2
BRANCH   1  12
ATOM     12  C   UNL     1     -17.824  -0.828 -18.303  1.00  0.00     0.000 C 
BRANCH  12  13
ATOM     13  C   UNL     1     -16.641  -1.113 -19.245  1.00  0.00    -0.000 C 
BRANCH  13  14
ATOM     14  C   UNL     1     -16.047   0.169 -19.850  1.00  0.00    -0.000 C 
BRANCH  14  15
ATOM     15  C   UNL     1     -14.516   0.122 -19.956  1.00  0.00    -0.000 C 
BRANCH  15  16
ATOM     16  C   UNL     1     -13.876  -0.064 -18.575  1.00  0.00    -0.000 C 
BRANCH  16  17
ATOM     17  C   UNL     1     -13.893   1.245 -17.776  1.00  0.00    -0.000 C 
BRANCH  17  18
ATOM     18  C   UNL     1     -13.563   2.444 -18.676  1.00  0.00    -0.000 C 
BRANCH  18  19
ATOM     19  C   UNL     1     -13.062   3.660 -17.880  1.00  0.00    -0.003 C 
ATOM     20  C   UNL     1     -12.915   3.369 -16.387  1.00  0.00     0.004 C 
ENDBRANCH  18  19
ENDBRANCH  17  18
ENDBRANCH  16  17
ENDBRANCH  15  16
ENDBRANCH  14  15
ENDBRANCH  13  14
ENDBRANCH  12  13
ENDBRANCH   1  12
TORSDOF 16
ENDMDL
MODEL 5
REMARK VINA RESULT:    -5.994      1.524      3.911
REMARK INTER + INTRA:         -13.956
REMARK INTER:                 -11.498
REMARK INTRA:                  -2.458
REMARK UNBOUND:                -2.356
REMARK SMILES CCCCCCCCCCCCCCCCCC(=O)[O-]
REMARK SMILES IDX 10 1 11 2 12 3 13 4 14 5 15 6 16 7 17 8 18 9 19 10 20 11
REMARK SMILES IDX 9 12 8 13 7 14 6 15 5 16 4 17 3 18 2 19 1 20
REMARK H PARENT
REMARK Flexibility Score: inf
ROOT
ATOM      1  C   UNL     1     -16.353   1.761 -16.468  1.00  0.00     0.000 C 
ENDROOT
BRANCH   1   2
ATOM      2  C   UNL     1     -15.451   3.004 -16.506  1.00  0.00     0.000 C 
BRANCH   2   3
ATOM      3  C   UNL     1     -13.971   2.606 -16.568  1.00  0.00     0.000 C 
BRANCH   3   4
ATOM      4  C   UNL     1     -13.408   2.803 -17.984  1.00  0.00     0.000 C 
BRANCH   4   5
ATOM      5  C   UNL     1     -13.666   1.594 -18.898  1.00  0.00     0.000 C 
BRANCH   5   6
ATOM      6  C   UNL     1     -14.698   1.892 -19.997  1.00  0.00     0.000 C 
BRANCH   6   7
ATOM      7  C   UNL     1     -15.332   0.595 -20.520  1.00  0.00     0.006 C 
BRANCH   7   8
ATOM      8  C   UNL     1     -15.436  -0.482 -19.431  1.00  0.00     0.053 C 
BRANCH   8   9
ATOM      9  C   UNL     1     -16.862  -0.834 -19.132  1.00  0.00     0.041 C 
ATOM     10  O   UNL     1     -17.156  -1.990 -18.726  1.00  0.00    -0.550 OA
ATOM     11  O   UNL     1     -17.867   0.103 -19.333  1.00  0.00    -0.550 OA
ENDBRANCH   8   9
ENDBRANCH   7   8
ENDBRANCH   6   7
ENDBRANCH   5   6
ENDBRANCH   4   5
ENDBRANCH   3   4
ENDBRANCH   2   3
ENDBRANCH   1   2
BRANCH   1  12
ATOM     12  C   UNL     1     -15.625   0.516 -15.931  1.00  0.00     0.000 C 
BRANCH  12  13
ATOM     13  C   UNL     1     -16.594  -0.532 -15.357  1.00  0.00    -0.000 C 
BRANCH  13  14
ATOM     14  C   UNL     1     -18.067  -0.117 -15.503  1.00  0.00    -0.000 C 
BRANCH  14  15
ATOM     15  C   UNL     1     -18.889  -0.385 -14.234  1.00  0.00    -0.000 C 
BRANCH  15  16
ATOM     16  C   UNL     1     -17.977  -0.534 -13.010  1.00  0.00    -0.000 C 
BRANCH  16  17
ATOM     17  C   UNL     1     -18.009   0.728 -12.139  1.00  0.00    -0.000 C 
BRANCH  17  18
ATOM     18  C   UNL     1     -16.846   0.734 -11.137  1.00  0.00    -0.000 C 
BRANCH  18  19
ATOM     19  C   UNL     1     -15.887   1.916 -11.352  1.00  0.00    -0.003 C 
ATOM     20  C   UNL     1     -15.890   2.425 -12.793  1.00  0.00     0.004 C 
ENDBRANCH  18  19
ENDBRANCH  17  18
ENDBRANCH  16  17
ENDBRANCH  15  16
ENDBRANCH  14  15
ENDBRANCH  13  14
ENDBRANCH  12  13
ENDBRANCH   1  12
TORSDOF 16
ENDMDL
MODEL 6
REMARK VINA RESULT:    -5.951      1.844      4.832
REMARK INTER + INTRA:         -13.873
REMARK INTER:                 -11.449
REMARK INTRA:                  -2.424
REMARK UNBOUND:                -2.356
REMARK SMILES CCCCCCCCCCCCCCCCCC(=O)[O-]
REMARK SMILES IDX 10 1 11 2 12 3 13 4 14 5 15 6 16 7 17 8 18 9 19 10 20 11
REMARK SMILES IDX 9 12 8 13 7 14 6 15 5 16 4 17 3 18 2 19 1 20
REMARK H PARENT
REMARK Flexibility Score: inf
ROOT
ATOM      1  C   UNL     1     -13.752   2.428 -18.582  1.00  0.00     0.000 C 
ENDROOT
BRANCH   1   2
ATOM      2  C   UNL     1     -13.593   3.209 -17.269  1.00  0.00     0.000 C 
BRANCH   2   3
ATOM      3  C   UNL     1     -14.025   2.356 -16.068  1.00  0.00     0.000 C 
BRANCH   3   4
ATOM      4  C   UNL     1     -15.485   2.644 -15.686  1.00  0.00     0.000 C 
BRANCH   4   5
ATOM      5  C   UNL     1     -15.755   2.444 -14.186  1.00  0.00     0.000 C 
BRANCH   5   6
ATOM      6  C   UNL     1     -14.643   1.649 -13.485  1.00  0.00     0.000 C 
BRANCH   6   7
ATOM      7  C   UNL     1     -15.111   1.145 -12.112  1.00  0.00     0.006 C 
BRANCH   7   8
ATOM      8  C   UNL     1     -16.211   2.030 -11.511  1.00  0.00     0.053 C 
BRANCH   8   9
ATOM      9  C   UNL     1     -17.415   1.230 -11.117  1.00  0.00     0.041 C 
ATOM     10  O   UNL     1     -18.245   0.862 -11.991  1.00  0.00    -0.550 OA
ATOM     11  O   UNL     1     -17.638   0.920  -9.782  1.00  0.00    -0.550 OA
ENDBRANCH   8   9
ENDBRANCH   7   8
ENDBRANCH   6   7
ENDBRANCH   5   6
ENDBRANCH   4   5
ENDBRANCH   3   4
ENDBRANCH   2   3
ENDBRANCH   1   2
BRANCH   1  12
ATOM     12  C   UNL     1     -13.638   0.906 -18.386  1.00  0.00     0.000 C 
BRANCH  12  13
ATOM     13  C   UNL     1     -14.126   0.115 -19.612  1.00  0.00    -0.000 C 
BRANCH  13  14
ATOM     14  C   UNL     1     -15.540   0.523 -20.053  1.00  0.00    -0.000 C 
BRANCH  14  15
ATOM     15  C   UNL     1     -16.593   0.298 -18.959  1.00  0.00    -0.000 C 
BRANCH  15  16
ATOM     16  C   UNL     1     -17.153  -1.128 -19.019  1.00  0.00    -0.000 C 
BRANCH  16  17
ATOM     17  C   UNL     1     -16.983  -1.846 -17.675  1.00  0.00    -0.000 C 
BRANCH  17  18
ATOM     18  C   UNL     1     -16.258  -0.951 -16.660  1.00  0.00    -0.000 C 
BRANCH  18  19
ATOM     19  C   UNL     1     -17.020  -0.827 -15.331  1.00  0.00    -0.003 C 
ATOM     20  C   UNL     1     -18.314  -0.023 -15.464  1.00  0.00     0.004 C 
ENDBRANCH  18  19
ENDBRANCH  17  18
ENDBRANCH  16  17
ENDBRANCH  15  16
ENDBRANCH  14  15
ENDBRANCH  13  14
ENDBRANCH  12  13
ENDBRANCH   1  12
TORSDOF 16
ENDMDL
MODEL 7
REMARK VINA RESULT:    -5.918      1.267      3.328
REMARK INTER + INTRA:         -13.811
REMARK INTER:                 -12.026
REMARK INTRA:                  -1.784
REMARK UNBOUND:                -2.356
REMARK SMILES CCCCCCCCCCCCCCCCCC(=O)[O-]
REMARK SMILES IDX 10 1 11 2 12 3 13 4 14 5 15 6 16 7 17 8 18 9 19 10 20 11
REMARK SMILES IDX 9 12 8 13 7 14 6 15 5 16 4 17 3 18 2 19 1 20
REMARK H PARENT
REMARK Flexibility Score: inf
ROOT
ATOM      1  C   UNL     1     -15.212   3.000 -16.664  1.00  0.00     0.000 C 
ENDROOT
BRANCH   1   2
ATOM      2  C   UNL     1     -13.686   3.007 -16.843  1.00  0.00     0.000 C 
BRANCH   2   3
ATOM      3  C   UNL     1     -13.308   3.084 -18.328  1.00  0.00     0.000 C 
BRANCH   3   4
ATOM      4  C   UNL     1     -14.399   2.451 -19.206  1.00  0.00     0.000 C 
BRANCH   4   5
ATOM      5  C   UNL     1     -14.207   0.938 -19.392  1.00  0.00     0.000 C 
BRANCH   5   6
ATOM      6  C   UNL     1     -15.423   0.262 -20.043  1.00  0.00     0.000 C 
BRANCH   6   7
ATOM      7  C   UNL     1     -16.658   0.362 -19.136  1.00  0.00     0.006 C 
BRANCH   7   8
ATOM      8  C   UNL     1     -17.318  -1.002 -18.899  1.00  0.00     0.053 C 
BRANCH   8   9
ATOM      9  C   UNL     1     -16.891  -1.608 -17.597  1.00  0.00     0.041 C 
ATOM     10  O   UNL     1     -17.453  -2.651 -17.169  1.00  0.00    -0.550 OA
ATOM     11  O   UNL     1     -15.898  -1.001 -16.839  1.00  0.00    -0.550 OA
ENDBRANCH   8   9
ENDBRANCH   7   8
ENDBRANCH   6   7
ENDBRANCH   5   6
ENDBRANCH   4   5
ENDBRANCH   3   4
ENDBRANCH   2   3
ENDBRANCH   1   2
BRANCH   1  12
ATOM     12  C   UNL     1     -15.658   2.262 -15.391  1.00  0.00     0.000 C 
BRANCH  12  13
ATOM     13  C   UNL     1     -14.690   2.478 -14.214  1.00  0.00    -0.000 C 
BRANCH  13  14
ATOM     14  C   UNL     1     -15.423   2.758 -12.892  1.00  0.00    -0.000 C 
BRANCH  14  15
ATOM     15  C   UNL     1     -15.498   1.525 -11.981  1.00  0.00    -0.000 C 
BRANCH  15  16
ATOM     16  C   UNL     1     -16.749   1.572 -11.095  1.00  0.00    -0.000 C 
BRANCH  16  17
ATOM     17  C   UNL     1     -17.951   0.932 -11.801  1.00  0.00    -0.000 C 
BRANCH  17  18
ATOM     18  C   UNL     1     -17.526  -0.311 -12.594  1.00  0.00    -0.000 C 
BRANCH  18  19
ATOM     19  C   UNL     1     -17.899  -0.219 -14.082  1.00  0.00    -0.003 C 
ATOM     20  C   UNL     1     -19.148  -1.028 -14.430  1.00  0.00     0.004 C 
ENDBRANCH  18  19
ENDBRANCH  17  18
ENDBRANCH  16  17
ENDBRANCH  15  16
ENDBRANCH  14  15
ENDBRANCH  13  14
ENDBRANCH  12  13
ENDBRANCH   1  12
TORSDOF 16
ENDMDL
MODEL 8
REMARK VINA RESULT:    -5.906      1.275      1.877
REMARK INTER + INTRA:         -13.788
REMARK INTER:                 -11.803
REMARK INTRA:                  -1.985
REMARK UNBOUND:                -2.356
REMARK SMILES CCCCCCCCCCCCCCCCCC(=O)[O-]
REMARK SMILES IDX 10 1 11 2 12 3 13 4 14 5 15 6 16 7 17 8 18 9 19 10 20 11
REMARK SMILES IDX 9 12 8 13 7 14 6 15 5 16 4 17 3 18 2 19 1 20
REMARK H PARENT
REMARK Flexibility Score: inf
ROOT
ATOM      1  C   UNL     1     -14.053   0.607 -19.717  1.00  0.00     0.000 C 
ENDROOT
BRANCH   1   2
ATOM      2  C   UNL     1     -15.325  -0.248 -19.820  1.00  0.00     0.000 C 
BRANCH   2   3
ATOM      3  C   UNL     1     -16.546   0.521 -19.299  1.00  0.00     0.000 C 
BRANCH   3   4
ATOM      4  C   UNL     1     -17.703  -0.437 -18.978  1.00  0.00     0.000 C 
BRANCH   4   5
ATOM      5  C   UNL     1     -17.217  -1.822 -18.521  1.00  0.00     0.000 C 
BRANCH   5   6
ATOM      6  C   UNL     1     -17.354  -2.027 -17.005  1.00  0.00     0.000 C 
BRANCH   6   7
ATOM      7  C   UNL     1     -18.025  -0.813 -16.345  1.00  0.00     0.006 C 
BRANCH   7   8
ATOM      8  C   UNL     1     -17.441  -0.506 -14.960  1.00  0.00     0.053 C 
BRANCH   8   9
ATOM      9  C   UNL     1     -18.442  -0.744 -13.870  1.00  0.00     0.041 C 
ATOM     10  O   UNL     1     -18.486   0.025 -12.873  1.00  0.00    -0.550 OA
ATOM     11  O   UNL     1     -19.301  -1.832 -13.939  1.00  0.00    -0.550 OA
ENDBRANCH   8   9
ENDBRANCH   7   8
ENDBRANCH   6   7
ENDBRANCH   5   6
ENDBRANCH   4   5
ENDBRANCH   3   4
ENDBRANCH   2   3
ENDBRANCH   1   2
BRANCH   1  12
ATOM     12  C   UNL     1     -14.357   2.107 -19.558  1.00  0.00     0.000 C 
BRANCH  12  13
ATOM     13  C   UNL     1     -13.564   2.751 -18.407  1.00  0.00    -0.000 C 
BRANCH  13  14
ATOM     14  C   UNL     1     -14.408   3.743 -17.592  1.00  0.00    -0.000 C 
BRANCH  14  15
ATOM     15  C   UNL     1     -15.478   3.050 -16.736  1.00  0.00    -0.000 C 
BRANCH  15  16
ATOM     16  C   UNL     1     -14.886   1.859 -15.974  1.00  0.00    -0.000 C 
BRANCH  16  17
ATOM     17  C   UNL     1     -14.123   2.324 -14.727  1.00  0.00    -0.000 C 
BRANCH  17  18
ATOM     18  C   UNL     1     -15.089   2.646 -13.579  1.00  0.00    -0.000 C 
BRANCH  18  19
ATOM     19  C   UNL     1     -15.092   1.564 -12.487  1.00  0.00    -0.003 C 
ATOM     20  C   UNL     1     -16.043   1.889 -11.335  1.00  0.00     0.004 C 
ENDBRANCH  18  19
ENDBRANCH  17  18
ENDBRANCH  16  17
ENDBRANCH  15  16
ENDBRANCH  14  15
ENDBRANCH  13  14
ENDBRANCH  12  13
ENDBRANCH   1  12
TORSDOF 16
ENDMDL
MODEL 9
REMARK VINA RESULT:    -5.891      1.697      5.075
REMARK INTER + INTRA:         -13.759
REMARK INTER:                 -11.554
REMARK INTRA:                  -2.204
REMARK UNBOUND:                -2.356
REMARK SMILES CCCCCCCCCCCCCCCCCC(=O)[O-]
REMARK SMILES IDX 10 1 11 2 12 3 13 4 14 5 15 6 16 7 17 8 18 9 19 10 20 11
REMARK SMILES IDX 9 12 8 13 7 14 6 15 5 16 4 17 3 18 2 19 1 20
REMARK H PARENT
REMARK Flexibility Score: inf
ROOT
ATOM      1  C   UNL     1     -18.117   0.065 -12.701  1.00  0.00     0.000 C 
ENDROOT
BRANCH   1   2
ATOM      2  C   UNL     1     -17.185  -0.410 -13.827  1.00  0.00     0.000 C 
BRANCH   2   3
ATOM      3  C   UNL     1     -17.458   0.361 -15.125  1.00  0.00     0.000 C 
BRANCH   3   4
ATOM      4  C   UNL     1     -18.793  -0.071 -15.751  1.00  0.00     0.000 C 
BRANCH   4   5
ATOM      5  C   UNL     1     -18.900   0.307 -17.237  1.00  0.00     0.000 C 
BRANCH   5   6
ATOM      6  C   UNL     1     -17.719   1.164 -17.717  1.00  0.00     0.000 C 
BRANCH   6   7
ATOM      7  C   UNL     1     -16.890   0.414 -18.771  1.00  0.00     0.006 C 
BRANCH   7   8
ATOM      8  C   UNL     1     -17.176  -1.094 -18.771  1.00  0.00     0.053 C 
BRANCH   8   9
ATOM      9  C   UNL     1     -16.203  -1.843 -17.912  1.00  0.00     0.041 C 
ATOM     10  O   UNL     1     -16.620  -2.592 -16.988  1.00  0.00    -0.550 OA
ATOM     11  O   UNL     1     -14.837  -1.689 -18.109  1.00  0.00    -0.550 OA
ENDBRANCH   8   9
ENDBRANCH   7   8
ENDBRANCH   6   7
ENDBRANCH   5   6
ENDBRANCH   4   5
ENDBRANCH   3   4
ENDBRANCH   2   3
ENDBRANCH   1   2
BRANCH   1  12
ATOM     12  C   UNL     1     -17.353   0.462 -11.426  1.00  0.00     0.000 C 
BRANCH  12  13
ATOM     13  C   UNL     1     -16.931   1.942 -11.427  1.00  0.00    -0.000 C 
BRANCH  13  14
ATOM     14  C   UNL     1     -15.493   2.145 -11.929  1.00  0.00    -0.000 C 
BRANCH  14  15
ATOM     15  C   UNL     1     -15.424   2.984 -13.213  1.00  0.00    -0.000 C 
BRANCH  15  16
ATOM     16  C   UNL     1     -14.449   2.366 -14.222  1.00  0.00    -0.000 C 
BRANCH  16  17
ATOM     17  C   UNL     1     -14.874   2.676 -15.663  1.00  0.00    -0.000 C 
BRANCH  17  18
ATOM     18  C   UNL     1     -14.232   1.691 -16.650  1.00  0.00    -0.000 C 
BRANCH  18  19
ATOM     19  C   UNL     1     -13.538   2.399 -17.824  1.00  0.00    -0.003 C 
ATOM     20  C   UNL     1     -12.985   3.772 -17.443  1.00  0.00     0.004 C 
ENDBRANCH  18  19
ENDBRANCH  17  18
ENDBRANCH  16  17
ENDBRANCH  15  16
ENDBRANCH  14  15
ENDBRANCH  13  14
ENDBRANCH  12  13
ENDBRANCH   1  12
TORSDOF 16
ENDMDL
