MODEL 1
REMARK VINA RESULT:    -2.961      0.000      0.000
REMARK INTER + INTRA:          -3.886
REMARK INTER:                  -4.086
REMARK INTRA:                   0.200
REMARK UNBOUND:                 0.200
REMARK SMILES CC[C@H](CC[C@H](C)[C@@H]1CC[C@@H]2[C@@H]3CC=C4C[C@H](O)CC[C@@]4(C)[C@@H]3CC[C@@]21C)C(C)C
REMARK SMILES IDX 5 1 4 2 3 3 2 4 1 5 28 6 29 7 30 8 6 9 7 10 8 11 9 12 26 13
REMARK SMILES IDX 10 14 11 15 25 16 27 17 12 18 24 19 23 20 13 21 21 22 14 23
REMARK SMILES IDX 15 24 20 25 22 26 16 27 19 28 17 29 18 30
REMARK H PARENT 18 31
REMARK Flexibility Score: inf
ROOT
ATOM      1  C   UNL     1      28.141  32.564  24.194  1.00  0.00     0.004 C 
ENDROOT
BRANCH   1   2
ATOM      2  C   UNL     1      28.944  31.250  24.353  1.00  0.00     0.004 C 
BRANCH   2   3
ATOM      3  C   UNL     1      28.067  30.095  24.927  1.00  0.00    -0.009 C 
BRANCH   3   4
ATOM      4  C   UNL     1      27.736  29.035  23.841  1.00  0.00     0.000 C 
ATOM      5  C   UNL     1      28.818  28.936  22.767  1.00  0.00     0.004 C 
ENDBRANCH   3   4
BRANCH   3   6
ATOM      6  C   UNL     1      28.705  29.455  26.210  1.00  0.00    -0.014 C 
ATOM      7  C   UNL     1      27.801  28.419  26.896  1.00  0.00     0.007 C 
ATOM      8  C   UNL     1      29.125  30.524  27.225  1.00  0.00     0.007 C 
ENDBRANCH   3   6
ENDBRANCH   2   3
ENDBRANCH   1   2
BRANCH   1   9
ATOM      9  C   UNL     1      28.854  33.736  23.444  1.00  0.00    -0.011 C 
ATOM     10  C   UNL     1      29.042  34.859  24.492  1.00  0.00     0.008 C 
BRANCH   9  11
ATOM     11  C   UNL     1      28.045  34.239  22.179  1.00  0.00    -0.002 C 
ATOM     12  C   UNL     1      28.921  34.411  20.918  1.00  0.00     0.005 C 
ATOM     13  C   UNL     1      27.257  35.591  22.274  1.00  0.00    -0.026 C 
ATOM     14  C   UNL     1      28.324  35.545  20.089  1.00  0.00     0.005 C 
ATOM     15  C   UNL     1      27.020  35.938  20.793  1.00  0.00    -0.001 C 
ATOM     16  C   UNL     1      28.117  36.732  22.887  1.00  0.00     0.007 C 
ATOM     17  C   UNL     1      25.891  35.425  22.996  1.00  0.00     0.012 C 
ATOM     18  C   UNL     1      26.466  37.382  20.507  1.00  0.00     0.000 C 
ATOM     19  C   UNL     1      27.371  38.063  22.901  1.00  0.00     0.005 C 
ATOM     20  C   UNL     1      26.868  38.544  21.509  1.00  0.00     0.003 C 
ATOM     21  C   UNL     1      26.615  37.771  19.020  1.00  0.00     0.031 C 
ATOM     22  C   UNL     1      27.655  39.766  20.873  1.00  0.00    -0.008 C 
ATOM     23  C   UNL     1      26.390  39.227  18.770  1.00  0.00    -0.027 C 
ATOM     24  C   UNL     1      26.951  40.168  19.561  1.00  0.00    -0.065 C 
ATOM     25  C   UNL     1      27.643  40.983  21.876  1.00  0.00     0.014 C 
ATOM     26  C   UNL     1      29.125  39.400  20.571  1.00  0.00     0.016 C 
ATOM     27  C   UNL     1      26.999  41.596  19.038  1.00  0.00     0.063 C 
ATOM     28  C   UNL     1      27.947  42.347  21.236  1.00  0.00     0.033 C 
ATOM     29  C   UNL     1      26.914  42.640  20.155  1.00  0.00     0.118 C 
BRANCH  29  30
ATOM     30  O   UNL     1      27.086  43.929  19.629  1.00  0.00    -0.393 OA
ATOM     31  H   UNL     1      26.420  44.067  18.909  1.00  0.00     0.210 HD
ENDBRANCH  29  30
ENDBRANCH   9  11
ENDBRANCH   1   9
TORSDOF 7
ENDMDL
MODEL 2
REMARK VINA RESULT:    -0.984      3.463      8.943
REMARK INTER + INTRA:          -1.158
REMARK INTER:                  -0.186
REMARK INTRA:                  -0.971
REMARK UNBOUND:                 0.200
REMARK SMILES CC[C@H](CC[C@H](C)[C@@H]1CC[C@@H]2[C@@H]3CC=C4C[C@H](O)CC[C@@]4(C)[C@@H]3CC[C@@]21C)C(C)C
REMARK SMILES IDX 5 1 4 2 3 3 2 4 1 5 28 6 29 7 30 8 6 9 7 10 8 11 9 12 26 13
REMARK SMILES IDX 10 14 11 15 25 16 27 17 12 18 24 19 23 20 13 21 21 22 14 23
REMARK SMILES IDX 15 24 20 25 22 26 16 27 19 28 17 29 18 30
REMARK H PARENT 18 31
REMARK Flexibility Score: inf
ROOT
ATOM      1  C   UNL     1      27.980  43.668  20.575  1.00  0.00     0.004 C 
ENDROOT
BRANCH   1   2
ATOM      2  C   UNL     1      29.014  43.190  21.623  1.00  0.00     0.004 C 
BRANCH   2   3
ATOM      3  C   UNL     1      28.337  42.789  22.970  1.00  0.00    -0.009 C 
BRANCH   3   4
ATOM      4  C   UNL     1      29.125  41.664  23.693  1.00  0.00     0.000 C 
ATOM      5  C   UNL     1      28.498  41.272  25.030  1.00  0.00     0.004 C 
ENDBRANCH   3   4
BRANCH   3   6
ATOM      6  C   UNL     1      28.089  44.033  23.894  1.00  0.00    -0.014 C 
ATOM      7  C   UNL     1      29.017  44.085  25.118  1.00  0.00     0.007 C 
ATOM      8  C   UNL     1      26.628  44.114  24.352  1.00  0.00     0.007 C 
ENDBRANCH   3   6
ENDBRANCH   2   3
ENDBRANCH   1   2
BRANCH   1   9
ATOM      9  C   UNL     1      27.843  42.803  19.279  1.00  0.00    -0.011 C 
ATOM     10  C   UNL     1      27.525  43.797  18.136  1.00  0.00     0.008 C 
BRANCH   9  11
ATOM     11  C   UNL     1      26.737  41.677  19.406  1.00  0.00    -0.002 C 
ATOM     12  C   UNL     1      25.889  41.791  20.692  1.00  0.00     0.005 C 
ATOM     13  C   UNL     1      27.181  40.174  19.383  1.00  0.00    -0.026 C 
ATOM     14  C   UNL     1      25.470  40.381  21.099  1.00  0.00     0.005 C 
ATOM     15  C   UNL     1      25.953  39.459  19.973  1.00  0.00    -0.001 C 
ATOM     16  C   UNL     1      28.380  39.900  20.335  1.00  0.00     0.007 C 
ATOM     17  C   UNL     1      27.441  39.659  17.940  1.00  0.00     0.012 C 
ATOM     18  C   UNL     1      26.149  37.940  20.334  1.00  0.00     0.000 C 
ATOM     19  C   UNL     1      28.754  38.421  20.369  1.00  0.00     0.005 C 
ATOM     20  C   UNL     1      27.596  37.464  20.777  1.00  0.00     0.003 C 
ATOM     21  C   UNL     1      25.021  37.416  21.247  1.00  0.00     0.031 C 
ATOM     22  C   UNL     1      27.702  36.828  22.226  1.00  0.00    -0.008 C 
ATOM     23  C   UNL     1      25.330  36.087  21.856  1.00  0.00    -0.027 C 
ATOM     24  C   UNL     1      26.538  35.832  22.407  1.00  0.00    -0.065 C 
ATOM     25  C   UNL     1      29.077  36.067  22.371  1.00  0.00     0.014 C 
ATOM     26  C   UNL     1      27.625  37.907  23.328  1.00  0.00     0.016 C 
ATOM     27  C   UNL     1      26.657  34.628  23.329  1.00  0.00     0.063 C 
ATOM     28  C   UNL     1      29.125  35.038  23.512  1.00  0.00     0.033 C 
ATOM     29  C   UNL     1      28.046  33.986  23.289  1.00  0.00     0.118 C 
BRANCH  29  30
ATOM     30  O   UNL     1      28.134  32.961  24.244  1.00  0.00    -0.393 OA
ATOM     31  H   UNL     1      29.066  32.625  24.260  1.00  0.00     0.210 HD
ENDBRANCH  29  30
ENDBRANCH   9  11
ENDBRANCH   1   9
TORSDOF 7
ENDMDL
