MODEL 1
REMARK VINA RESULT:    -4.003      0.000      0.000
REMARK INTER + INTRA:         -10.229
REMARK INTER:                  -7.513
REMARK INTRA:                  -2.716
REMARK UNBOUND:                -2.716
REMARK SMILES CCCCCCCCCCCCCC=CC=CC(=O)OC
REMARK SMILES IDX 9 1 8 2 7 3 6 4 5 5 4 6 3 7 2 8 1 9 10 10 11 11 12 12 13 13
REMARK SMILES IDX 14 14 15 15 16 16 17 17 18 18 19 19 20 20 21 21
REMARK H PARENT
REMARK Flexibility Score: inf
ROOT
ATOM      1  C   UNL     1       1.122 -21.499 -11.976  1.00  0.00     0.000 C 
ENDROOT
BRANCH   1   2
ATOM      2  C   UNL     1      -0.066 -20.523 -11.897  1.00  0.00     0.000 C 
BRANCH   2   3
ATOM      3  C   UNL     1      -1.454 -21.186 -11.950  1.00  0.00     0.000 C 
BRANCH   3   4
ATOM      4  C   UNL     1      -1.383 -22.705 -12.178  1.00  0.00    -0.000 C 
BRANCH   4   5
ATOM      5  C   UNL     1      -1.867 -23.506 -10.959  1.00  0.00    -0.000 C 
BRANCH   5   6
ATOM      6  C   UNL     1      -1.257 -24.918 -10.903  1.00  0.00    -0.000 C 
BRANCH   6   7
ATOM      7  C   UNL     1      -0.711 -25.277  -9.509  1.00  0.00    -0.000 C 
BRANCH   7   8
ATOM      8  C   UNL     1       0.704 -25.884  -9.509  1.00  0.00    -0.003 C 
ATOM      9  C   UNL     1       0.707 -27.394  -9.737  1.00  0.00     0.004 C 
ENDBRANCH   7   8
ENDBRANCH   6   7
ENDBRANCH   5   6
ENDBRANCH   4   5
ENDBRANCH   3   4
ENDBRANCH   2   3
ENDBRANCH   1   2
BRANCH   1  10
ATOM     10  C   UNL     1       2.048 -21.417 -10.753  1.00  0.00     0.000 C 
BRANCH  10  11
ATOM     11  C   UNL     1       1.520 -22.285  -9.605  1.00  0.00     0.000 C 
BRANCH  11  12
ATOM     12  C   UNL     1       0.959 -21.417  -8.470  1.00  0.00     0.004 C 
BRANCH  12  13
ATOM     13  C   UNL     1      -0.561 -21.566  -8.313  1.00  0.00     0.027 C 
BRANCH  13  14
ATOM     14  C   UNL     1      -1.250 -20.232  -8.257  1.00  0.00    -0.027 C 
ATOM     15  C   UNL     1      -0.618 -19.101  -8.582  1.00  0.00    -0.004 C 
BRANCH  15  16
ATOM     16  C   UNL     1      -1.321 -17.804  -8.534  1.00  0.00     0.007 C 
ATOM     17  C   UNL     1      -1.239 -16.849  -9.473  1.00  0.00     0.093 C 
BRANCH  17  18
ATOM     18  C   UNL     1      -0.567 -16.967 -10.782  1.00  0.00     0.330 C 
ATOM     19  O   UNL     1       0.679 -16.805 -10.897  1.00  0.00    -0.247 OA
BRANCH  18  20
ATOM     20  O   UNL     1      -1.333 -17.329 -11.893  1.00  0.00    -0.466 OA
ATOM     21  C   UNL     1      -1.766 -16.386 -12.867  1.00  0.00     0.282 C 
ENDBRANCH  18  20
ENDBRANCH  17  18
ENDBRANCH  15  16
ENDBRANCH  13  14
ENDBRANCH  12  13
ENDBRANCH  11  12
ENDBRANCH  10  11
ENDBRANCH   1  10
TORSDOF 15
ENDMDL
MODEL 2
REMARK VINA RESULT:    -3.835      4.356      8.174
REMARK INTER + INTRA:          -9.914
REMARK INTER:                  -8.170
REMARK INTRA:                  -1.743
REMARK UNBOUND:                -2.716
REMARK SMILES CCCCCCCCCCCCCC=CC=CC(=O)OC
REMARK SMILES IDX 9 1 8 2 7 3 6 4 5 5 4 6 3 7 2 8 1 9 10 10 11 11 12 12 13 13
REMARK SMILES IDX 14 14 15 15 16 16 17 17 18 18 19 19 20 20 21 21
REMARK H PARENT
REMARK Flexibility Score: inf
ROOT
ATOM      1  C   UNL     1      -1.873 -22.017  -8.600  1.00  0.00     0.000 C 
ENDROOT
BRANCH   1   2
ATOM      2  C   UNL     1      -1.080 -20.769  -8.174  1.00  0.00     0.000 C 
BRANCH   2   3
ATOM      3  C   UNL     1      -1.723 -19.427  -8.570  1.00  0.00     0.000 C 
BRANCH   3   4
ATOM      4  C   UNL     1      -0.913 -18.666  -9.632  1.00  0.00    -0.000 C 
BRANCH   4   5
ATOM      5  C   UNL     1      -1.049 -19.285 -11.031  1.00  0.00    -0.000 C 
BRANCH   5   6
ATOM      6  C   UNL     1       0.299 -19.769 -11.594  1.00  0.00    -0.000 C 
BRANCH   6   7
ATOM      7  C   UNL     1       0.396 -21.304 -11.674  1.00  0.00    -0.000 C 
BRANCH   7   8
ATOM      8  C   UNL     1       1.749 -21.887 -11.228  1.00  0.00    -0.003 C 
ATOM      9  C   UNL     1       2.011 -21.715  -9.732  1.00  0.00     0.004 C 
ENDBRANCH   7   8
ENDBRANCH   6   7
ENDBRANCH   5   6
ENDBRANCH   4   5
ENDBRANCH   3   4
ENDBRANCH   2   3
ENDBRANCH   1   2
BRANCH   1  10
ATOM     10  C   UNL     1      -2.124 -22.993  -7.440  1.00  0.00     0.000 C 
BRANCH  10  11
ATOM     11  C   UNL     1      -1.472 -24.352  -7.714  1.00  0.00     0.000 C 
BRANCH  11  12
ATOM     12  C   UNL     1      -1.625 -24.751  -9.188  1.00  0.00     0.004 C 
BRANCH  12  13
ATOM     13  C   UNL     1      -0.310 -24.630  -9.969  1.00  0.00     0.027 C 
BRANCH  13  14
ATOM     14  C   UNL     1       0.629 -25.762  -9.660  1.00  0.00    -0.027 C 
ATOM     15  C   UNL     1       0.223 -27.035  -9.676  1.00  0.00    -0.004 C 
BRANCH  15  16
ATOM     16  C   UNL     1       1.168 -28.131  -9.384  1.00  0.00     0.007 C 
ATOM     17  C   UNL     1       0.941 -29.133  -8.521  1.00  0.00     0.093 C 
BRANCH  17  18
ATOM     18  C   UNL     1      -0.329 -29.415  -7.825  1.00  0.00     0.330 C 
ATOM     19  O   UNL     1      -0.598 -28.888  -6.710  1.00  0.00    -0.247 OA
BRANCH  18  20
ATOM     20  O   UNL     1      -1.268 -30.233  -8.458  1.00  0.00    -0.466 OA
ATOM     21  C   UNL     1      -1.045 -31.619  -8.691  1.00  0.00     0.282 C 
ENDBRANCH  18  20
ENDBRANCH  17  18
ENDBRANCH  15  16
ENDBRANCH  13  14
ENDBRANCH  12  13
ENDBRANCH  11  12
ENDBRANCH  10  11
ENDBRANCH   1  10
TORSDOF 15
ENDMDL
MODEL 3
REMARK VINA RESULT:    -3.737      1.798      3.337
REMARK INTER + INTRA:          -9.730
REMARK INTER:                  -7.919
REMARK INTRA:                  -1.811
REMARK UNBOUND:                -2.716
REMARK SMILES CCCCCCCCCCCCCC=CC=CC(=O)OC
REMARK SMILES IDX 9 1 8 2 7 3 6 4 5 5 4 6 3 7 2 8 1 9 10 10 11 11 12 12 13 13
REMARK SMILES IDX 14 14 15 15 16 16 17 17 18 18 19 19 20 20 21 21
REMARK H PARENT
REMARK Flexibility Score: inf
ROOT
ATOM      1  C   UNL     1       0.550 -24.980  -9.746  1.00  0.00     0.000 C 
ENDROOT
BRANCH   1   2
ATOM      2  C   UNL     1      -0.874 -25.332 -10.212  1.00  0.00     0.000 C 
BRANCH   2   3
ATOM      3  C   UNL     1      -1.646 -26.281  -9.277  1.00  0.00     0.000 C 
BRANCH   3   4
ATOM      4  C   UNL     1      -1.753 -25.747  -7.839  1.00  0.00    -0.000 C 
BRANCH   4   5
ATOM      5  C   UNL     1      -1.444 -26.824  -6.788  1.00  0.00    -0.000 C 
BRANCH   5   6
ATOM      6  C   UNL     1      -1.688 -28.249  -7.315  1.00  0.00    -0.000 C 
BRANCH   6   7
ATOM      7  C   UNL     1      -0.487 -29.185  -7.084  1.00  0.00    -0.000 C 
BRANCH   7   8
ATOM      8  C   UNL     1       0.868 -28.620  -7.549  1.00  0.00    -0.003 C 
ATOM      9  C   UNL     1       1.053 -28.681  -9.064  1.00  0.00     0.004 C 
ENDBRANCH   7   8
ENDBRANCH   6   7
ENDBRANCH   5   6
ENDBRANCH   4   5
ENDBRANCH   3   4
ENDBRANCH   2   3
ENDBRANCH   1   2
BRANCH   1  10
ATOM     10  C   UNL     1       0.922 -23.513 -10.012  1.00  0.00     0.000 C 
BRANCH  10  11
ATOM     11  C   UNL     1      -0.127 -22.831 -10.897  1.00  0.00     0.000 C 
BRANCH  11  12
ATOM     12  C   UNL     1      -0.535 -21.468 -10.319  1.00  0.00     0.004 C 
BRANCH  12  13
ATOM     13  C   UNL     1      -0.197 -21.339  -8.827  1.00  0.00     0.027 C 
BRANCH  13  14
ATOM     14  C   UNL     1      -0.147 -19.903  -8.389  1.00  0.00    -0.027 C 
ATOM     15  C   UNL     1      -1.211 -19.101  -8.486  1.00  0.00    -0.004 C 
BRANCH  15  16
ATOM     16  C   UNL     1      -1.142 -17.698  -8.033  1.00  0.00     0.007 C 
ATOM     17  C   UNL     1      -1.003 -16.635  -8.841  1.00  0.00     0.093 C 
BRANCH  17  18
ATOM     18  C   UNL     1      -1.047 -16.648 -10.316  1.00  0.00     0.330 C 
ATOM     19  O   UNL     1      -2.124 -16.449 -10.943  1.00  0.00    -0.247 OA
BRANCH  18  20
ATOM     20  O   UNL     1       0.149 -16.822 -11.016  1.00  0.00    -0.466 OA
ATOM     21  C   UNL     1       0.528 -18.067 -11.592  1.00  0.00     0.282 C 
ENDBRANCH  18  20
ENDBRANCH  17  18
ENDBRANCH  15  16
ENDBRANCH  13  14
ENDBRANCH  12  13
ENDBRANCH  11  12
ENDBRANCH  10  11
ENDBRANCH   1  10
TORSDOF 15
ENDMDL
MODEL 4
REMARK VINA RESULT:    -3.735      3.078      5.890
REMARK INTER + INTRA:          -9.727
REMARK INTER:                  -7.518
REMARK INTRA:                  -2.209
REMARK UNBOUND:                -2.716
REMARK SMILES CCCCCCCCCCCCCC=CC=CC(=O)OC
REMARK SMILES IDX 9 1 8 2 7 3 6 4 5 5 4 6 3 7 2 8 1 9 10 10 11 11 12 12 13 13
REMARK SMILES IDX 14 14 15 15 16 16 17 17 18 18 19 19 20 20 21 21
REMARK H PARENT
REMARK Flexibility Score: inf
ROOT
ATOM      1  C   UNL     1       1.156 -28.067  -9.485  1.00  0.00     0.000 C 
ENDROOT
BRANCH   1   2
ATOM      2  C   UNL     1       1.200 -28.991  -8.255  1.00  0.00     0.000 C 
BRANCH   2   3
ATOM      3  C   UNL     1       0.130 -28.699  -7.187  1.00  0.00     0.000 C 
BRANCH   3   4
ATOM      4  C   UNL     1      -1.017 -29.722  -7.195  1.00  0.00    -0.000 C 
BRANCH   4   5
ATOM      5  C   UNL     1      -2.054 -29.434  -8.292  1.00  0.00    -0.000 C 
BRANCH   5   6
ATOM      6  C   UNL     1      -2.125 -30.556  -9.343  1.00  0.00    -0.000 C 
BRANCH   6   7
ATOM      7  C   UNL     1      -1.237 -31.763  -8.990  1.00  0.00    -0.000 C 
BRANCH   7   8
ATOM      8  C   UNL     1      -0.364 -32.280 -10.149  1.00  0.00    -0.003 C 
ATOM      9  C   UNL     1       1.125 -32.308  -9.809  1.00  0.00     0.004 C 
ENDBRANCH   7   8
ENDBRANCH   6   7
ENDBRANCH   5   6
ENDBRANCH   4   5
ENDBRANCH   3   4
ENDBRANCH   2   3
ENDBRANCH   1   2
BRANCH   1  10
ATOM     10  C   UNL     1       0.421 -26.745  -9.216  1.00  0.00     0.000 C 
BRANCH  10  11
ATOM     11  C   UNL     1      -0.778 -26.582 -10.157  1.00  0.00     0.000 C 
BRANCH  11  12
ATOM     12  C   UNL     1      -1.947 -25.887  -9.444  1.00  0.00     0.004 C 
BRANCH  12  13
ATOM     13  C   UNL     1      -1.652 -25.612  -7.964  1.00  0.00     0.027 C 
BRANCH  13  14
ATOM     14  C   UNL     1      -1.822 -24.159  -7.621  1.00  0.00    -0.027 C 
ATOM     15  C   UNL     1      -1.343 -23.191  -8.408  1.00  0.00    -0.004 C 
BRANCH  15  16
ATOM     16  C   UNL     1      -1.537 -21.771  -8.058  1.00  0.00     0.007 C 
ATOM     17  C   UNL     1      -0.672 -20.784  -8.339  1.00  0.00     0.093 C 
BRANCH  17  18
ATOM     18  C   UNL     1       0.542 -20.898  -9.171  1.00  0.00     0.330 C 
ATOM     19  O   UNL     1       1.568 -21.505  -8.755  1.00  0.00    -0.247 OA
BRANCH  18  20
ATOM     20  O   UNL     1       0.514 -20.373 -10.465  1.00  0.00    -0.466 OA
ATOM     21  C   UNL     1       0.722 -18.992 -10.738  1.00  0.00     0.282 C 
ENDBRANCH  18  20
ENDBRANCH  17  18
ENDBRANCH  15  16
ENDBRANCH  13  14
ENDBRANCH  12  13
ENDBRANCH  11  12
ENDBRANCH  10  11
ENDBRANCH   1  10
TORSDOF 15
ENDMDL
MODEL 5
REMARK VINA RESULT:    -3.732      5.420      9.519
REMARK INTER + INTRA:          -9.721
REMARK INTER:                  -7.894
REMARK INTRA:                  -1.826
REMARK UNBOUND:                -2.716
REMARK SMILES CCCCCCCCCCCCCC=CC=CC(=O)OC
REMARK SMILES IDX 9 1 8 2 7 3 6 4 5 5 4 6 3 7 2 8 1 9 10 10 11 11 12 12 13 13
REMARK SMILES IDX 14 14 15 15 16 16 17 17 18 18 19 19 20 20 21 21
REMARK H PARENT
REMARK Flexibility Score: inf
ROOT
ATOM      1  C   UNL     1      -0.691 -24.114 -10.546  1.00  0.00     0.000 C 
ENDROOT
BRANCH   1   2
ATOM      2  C   UNL     1      -1.848 -23.544  -9.706  1.00  0.00     0.000 C 
BRANCH   2   3
ATOM      3  C   UNL     1      -1.562 -23.436  -8.197  1.00  0.00     0.000 C 
BRANCH   3   4
ATOM      4  C   UNL     1      -1.542 -21.983  -7.695  1.00  0.00    -0.000 C 
BRANCH   4   5
ATOM      5  C   UNL     1      -0.712 -21.059  -8.600  1.00  0.00    -0.000 C 
BRANCH   5   6
ATOM      6  C   UNL     1       0.752 -20.946  -8.141  1.00  0.00    -0.000 C 
BRANCH   6   7
ATOM      7  C   UNL     1       1.753 -21.402  -9.219  1.00  0.00    -0.000 C 
BRANCH   7   8
ATOM      8  C   UNL     1       1.711 -20.584 -10.523  1.00  0.00    -0.003 C 
ATOM      9  C   UNL     1       1.465 -21.445 -11.761  1.00  0.00     0.004 C 
ENDBRANCH   7   8
ENDBRANCH   6   7
ENDBRANCH   5   6
ENDBRANCH   4   5
ENDBRANCH   3   4
ENDBRANCH   2   3
ENDBRANCH   1   2
BRANCH   1  10
ATOM     10  C   UNL     1       0.322 -24.909  -9.709  1.00  0.00     0.000 C 
BRANCH  10  11
ATOM     11  C   UNL     1       0.149 -26.417  -9.923  1.00  0.00     0.000 C 
BRANCH  11  12
ATOM     12  C   UNL     1       0.257 -27.179  -8.595  1.00  0.00     0.004 C 
BRANCH  12  13
ATOM     13  C   UNL     1      -1.031 -27.097  -7.765  1.00  0.00     0.027 C 
BRANCH  13  14
ATOM     14  C   UNL     1      -1.500 -28.455  -7.326  1.00  0.00    -0.027 C 
ATOM     15  C   UNL     1      -0.970 -29.576  -7.825  1.00  0.00    -0.004 C 
BRANCH  15  16
ATOM     16  C   UNL     1      -1.437 -30.899  -7.366  1.00  0.00     0.007 C 
ATOM     17  C   UNL     1      -1.417 -32.020  -8.103  1.00  0.00     0.093 C 
BRANCH  17  18
ATOM     18  C   UNL     1      -0.797 -32.179  -9.433  1.00  0.00     0.330 C 
ATOM     19  O   UNL     1      -1.397 -31.823 -10.485  1.00  0.00    -0.247 OA
BRANCH  18  20
ATOM     20  O   UNL     1       0.506 -32.678  -9.505  1.00  0.00    -0.466 OA
ATOM     21  C   UNL     1       0.913 -33.626 -10.485  1.00  0.00     0.282 C 
ENDBRANCH  18  20
ENDBRANCH  17  18
ENDBRANCH  15  16
ENDBRANCH  13  14
ENDBRANCH  12  13
ENDBRANCH  11  12
ENDBRANCH  10  11
ENDBRANCH   1  10
TORSDOF 15
ENDMDL
MODEL 6
REMARK VINA RESULT:    -3.727      3.189      6.543
REMARK INTER + INTRA:          -9.712
REMARK INTER:                  -7.841
REMARK INTRA:                  -1.871
REMARK UNBOUND:                -2.716
REMARK SMILES CCCCCCCCCCCCCC=CC=CC(=O)OC
REMARK SMILES IDX 9 1 8 2 7 3 6 4 5 5 4 6 3 7 2 8 1 9 10 10 11 11 12 12 13 13
REMARK SMILES IDX 14 14 15 15 16 16 17 17 18 18 19 19 20 20 21 21
REMARK H PARENT
REMARK Flexibility Score: inf
ROOT
ATOM      1  C   UNL     1       0.918 -29.049  -9.174  1.00  0.00     0.000 C 
ENDROOT
BRANCH   1   2
ATOM      2  C   UNL     1       0.958 -28.656  -7.687  1.00  0.00     0.000 C 
BRANCH   2   3
ATOM      3  C   UNL     1      -0.316 -28.994  -6.893  1.00  0.00     0.000 C 
BRANCH   3   4
ATOM      4  C   UNL     1      -1.412 -29.632  -7.763  1.00  0.00    -0.000 C 
BRANCH   4   5
ATOM      5  C   UNL     1      -1.795 -31.041  -7.287  1.00  0.00    -0.000 C 
BRANCH   5   6
ATOM      6  C   UNL     1      -1.955 -32.033  -8.453  1.00  0.00    -0.000 C 
BRANCH   6   7
ATOM      7  C   UNL     1      -0.608 -32.450  -9.071  1.00  0.00    -0.000 C 
BRANCH   7   8
ATOM      8  C   UNL     1      -0.468 -32.145 -10.574  1.00  0.00    -0.003 C 
ATOM      9  C   UNL     1      -1.558 -31.213 -11.099  1.00  0.00     0.004 C 
ENDBRANCH   7   8
ENDBRANCH   6   7
ENDBRANCH   5   6
ENDBRANCH   4   5
ENDBRANCH   3   4
ENDBRANCH   2   3
ENDBRANCH   1   2
BRANCH   1  10
ATOM     10  C   UNL     1       0.536 -27.879 -10.094  1.00  0.00     0.000 C 
BRANCH  10  11
ATOM     11  C   UNL     1       0.710 -26.536  -9.376  1.00  0.00     0.000 C 
BRANCH  11  12
ATOM     12  C   UNL     1      -0.621 -25.773  -9.304  1.00  0.00     0.004 C 
BRANCH  12  13
ATOM     13  C   UNL     1      -1.488 -25.987 -10.551  1.00  0.00     0.027 C 
BRANCH  13  14
ATOM     14  C   UNL     1      -1.649 -24.720 -11.343  1.00  0.00    -0.027 C 
ATOM     15  C   UNL     1      -0.836 -23.674 -11.168  1.00  0.00    -0.004 C 
BRANCH  15  16
ATOM     16  C   UNL     1      -1.005 -22.446 -11.969  1.00  0.00     0.007 C 
ATOM     17  C   UNL     1      -0.173 -21.393 -11.947  1.00  0.00     0.093 C 
BRANCH  17  18
ATOM     18  C   UNL     1       1.125 -21.320 -11.249  1.00  0.00     0.330 C 
ATOM     19  O   UNL     1       2.171 -21.815 -11.755  1.00  0.00    -0.247 OA
BRANCH  18  20
ATOM     20  O   UNL     1       1.192 -20.631 -10.036  1.00  0.00    -0.466 OA
ATOM     21  C   UNL     1       1.554 -21.261  -8.813  1.00  0.00     0.282 C 
ENDBRANCH  18  20
ENDBRANCH  17  18
ENDBRANCH  15  16
ENDBRANCH  13  14
ENDBRANCH  12  13
ENDBRANCH  11  12
ENDBRANCH  10  11
ENDBRANCH   1  10
TORSDOF 15
ENDMDL
MODEL 7
REMARK VINA RESULT:    -3.688      6.049     10.284
REMARK INTER + INTRA:          -9.638
REMARK INTER:                  -7.974
REMARK INTRA:                  -1.664
REMARK UNBOUND:                -2.716
REMARK SMILES CCCCCCCCCCCCCC=CC=CC(=O)OC
REMARK SMILES IDX 9 1 8 2 7 3 6 4 5 5 4 6 3 7 2 8 1 9 10 10 11 11 12 12 13 13
REMARK SMILES IDX 14 14 15 15 16 16 17 17 18 18 19 19 20 20 21 21
REMARK H PARENT
REMARK Flexibility Score: inf
ROOT
ATOM      1  C   UNL     1       0.637 -25.398  -9.750  1.00  0.00     0.000 C 
ENDROOT
BRANCH   1   2
ATOM      2  C   UNL     1      -0.647 -24.559  -9.628  1.00  0.00     0.000 C 
BRANCH   2   3
ATOM      3  C   UNL     1      -1.300 -24.175 -10.968  1.00  0.00     0.000 C 
BRANCH   3   4
ATOM      4  C   UNL     1      -1.485 -22.657 -11.130  1.00  0.00    -0.000 C 
BRANCH   4   5
ATOM      5  C   UNL     1      -0.556 -22.062 -12.200  1.00  0.00    -0.000 C 
BRANCH   5   6
ATOM      6  C   UNL     1       0.519 -21.141 -11.598  1.00  0.00    -0.000 C 
BRANCH   6   7
ATOM      7  C   UNL     1       1.840 -21.877 -11.305  1.00  0.00    -0.000 C 
BRANCH   7   8
ATOM      8  C   UNL     1       2.130 -22.108  -9.811  1.00  0.00    -0.003 C 
ATOM      9  C   UNL     1       1.198 -21.319  -8.892  1.00  0.00     0.004 C 
ENDBRANCH   7   8
ENDBRANCH   6   7
ENDBRANCH   5   6
ENDBRANCH   4   5
ENDBRANCH   3   4
ENDBRANCH   2   3
ENDBRANCH   1   2
BRANCH   1  10
ATOM     10  C   UNL     1       0.497 -26.801  -9.139  1.00  0.00     0.000 C 
BRANCH  10  11
ATOM     11  C   UNL     1      -0.957 -27.087  -8.747  1.00  0.00     0.000 C 
BRANCH  11  12
ATOM     12  C   UNL     1      -1.030 -27.856  -7.420  1.00  0.00     0.004 C 
BRANCH  12  13
ATOM     13  C   UNL     1      -0.161 -29.121  -7.427  1.00  0.00     0.027 C 
BRANCH  13  14
ATOM     14  C   UNL     1      -0.627 -30.112  -8.455  1.00  0.00    -0.027 C 
ATOM     15  C   UNL     1       0.201 -30.607  -9.379  1.00  0.00    -0.004 C 
BRANCH  15  16
ATOM     16  C   UNL     1      -0.276 -31.592 -10.369  1.00  0.00     0.007 C 
ATOM     17  C   UNL     1       0.251 -32.812 -10.557  1.00  0.00     0.093 C 
BRANCH  17  18
ATOM     18  C   UNL     1       1.289 -33.452  -9.725  1.00  0.00     0.330 C 
ATOM     19  O   UNL     1       2.513 -33.193  -9.888  1.00  0.00    -0.247 OA
BRANCH  18  20
ATOM     20  O   UNL     1       0.884 -34.310  -8.700  1.00  0.00    -0.466 OA
ATOM     21  C   UNL     1      -0.398 -34.927  -8.676  1.00  0.00     0.282 C 
ENDBRANCH  18  20
ENDBRANCH  17  18
ENDBRANCH  15  16
ENDBRANCH  13  14
ENDBRANCH  12  13
ENDBRANCH  11  12
ENDBRANCH  10  11
ENDBRANCH   1  10
TORSDOF 15
ENDMDL
MODEL 8
REMARK VINA RESULT:    -3.685      3.689      7.010
REMARK INTER + INTRA:          -9.632
REMARK INTER:                  -7.133
REMARK INTRA:                  -2.499
REMARK UNBOUND:                -2.716
REMARK SMILES CCCCCCCCCCCCCC=CC=CC(=O)OC
REMARK SMILES IDX 9 1 8 2 7 3 6 4 5 5 4 6 3 7 2 8 1 9 10 10 11 11 12 12 13 13
REMARK SMILES IDX 14 14 15 15 16 16 17 17 18 18 19 19 20 20 21 21
REMARK H PARENT
REMARK Flexibility Score: inf
ROOT
ATOM      1  C   UNL     1       0.924 -29.427  -9.162  1.00  0.00     0.000 C 
ENDROOT
BRANCH   1   2
ATOM      2  C   UNL     1       0.526 -28.646 -10.428  1.00  0.00     0.000 C 
BRANCH   2   3
ATOM      3  C   UNL     1      -0.909 -28.902 -10.922  1.00  0.00     0.000 C 
BRANCH   3   4
ATOM      4  C   UNL     1      -1.001 -30.076 -11.910  1.00  0.00    -0.000 C 
BRANCH   4   5
ATOM      5  C   UNL     1      -1.606 -31.336 -11.271  1.00  0.00    -0.000 C 
BRANCH   5   6
ATOM      6  C   UNL     1      -0.531 -32.338 -10.815  1.00  0.00    -0.000 C 
BRANCH   6   7
ATOM      7  C   UNL     1      -0.713 -32.785  -9.353  1.00  0.00    -0.000 C 
BRANCH   7   8
ATOM      8  C   UNL     1      -1.689 -31.922  -8.533  1.00  0.00    -0.003 C 
ATOM      9  C   UNL     1      -1.808 -32.372  -7.078  1.00  0.00     0.004 C 
ENDBRANCH   7   8
ENDBRANCH   6   7
ENDBRANCH   5   6
ENDBRANCH   4   5
ENDBRANCH   3   4
ENDBRANCH   2   3
ENDBRANCH   1   2
BRANCH   1  10
ATOM     10  C   UNL     1       0.894 -28.564  -7.892  1.00  0.00     0.000 C 
BRANCH  10  11
ATOM     11  C   UNL     1      -0.263 -28.976  -6.974  1.00  0.00     0.000 C 
BRANCH  11  12
ATOM     12  C   UNL     1      -1.547 -28.213  -7.328  1.00  0.00     0.004 C 
BRANCH  12  13
ATOM     13  C   UNL     1      -1.378 -26.692  -7.205  1.00  0.00     0.027 C 
BRANCH  13  14
ATOM     14  C   UNL     1      -1.665 -25.991  -8.502  1.00  0.00    -0.027 C 
ATOM     15  C   UNL     1      -0.686 -25.501  -9.267  1.00  0.00    -0.004 C 
BRANCH  15  16
ATOM     16  C   UNL     1      -0.993 -24.830 -10.546  1.00  0.00     0.007 C 
ATOM     17  C   UNL     1      -0.515 -23.633 -10.921  1.00  0.00     0.093 C 
BRANCH  17  18
ATOM     18  C   UNL     1       0.508 -22.841 -10.212  1.00  0.00     0.330 C 
ATOM     19  O   UNL     1       1.607 -22.548 -10.759  1.00  0.00    -0.247 OA
BRANCH  18  20
ATOM     20  O   UNL     1       0.211 -22.360  -8.935  1.00  0.00    -0.466 OA
ATOM     21  C   UNL     1      -0.561 -21.185  -8.716  1.00  0.00     0.282 C 
ENDBRANCH  18  20
ENDBRANCH  17  18
ENDBRANCH  15  16
ENDBRANCH  13  14
ENDBRANCH  12  13
ENDBRANCH  11  12
ENDBRANCH  10  11
ENDBRANCH   1  10
TORSDOF 15
ENDMDL
MODEL 9
REMARK VINA RESULT:    -3.508      6.411     10.913
REMARK INTER + INTRA:          -9.301
REMARK INTER:                  -7.030
REMARK INTRA:                  -2.271
REMARK UNBOUND:                -2.716
REMARK SMILES CCCCCCCCCCCCCC=CC=CC(=O)OC
REMARK SMILES IDX 9 1 8 2 7 3 6 4 5 5 4 6 3 7 2 8 1 9 10 10 11 11 12 12 13 13
REMARK SMILES IDX 14 14 15 15 16 16 17 17 18 18 19 19 20 20 21 21
REMARK H PARENT
REMARK Flexibility Score: inf
ROOT
ATOM      1  C   UNL     1       0.866 -28.633  -7.497  1.00  0.00     0.000 C 
ENDROOT
BRANCH   1   2
ATOM      2  C   UNL     1      -0.560 -29.059  -7.105  1.00  0.00     0.000 C 
BRANCH   2   3
ATOM      3  C   UNL     1      -1.406 -27.957  -6.442  1.00  0.00     0.000 C 
BRANCH   3   4
ATOM      4  C   UNL     1      -2.124 -27.059  -7.463  1.00  0.00    -0.000 C 
BRANCH   4   5
ATOM      5  C   UNL     1      -1.632 -25.604  -7.415  1.00  0.00    -0.000 C 
BRANCH   5   6
ATOM      6  C   UNL     1      -1.670 -24.924  -8.795  1.00  0.00    -0.000 C 
BRANCH   6   7
ATOM      7  C   UNL     1      -0.276 -24.491  -9.286  1.00  0.00    -0.000 C 
BRANCH   7   8
ATOM      8  C   UNL     1      -0.276 -23.706 -10.610  1.00  0.00    -0.003 C 
ATOM      9  C   UNL     1      -1.343 -24.189 -11.592  1.00  0.00     0.004 C 
ENDBRANCH   7   8
ENDBRANCH   6   7
ENDBRANCH   5   6
ENDBRANCH   4   5
ENDBRANCH   3   4
ENDBRANCH   2   3
ENDBRANCH   1   2
BRANCH   1  10
ATOM     10  C   UNL     1       1.181 -28.886  -8.979  1.00  0.00     0.000 C 
BRANCH  10  11
ATOM     11  C   UNL     1       0.457 -27.876  -9.876  1.00  0.00     0.000 C 
BRANCH  11  12
ATOM     12  C   UNL     1      -0.300 -28.586 -11.008  1.00  0.00     0.004 C 
BRANCH  12  13
ATOM     13  C   UNL     1      -1.778 -28.819 -10.668  1.00  0.00     0.027 C 
BRANCH  13  14
ATOM     14  C   UNL     1      -2.018 -30.207 -10.145  1.00  0.00    -0.027 C 
ATOM     15  C   UNL     1      -1.328 -31.258 -10.599  1.00  0.00    -0.004 C 
BRANCH  15  16
ATOM     16  C   UNL     1      -1.571 -32.609 -10.058  1.00  0.00     0.007 C 
ATOM     17  C   UNL     1      -0.784 -33.676 -10.269  1.00  0.00     0.093 C 
BRANCH  17  18
ATOM     18  C   UNL     1       0.531 -33.671 -10.940  1.00  0.00     0.330 C 
ATOM     19  O   UNL     1       0.634 -33.853 -12.184  1.00  0.00    -0.247 OA
BRANCH  18  20
ATOM     20  O   UNL     1       1.667 -33.394 -10.175  1.00  0.00    -0.466 OA
ATOM     21  C   UNL     1       2.355 -34.394  -9.432  1.00  0.00     0.282 C 
ENDBRANCH  18  20
ENDBRANCH  17  18
ENDBRANCH  15  16
ENDBRANCH  13  14
ENDBRANCH  12  13
ENDBRANCH  11  12
ENDBRANCH  10  11
ENDBRANCH   1  10
TORSDOF 15
ENDMDL
