MODEL 1
REMARK VINA RESULT:    -4.506      0.000      0.000
REMARK INTER + INTRA:          -5.094
REMARK INTER:                  -4.901
REMARK INTRA:                  -0.193
REMARK UNBOUND:                -0.193
REMARK SMILES Cc1ccc(C(C)C)c(O)c1
REMARK SMILES IDX 1 1 2 2 11 3 9 4 5 5 4 6 3 7 10 8 6 10 7 11 8 12
REMARK H PARENT 10 9
REMARK Flexibility Score: inf
ROOT
ATOM      1  C   UNL     1      41.248  21.732  52.662  1.00  0.00     0.044 C 
ATOM      2  C   UNL     1      40.048  20.963  53.130  1.00  0.00    -0.047 A 
ATOM      3  C   UNL     1      38.767  21.517  53.018  1.00  0.00     0.049 A 
ATOM      4  C   UNL     1      37.635  20.791  53.419  1.00  0.00     0.119 A 
ATOM      5  C   UNL     1      37.781  19.480  53.931  1.00  0.00    -0.004 A 
ATOM      6  C   UNL     1      39.073  18.928  54.019  1.00  0.00     0.008 A 
ATOM      7  C   UNL     1      40.193  19.658  53.617  1.00  0.00     0.004 A 
ENDROOT
BRANCH   4   8
ATOM      8  O   UNL     1      36.375  21.375  53.305  1.00  0.00    -0.508 OA
ATOM      9  H   UNL     1      35.750  21.151  52.540  1.00  0.00     0.293 HD
ENDBRANCH   4   8
BRANCH   5  10
ATOM     10  C   UNL     1      36.592  18.643  54.383  1.00  0.00     0.017 C 
ATOM     11  C   UNL     1      36.564  17.273  53.693  1.00  0.00     0.012 C 
ATOM     12  C   UNL     1      36.539  18.505  55.909  1.00  0.00     0.012 C 
ENDBRANCH   5  10
TORSDOF 2
ENDMDL
MODEL 2
REMARK VINA RESULT:    -4.463      2.138      4.086
REMARK INTER + INTRA:          -5.047
REMARK INTER:                  -4.949
REMARK INTRA:                  -0.098
REMARK UNBOUND:                -0.193
REMARK SMILES Cc1ccc(C(C)C)c(O)c1
REMARK SMILES IDX 1 1 2 2 11 3 9 4 5 5 4 6 3 7 10 8 6 10 7 11 8 12
REMARK H PARENT 10 9
REMARK Flexibility Score: inf
ROOT
ATOM      1  C   UNL     1      37.936  15.841  52.760  1.00  0.00     0.044 C 
ATOM      2  C   UNL     1      38.218  17.194  53.344  1.00  0.00    -0.047 A 
ATOM      3  C   UNL     1      39.517  17.715  53.322  1.00  0.00     0.049 A 
ATOM      4  C   UNL     1      39.784  18.995  53.832  1.00  0.00     0.119 A 
ATOM      5  C   UNL     1      38.731  19.778  54.364  1.00  0.00    -0.004 A 
ATOM      6  C   UNL     1      37.427  19.248  54.361  1.00  0.00     0.008 A 
ATOM      7  C   UNL     1      37.172  17.974  53.851  1.00  0.00     0.004 A 
ENDROOT
BRANCH   4   8
ATOM      8  O   UNL     1      41.090  19.481  53.805  1.00  0.00    -0.508 OA
ATOM      9  H   UNL     1      41.306  20.411  53.467  1.00  0.00     0.293 HD
ENDBRANCH   4   8
BRANCH   5  10
ATOM     10  C   UNL     1      38.957  21.172  54.932  1.00  0.00     0.017 C 
ATOM     11  C   UNL     1      39.249  22.197  53.829  1.00  0.00     0.012 C 
ATOM     12  C   UNL     1      37.791  21.621  55.822  1.00  0.00     0.012 C 
ENDBRANCH   5  10
TORSDOF 2
ENDMDL
MODEL 3
REMARK VINA RESULT:    -4.424      2.341      3.474
REMARK INTER + INTRA:          -5.005
REMARK INTER:                  -4.825
REMARK INTRA:                  -0.180
REMARK UNBOUND:                -0.193
REMARK SMILES Cc1ccc(C(C)C)c(O)c1
REMARK SMILES IDX 1 1 2 2 11 3 9 4 5 5 4 6 3 7 10 8 6 10 7 11 8 12
REMARK H PARENT 10 9
REMARK Flexibility Score: inf
ROOT
ATOM      1  C   UNL     1      37.360  22.111  56.138  1.00  0.00     0.044 C 
ATOM      2  C   UNL     1      37.892  21.000  55.280  1.00  0.00    -0.047 A 
ATOM      3  C   UNL     1      39.254  20.948  54.958  1.00  0.00     0.049 A 
ATOM      4  C   UNL     1      39.767  19.893  54.187  1.00  0.00     0.119 A 
ATOM      5  C   UNL     1      38.908  18.862  53.739  1.00  0.00    -0.004 A 
ATOM      6  C   UNL     1      37.545  18.918  54.087  1.00  0.00     0.008 A 
ATOM      7  C   UNL     1      37.044  19.971  54.855  1.00  0.00     0.004 A 
ENDROOT
BRANCH   4   8
ATOM      8  O   UNL     1      41.125  19.875  53.875  1.00  0.00    -0.508 OA
ATOM      9  H   UNL     1      41.757  20.596  54.202  1.00  0.00     0.293 HD
ENDBRANCH   4   8
BRANCH   5  10
ATOM     10  C   UNL     1      39.404  17.692  52.900  1.00  0.00     0.017 C 
ATOM     11  C   UNL     1      38.562  16.431  53.125  1.00  0.00     0.012 C 
ATOM     12  C   UNL     1      39.489  18.054  51.411  1.00  0.00     0.012 C 
ENDBRANCH   5  10
TORSDOF 2
ENDMDL
MODEL 4
REMARK VINA RESULT:    -4.398      2.542      4.079
REMARK INTER + INTRA:          -4.976
REMARK INTER:                  -4.784
REMARK INTRA:                  -0.193
REMARK UNBOUND:                -0.193
REMARK SMILES Cc1ccc(C(C)C)c(O)c1
REMARK SMILES IDX 1 1 2 2 11 3 9 4 5 5 4 6 3 7 10 8 6 10 7 11 8 12
REMARK H PARENT 10 9
REMARK Flexibility Score: inf
ROOT
ATOM      1  C   UNL     1      39.775  14.451  51.998  1.00  0.00     0.044 C 
ATOM      2  C   UNL     1      39.162  15.639  52.680  1.00  0.00    -0.047 A 
ATOM      3  C   UNL     1      39.960  16.729  53.051  1.00  0.00     0.049 A 
ATOM      4  C   UNL     1      39.391  17.860  53.655  1.00  0.00     0.119 A 
ATOM      5  C   UNL     1      37.995  17.912  53.884  1.00  0.00    -0.004 A 
ATOM      6  C   UNL     1      37.203  16.818  53.488  1.00  0.00     0.008 A 
ATOM      7  C   UNL     1      37.779  15.697  52.886  1.00  0.00     0.004 A 
ENDROOT
BRANCH   4   8
ATOM      8  O   UNL     1      40.214  18.923  54.022  1.00  0.00    -0.508 OA
ATOM      9  H   UNL     1      41.221  18.874  53.932  1.00  0.00     0.293 HD
ENDBRANCH   4   8
BRANCH   5  10
ATOM     10  C   UNL     1      37.319  19.111  54.535  1.00  0.00     0.017 C 
ATOM     11  C   UNL     1      36.509  19.930  53.522  1.00  0.00     0.012 C 
ATOM     12  C   UNL     1      36.461  18.697  55.738  1.00  0.00     0.012 C 
ENDBRANCH   5  10
TORSDOF 2
ENDMDL
MODEL 5
REMARK VINA RESULT:    -4.389      5.873      7.240
REMARK INTER + INTRA:          -4.967
REMARK INTER:                  -4.770
REMARK INTRA:                  -0.197
REMARK UNBOUND:                -0.193
REMARK SMILES Cc1ccc(C(C)C)c(O)c1
REMARK SMILES IDX 1 1 2 2 11 3 9 4 5 5 4 6 3 7 10 8 6 10 7 11 8 12
REMARK H PARENT 10 9
REMARK Flexibility Score: inf
ROOT
ATOM      1  C   UNL     1      40.506  27.383  55.749  1.00  0.00     0.044 C 
ATOM      2  C   UNL     1      41.129  26.456  54.748  1.00  0.00    -0.047 A 
ATOM      3  C   UNL     1      40.321  25.673  53.914  1.00  0.00     0.049 A 
ATOM      4  C   UNL     1      40.894  24.830  52.948  1.00  0.00     0.119 A 
ATOM      5  C   UNL     1      42.300  24.776  52.802  1.00  0.00    -0.004 A 
ATOM      6  C   UNL     1      43.098  25.583  53.634  1.00  0.00     0.008 A 
ATOM      7  C   UNL     1      42.519  26.419  54.591  1.00  0.00     0.004 A 
ENDROOT
BRANCH   4   8
ATOM      8  O   UNL     1      40.063  24.055  52.141  1.00  0.00    -0.508 OA
ATOM      9  H   UNL     1      39.890  24.291  51.172  1.00  0.00     0.293 HD
ENDBRANCH   4   8
BRANCH   5  10
ATOM     10  C   UNL     1      42.980  23.881  51.775  1.00  0.00     0.017 C 
ATOM     11  C   UNL     1      44.183  24.575  51.122  1.00  0.00     0.012 C 
ATOM     12  C   UNL     1      43.370  22.522  52.370  1.00  0.00     0.012 C 
ENDBRANCH   5  10
TORSDOF 2
ENDMDL
MODEL 6
REMARK VINA RESULT:    -4.376      1.915      2.493
REMARK INTER + INTRA:          -4.952
REMARK INTER:                  -4.756
REMARK INTRA:                  -0.196
REMARK UNBOUND:                -0.193
REMARK SMILES Cc1ccc(C(C)C)c(O)c1
REMARK SMILES IDX 1 1 2 2 11 3 9 4 5 5 4 6 3 7 10 8 6 10 7 11 8 12
REMARK H PARENT 10 9
REMARK Flexibility Score: inf
ROOT
ATOM      1  C   UNL     1      40.393  22.900  51.124  1.00  0.00     0.044 C 
ATOM      2  C   UNL     1      39.901  21.729  51.924  1.00  0.00    -0.047 A 
ATOM      3  C   UNL     1      40.375  21.514  53.225  1.00  0.00     0.049 A 
ATOM      4  C   UNL     1      39.894  20.444  53.994  1.00  0.00     0.119 A 
ATOM      5  C   UNL     1      38.911  19.577  53.462  1.00  0.00    -0.004 A 
ATOM      6  C   UNL     1      38.430  19.816  52.161  1.00  0.00     0.008 A 
ATOM      7  C   UNL     1      38.914  20.885  51.403  1.00  0.00     0.004 A 
ENDROOT
BRANCH   4   8
ATOM      8  O   UNL     1      40.394  20.251  55.281  1.00  0.00    -0.508 OA
ATOM      9  H   UNL     1      40.996  20.933  55.727  1.00  0.00     0.293 HD
ENDBRANCH   4   8
BRANCH   5  10
ATOM     10  C   UNL     1      38.350  18.398  54.247  1.00  0.00     0.017 C 
ATOM     11  C   UNL     1      37.003  18.736  54.897  1.00  0.00     0.012 C 
ATOM     12  C   UNL     1      38.259  17.132  53.387  1.00  0.00     0.012 C 
ENDBRANCH   5  10
TORSDOF 2
ENDMDL
MODEL 7
REMARK VINA RESULT:    -4.348      6.199      7.370
REMARK INTER + INTRA:          -4.922
REMARK INTER:                  -4.768
REMARK INTRA:                  -0.154
REMARK UNBOUND:                -0.193
REMARK SMILES Cc1ccc(C(C)C)c(O)c1
REMARK SMILES IDX 1 1 2 2 11 3 9 4 5 5 4 6 3 7 10 8 6 10 7 11 8 12
REMARK H PARENT 10 9
REMARK Flexibility Score: inf
ROOT
ATOM      1  C   UNL     1      40.489  27.460  56.033  1.00  0.00     0.044 C 
ATOM      2  C   UNL     1      41.027  26.576  54.946  1.00  0.00    -0.047 A 
ATOM      3  C   UNL     1      42.399  26.557  54.667  1.00  0.00     0.049 A 
ATOM      4  C   UNL     1      42.917  25.706  53.679  1.00  0.00     0.119 A 
ATOM      5  C   UNL     1      42.051  24.847  52.961  1.00  0.00    -0.004 A 
ATOM      6  C   UNL     1      40.677  24.863  53.266  1.00  0.00     0.008 A 
ATOM      7  C   UNL     1      40.171  25.713  54.252  1.00  0.00     0.004 A 
ENDROOT
BRANCH   4   8
ATOM      8  O   UNL     1      44.286  25.718  53.418  1.00  0.00    -0.508 OA
ATOM      9  H   UNL     1      44.829  26.572  53.458  1.00  0.00     0.293 HD
ENDBRANCH   4   8
BRANCH   5  10
ATOM     10  C   UNL     1      42.552  23.902  51.877  1.00  0.00     0.017 C 
ATOM     11  C   UNL     1      43.199  22.645  52.470  1.00  0.00     0.012 C 
ATOM     12  C   UNL     1      41.446  23.546  50.875  1.00  0.00     0.012 C 
ENDBRANCH   5  10
TORSDOF 2
ENDMDL
MODEL 8
REMARK VINA RESULT:    -4.294     16.782     18.144
REMARK INTER + INTRA:          -4.863
REMARK INTER:                  -4.678
REMARK INTRA:                  -0.185
REMARK UNBOUND:                -0.193
REMARK SMILES Cc1ccc(C(C)C)c(O)c1
REMARK SMILES IDX 1 1 2 2 11 3 9 4 5 5 4 6 3 7 10 8 6 10 7 11 8 12
REMARK H PARENT 10 9
REMARK Flexibility Score: inf
ROOT
ATOM      1  C   UNL     1      46.873  33.163  65.175  1.00  0.00     0.044 C 
ATOM      2  C   UNL     1      47.056  33.141  63.686  1.00  0.00    -0.047 A 
ATOM      3  C   UNL     1      46.274  32.293  62.892  1.00  0.00     0.049 A 
ATOM      4  C   UNL     1      46.412  32.292  61.495  1.00  0.00     0.119 A 
ATOM      5  C   UNL     1      47.340  33.162  60.876  1.00  0.00    -0.004 A 
ATOM      6  C   UNL     1      48.105  34.023  61.685  1.00  0.00     0.008 A 
ATOM      7  C   UNL     1      47.960  34.017  63.074  1.00  0.00     0.004 A 
ENDROOT
BRANCH   4   8
ATOM      8  O   UNL     1      45.626  31.429  60.734  1.00  0.00    -0.508 OA
ATOM      9  H   UNL     1      45.003  30.756  61.163  1.00  0.00     0.293 HD
ENDBRANCH   4   8
BRANCH   5  10
ATOM     10  C   UNL     1      47.535  33.207  59.366  1.00  0.00     0.017 C 
ATOM     11  C   UNL     1      46.512  34.125  58.686  1.00  0.00     0.012 C 
ATOM     12  C   UNL     1      48.972  33.589  58.989  1.00  0.00     0.012 C 
ENDBRANCH   5  10
TORSDOF 2
ENDMDL
MODEL 9
REMARK VINA RESULT:    -4.227      2.771      4.276
REMARK INTER + INTRA:          -4.790
REMARK INTER:                  -4.599
REMARK INTRA:                  -0.191
REMARK UNBOUND:                -0.193
REMARK SMILES Cc1ccc(C(C)C)c(O)c1
REMARK SMILES IDX 1 1 2 2 11 3 9 4 5 5 4 6 3 7 10 8 6 10 7 11 8 12
REMARK H PARENT 10 9
REMARK Flexibility Score: inf
ROOT
ATOM      1  C   UNL     1      39.863  14.462  52.143  1.00  0.00     0.044 C 
ATOM      2  C   UNL     1      38.955  15.552  52.631  1.00  0.00    -0.047 A 
ATOM      3  C   UNL     1      37.573  15.468  52.416  1.00  0.00     0.049 A 
ATOM      4  C   UNL     1      36.712  16.464  52.900  1.00  0.00     0.119 A 
ATOM      5  C   UNL     1      37.236  17.561  53.624  1.00  0.00    -0.004 A 
ATOM      6  C   UNL     1      38.624  17.623  53.849  1.00  0.00     0.008 A 
ATOM      7  C   UNL     1      39.473  16.626  53.364  1.00  0.00     0.004 A 
ENDROOT
BRANCH   4   8
ATOM      8  O   UNL     1      35.343  16.357  52.660  1.00  0.00    -0.508 OA
ATOM      9  H   UNL     1      34.980  16.080  51.757  1.00  0.00     0.293 HD
ENDBRANCH   4   8
BRANCH   5  10
ATOM     10  C   UNL     1      36.353  18.674  54.174  1.00  0.00     0.017 C 
ATOM     11  C   UNL     1      36.479  18.802  55.697  1.00  0.00     0.012 C 
ATOM     12  C   UNL     1      36.618  20.012  53.473  1.00  0.00     0.012 C 
ENDBRANCH   5  10
TORSDOF 2
ENDMDL
