MODEL 1
REMARK VINA RESULT:    -3.993      0.000      0.000
REMARK INTER + INTRA:          -6.193
REMARK INTER:                  -6.094
REMARK INTRA:                  -0.098
REMARK UNBOUND:                -0.098
REMARK SMILES CC1=CCC[C@@H](C)C(=O)C[C@H](C(C)C)C(=O)C1
REMARK SMILES IDX 8 1 9 2 6 3 7 4 5 5 4 6 3 7 2 8 1 9 10 11 11 12 15 13 16 14
REMARK SMILES IDX 17 15 12 17 13 18 14 19
REMARK H PARENT
REMARK Flexibility Score: 70.00
ROOT
ATOM      1  C   UNL     1       8.887 -20.147  22.807  1.00  0.00     0.136 C 
ATOM      2  O   UNL     1       9.827 -20.139  23.586  1.00  0.00    -0.299 OA
ENDROOT
BRANCH   1   3
ATOM      3  C   UNL     1       7.636 -20.914  23.209  1.00  0.00     0.053 C 
ATOM      4  C   UNL     1       6.668 -21.173  22.044  1.00  0.00     0.016 C 
BRANCH   3   5
ATOM      5  C   UNL     1       6.990 -20.353  24.507  1.00  0.00     0.015 C 
BRANCH   5   6
ATOM      6  C   UNL     1       6.525 -18.882  24.524  1.00  0.00     0.028 C 
BRANCH   6   7
ATOM      7  C   UNL     1       7.350 -17.905  25.327  1.00  0.00    -0.028 C 
ATOM      8  C   UNL     1       8.043 -16.852  24.837  1.00  0.00    -0.070 CG0
ATOM      9  C   UNL     1       8.993 -16.140  25.769  1.00  0.00     0.039 C 
ATOM     10  G   UNL     1       7.888 -16.338  23.420  1.00  0.00     0.000 G0
ENDBRANCH   6   7
ENDBRANCH   5   6
ENDBRANCH   3   5
ENDBRANCH   1   3
BRANCH   1  11
ATOM     11  C   UNL     1       9.028 -19.403  21.493  1.00  0.00     0.087 C 
BRANCH  11  12
ATOM     12  C   UNL     1       8.271 -18.042  21.416  1.00  0.00     0.066 C 
BRANCH  12  13
ATOM     13  C   UNL     1       8.802 -17.022  22.418  1.00  0.00     0.140 C 
ATOM     14  O   UNL     1       9.987 -16.723  22.406  1.00  0.00    -0.299 OA
BRANCH  13  15
ATOM     15  C   UNL     1       7.898 -16.328  23.415  1.00  0.00     0.106 CG0
ATOM     16  G   UNL     1       8.066 -16.862  24.824  1.00  0.00     0.000 G0
ENDBRANCH  13  15
ENDBRANCH  12  13
BRANCH  12  17
ATOM     17  C   UNL     1       8.084 -17.446  19.980  1.00  0.00    -0.006 C 
ATOM     18  C   UNL     1       9.415 -16.933  19.401  1.00  0.00     0.008 C 
ATOM     19  C   UNL     1       7.019 -16.344  19.873  1.00  0.00     0.008 C 
ENDBRANCH  12  17
ENDBRANCH  11  12
ENDBRANCH   1  11
TORSDOF 1
ENDMDL
MODEL 2
REMARK VINA RESULT:    -3.979      2.166      3.501
REMARK INTER + INTRA:          -6.171
REMARK INTER:                  -5.929
REMARK INTRA:                  -0.242
REMARK UNBOUND:                -0.098
REMARK SMILES CC1=CCC[C@@H](C)C(=O)C[C@H](C(C)C)C(=O)C1
REMARK SMILES IDX 8 1 9 2 6 3 7 4 5 5 4 6 3 7 2 8 1 9 10 11 11 12 15 13 16 14
REMARK SMILES IDX 17 15 12 17 13 18 14 19
REMARK H PARENT
REMARK Flexibility Score: 70.00
ROOT
ATOM      1  C   UNL     1       8.297 -18.989  19.439  1.00  0.00     0.136 C 
ATOM      2  O   UNL     1       7.519 -18.777  18.522  1.00  0.00    -0.299 OA
ENDROOT
BRANCH   1   3
ATOM      3  C   UNL     1       8.580 -20.436  19.813  1.00  0.00     0.053 C 
ATOM      4  C   UNL     1       9.017 -21.308  18.625  1.00  0.00     0.016 C 
BRANCH   3   5
ATOM      5  C   UNL     1       7.470 -21.042  20.717  1.00  0.00     0.015 C 
BRANCH   5   6
ATOM      6  C   UNL     1       7.806 -21.356  22.189  1.00  0.00     0.028 C 
BRANCH   6   7
ATOM      7  C   UNL     1       9.246 -21.200  22.619  1.00  0.00    -0.028 C 
ATOM      8  C   UNL     1       9.810 -20.086  23.137  1.00  0.00    -0.070 CG0
ATOM      9  C   UNL     1      11.312 -20.058  23.281  1.00  0.00     0.039 C 
ATOM     10  G   UNL     1       9.009 -18.888  23.608  1.00  0.00     0.000 G0
ENDBRANCH   6   7
ENDBRANCH   5   6
ENDBRANCH   3   5
ENDBRANCH   1   3
BRANCH   1  11
ATOM     11  C   UNL     1       8.922 -17.803  20.149  1.00  0.00     0.087 C 
BRANCH  11  12
ATOM     12  C   UNL     1       8.271 -17.428  21.515  1.00  0.00     0.066 C 
BRANCH  12  13
ATOM     13  C   UNL     1       9.198 -17.695  22.695  1.00  0.00     0.140 C 
ATOM     14  O   UNL     1      10.099 -16.908  22.948  1.00  0.00    -0.299 OA
BRANCH  13  15
ATOM     15  C   UNL     1       9.021 -18.894  23.604  1.00  0.00     0.106 CG0
ATOM     16  G   UNL     1       9.798 -20.106  23.128  1.00  0.00     0.000 G0
ENDBRANCH  13  15
ENDBRANCH  12  13
BRANCH  12  17
ATOM     17  C   UNL     1       7.589 -16.019  21.582  1.00  0.00    -0.006 C 
ATOM     18  C   UNL     1       6.831 -15.819  22.906  1.00  0.00     0.008 C 
ATOM     19  C   UNL     1       6.660 -15.696  20.403  1.00  0.00     0.008 C 
ENDBRANCH  12  17
ENDBRANCH  11  12
ENDBRANCH   1  11
TORSDOF 1
ENDMDL
MODEL 3
REMARK VINA RESULT:    -3.933      2.585      4.514
REMARK INTER + INTRA:          -6.100
REMARK INTER:                  -5.631
REMARK INTRA:                  -0.469
REMARK UNBOUND:                -0.098
REMARK SMILES CC1=CCC[C@@H](C)C(=O)C[C@H](C(C)C)C(=O)C1
REMARK SMILES IDX 8 1 9 2 6 3 7 4 5 5 4 6 3 7 2 8 1 9 10 11 11 12 15 13 16 14
REMARK SMILES IDX 17 15 12 17 13 18 14 19
REMARK H PARENT
REMARK Flexibility Score: 70.00
ROOT
ATOM      1  C   UNL     1       7.113 -18.107  23.635  1.00  0.00     0.136 C 
ATOM      2  O   UNL     1       6.484 -17.121  23.984  1.00  0.00    -0.299 OA
ENDROOT
BRANCH   1   3
ATOM      3  C   UNL     1       6.586 -19.472  24.052  1.00  0.00     0.053 C 
ATOM      4  C   UNL     1       7.149 -19.969  25.393  1.00  0.00     0.016 C 
BRANCH   3   5
ATOM      5  C   UNL     1       6.621 -20.501  22.888  1.00  0.00     0.015 C 
BRANCH   5   6
ATOM      6  C   UNL     1       7.816 -21.470  22.793  1.00  0.00     0.028 C 
BRANCH   6   7
ATOM      7  C   UNL     1       8.570 -21.514  21.485  1.00  0.00    -0.028 C 
ATOM      8  C   UNL     1       9.794 -20.990  21.249  1.00  0.00    -0.070 CG0
ATOM      9  C   UNL     1      10.271 -20.931  19.819  1.00  0.00     0.039 C 
ATOM     10  G   UNL     1      10.715 -20.496  22.347  1.00  0.00     0.000 G0
ENDBRANCH   6   7
ENDBRANCH   5   6
ENDBRANCH   3   5
ENDBRANCH   1   3
BRANCH   1  11
ATOM     11  C   UNL     1       8.377 -17.910  22.819  1.00  0.00     0.087 C 
BRANCH  11  12
ATOM     12  C   UNL     1       9.695 -18.365  23.517  1.00  0.00     0.066 C 
BRANCH  12  13
ATOM     13  C   UNL     1      10.681 -19.000  22.543  1.00  0.00     0.140 C 
ATOM     14  O   UNL     1      11.469 -18.293  21.931  1.00  0.00    -0.299 OA
BRANCH  13  15
ATOM     15  C   UNL     1      10.751 -20.498  22.330  1.00  0.00     0.106 CG0
ATOM     16  G   UNL     1       9.802 -20.978  21.250  1.00  0.00     0.000 G0
ENDBRANCH  13  15
ENDBRANCH  12  13
BRANCH  12  17
ATOM     17  C   UNL     1      10.365 -17.310  24.462  1.00  0.00    -0.006 C 
ATOM     18  C   UNL     1       9.997 -17.557  25.936  1.00  0.00     0.008 C 
ATOM     19  C   UNL     1      10.080 -15.846  24.099  1.00  0.00     0.008 C 
ENDBRANCH  12  17
ENDBRANCH  11  12
ENDBRANCH   1  11
TORSDOF 1
ENDMDL
MODEL 4
REMARK VINA RESULT:    -3.822      2.421      3.810
REMARK INTER + INTRA:          -5.932
REMARK INTER:                  -5.749
REMARK INTRA:                  -0.183
REMARK UNBOUND:                -0.098
REMARK SMILES CC1=CCC[C@@H](C)C(=O)C[C@H](C(C)C)C(=O)C1
REMARK SMILES IDX 8 1 9 2 6 3 7 4 5 5 4 6 3 7 2 8 1 9 10 11 11 12 15 13 16 14
REMARK SMILES IDX 17 15 12 17 13 18 14 19
REMARK H PARENT
REMARK Flexibility Score: 70.00
ROOT
ATOM      1  C   UNL     1       7.839 -17.273  23.423  1.00  0.00     0.136 C 
ATOM      2  O   UNL     1       7.982 -17.948  24.430  1.00  0.00    -0.299 OA
ENDROOT
BRANCH   1   3
ATOM      3  C   UNL     1       7.738 -15.764  23.586  1.00  0.00     0.053 C 
ATOM      4  C   UNL     1       7.171 -15.044  22.352  1.00  0.00     0.016 C 
BRANCH   3   5
ATOM      5  C   UNL     1       9.031 -15.146  24.189  1.00  0.00     0.015 C 
BRANCH   5   6
ATOM      6  C   UNL     1      10.393 -15.564  23.600  1.00  0.00     0.028 C 
BRANCH   6   7
ATOM      7  C   UNL     1      11.225 -16.535  24.403  1.00  0.00    -0.028 C 
ATOM      8  C   UNL     1      11.623 -17.765  24.007  1.00  0.00    -0.070 CG0
ATOM      9  C   UNL     1      12.244 -18.672  25.041  1.00  0.00     0.039 C 
ATOM     10  G   UNL     1      11.505 -18.260  22.579  1.00  0.00     0.000 G0
ENDBRANCH   6   7
ENDBRANCH   5   6
ENDBRANCH   3   5
ENDBRANCH   1   3
BRANCH   1  11
ATOM     11  C   UNL     1       7.766 -17.977  22.081  1.00  0.00     0.087 C 
BRANCH  11  12
ATOM     12  C   UNL     1       9.136 -18.192  21.368  1.00  0.00     0.066 C 
BRANCH  12  13
ATOM     13  C   UNL     1      10.156 -18.889  22.263  1.00  0.00     0.140 C 
ATOM     14  O   UNL     1       9.901 -19.991  22.727  1.00  0.00    -0.299 OA
BRANCH  13  15
ATOM     15  C   UNL     1      11.507 -18.279  22.571  1.00  0.00     0.106 CG0
ATOM     16  G   UNL     1      11.609 -17.780  23.999  1.00  0.00     0.000 G0
ENDBRANCH  13  15
ENDBRANCH  12  13
BRANCH  12  17
ATOM     17  C   UNL     1       9.067 -18.806  19.929  1.00  0.00    -0.006 C 
ATOM     18  C   UNL     1       9.311 -17.739  18.846  1.00  0.00     0.008 C 
ATOM     19  C   UNL     1       7.773 -19.570  19.616  1.00  0.00     0.008 C 
ENDBRANCH  12  17
ENDBRANCH  11  12
ENDBRANCH   1  11
TORSDOF 1
ENDMDL
MODEL 5
REMARK VINA RESULT:    -3.812      1.734      2.217
REMARK INTER + INTRA:          -5.916
REMARK INTER:                  -5.836
REMARK INTRA:                  -0.080
REMARK UNBOUND:                -0.098
REMARK SMILES CC1=CCC[C@@H](C)C(=O)C[C@H](C(C)C)C(=O)C1
REMARK SMILES IDX 8 1 9 2 6 3 7 4 5 5 4 6 3 7 2 8 1 9 10 11 11 12 15 13 16 14
REMARK SMILES IDX 17 15 12 17 13 18 14 19
REMARK H PARENT
REMARK Flexibility Score: 70.00
ROOT
ATOM      1  C   UNL     1       9.065 -20.591  20.246  1.00  0.00     0.136 C 
ATOM      2  O   UNL     1       8.703 -21.093  19.194  1.00  0.00    -0.299 OA
ENDROOT
BRANCH   1   3
ATOM      3  C   UNL     1       9.129 -21.485  21.476  1.00  0.00     0.053 C 
ATOM      4  C   UNL     1      10.082 -22.681  21.323  1.00  0.00     0.016 C 
BRANCH   3   5
ATOM      5  C   UNL     1       7.719 -21.818  22.039  1.00  0.00     0.015 C 
BRANCH   5   6
ATOM      6  C   UNL     1       6.869 -20.674  22.628  1.00  0.00     0.028 C 
BRANCH   6   7
ATOM      7  C   UNL     1       7.372 -20.020  23.894  1.00  0.00    -0.028 C 
ATOM      8  C   UNL     1       7.683 -18.713  24.049  1.00  0.00    -0.070 CG0
ATOM      9  C   UNL     1       8.390 -18.304  25.318  1.00  0.00     0.039 C 
ATOM     10  G   UNL     1       7.327 -17.645  23.034  1.00  0.00     0.000 G0
ENDBRANCH   6   7
ENDBRANCH   5   6
ENDBRANCH   3   5
ENDBRANCH   1   3
BRANCH   1  11
ATOM     11  C   UNL     1       9.418 -19.116  20.264  1.00  0.00     0.087 C 
BRANCH  11  12
ATOM     12  C   UNL     1       8.233 -18.153  20.578  1.00  0.00     0.066 C 
BRANCH  12  13
ATOM     13  C   UNL     1       8.373 -17.480  21.939  1.00  0.00     0.140 C 
ATOM     14  O   UNL     1       9.335 -16.759  22.161  1.00  0.00    -0.299 OA
BRANCH  13  15
ATOM     15  C   UNL     1       7.333 -17.641  23.028  1.00  0.00     0.106 CG0
ATOM     16  G   UNL     1       7.698 -18.720  24.028  1.00  0.00     0.000 G0
ENDBRANCH  13  15
ENDBRANCH  12  13
BRANCH  12  17
ATOM     17  C   UNL     1       7.849 -17.149  19.438  1.00  0.00    -0.006 C 
ATOM     18  C   UNL     1       9.097 -16.598  18.725  1.00  0.00     0.008 C 
ATOM     19  C   UNL     1       6.952 -15.984  19.880  1.00  0.00     0.008 C 
ENDBRANCH  12  17
ENDBRANCH  11  12
ENDBRANCH   1  11
TORSDOF 1
ENDMDL
MODEL 6
REMARK VINA RESULT:    -3.806      2.210      3.915
REMARK INTER + INTRA:          -5.907
REMARK INTER:                  -5.683
REMARK INTRA:                  -0.224
REMARK UNBOUND:                -0.098
REMARK SMILES CC1=CCC[C@@H](C)C(=O)C[C@H](C(C)C)C(=O)C1
REMARK SMILES IDX 8 1 9 2 6 3 7 4 5 5 4 6 3 7 2 8 1 9 10 11 11 12 15 13 16 14
REMARK SMILES IDX 17 15 12 17 13 18 14 19
REMARK H PARENT
REMARK Flexibility Score: 70.00
ROOT
ATOM      1  C   UNL     1       7.915 -20.004  23.615  1.00  0.00     0.136 C 
ATOM      2  O   UNL     1       6.912 -20.615  23.283  1.00  0.00    -0.299 OA
ENDROOT
BRANCH   1   3
ATOM      3  C   UNL     1       7.758 -18.865  24.612  1.00  0.00     0.053 C 
ATOM      4  C   UNL     1       7.056 -19.277  25.916  1.00  0.00     0.016 C 
BRANCH   3   5
ATOM      5  C   UNL     1       7.228 -17.565  23.946  1.00  0.00     0.015 C 
BRANCH   5   6
ATOM      6  C   UNL     1       7.816 -17.139  22.585  1.00  0.00     0.028 C 
BRANCH   6   7
ATOM      7  C   UNL     1       9.248 -16.660  22.570  1.00  0.00    -0.028 C 
ATOM      8  C   UNL     1      10.236 -17.118  21.769  1.00  0.00    -0.070 CG0
ATOM      9  C   UNL     1      11.648 -16.679  22.070  1.00  0.00     0.039 C 
ATOM     10  G   UNL     1       9.991 -18.017  20.573  1.00  0.00     0.000 G0
ENDBRANCH   6   7
ENDBRANCH   5   6
ENDBRANCH   3   5
ENDBRANCH   1   3
BRANCH   1  11
ATOM     11  C   UNL     1       9.246 -20.411  23.011  1.00  0.00     0.087 C 
BRANCH  11  12
ATOM     12  C   UNL     1       9.289 -20.434  21.453  1.00  0.00     0.066 C 
BRANCH  12  13
ATOM     13  C   UNL     1      10.329 -19.476  20.884  1.00  0.00     0.140 C 
ATOM     14  O   UNL     1      11.453 -19.884  20.629  1.00  0.00    -0.299 OA
BRANCH  13  15
ATOM     15  C   UNL     1      10.010 -18.026  20.581  1.00  0.00     0.106 CG0
ATOM     16  G   UNL     1      10.259 -17.114  21.766  1.00  0.00     0.000 G0
ENDBRANCH  13  15
ENDBRANCH  12  13
BRANCH  12  17
ATOM     17  C   UNL     1       9.341 -21.853  20.793  1.00  0.00    -0.006 C 
ATOM     18  C   UNL     1       7.934 -22.365  20.438  1.00  0.00     0.008 C 
ATOM     19  C   UNL     1      10.084 -22.918  21.613  1.00  0.00     0.008 C 
ENDBRANCH  12  17
ENDBRANCH  11  12
ENDBRANCH   1  11
TORSDOF 1
ENDMDL
MODEL 7
REMARK VINA RESULT:    -3.775      2.555      4.562
REMARK INTER + INTRA:          -5.859
REMARK INTER:                  -5.693
REMARK INTRA:                  -0.166
REMARK UNBOUND:                -0.098
REMARK SMILES CC1=CCC[C@@H](C)C(=O)C[C@H](C(C)C)C(=O)C1
REMARK SMILES IDX 8 1 9 2 6 3 7 4 5 5 4 6 3 7 2 8 1 9 10 11 11 12 15 13 16 14
REMARK SMILES IDX 17 15 12 17 13 18 14 19
REMARK H PARENT
REMARK Flexibility Score: 70.00
ROOT
ATOM      1  C   UNL     1       9.032 -16.104  23.435  1.00  0.00     0.136 C 
ATOM      2  O   UNL     1       9.108 -15.308  24.357  1.00  0.00    -0.299 OA
ENDROOT
BRANCH   1   3
ATOM      3  C   UNL     1       7.646 -16.557  22.998  1.00  0.00     0.053 C 
ATOM      4  C   UNL     1       6.780 -15.428  22.419  1.00  0.00     0.016 C 
BRANCH   3   5
ATOM      5  C   UNL     1       6.955 -17.455  24.062  1.00  0.00     0.015 C 
BRANCH   5   6
ATOM      6  C   UNL     1       7.337 -18.948  24.130  1.00  0.00     0.028 C 
BRANCH   6   7
ATOM      7  C   UNL     1       7.112 -19.777  22.887  1.00  0.00    -0.028 C 
ATOM      8  C   UNL     1       8.070 -20.289  22.083  1.00  0.00    -0.070 CG0
ATOM      9  C   UNL     1       7.639 -20.886  20.765  1.00  0.00     0.039 C 
ATOM     10  G   UNL     1       9.540 -20.323  22.454  1.00  0.00     0.000 G0
ENDBRANCH   6   7
ENDBRANCH   5   6
ENDBRANCH   3   5
ENDBRANCH   1   3
BRANCH   1  11
ATOM     11  C   UNL     1      10.315 -16.595  22.791  1.00  0.00     0.087 C 
BRANCH  11  12
ATOM     12  C   UNL     1      10.726 -18.053  23.156  1.00  0.00     0.066 C 
BRANCH  12  13
ATOM     13  C   UNL     1      10.292 -19.064  22.100  1.00  0.00     0.140 C 
ATOM     14  O   UNL     1      10.579 -18.874  20.927  1.00  0.00    -0.299 OA
BRANCH  13  15
ATOM     15  C   UNL     1       9.542 -20.330  22.456  1.00  0.00     0.106 CG0
ATOM     16  G   UNL     1       8.074 -20.263  22.085  1.00  0.00     0.000 G0
ENDBRANCH  13  15
ENDBRANCH  12  13
BRANCH  12  17
ATOM     17  C   UNL     1      12.211 -18.249  23.614  1.00  0.00    -0.006 C 
ATOM     18  C   UNL     1      12.375 -18.007  25.125  1.00  0.00     0.008 C 
ATOM     19  C   UNL     1      13.239 -17.408  22.843  1.00  0.00     0.008 C 
ENDBRANCH  12  17
ENDBRANCH  11  12
ENDBRANCH   1  11
TORSDOF 1
ENDMDL
MODEL 8
REMARK VINA RESULT:    -3.690      2.961      5.242
REMARK INTER + INTRA:          -5.729
REMARK INTER:                  -5.758
REMARK INTRA:                   0.028
REMARK UNBOUND:                -0.098
REMARK SMILES CC1=CCC[C@@H](C)C(=O)C[C@H](C(C)C)C(=O)C1
REMARK SMILES IDX 8 1 9 2 6 3 7 4 5 5 4 6 3 7 2 8 1 9 10 11 11 12 15 13 16 14
REMARK SMILES IDX 17 15 12 17 13 18 14 19
REMARK H PARENT
REMARK Flexibility Score: 70.00
ROOT
ATOM      1  C   UNL     1       9.028 -17.749  23.623  1.00  0.00     0.136 C 
ATOM      2  O   UNL     1       8.170 -17.425  22.817  1.00  0.00    -0.299 OA
ENDROOT
BRANCH   1   3
ATOM      3  C   UNL     1       9.839 -16.643  24.282  1.00  0.00     0.053 C 
ATOM      4  C   UNL     1       9.039 -15.354  24.533  1.00  0.00     0.016 C 
BRANCH   3   5
ATOM      5  C   UNL     1      11.229 -16.450  23.615  1.00  0.00     0.015 C 
BRANCH   5   6
ATOM      6  C   UNL     1      12.261 -17.592  23.714  1.00  0.00     0.028 C 
BRANCH   6   7
ATOM      7  C   UNL     1      12.660 -18.278  22.429  1.00  0.00    -0.028 C 
ATOM      8  C   UNL     1      12.535 -19.595  22.154  1.00  0.00    -0.070 CG0
ATOM      9  C   UNL     1      13.208 -20.122  20.910  1.00  0.00     0.039 C 
ATOM     10  G   UNL     1      11.730 -20.553  23.009  1.00  0.00     0.000 G0
ENDBRANCH   6   7
ENDBRANCH   5   6
ENDBRANCH   3   5
ENDBRANCH   1   3
BRANCH   1  11
ATOM     11  C   UNL     1       9.236 -19.224  23.909  1.00  0.00     0.087 C 
BRANCH  11  12
ATOM     12  C   UNL     1       9.109 -20.165  22.672  1.00  0.00     0.066 C 
BRANCH  12  13
ATOM     13  C   UNL     1      10.395 -20.933  22.389  1.00  0.00     0.140 C 
ATOM     14  O   UNL     1      10.380 -21.870  21.605  1.00  0.00    -0.299 OA
BRANCH  13  15
ATOM     15  C   UNL     1      11.717 -20.552  23.022  1.00  0.00     0.106 CG0
ATOM     16  G   UNL     1      12.526 -19.605  22.157  1.00  0.00     0.000 G0
ENDBRANCH  13  15
ENDBRANCH  12  13
BRANCH  12  17
ATOM     17  C   UNL     1       7.834 -21.074  22.635  1.00  0.00    -0.006 C 
ATOM     18  C   UNL     1       7.224 -21.136  21.224  1.00  0.00     0.008 C 
ATOM     19  C   UNL     1       6.745 -20.699  23.651  1.00  0.00     0.008 C 
ENDBRANCH  12  17
ENDBRANCH  11  12
ENDBRANCH   1  11
TORSDOF 1
ENDMDL
MODEL 9
REMARK VINA RESULT:    -3.615      2.357      3.428
REMARK INTER + INTRA:          -5.616
REMARK INTER:                  -5.290
REMARK INTRA:                  -0.325
REMARK UNBOUND:                -0.098
REMARK SMILES CC1=CCC[C@@H](C)C(=O)C[C@H](C(C)C)C(=O)C1
REMARK SMILES IDX 8 1 9 2 6 3 7 4 5 5 4 6 3 7 2 8 1 9 10 11 11 12 15 13 16 14
REMARK SMILES IDX 17 15 12 17 13 18 14 19
REMARK H PARENT
REMARK Flexibility Score: 70.00
ROOT
ATOM      1  C   UNL     1       9.763 -18.626  21.049  1.00  0.00     0.136 C 
ATOM      2  O   UNL     1      10.303 -18.821  19.972  1.00  0.00    -0.299 OA
ENDROOT
BRANCH   1   3
ATOM      3  C   UNL     1       8.257 -18.411  21.063  1.00  0.00     0.053 C 
ATOM      4  C   UNL     1       7.482 -19.405  20.183  1.00  0.00     0.016 C 
BRANCH   3   5
ATOM      5  C   UNL     1       7.871 -16.916  20.886  1.00  0.00     0.015 C 
BRANCH   5   6
ATOM      6  C   UNL     1       7.358 -16.135  22.114  1.00  0.00     0.028 C 
BRANCH   6   7
ATOM      7  C   UNL     1       7.291 -16.878  23.428  1.00  0.00    -0.028 C 
ATOM      8  C   UNL     1       8.259 -16.925  24.370  1.00  0.00    -0.070 CG0
ATOM      9  C   UNL     1       8.094 -17.910  25.501  1.00  0.00     0.039 C 
ATOM     10  G   UNL     1       9.475 -16.019  24.362  1.00  0.00     0.000 G0
ENDBRANCH   6   7
ENDBRANCH   5   6
ENDBRANCH   3   5
ENDBRANCH   1   3
BRANCH   1  11
ATOM     11  C   UNL     1      10.624 -18.602  22.298  1.00  0.00     0.087 C 
BRANCH  11  12
ATOM     12  C   UNL     1      11.189 -17.203  22.689  1.00  0.00     0.066 C 
BRANCH  12  13
ATOM     13  C   UNL     1      10.772 -16.776  24.093  1.00  0.00     0.140 C 
ATOM     14  O   UNL     1      11.504 -17.017  25.041  1.00  0.00    -0.299 OA
BRANCH  13  15
ATOM     15  C   UNL     1       9.485 -16.022  24.357  1.00  0.00     0.106 CG0
ATOM     16  G   UNL     1       8.270 -16.928  24.372  1.00  0.00     0.000 G0
ENDBRANCH  13  15
ENDBRANCH  12  13
BRANCH  12  17
ATOM     17  C   UNL     1      12.714 -16.981  22.413  1.00  0.00    -0.006 C 
ATOM     18  C   UNL     1      12.952 -16.326  21.041  1.00  0.00     0.008 C 
ATOM     19  C   UNL     1      13.581 -18.243  22.537  1.00  0.00     0.008 C 
ENDBRANCH  12  17
ENDBRANCH  11  12
ENDBRANCH   1  11
TORSDOF 1
ENDMDL
