MODEL 1
REMARK VINA RESULT:    -6.186      0.000      0.000
REMARK INTER + INTRA:          -9.742
REMARK INTER:                  -9.440
REMARK INTRA:                  -0.302
REMARK UNBOUND:                -0.302
REMARK SMILES CCCCCCCCCCC(=O)[O-]
REMARK SMILES IDX 7 1 8 2 9 3 10 4 11 5 12 6 13 7 6 8 5 9 4 10 3 11 2 12 1 13
REMARK H PARENT
REMARK Flexibility Score: inf
ROOT
ATOM      1  C   UNL     1      -3.107   3.738   5.272  1.00  0.00     0.000 C 
ENDROOT
BRANCH   1   2
ATOM      2  C   UNL     1      -3.596   3.481   6.705  1.00  0.00     0.000 C 
BRANCH   2   3
ATOM      3  C   UNL     1      -2.864   2.282   7.327  1.00  0.00     0.006 C 
BRANCH   3   4
ATOM      4  C   UNL     1      -2.448   2.546   8.780  1.00  0.00     0.053 C 
BRANCH   4   5
ATOM      5  C   UNL     1      -1.371   1.606   9.230  1.00  0.00     0.041 C 
ATOM      6  O   UNL     1      -0.162   1.950   9.162  1.00  0.00    -0.550 OA
ATOM      7  O   UNL     1      -1.702   0.338   9.692  1.00  0.00    -0.550 OA
ENDBRANCH   4   5
ENDBRANCH   3   4
ENDBRANCH   2   3
ENDBRANCH   1   2
BRANCH   1   8
ATOM      8  C   UNL     1      -3.547   5.109   4.727  1.00  0.00     0.000 C 
BRANCH   8   9
ATOM      9  C   UNL     1      -5.046   5.432   4.900  1.00  0.00    -0.000 C 
BRANCH   9  10
ATOM     10  C   UNL     1      -5.621   6.442   3.891  1.00  0.00    -0.000 C 
BRANCH  10  11
ATOM     11  C   UNL     1      -6.900   5.933   3.201  1.00  0.00    -0.000 C 
BRANCH  11  12
ATOM     12  C   UNL     1      -6.951   6.305   1.711  1.00  0.00    -0.003 C 
ATOM     13  C   UNL     1      -5.730   7.107   1.258  1.00  0.00     0.004 C 
ENDBRANCH  11  12
ENDBRANCH  10  11
ENDBRANCH   9  10
ENDBRANCH   8   9
ENDBRANCH   1   8
TORSDOF 9
ENDMDL
MODEL 2
REMARK VINA RESULT:    -6.123      3.472      4.245
REMARK INTER + INTRA:          -9.647
REMARK INTER:                  -9.049
REMARK INTRA:                  -0.597
REMARK UNBOUND:                -0.302
REMARK SMILES CCCCCCCCCCC(=O)[O-]
REMARK SMILES IDX 7 1 8 2 9 3 10 4 11 5 12 6 13 7 6 8 5 9 4 10 3 11 2 12 1 13
REMARK H PARENT
REMARK Flexibility Score: inf
ROOT
ATOM      1  C   UNL     1      -3.244   3.302   5.621  1.00  0.00     0.000 C 
ENDROOT
BRANCH   1   2
ATOM      2  C   UNL     1      -3.120   2.692   4.217  1.00  0.00     0.000 C 
BRANCH   2   3
ATOM      3  C   UNL     1      -4.444   2.048   3.778  1.00  0.00     0.006 C 
BRANCH   3   4
ATOM      4  C   UNL     1      -4.233   0.925   2.754  1.00  0.00     0.053 C 
BRANCH   4   5
ATOM      5  C   UNL     1      -4.699  -0.399   3.278  1.00  0.00     0.041 C 
ATOM      6  O   UNL     1      -3.862  -1.274   3.624  1.00  0.00    -0.550 OA
ATOM      7  O   UNL     1      -6.058  -0.679   3.351  1.00  0.00    -0.550 OA
ENDBRANCH   4   5
ENDBRANCH   3   4
ENDBRANCH   2   3
ENDBRANCH   1   2
BRANCH   1   8
ATOM      8  C   UNL     1      -4.336   4.384   5.709  1.00  0.00     0.000 C 
BRANCH   8   9
ATOM      9  C   UNL     1      -4.173   5.559   4.722  1.00  0.00    -0.000 C 
BRANCH   9  10
ATOM     10  C   UNL     1      -5.482   6.252   4.304  1.00  0.00    -0.000 C 
BRANCH  10  11
ATOM     11  C   UNL     1      -6.319   5.404   3.329  1.00  0.00    -0.000 C 
BRANCH  11  12
ATOM     12  C   UNL     1      -6.914   6.241   2.186  1.00  0.00    -0.003 C 
ATOM     13  C   UNL     1      -5.845   6.924   1.331  1.00  0.00     0.004 C 
ENDBRANCH  11  12
ENDBRANCH  10  11
ENDBRANCH   9  10
ENDBRANCH   8   9
ENDBRANCH   1   8
TORSDOF 9
ENDMDL
MODEL 3
REMARK VINA RESULT:    -5.885      1.191      1.938
REMARK INTER + INTRA:          -9.284
REMARK INTER:                  -8.935
REMARK INTRA:                  -0.349
REMARK UNBOUND:                -0.302
REMARK SMILES CCCCCCCCCCC(=O)[O-]
REMARK SMILES IDX 7 1 8 2 9 3 10 4 11 5 12 6 13 7 6 8 5 9 4 10 3 11 2 12 1 13
REMARK H PARENT
REMARK Flexibility Score: inf
ROOT
ATOM      1  C   UNL     1      -3.732   4.941   4.809  1.00  0.00     0.000 C 
ENDROOT
BRANCH   1   2
ATOM      2  C   UNL     1      -3.232   3.578   5.309  1.00  0.00     0.000 C 
BRANCH   2   3
ATOM      3  C   UNL     1      -3.459   3.430   6.821  1.00  0.00     0.006 C 
BRANCH   3   4
ATOM      4  C   UNL     1      -2.637   2.283   7.423  1.00  0.00     0.053 C 
BRANCH   4   5
ATOM      5  C   UNL     1      -2.312   2.529   8.865  1.00  0.00     0.041 C 
ATOM      6  O   UNL     1      -3.202   2.944   9.652  1.00  0.00    -0.550 OA
ATOM      7  O   UNL     1      -1.018   2.331   9.330  1.00  0.00    -0.550 OA
ENDBRANCH   4   5
ENDBRANCH   3   4
ENDBRANCH   2   3
ENDBRANCH   1   2
BRANCH   1   8
ATOM      8  C   UNL     1      -5.253   5.116   4.972  1.00  0.00     0.000 C 
BRANCH   8   9
ATOM      9  C   UNL     1      -5.836   6.394   4.334  1.00  0.00    -0.000 C 
BRANCH   9  10
ATOM     10  C   UNL     1      -5.496   6.601   2.847  1.00  0.00    -0.000 C 
BRANCH  10  11
ATOM     11  C   UNL     1      -6.689   6.317   1.918  1.00  0.00    -0.000 C 
BRANCH  11  12
ATOM     12  C   UNL     1      -7.925   5.822   2.684  1.00  0.00    -0.003 C 
ATOM     13  C   UNL     1      -9.204   5.873   1.845  1.00  0.00     0.004 C 
ENDBRANCH  11  12
ENDBRANCH  10  11
ENDBRANCH   9  10
ENDBRANCH   8   9
ENDBRANCH   1   8
TORSDOF 9
ENDMDL
MODEL 4
REMARK VINA RESULT:    -5.803      8.518      9.984
REMARK INTER + INTRA:          -9.157
REMARK INTER:                  -8.763
REMARK INTRA:                  -0.394
REMARK UNBOUND:                -0.302
REMARK SMILES CCCCCCCCCCC(=O)[O-]
REMARK SMILES IDX 7 1 8 2 9 3 10 4 11 5 12 6 13 7 6 8 5 9 4 10 3 11 2 12 1 13
REMARK H PARENT
REMARK Flexibility Score: inf
ROOT
ATOM      1  C   UNL     1      -4.158   0.021  -0.578  1.00  0.00     0.000 C 
ENDROOT
BRANCH   1   2
ATOM      2  C   UNL     1      -5.001  -0.108  -1.855  1.00  0.00     0.000 C 
BRANCH   2   3
ATOM      3  C   UNL     1      -4.130  -0.527  -3.049  1.00  0.00     0.006 C 
BRANCH   3   4
ATOM      4  C   UNL     1      -4.650  -1.802  -3.727  1.00  0.00     0.053 C 
BRANCH   4   5
ATOM      5  C   UNL     1      -3.941  -3.025  -3.229  1.00  0.00     0.041 C 
ATOM      6  O   UNL     1      -2.683  -3.061  -3.201  1.00  0.00    -0.550 OA
ATOM      7  O   UNL     1      -4.671  -4.137  -2.828  1.00  0.00    -0.550 OA
ENDBRANCH   4   5
ENDBRANCH   3   4
ENDBRANCH   2   3
ENDBRANCH   1   2
BRANCH   1   8
ATOM      8  C   UNL     1      -4.998   0.382   0.660  1.00  0.00     0.000 C 
BRANCH   8   9
ATOM      9  C   UNL     1      -4.228   0.378   1.997  1.00  0.00    -0.000 C 
BRANCH   9  10
ATOM     10  C   UNL     1      -5.102   0.499   3.259  1.00  0.00    -0.000 C 
BRANCH  10  11
ATOM     11  C   UNL     1      -6.429  -0.272   3.140  1.00  0.00    -0.000 C 
BRANCH  11  12
ATOM     12  C   UNL     1      -6.604  -1.314   4.255  1.00  0.00    -0.003 C 
ATOM     13  C   UNL     1      -5.272  -1.859   4.774  1.00  0.00     0.004 C 
ENDBRANCH  11  12
ENDBRANCH  10  11
ENDBRANCH   9  10
ENDBRANCH   8   9
ENDBRANCH   1   8
TORSDOF 9
ENDMDL
MODEL 5
REMARK VINA RESULT:    -5.797      3.589      4.419
REMARK INTER + INTRA:          -9.148
REMARK INTER:                  -8.687
REMARK INTRA:                  -0.461
REMARK UNBOUND:                -0.302
REMARK SMILES CCCCCCCCCCC(=O)[O-]
REMARK SMILES IDX 7 1 8 2 9 3 10 4 11 5 12 6 13 7 6 8 5 9 4 10 3 11 2 12 1 13
REMARK H PARENT
REMARK Flexibility Score: inf
ROOT
ATOM      1  C   UNL     1      -3.294   2.558   4.565  1.00  0.00     0.000 C 
ENDROOT
BRANCH   1   2
ATOM      2  C   UNL     1      -4.503   2.350   3.641  1.00  0.00     0.000 C 
BRANCH   2   3
ATOM      3  C   UNL     1      -4.397   1.013   2.890  1.00  0.00     0.006 C 
BRANCH   3   4
ATOM      4  C   UNL     1      -5.598   0.098   3.162  1.00  0.00     0.053 C 
BRANCH   4   5
ATOM      5  C   UNL     1      -5.212  -1.095   3.983  1.00  0.00     0.041 C 
ATOM      6  O   UNL     1      -6.016  -1.565   4.831  1.00  0.00    -0.550 OA
ATOM      7  O   UNL     1      -3.954  -1.665   3.836  1.00  0.00    -0.550 OA
ENDBRANCH   4   5
ENDBRANCH   3   4
ENDBRANCH   2   3
ENDBRANCH   1   2
BRANCH   1   8
ATOM      8  C   UNL     1      -3.503   3.701   5.574  1.00  0.00     0.000 C 
BRANCH   8   9
ATOM      9  C   UNL     1      -4.680   4.647   5.257  1.00  0.00    -0.000 C 
BRANCH   9  10
ATOM     10  C   UNL     1      -4.310   5.915   4.466  1.00  0.00    -0.000 C 
BRANCH  10  11
ATOM     11  C   UNL     1      -5.542   6.730   4.036  1.00  0.00    -0.000 C 
BRANCH  11  12
ATOM     12  C   UNL     1      -6.220   6.152   2.784  1.00  0.00    -0.003 C 
ATOM     13  C   UNL     1      -5.924   6.962   1.521  1.00  0.00     0.004 C 
ENDBRANCH  11  12
ENDBRANCH  10  11
ENDBRANCH   9  10
ENDBRANCH   8   9
ENDBRANCH   1   8
TORSDOF 9
ENDMDL
MODEL 6
REMARK VINA RESULT:    -5.773      4.913      7.876
REMARK INTER + INTRA:          -9.112
REMARK INTER:                  -8.773
REMARK INTRA:                  -0.339
REMARK UNBOUND:                -0.302
REMARK SMILES CCCCCCCCCCC(=O)[O-]
REMARK SMILES IDX 7 1 8 2 9 3 10 4 11 5 12 6 13 7 6 8 5 9 4 10 3 11 2 12 1 13
REMARK H PARENT
REMARK Flexibility Score: inf
ROOT
ATOM      1  C   UNL     1      -5.422   6.242   3.776  1.00  0.00     0.000 C 
ENDROOT
BRANCH   1   2
ATOM      2  C   UNL     1      -5.665   6.795   2.365  1.00  0.00     0.000 C 
BRANCH   2   3
ATOM      3  C   UNL     1      -7.033   6.347   1.828  1.00  0.00     0.006 C 
BRANCH   3   4
ATOM      4  C   UNL     1      -7.901   5.702   2.916  1.00  0.00     0.053 C 
BRANCH   4   5
ATOM      5  C   UNL     1      -9.313   5.503   2.456  1.00  0.00     0.041 C 
ATOM      6  O   UNL     1      -9.737   6.105   1.434  1.00  0.00    -0.550 OA
ATOM      7  O   UNL     1     -10.170   4.679   3.174  1.00  0.00    -0.550 OA
ENDBRANCH   4   5
ENDBRANCH   3   4
ENDBRANCH   2   3
ENDBRANCH   1   2
BRANCH   1   8
ATOM      8  C   UNL     1      -3.970   6.434   4.252  1.00  0.00     0.000 C 
BRANCH   8   9
ATOM      9  C   UNL     1      -3.229   5.135   4.631  1.00  0.00    -0.000 C 
BRANCH   9  10
ATOM     10  C   UNL     1      -4.029   4.153   5.507  1.00  0.00    -0.000 C 
BRANCH  10  11
ATOM     11  C   UNL     1      -3.154   3.031   6.095  1.00  0.00    -0.000 C 
BRANCH  11  12
ATOM     12  C   UNL     1      -3.177   3.015   7.631  1.00  0.00    -0.003 C 
ATOM     13  C   UNL     1      -2.377   1.853   8.224  1.00  0.00     0.004 C 
ENDBRANCH  11  12
ENDBRANCH  10  11
ENDBRANCH   9  10
ENDBRANCH   8   9
ENDBRANCH   1   8
TORSDOF 9
ENDMDL
MODEL 7
REMARK VINA RESULT:    -5.683     14.956     16.213
REMARK INTER + INTRA:          -8.974
REMARK INTER:                  -8.510
REMARK INTRA:                  -0.464
REMARK UNBOUND:                -0.302
REMARK SMILES CCCCCCCCCCC(=O)[O-]
REMARK SMILES IDX 7 1 8 2 9 3 10 4 11 5 12 6 13 7 6 8 5 9 4 10 3 11 2 12 1 13
REMARK H PARENT
REMARK Flexibility Score: inf
ROOT
ATOM      1  C   UNL     1       2.311  -3.831  -7.653  1.00  0.00     0.000 C 
ENDROOT
BRANCH   1   2
ATOM      2  C   UNL     1       1.004  -3.332  -8.286  1.00  0.00     0.000 C 
BRANCH   2   3
ATOM      3  C   UNL     1      -0.216  -3.928  -7.567  1.00  0.00     0.006 C 
BRANCH   3   4
ATOM      4  C   UNL     1       0.032  -4.120  -6.065  1.00  0.00     0.053 C 
BRANCH   4   5
ATOM      5  C   UNL     1      -0.675  -3.082  -5.247  1.00  0.00     0.041 C 
ATOM      6  O   UNL     1      -0.673  -1.878  -5.614  1.00  0.00    -0.550 OA
ATOM      7  O   UNL     1      -1.308  -3.441  -4.064  1.00  0.00    -0.550 OA
ENDBRANCH   4   5
ENDBRANCH   3   4
ENDBRANCH   2   3
ENDBRANCH   1   2
BRANCH   1   8
ATOM      8  C   UNL     1       3.531  -2.982  -8.053  1.00  0.00     0.000 C 
BRANCH   8   9
ATOM      9  C   UNL     1       4.893  -3.526  -7.572  1.00  0.00    -0.000 C 
BRANCH   9  10
ATOM     10  C   UNL     1       5.605  -2.669  -6.509  1.00  0.00    -0.000 C 
BRANCH  10  11
ATOM     11  C   UNL     1       4.660  -1.666  -5.822  1.00  0.00    -0.000 C 
BRANCH  11  12
ATOM     12  C   UNL     1       5.288  -1.029  -4.574  1.00  0.00    -0.003 C 
ATOM     13  C   UNL     1       5.055  -1.852  -3.306  1.00  0.00     0.004 C 
ENDBRANCH  11  12
ENDBRANCH  10  11
ENDBRANCH   9  10
ENDBRANCH   8   9
ENDBRANCH   1   8
TORSDOF 9
ENDMDL
MODEL 8
REMARK VINA RESULT:    -5.648      5.129      7.877
REMARK INTER + INTRA:          -8.921
REMARK INTER:                  -8.695
REMARK INTRA:                  -0.226
REMARK UNBOUND:                -0.302
REMARK SMILES CCCCCCCCCCC(=O)[O-]
REMARK SMILES IDX 7 1 8 2 9 3 10 4 11 5 12 6 13 7 6 8 5 9 4 10 3 11 2 12 1 13
REMARK H PARENT
REMARK Flexibility Score: inf
ROOT
ATOM      1  C   UNL     1      -6.694   5.863   2.089  1.00  0.00     0.000 C 
ENDROOT
BRANCH   1   2
ATOM      2  C   UNL     1      -8.118   6.017   2.645  1.00  0.00     0.000 C 
BRANCH   2   3
ATOM      3  C   UNL     1      -9.159   5.929   1.519  1.00  0.00     0.006 C 
BRANCH   3   4
ATOM      4  C   UNL     1     -10.592   6.107   2.038  1.00  0.00     0.053 C 
BRANCH   4   5
ATOM      5  C   UNL     1     -10.756   5.550   3.420  1.00  0.00     0.041 C 
ATOM      6  O   UNL     1     -10.834   6.324   4.409  1.00  0.00    -0.550 OA
ATOM      7  O   UNL     1     -10.790   4.175   3.616  1.00  0.00    -0.550 OA
ENDBRANCH   4   5
ENDBRANCH   3   4
ENDBRANCH   2   3
ENDBRANCH   1   2
BRANCH   1   8
ATOM      8  C   UNL     1      -5.694   6.844   2.727  1.00  0.00     0.000 C 
BRANCH   8   9
ATOM      9  C   UNL     1      -5.258   6.491   4.165  1.00  0.00    -0.000 C 
BRANCH   9  10
ATOM     10  C   UNL     1      -5.348   4.998   4.531  1.00  0.00    -0.000 C 
BRANCH  10  11
ATOM     11  C   UNL     1      -4.317   4.583   5.596  1.00  0.00    -0.000 C 
BRANCH  11  12
ATOM     12  C   UNL     1      -3.145   3.789   5.000  1.00  0.00    -0.003 C 
ATOM     13  C   UNL     1      -3.585   2.472   4.358  1.00  0.00     0.004 C 
ENDBRANCH  11  12
ENDBRANCH  10  11
ENDBRANCH   9  10
ENDBRANCH   8   9
ENDBRANCH   1   8
TORSDOF 9
ENDMDL
MODEL 9
REMARK VINA RESULT:    -5.629      5.100      7.106
REMARK INTER + INTRA:          -8.893
REMARK INTER:                  -8.310
REMARK INTRA:                  -0.583
REMARK UNBOUND:                -0.302
REMARK SMILES CCCCCCCCCCC(=O)[O-]
REMARK SMILES IDX 7 1 8 2 9 3 10 4 11 5 12 6 13 7 6 8 5 9 4 10 3 11 2 12 1 13
REMARK H PARENT
REMARK Flexibility Score: inf
ROOT
ATOM      1  C   UNL     1      -4.997   4.805   4.871  1.00  0.00     0.000 C 
ENDROOT
BRANCH   1   2
ATOM      2  C   UNL     1      -4.720   6.216   4.332  1.00  0.00     0.000 C 
BRANCH   2   3
ATOM      3  C   UNL     1      -5.781   6.627   3.299  1.00  0.00     0.006 C 
BRANCH   3   4
ATOM      4  C   UNL     1      -6.654   5.444   2.861  1.00  0.00     0.053 C 
BRANCH   4   5
ATOM      5  C   UNL     1      -8.108   5.806   2.837  1.00  0.00     0.041 C 
ATOM      6  O   UNL     1      -8.707   5.950   1.739  1.00  0.00    -0.550 OA
ATOM      7  O   UNL     1      -8.793   6.017   4.028  1.00  0.00    -0.550 OA
ENDBRANCH   4   5
ENDBRANCH   3   4
ENDBRANCH   2   3
ENDBRANCH   1   2
BRANCH   1   8
ATOM      8  C   UNL     1      -3.724   4.089   5.354  1.00  0.00     0.000 C 
BRANCH   8   9
ATOM      9  C   UNL     1      -3.387   2.780   4.610  1.00  0.00    -0.000 C 
BRANCH   9  10
ATOM     10  C   UNL     1      -4.484   2.262   3.662  1.00  0.00    -0.000 C 
BRANCH  10  11
ATOM     11  C   UNL     1      -4.135   0.900   3.035  1.00  0.00    -0.000 C 
BRANCH  11  12
ATOM     12  C   UNL     1      -5.007  -0.240   3.584  1.00  0.00    -0.003 C 
ATOM     13  C   UNL     1      -6.468  -0.134   3.144  1.00  0.00     0.004 C 
ENDBRANCH  11  12
ENDBRANCH  10  11
ENDBRANCH   9  10
ENDBRANCH   8   9
ENDBRANCH   1   8
TORSDOF 9
ENDMDL
