MODEL 1
REMARK VINA RESULT:    -5.086      0.000      0.000
REMARK INTER + INTRA:          -5.384
REMARK INTER:                  -5.384
REMARK INTRA:                   0.000
REMARK UNBOUND:                 0.000
REMARK SMILES C[C@H]1CC[C@H]2[N@H+](C1)C[C@H]1[C@H]3C[C@@H]4[C@@H](CC(=O)[C@H]5C[C@@H](O)CC[C@]54C)[C@H]3CC[C@@H]1[C@]2(C)O
REMARK SMILES IDX 5 1 6 2 8 3 7 4 4 5 29 6 3 7 28 8 30 9 2 10 27 11 9 12 1 13
REMARK SMILES IDX 26 14 10 15 25 16 11 17 13 18 12 19 14 20 23 21 15 22 17 23
REMARK SMILES IDX 22 24 24 25 16 26 18 27 21 28 19 29 31 31 20 33
REMARK H PARENT 6 30 31 32 20 34
REMARK Flexibility Score: inf
ROOT
ATOM      1  C   UNL     1      23.997  26.867  21.034  1.00  0.00     0.216 C 
ATOM      2  N   UNL     1      23.465  28.262  21.084  1.00  0.00    -0.330 N 
ATOM      3  C   UNL     1      23.877  28.955  22.338  1.00  0.00     0.266 C 
ATOM      4  C   UNL     1      23.889  29.042  19.902  1.00  0.00     0.265 C 
ATOM      5  C   UNL     1      24.024  26.274  19.592  1.00  0.00     0.069 C 
ATOM      6  C   UNL     1      23.281  25.963  22.120  1.00  0.00     0.117 C 
ATOM      7  C   UNL     1      23.010  26.960  18.672  1.00  0.00     0.015 C 
ATOM      8  C   UNL     1      22.954  26.829  23.398  1.00  0.00     0.036 C 
ATOM      9  C   UNL     1      21.951  25.367  21.601  1.00  0.00     0.049 C 
ATOM     10  C   UNL     1      23.243  28.490  18.606  1.00  0.00     0.041 C 
ATOM     11  C   UNL     1      22.772  26.012  24.712  1.00  0.00     0.007 C 
ATOM     12  C   UNL     1      23.972  27.989  23.551  1.00  0.00     0.054 C 
ATOM     13  C   UNL     1      24.082  28.876  17.381  1.00  0.00     0.013 C 
ATOM     14  C   UNL     1      23.913  26.225  25.717  1.00  0.00     0.004 C 
ATOM     15  C   UNL     1      23.885  28.696  24.929  1.00  0.00     0.002 C 
ATOM     16  C   UNL     1      24.125  27.721  26.105  1.00  0.00    -0.004 C 
ATOM     17  C   UNL     1      22.550  29.386  25.220  1.00  0.00     0.009 C 
ATOM     18  C   UNL     1      23.287  28.279  27.295  1.00  0.00     0.003 C 
ATOM     19  C   UNL     1      22.461  29.469  26.747  1.00  0.00    -0.000 C 
ATOM     20  C   UNL     1      22.475  27.267  28.112  1.00  0.00     0.080 C 
ATOM     21  C   UNL     1      21.011  29.700  27.350  1.00  0.00    -0.020 C 
ATOM     22  C   UNL     1      21.674  27.979  29.163  1.00  0.00     0.136 C 
ATOM     23  C   UNL     1      20.985  29.296  28.874  1.00  0.00     0.065 C 
ATOM     24  C   UNL     1      20.638  31.224  27.180  1.00  0.00     0.010 C 
ATOM     25  C   UNL     1      19.911  28.870  26.623  1.00  0.00     0.012 C 
ATOM     26  O   UNL     1      21.532  27.457  30.258  1.00  0.00    -0.299 OA
ATOM     27  C   UNL     1      21.560  30.422  29.752  1.00  0.00     0.043 C 
ATOM     28  C   UNL     1      19.863  31.789  28.376  1.00  0.00     0.032 C 
ATOM     29  C   UNL     1      20.692  31.704  29.676  1.00  0.00     0.115 C 
ATOM     30  H   UNL     1      22.417  28.231  21.072  1.00  0.00     0.348 HD
ENDROOT
BRANCH   6  31
ATOM     31  O   UNL     1      24.125  24.882  22.446  1.00  0.00    -0.384 OA
ATOM     32  H   UNL     1      23.759  24.435  23.253  1.00  0.00     0.211 HD
ENDBRANCH   6  31
BRANCH  29  33
ATOM     33  O   UNL     1      21.510  32.840  29.780  1.00  0.00    -0.393 OA
ATOM     34  H   UNL     1      22.370  32.538  30.174  1.00  0.00     0.210 HD
ENDBRANCH  29  33
TORSDOF 2
ENDMDL
MODEL 2
REMARK VINA RESULT:    -5.023      2.420      8.247
REMARK INTER + INTRA:          -5.317
REMARK INTER:                  -5.317
REMARK INTRA:                   0.000
REMARK UNBOUND:                 0.000
REMARK SMILES C[C@H]1CC[C@H]2[N@H+](C1)C[C@H]1[C@H]3C[C@@H]4[C@@H](CC(=O)[C@H]5C[C@@H](O)CC[C@]54C)[C@H]3CC[C@@H]1[C@]2(C)O
REMARK SMILES IDX 5 1 6 2 8 3 7 4 4 5 29 6 3 7 28 8 30 9 2 10 27 11 9 12 1 13
REMARK SMILES IDX 26 14 10 15 25 16 11 17 13 18 12 19 14 20 23 21 15 22 17 23
REMARK SMILES IDX 22 24 24 25 16 26 18 27 21 28 19 29 31 31 20 33
REMARK H PARENT 6 30 31 32 20 34
REMARK Flexibility Score: inf
ROOT
ATOM      1  C   UNL     1      21.527  30.106  28.910  1.00  0.00     0.216 C 
ATOM      2  N   UNL     1      21.096  31.171  27.957  1.00  0.00    -0.330 N 
ATOM      3  C   UNL     1      20.489  30.586  26.727  1.00  0.00     0.266 C 
ATOM      4  C   UNL     1      20.154  32.115  28.596  1.00  0.00     0.265 C 
ATOM      5  C   UNL     1      21.708  30.627  30.369  1.00  0.00     0.069 C 
ATOM      6  C   UNL     1      22.762  29.306  28.324  1.00  0.00     0.117 C 
ATOM      7  C   UNL     1      21.979  32.133  30.410  1.00  0.00     0.015 C 
ATOM      8  C   UNL     1      22.631  29.204  26.755  1.00  0.00     0.036 C 
ATOM      9  C   UNL     1      24.110  29.995  28.642  1.00  0.00     0.049 C 
ATOM     10  C   UNL     1      20.853  32.935  29.710  1.00  0.00     0.041 C 
ATOM     11  C   UNL     1      23.419  28.028  26.107  1.00  0.00     0.007 C 
ATOM     12  C   UNL     1      21.141  29.235  26.325  1.00  0.00     0.054 C 
ATOM     13  C   UNL     1      19.824  33.452  30.723  1.00  0.00     0.013 C 
ATOM     14  C   UNL     1      22.508  26.922  25.556  1.00  0.00     0.004 C 
ATOM     15  C   UNL     1      20.930  28.852  24.837  1.00  0.00     0.002 C 
ATOM     16  C   UNL     1      21.470  27.439  24.512  1.00  0.00    -0.004 C 
ATOM     17  C   UNL     1      21.586  29.795  23.826  1.00  0.00     0.009 C 
ATOM     18  C   UNL     1      21.917  27.490  23.020  1.00  0.00     0.003 C 
ATOM     19  C   UNL     1      21.774  28.960  22.555  1.00  0.00    -0.000 C 
ATOM     20  C   UNL     1      23.263  26.843  22.672  1.00  0.00     0.080 C 
ATOM     21  C   UNL     1      22.836  29.510  21.511  1.00  0.00    -0.020 C 
ATOM     22  C   UNL     1      23.572  27.048  21.218  1.00  0.00     0.136 C 
ATOM     23  C   UNL     1      23.274  28.360  20.525  1.00  0.00     0.065 C 
ATOM     24  C   UNL     1      22.177  30.698  20.709  1.00  0.00     0.010 C 
ATOM     25  C   UNL     1      24.124  30.065  22.189  1.00  0.00     0.012 C 
ATOM     26  O   UNL     1      24.125  26.154  20.595  1.00  0.00    -0.299 OA
ATOM     27  C   UNL     1      22.232  28.167  19.407  1.00  0.00     0.043 C 
ATOM     28  C   UNL     1      22.572  30.715  19.228  1.00  0.00     0.032 C 
ATOM     29  C   UNL     1      22.120  29.426  18.510  1.00  0.00     0.115 C 
ATOM     30  H   UNL     1      21.934  31.727  27.660  1.00  0.00     0.348 HD
ENDROOT
BRANCH   6  31
ATOM     31  O   UNL     1      22.799  28.024  28.910  1.00  0.00    -0.384 OA
ATOM     32  H   UNL     1      22.240  28.040  29.728  1.00  0.00     0.211 HD
ENDBRANCH   6  31
BRANCH  29  33
ATOM     33  O   UNL     1      20.795  29.579  18.069  1.00  0.00    -0.393 OA
ATOM     34  H   UNL     1      20.645  28.891  17.370  1.00  0.00     0.210 HD
ENDBRANCH  29  33
TORSDOF 2
ENDMDL
