MODEL 1
REMARK VINA RESULT:    -5.931      0.000      0.000
REMARK INTER + INTRA:         -19.691
REMARK INTER:                 -15.639
REMARK INTRA:                  -4.053
REMARK UNBOUND:                -4.053
REMARK SMILES CCCCCCCCCCCCCCCCCCCCCCCCCCCCCC(=O)[O-]
REMARK SMILES IDX 16 1 17 2 18 3 19 4 20 5 21 6 22 7 23 8 24 9 25 10 26 11
REMARK SMILES IDX 27 12 28 13 29 14 30 15 31 16 32 17 15 18 14 19 13 20 12 21
REMARK SMILES IDX 11 22 10 23 9 24 8 25 7 26 6 27 5 28 4 29 3 30 2 31 1 32
REMARK H PARENT
REMARK Flexibility Score: inf
ROOT
ATOM      1  C   UNL     1      10.302   2.871  20.699  1.00  0.00     0.000 C 
ENDROOT
BRANCH   1   2
ATOM      2  C   UNL     1       9.951   2.629  19.221  1.00  0.00     0.000 C 
BRANCH   2   3
ATOM      3  C   UNL     1      10.875   3.390  18.252  1.00  0.00     0.000 C 
BRANCH   3   4
ATOM      4  C   UNL     1      11.857   4.377  18.916  1.00  0.00     0.000 C 
BRANCH   4   5
ATOM      5  C   UNL     1      11.861   5.798  18.322  1.00  0.00     0.000 C 
BRANCH   5   6
ATOM      6  C   UNL     1      10.700   6.037  17.344  1.00  0.00     0.000 C 
BRANCH   6   7
ATOM      7  C   UNL     1       9.956   7.358  17.612  1.00  0.00     0.000 C 
BRANCH   7   8
ATOM      8  C   UNL     1       8.500   7.206  18.099  1.00  0.00     0.000 C 
BRANCH   8   9
ATOM      9  C   UNL     1       8.143   5.824  18.680  1.00  0.00     0.000 C 
BRANCH   9  10
ATOM     10  C   UNL     1       8.099   5.760  20.217  1.00  0.00     0.000 C 
BRANCH  10  11
ATOM     11  C   UNL     1       9.414   6.221  20.867  1.00  0.00     0.000 C 
BRANCH  11  12
ATOM     12  C   UNL     1       9.247   7.494  21.715  1.00  0.00     0.000 C 
BRANCH  12  13
ATOM     13  C   UNL     1      10.479   8.423  21.742  1.00  0.00     0.006 C 
BRANCH  13  14
ATOM     14  C   UNL     1      11.792   7.754  21.306  1.00  0.00     0.053 C 
BRANCH  14  15
ATOM     15  C   UNL     1      12.904   8.747  21.161  1.00  0.00     0.041 C 
ATOM     16  O   UNL     1      12.974   9.737  21.935  1.00  0.00    -0.550 OA
ATOM     17  O   UNL     1      13.844   8.595  20.149  1.00  0.00    -0.550 OA
ENDBRANCH  14  15
ENDBRANCH  13  14
ENDBRANCH  12  13
ENDBRANCH  11  12
ENDBRANCH  10  11
ENDBRANCH   9  10
ENDBRANCH   8   9
ENDBRANCH   7   8
ENDBRANCH   6   7
ENDBRANCH   5   6
ENDBRANCH   4   5
ENDBRANCH   3   4
ENDBRANCH   2   3
ENDBRANCH   1   2
BRANCH   1  18
ATOM     18  C   UNL     1      10.288   1.571  21.520  1.00  0.00     0.000 C 
BRANCH  18  19
ATOM     19  C   UNL     1      11.020   1.722  22.865  1.00  0.00     0.000 C 
BRANCH  19  20
ATOM     20  C   UNL     1      10.925   0.458  23.737  1.00  0.00     0.000 C 
BRANCH  20  21
ATOM     21  C   UNL     1      11.860   0.507  24.959  1.00  0.00     0.000 C 
BRANCH  21  22
ATOM     22  C   UNL     1      11.376  -0.383  26.124  1.00  0.00     0.000 C 
BRANCH  22  23
ATOM     23  C   UNL     1      12.338  -1.537  26.470  1.00  0.00     0.000 C 
BRANCH  23  24
ATOM     24  C   UNL     1      13.751  -1.420  25.867  1.00  0.00    -0.000 C 
BRANCH  24  25
ATOM     25  C   UNL     1      14.894  -1.929  26.765  1.00  0.00    -0.000 C 
BRANCH  25  26
ATOM     26  C   UNL     1      14.525  -2.144  28.246  1.00  0.00    -0.000 C 
BRANCH  26  27
ATOM     27  C   UNL     1      14.789  -0.920  29.147  1.00  0.00    -0.000 C 
BRANCH  27  28
ATOM     28  C   UNL     1      13.515  -0.116  29.454  1.00  0.00    -0.000 C 
BRANCH  28  29
ATOM     29  C   UNL     1      13.486   1.196  28.654  1.00  0.00    -0.000 C 
BRANCH  29  30
ATOM     30  C   UNL     1      14.745   1.404  27.798  1.00  0.00    -0.000 C 
BRANCH  30  31
ATOM     31  C   UNL     1      14.455   2.145  26.483  1.00  0.00    -0.003 C 
ATOM     32  C   UNL     1      15.481   1.784  25.412  1.00  0.00     0.004 C 
ENDBRANCH  30  31
ENDBRANCH  29  30
ENDBRANCH  28  29
ENDBRANCH  27  28
ENDBRANCH  26  27
ENDBRANCH  25  26
ENDBRANCH  24  25
ENDBRANCH  23  24
ENDBRANCH  22  23
ENDBRANCH  21  22
ENDBRANCH  20  21
ENDBRANCH  19  20
ENDBRANCH  18  19
ENDBRANCH   1  18
TORSDOF 28
ENDMDL
MODEL 2
REMARK VINA RESULT:    -5.883      0.842      2.075
REMARK INTER + INTRA:         -19.566
REMARK INTER:                 -15.222
REMARK INTRA:                  -4.344
REMARK UNBOUND:                -4.053
REMARK SMILES CCCCCCCCCCCCCCCCCCCCCCCCCCCCCC(=O)[O-]
REMARK SMILES IDX 16 1 17 2 18 3 19 4 20 5 21 6 22 7 23 8 24 9 25 10 26 11
REMARK SMILES IDX 27 12 28 13 29 14 30 15 31 16 32 17 15 18 14 19 13 20 12 21
REMARK SMILES IDX 11 22 10 23 9 24 8 25 7 26 6 27 5 28 4 29 3 30 2 31 1 32
REMARK H PARENT
REMARK Flexibility Score: inf
ROOT
ATOM      1  C   UNL     1      11.057   2.672  22.332  1.00  0.00     0.000 C 
ENDROOT
BRANCH   1   2
ATOM      2  C   UNL     1      10.546   3.643  21.254  1.00  0.00     0.000 C 
BRANCH   2   3
ATOM      3  C   UNL     1      10.169   2.937  19.940  1.00  0.00     0.000 C 
BRANCH   3   4
ATOM      4  C   UNL     1      10.883   3.466  18.678  1.00  0.00     0.000 C 
BRANCH   4   5
ATOM      5  C   UNL     1      12.010   4.482  18.939  1.00  0.00     0.000 C 
BRANCH   5   6
ATOM      6  C   UNL     1      11.809   5.803  18.179  1.00  0.00     0.000 C 
BRANCH   6   7
ATOM      7  C   UNL     1      10.579   5.777  17.253  1.00  0.00     0.000 C 
BRANCH   7   8
ATOM      8  C   UNL     1       9.827   7.118  17.122  1.00  0.00     0.000 C 
BRANCH   8   9
ATOM      9  C   UNL     1       8.493   7.200  17.890  1.00  0.00     0.000 C 
BRANCH   9  10
ATOM     10  C   UNL     1       8.176   5.977  18.769  1.00  0.00     0.000 C 
BRANCH  10  11
ATOM     11  C   UNL     1       8.541   6.200  20.246  1.00  0.00     0.000 C 
BRANCH  11  12
ATOM     12  C   UNL     1       9.465   7.411  20.458  1.00  0.00     0.000 C 
BRANCH  12  13
ATOM     13  C   UNL     1      10.326   7.357  21.737  1.00  0.00     0.006 C 
BRANCH  13  14
ATOM     14  C   UNL     1      11.838   7.242  21.483  1.00  0.00     0.053 C 
BRANCH  14  15
ATOM     15  C   UNL     1      12.564   8.500  21.849  1.00  0.00     0.041 C 
ATOM     16  O   UNL     1      13.822   8.517  21.889  1.00  0.00    -0.550 OA
ATOM     17  O   UNL     1      11.848   9.645  22.178  1.00  0.00    -0.550 OA
ENDBRANCH  14  15
ENDBRANCH  13  14
ENDBRANCH  12  13
ENDBRANCH  11  12
ENDBRANCH  10  11
ENDBRANCH   9  10
ENDBRANCH   8   9
ENDBRANCH   7   8
ENDBRANCH   6   7
ENDBRANCH   5   6
ENDBRANCH   4   5
ENDBRANCH   3   4
ENDBRANCH   2   3
ENDBRANCH   1   2
BRANCH   1  18
ATOM     18  C   UNL     1      10.588   1.228  22.083  1.00  0.00     0.000 C 
BRANCH  18  19
ATOM     19  C   UNL     1      10.634   0.370  23.359  1.00  0.00     0.000 C 
BRANCH  19  20
ATOM     20  C   UNL     1      11.479   1.010  24.474  1.00  0.00     0.000 C 
BRANCH  20  21
ATOM     21  C   UNL     1      10.897   0.760  25.878  1.00  0.00     0.000 C 
BRANCH  21  22
ATOM     22  C   UNL     1      11.228  -0.645  26.424  1.00  0.00     0.000 C 
BRANCH  22  23
ATOM     23  C   UNL     1      12.446  -1.307  25.751  1.00  0.00     0.000 C 
BRANCH  23  24
ATOM     24  C   UNL     1      13.494  -1.893  26.715  1.00  0.00    -0.000 C 
BRANCH  24  25
ATOM     25  C   UNL     1      14.955  -1.800  26.235  1.00  0.00    -0.000 C 
BRANCH  25  26
ATOM     26  C   UNL     1      15.658  -0.457  26.514  1.00  0.00    -0.000 C 
BRANCH  26  27
ATOM     27  C   UNL     1      15.034   0.747  25.777  1.00  0.00    -0.000 C 
BRANCH  27  28
ATOM     28  C   UNL     1      14.392   1.766  26.732  1.00  0.00    -0.000 C 
BRANCH  28  29
ATOM     29  C   UNL     1      14.538   1.318  28.195  1.00  0.00    -0.000 C 
BRANCH  29  30
ATOM     30  C   UNL     1      13.186   1.081  28.887  1.00  0.00    -0.000 C 
BRANCH  30  31
ATOM     31  C   UNL     1      13.292   0.131  30.091  1.00  0.00    -0.003 C 
ATOM     32  C   UNL     1      14.627  -0.608  30.091  1.00  0.00     0.004 C 
ENDBRANCH  30  31
ENDBRANCH  29  30
ENDBRANCH  28  29
ENDBRANCH  27  28
ENDBRANCH  26  27
ENDBRANCH  25  26
ENDBRANCH  24  25
ENDBRANCH  23  24
ENDBRANCH  22  23
ENDBRANCH  21  22
ENDBRANCH  20  21
ENDBRANCH  19  20
ENDBRANCH  18  19
ENDBRANCH   1  18
TORSDOF 28
ENDMDL
MODEL 3
REMARK VINA RESULT:    -5.658      2.899      4.236
REMARK INTER + INTRA:         -18.973
REMARK INTER:                 -15.140
REMARK INTRA:                  -3.832
REMARK UNBOUND:                -4.053
REMARK SMILES CCCCCCCCCCCCCCCCCCCCCCCCCCCCCC(=O)[O-]
REMARK SMILES IDX 16 1 17 2 18 3 19 4 20 5 21 6 22 7 23 8 24 9 25 10 26 11
REMARK SMILES IDX 27 12 28 13 29 14 30 15 31 16 32 17 15 18 14 19 13 20 12 21
REMARK SMILES IDX 11 22 10 23 9 24 8 25 7 26 6 27 5 28 4 29 3 30 2 31 1 32
REMARK H PARENT
REMARK Flexibility Score: inf
ROOT
ATOM      1  C   UNL     1      11.221   3.897  20.441  1.00  0.00     0.000 C 
ENDROOT
BRANCH   1   2
ATOM      2  C   UNL     1      11.099   3.631  18.930  1.00  0.00     0.000 C 
BRANCH   2   3
ATOM      3  C   UNL     1      11.473   4.854  18.073  1.00  0.00     0.000 C 
BRANCH   3   4
ATOM      4  C   UNL     1      12.571   5.763  18.664  1.00  0.00     0.000 C 
BRANCH   4   5
ATOM      5  C   UNL     1      12.121   7.193  19.014  1.00  0.00     0.000 C 
BRANCH   5   6
ATOM      6  C   UNL     1      12.368   7.551  20.488  1.00  0.00     0.000 C 
BRANCH   6   7
ATOM      7  C   UNL     1      11.210   7.123  21.408  1.00  0.00     0.000 C 
BRANCH   7   8
ATOM      8  C   UNL     1       9.808   7.586  20.961  1.00  0.00     0.000 C 
BRANCH   8   9
ATOM      9  C   UNL     1       8.897   6.475  20.405  1.00  0.00     0.000 C 
BRANCH   9  10
ATOM     10  C   UNL     1       8.604   6.573  18.897  1.00  0.00     0.000 C 
BRANCH  10  11
ATOM     11  C   UNL     1       7.695   5.438  18.396  1.00  0.00     0.000 C 
BRANCH  11  12
ATOM     12  C   UNL     1       7.524   4.309  19.428  1.00  0.00     0.000 C 
BRANCH  12  13
ATOM     13  C   UNL     1       7.172   2.930  18.832  1.00  0.00     0.006 C 
BRANCH  13  14
ATOM     14  C   UNL     1       8.331   2.241  18.093  1.00  0.00     0.053 C 
BRANCH  14  15
ATOM     15  C   UNL     1       8.350   0.763  18.338  1.00  0.00     0.041 C 
ATOM     16  O   UNL     1       8.618   0.314  19.483  1.00  0.00    -0.550 OA
ATOM     17  O   UNL     1       8.103  -0.118  17.293  1.00  0.00    -0.550 OA
ENDBRANCH  14  15
ENDBRANCH  13  14
ENDBRANCH  12  13
ENDBRANCH  11  12
ENDBRANCH  10  11
ENDBRANCH   9  10
ENDBRANCH   8   9
ENDBRANCH   7   8
ENDBRANCH   6   7
ENDBRANCH   5   6
ENDBRANCH   4   5
ENDBRANCH   3   4
ENDBRANCH   2   3
ENDBRANCH   1   2
BRANCH   1  18
ATOM     18  C   UNL     1      10.281   3.003  21.266  1.00  0.00     0.000 C 
BRANCH  18  19
ATOM     19  C   UNL     1      10.983   2.386  22.487  1.00  0.00     0.000 C 
BRANCH  19  20
ATOM     20  C   UNL     1      10.586   0.919  22.722  1.00  0.00     0.000 C 
BRANCH  20  21
ATOM     21  C   UNL     1      11.392   0.260  23.857  1.00  0.00     0.000 C 
BRANCH  21  22
ATOM     22  C   UNL     1      10.809   0.551  25.256  1.00  0.00     0.000 C 
BRANCH  22  23
ATOM     23  C   UNL     1      11.419  -0.311  26.379  1.00  0.00     0.000 C 
BRANCH  23  24
ATOM     24  C   UNL     1      12.501  -1.311  25.929  1.00  0.00    -0.000 C 
BRANCH  24  25
ATOM     25  C   UNL     1      13.896  -1.094  26.545  1.00  0.00    -0.000 C 
BRANCH  25  26
ATOM     26  C   UNL     1      13.907  -0.744  28.046  1.00  0.00    -0.000 C 
BRANCH  26  27
ATOM     27  C   UNL     1      14.497   0.645  28.367  1.00  0.00    -0.000 C 
BRANCH  27  28
ATOM     28  C   UNL     1      14.287   1.661  27.233  1.00  0.00    -0.000 C 
BRANCH  28  29
ATOM     29  C   UNL     1      15.455   1.622  26.234  1.00  0.00    -0.000 C 
BRANCH  29  30
ATOM     30  C   UNL     1      15.124   2.306  24.898  1.00  0.00    -0.000 C 
BRANCH  30  31
ATOM     31  C   UNL     1      13.656   2.755  24.808  1.00  0.00    -0.003 C 
ATOM     32  C   UNL     1      13.556   4.223  24.405  1.00  0.00     0.004 C 
ENDBRANCH  30  31
ENDBRANCH  29  30
ENDBRANCH  28  29
ENDBRANCH  27  28
ENDBRANCH  26  27
ENDBRANCH  25  26
ENDBRANCH  24  25
ENDBRANCH  23  24
ENDBRANCH  22  23
ENDBRANCH  21  22
ENDBRANCH  20  21
ENDBRANCH  19  20
ENDBRANCH  18  19
ENDBRANCH   1  18
TORSDOF 28
ENDMDL
MODEL 4
REMARK VINA RESULT:    -5.657      2.667      4.152
REMARK INTER + INTRA:         -18.970
REMARK INTER:                 -15.170
REMARK INTRA:                  -3.800
REMARK UNBOUND:                -4.053
REMARK SMILES CCCCCCCCCCCCCCCCCCCCCCCCCCCCCC(=O)[O-]
REMARK SMILES IDX 16 1 17 2 18 3 19 4 20 5 21 6 22 7 23 8 24 9 25 10 26 11
REMARK SMILES IDX 27 12 28 13 29 14 30 15 31 16 32 17 15 18 14 19 13 20 12 21
REMARK SMILES IDX 11 22 10 23 9 24 8 25 7 26 6 27 5 28 4 29 3 30 2 31 1 32
REMARK H PARENT
REMARK Flexibility Score: inf
ROOT
ATOM      1  C   UNL     1      10.945   3.205  22.099  1.00  0.00     0.000 C 
ENDROOT
BRANCH   1   2
ATOM      2  C   UNL     1       9.835   3.662  21.136  1.00  0.00     0.000 C 
BRANCH   2   3
ATOM      3  C   UNL     1       9.504   5.159  21.270  1.00  0.00     0.000 C 
BRANCH   3   4
ATOM      4  C   UNL     1       8.105   5.573  20.768  1.00  0.00     0.000 C 
BRANCH   4   5
ATOM      5  C   UNL     1       7.901   5.485  19.245  1.00  0.00     0.000 C 
BRANCH   5   6
ATOM      6  C   UNL     1       8.277   6.786  18.517  1.00  0.00     0.000 C 
BRANCH   6   7
ATOM      7  C   UNL     1       9.069   6.538  17.222  1.00  0.00     0.000 C 
BRANCH   7   8
ATOM      8  C   UNL     1      10.485   7.150  17.189  1.00  0.00     0.000 C 
BRANCH   8   9
ATOM      9  C   UNL     1      11.147   7.348  18.566  1.00  0.00     0.000 C 
BRANCH   9  10
ATOM     10  C   UNL     1      11.988   6.157  19.058  1.00  0.00     0.000 C 
BRANCH  10  11
ATOM     11  C   UNL     1      12.117   5.047  18.001  1.00  0.00     0.000 C 
BRANCH  11  12
ATOM     12  C   UNL     1      11.442   3.732  18.429  1.00  0.00     0.000 C 
BRANCH  12  13
ATOM     13  C   UNL     1      10.275   3.276  17.530  1.00  0.00     0.006 C 
BRANCH  13  14
ATOM     14  C   UNL     1      10.096   1.752  17.441  1.00  0.00     0.053 C 
BRANCH  14  15
ATOM     15  C   UNL     1       8.727   1.324  17.870  1.00  0.00     0.041 C 
ATOM     16  O   UNL     1       8.117   1.959  18.770  1.00  0.00    -0.550 OA
ATOM     17  O   UNL     1       8.138   0.202  17.299  1.00  0.00    -0.550 OA
ENDBRANCH  14  15
ENDBRANCH  13  14
ENDBRANCH  12  13
ENDBRANCH  11  12
ENDBRANCH  10  11
ENDBRANCH   9  10
ENDBRANCH   8   9
ENDBRANCH   7   8
ENDBRANCH   6   7
ENDBRANCH   5   6
ENDBRANCH   4   5
ENDBRANCH   3   4
ENDBRANCH   2   3
ENDBRANCH   1   2
BRANCH   1  18
ATOM     18  C   UNL     1      10.847   1.706  22.430  1.00  0.00     0.000 C 
BRANCH  18  19
ATOM     19  C   UNL     1      11.637   1.334  23.696  1.00  0.00     0.000 C 
BRANCH  19  20
ATOM     20  C   UNL     1      10.987   0.185  24.485  1.00  0.00     0.000 C 
BRANCH  20  21
ATOM     21  C   UNL     1      11.115   0.364  26.009  1.00  0.00     0.000 C 
BRANCH  21  22
ATOM     22  C   UNL     1      11.810  -0.829  26.698  1.00  0.00     0.000 C 
BRANCH  22  23
ATOM     23  C   UNL     1      12.902  -1.498  25.840  1.00  0.00     0.000 C 
BRANCH  23  24
ATOM     24  C   UNL     1      14.285  -1.617  26.509  1.00  0.00    -0.000 C 
BRANCH  24  25
ATOM     25  C   UNL     1      14.274  -2.163  27.949  1.00  0.00    -0.000 C 
BRANCH  25  26
ATOM     26  C   UNL     1      14.759  -1.179  29.031  1.00  0.00    -0.000 C 
BRANCH  26  27
ATOM     27  C   UNL     1      13.627  -0.388  29.720  1.00  0.00    -0.000 C 
BRANCH  27  28
ATOM     28  C   UNL     1      13.368   0.978  29.065  1.00  0.00    -0.000 C 
BRANCH  28  29
ATOM     29  C   UNL     1      14.612   1.471  28.308  1.00  0.00    -0.000 C 
BRANCH  29  30
ATOM     30  C   UNL     1      14.298   1.930  26.875  1.00  0.00    -0.000 C 
BRANCH  30  31
ATOM     31  C   UNL     1      15.417   1.581  25.880  1.00  0.00    -0.003 C 
ATOM     32  C   UNL     1      15.233   2.330  24.563  1.00  0.00     0.004 C 
ENDBRANCH  30  31
ENDBRANCH  29  30
ENDBRANCH  28  29
ENDBRANCH  27  28
ENDBRANCH  26  27
ENDBRANCH  25  26
ENDBRANCH  24  25
ENDBRANCH  23  24
ENDBRANCH  22  23
ENDBRANCH  21  22
ENDBRANCH  20  21
ENDBRANCH  19  20
ENDBRANCH  18  19
ENDBRANCH   1  18
TORSDOF 28
ENDMDL
MODEL 5
REMARK VINA RESULT:    -5.588      1.123      2.151
REMARK INTER + INTRA:         -18.787
REMARK INTER:                 -15.276
REMARK INTRA:                  -3.511
REMARK UNBOUND:                -4.053
REMARK SMILES CCCCCCCCCCCCCCCCCCCCCCCCCCCCCC(=O)[O-]
REMARK SMILES IDX 16 1 17 2 18 3 19 4 20 5 21 6 22 7 23 8 24 9 25 10 26 11
REMARK SMILES IDX 27 12 28 13 29 14 30 15 31 16 32 17 15 18 14 19 13 20 12 21
REMARK SMILES IDX 11 22 10 23 9 24 8 25 7 26 6 27 5 28 4 29 3 30 2 31 1 32
REMARK H PARENT
REMARK Flexibility Score: inf
ROOT
ATOM      1  C   UNL     1      10.577   2.385  21.774  1.00  0.00     0.000 C 
ENDROOT
BRANCH   1   2
ATOM      2  C   UNL     1       9.979   3.310  20.700  1.00  0.00     0.000 C 
BRANCH   2   3
ATOM      3  C   UNL     1      10.081   2.725  19.280  1.00  0.00     0.000 C 
BRANCH   3   4
ATOM      4  C   UNL     1      11.108   3.411  18.355  1.00  0.00     0.000 C 
BRANCH   4   5
ATOM      5  C   UNL     1      12.017   4.449  19.040  1.00  0.00     0.000 C 
BRANCH   5   6
ATOM      6  C   UNL     1      12.229   5.710  18.187  1.00  0.00     0.000 C 
BRANCH   6   7
ATOM      7  C   UNL     1      10.949   6.160  17.459  1.00  0.00     0.000 C 
BRANCH   7   8
ATOM      8  C   UNL     1      10.540   7.628  17.696  1.00  0.00     0.000 C 
BRANCH   8   9
ATOM      9  C   UNL     1       9.297   7.828  18.584  1.00  0.00     0.000 C 
BRANCH   9  10
ATOM     10  C   UNL     1       8.763   6.547  19.249  1.00  0.00     0.000 C 
BRANCH  10  11
ATOM     11  C   UNL     1       9.424   6.265  20.609  1.00  0.00     0.000 C 
BRANCH  11  12
ATOM     12  C   UNL     1       9.297   7.443  21.590  1.00  0.00     0.000 C 
BRANCH  12  13
ATOM     13  C   UNL     1      10.530   8.368  21.661  1.00  0.00     0.006 C 
BRANCH  13  14
ATOM     14  C   UNL     1      11.852   7.699  21.252  1.00  0.00     0.053 C 
BRANCH  14  15
ATOM     15  C   UNL     1      12.994   8.669  21.258  1.00  0.00     0.041 C 
ATOM     16  O   UNL     1      13.814   8.688  20.304  1.00  0.00    -0.550 OA
ATOM     17  O   UNL     1      13.170   9.530  22.335  1.00  0.00    -0.550 OA
ENDBRANCH  14  15
ENDBRANCH  13  14
ENDBRANCH  12  13
ENDBRANCH  11  12
ENDBRANCH  10  11
ENDBRANCH   9  10
ENDBRANCH   8   9
ENDBRANCH   7   8
ENDBRANCH   6   7
ENDBRANCH   5   6
ENDBRANCH   4   5
ENDBRANCH   3   4
ENDBRANCH   2   3
ENDBRANCH   1   2
BRANCH   1  18
ATOM     18  C   UNL     1      10.199   0.911  21.548  1.00  0.00     0.000 C 
BRANCH  18  19
ATOM     19  C   UNL     1      10.856  -0.025  22.577  1.00  0.00     0.000 C 
BRANCH  19  20
ATOM     20  C   UNL     1      11.262   0.705  23.869  1.00  0.00     0.000 C 
BRANCH  20  21
ATOM     21  C   UNL     1      10.166   0.654  24.949  1.00  0.00     0.000 C 
BRANCH  21  22
ATOM     22  C   UNL     1      10.459  -0.383  26.055  1.00  0.00     0.000 C 
BRANCH  22  23
ATOM     23  C   UNL     1      11.797  -0.157  26.786  1.00  0.00     0.000 C 
BRANCH  23  24
ATOM     24  C   UNL     1      12.955  -1.068  26.337  1.00  0.00    -0.000 C 
BRANCH  24  25
ATOM     25  C   UNL     1      14.330  -0.731  26.944  1.00  0.00    -0.000 C 
BRANCH  25  26
ATOM     26  C   UNL     1      14.356   0.485  27.889  1.00  0.00    -0.000 C 
BRANCH  26  27
ATOM     27  C   UNL     1      14.734   1.813  27.201  1.00  0.00    -0.000 C 
BRANCH  27  28
ATOM     28  C   UNL     1      15.608   1.613  25.953  1.00  0.00    -0.000 C 
BRANCH  28  29
ATOM     29  C   UNL     1      14.974   2.283  24.723  1.00  0.00    -0.000 C 
BRANCH  29  30
ATOM     30  C   UNL     1      13.616   2.933  25.029  1.00  0.00    -0.000 C 
BRANCH  30  31
ATOM     31  C   UNL     1      13.554   4.409  24.605  1.00  0.00    -0.003 C 
ATOM     32  C   UNL     1      12.840   4.566  23.265  1.00  0.00     0.004 C 
ENDBRANCH  30  31
ENDBRANCH  29  30
ENDBRANCH  28  29
ENDBRANCH  27  28
ENDBRANCH  26  27
ENDBRANCH  25  26
ENDBRANCH  24  25
ENDBRANCH  23  24
ENDBRANCH  22  23
ENDBRANCH  21  22
ENDBRANCH  20  21
ENDBRANCH  19  20
ENDBRANCH  18  19
ENDBRANCH   1  18
TORSDOF 28
ENDMDL
MODEL 6
REMARK VINA RESULT:    -5.330      5.315      9.914
REMARK INTER + INTRA:         -18.108
REMARK INTER:                 -15.358
REMARK INTRA:                  -2.750
REMARK UNBOUND:                -4.053
REMARK SMILES CCCCCCCCCCCCCCCCCCCCCCCCCCCCCC(=O)[O-]
REMARK SMILES IDX 16 1 17 2 18 3 19 4 20 5 21 6 22 7 23 8 24 9 25 10 26 11
REMARK SMILES IDX 27 12 28 13 29 14 30 15 31 16 32 17 15 18 14 19 13 20 12 21
REMARK SMILES IDX 11 22 10 23 9 24 8 25 7 26 6 27 5 28 4 29 3 30 2 31 1 32
REMARK H PARENT
REMARK Flexibility Score: inf
ROOT
ATOM      1  C   UNL     1      14.953  -0.707  30.147  1.00  0.00     0.000 C 
ENDROOT
BRANCH   1   2
ATOM      2  C   UNL     1      13.597  -0.011  30.351  1.00  0.00     0.000 C 
BRANCH   2   3
ATOM      3  C   UNL     1      13.238   0.952  29.204  1.00  0.00     0.000 C 
BRANCH   3   4
ATOM      4  C   UNL     1      14.330   1.133  28.129  1.00  0.00     0.000 C 
BRANCH   4   5
ATOM      5  C   UNL     1      13.918   0.728  26.702  1.00  0.00     0.000 C 
BRANCH   5   6
ATOM      6  C   UNL     1      13.750  -0.791  26.539  1.00  0.00     0.000 C 
BRANCH   6   7
ATOM      7  C   UNL     1      12.307  -1.198  26.190  1.00  0.00     0.000 C 
BRANCH   7   8
ATOM      8  C   UNL     1      11.253  -0.083  26.347  1.00  0.00     0.000 C 
BRANCH   8   9
ATOM      9  C   UNL     1      10.503   0.298  25.056  1.00  0.00     0.000 C 
BRANCH   9  10
ATOM     10  C   UNL     1      11.406   0.685  23.872  1.00  0.00     0.000 C 
BRANCH  10  11
ATOM     11  C   UNL     1      10.606   1.073  22.618  1.00  0.00     0.000 C 
BRANCH  11  12
ATOM     12  C   UNL     1      10.931   2.491  22.116  1.00  0.00     0.000 C 
BRANCH  12  13
ATOM     13  C   UNL     1      10.207   2.904  20.817  1.00  0.00     0.006 C 
BRANCH  13  14
ATOM     14  C   UNL     1      10.728   4.204  20.183  1.00  0.00     0.053 C 
BRANCH  14  15
ATOM     15  C   UNL     1       9.932   4.594  18.976  1.00  0.00     0.041 C 
ATOM     16  O   UNL     1       8.682   4.450  18.967  1.00  0.00    -0.550 OA
ATOM     17  O   UNL     1      10.577   5.087  17.848  1.00  0.00    -0.550 OA
ENDBRANCH  14  15
ENDBRANCH  13  14
ENDBRANCH  12  13
ENDBRANCH  11  12
ENDBRANCH  10  11
ENDBRANCH   9  10
ENDBRANCH   8   9
ENDBRANCH   7   8
ENDBRANCH   6   7
ENDBRANCH   5   6
ENDBRANCH   4   5
ENDBRANCH   3   4
ENDBRANCH   2   3
ENDBRANCH   1   2
BRANCH   1  18
ATOM     18  C   UNL     1      15.480  -1.345  31.444  1.00  0.00     0.000 C 
BRANCH  18  19
ATOM     19  C   UNL     1      16.374  -0.384  32.246  1.00  0.00     0.000 C 
BRANCH  19  20
ATOM     20  C   UNL     1      17.127  -1.088  33.388  1.00  0.00     0.000 C 
BRANCH  20  21
ATOM     21  C   UNL     1      16.937  -2.616  33.371  1.00  0.00     0.000 C 
BRANCH  21  22
ATOM     22  C   UNL     1      17.946  -3.357  34.274  1.00  0.00     0.000 C 
BRANCH  22  23
ATOM     23  C   UNL     1      17.588  -3.319  35.773  1.00  0.00     0.000 C 
BRANCH  23  24
ATOM     24  C   UNL     1      16.759  -4.513  36.283  1.00  0.00    -0.000 C 
BRANCH  24  25
ATOM     25  C   UNL     1      17.558  -5.597  37.032  1.00  0.00    -0.000 C 
BRANCH  25  26
ATOM     26  C   UNL     1      17.673  -6.951  36.308  1.00  0.00    -0.000 C 
BRANCH  26  27
ATOM     27  C   UNL     1      18.908  -7.075  35.392  1.00  0.00    -0.000 C 
BRANCH  27  28
ATOM     28  C   UNL     1      18.601  -6.738  33.924  1.00  0.00    -0.000 C 
BRANCH  28  29
ATOM     29  C   UNL     1      18.103  -7.980  33.166  1.00  0.00    -0.000 C 
BRANCH  29  30
ATOM     30  C   UNL     1      16.636  -7.860  32.721  1.00  0.00    -0.000 C 
BRANCH  30  31
ATOM     31  C   UNL     1      15.989  -6.535  33.155  1.00  0.00    -0.003 C 
ATOM     32  C   UNL     1      14.789  -6.783  34.065  1.00  0.00     0.004 C 
ENDBRANCH  30  31
ENDBRANCH  29  30
ENDBRANCH  28  29
ENDBRANCH  27  28
ENDBRANCH  26  27
ENDBRANCH  25  26
ENDBRANCH  24  25
ENDBRANCH  23  24
ENDBRANCH  22  23
ENDBRANCH  21  22
ENDBRANCH  20  21
ENDBRANCH  19  20
ENDBRANCH  18  19
ENDBRANCH   1  18
TORSDOF 28
ENDMDL
MODEL 7
REMARK VINA RESULT:    -5.307      1.098      2.893
REMARK INTER + INTRA:         -18.047
REMARK INTER:                 -14.970
REMARK INTRA:                  -3.078
REMARK UNBOUND:                -4.053
REMARK SMILES CCCCCCCCCCCCCCCCCCCCCCCCCCCCCC(=O)[O-]
REMARK SMILES IDX 16 1 17 2 18 3 19 4 20 5 21 6 22 7 23 8 24 9 25 10 26 11
REMARK SMILES IDX 27 12 28 13 29 14 30 15 31 16 32 17 15 18 14 19 13 20 12 21
REMARK SMILES IDX 11 22 10 23 9 24 8 25 7 26 6 27 5 28 4 29 3 30 2 31 1 32
REMARK H PARENT
REMARK Flexibility Score: inf
ROOT
ATOM      1  C   UNL     1      10.700   0.384  23.505  1.00  0.00     0.000 C 
ENDROOT
BRANCH   1   2
ATOM      2  C   UNL     1      11.360   1.639  22.909  1.00  0.00     0.000 C 
BRANCH   2   3
ATOM      3  C   UNL     1      10.380   2.504  22.096  1.00  0.00     0.000 C 
BRANCH   3   4
ATOM      4  C   UNL     1      10.331   2.202  20.583  1.00  0.00     0.000 C 
BRANCH   4   5
ATOM      5  C   UNL     1      10.246   3.439  19.670  1.00  0.00     0.000 C 
BRANCH   5   6
ATOM      6  C   UNL     1       8.974   3.455  18.807  1.00  0.00     0.000 C 
BRANCH   6   7
ATOM      7  C   UNL     1       7.960   4.521  19.259  1.00  0.00     0.000 C 
BRANCH   7   8
ATOM      8  C   UNL     1       8.294   5.967  18.839  1.00  0.00     0.000 C 
BRANCH   8   9
ATOM      9  C   UNL     1       8.649   6.153  17.351  1.00  0.00     0.000 C 
BRANCH   9  10
ATOM     10  C   UNL     1      10.111   6.551  17.079  1.00  0.00     0.000 C 
BRANCH  10  11
ATOM     11  C   UNL     1      10.668   7.519  18.137  1.00  0.00     0.000 C 
BRANCH  11  12
ATOM     12  C   UNL     1      11.943   6.992  18.817  1.00  0.00     0.000 C 
BRANCH  12  13
ATOM     13  C   UNL     1      11.775   6.600  20.300  1.00  0.00     0.006 C 
BRANCH  13  14
ATOM     14  C   UNL     1      11.572   7.788  21.254  1.00  0.00     0.053 C 
BRANCH  14  15
ATOM     15  C   UNL     1      12.830   8.581  21.434  1.00  0.00     0.041 C 
ATOM     16  O   UNL     1      13.671   8.655  20.501  1.00  0.00    -0.550 OA
ATOM     17  O   UNL     1      13.087   9.211  22.646  1.00  0.00    -0.550 OA
ENDBRANCH  14  15
ENDBRANCH  13  14
ENDBRANCH  12  13
ENDBRANCH  11  12
ENDBRANCH  10  11
ENDBRANCH   9  10
ENDBRANCH   8   9
ENDBRANCH   7   8
ENDBRANCH   6   7
ENDBRANCH   5   6
ENDBRANCH   4   5
ENDBRANCH   3   4
ENDBRANCH   2   3
ENDBRANCH   1   2
BRANCH   1  18
ATOM     18  C   UNL     1      10.221   0.609  24.950  1.00  0.00     0.000 C 
BRANCH  18  19
ATOM     19  C   UNL     1      11.162  -0.030  25.984  1.00  0.00     0.000 C 
BRANCH  19  20
ATOM     20  C   UNL     1      12.397  -0.682  25.339  1.00  0.00     0.000 C 
BRANCH  20  21
ATOM     21  C   UNL     1      13.055  -1.738  26.248  1.00  0.00     0.000 C 
BRANCH  21  22
ATOM     22  C   UNL     1      14.584  -1.827  26.058  1.00  0.00     0.000 C 
BRANCH  22  23
ATOM     23  C   UNL     1      15.350  -2.234  27.333  1.00  0.00     0.000 C 
BRANCH  23  24
ATOM     24  C   UNL     1      14.483  -2.406  28.595  1.00  0.00    -0.000 C 
BRANCH  24  25
ATOM     25  C   UNL     1      15.054  -1.771  29.877  1.00  0.00    -0.000 C 
BRANCH  25  26
ATOM     26  C   UNL     1      14.481  -0.388  30.241  1.00  0.00    -0.000 C 
BRANCH  26  27
ATOM     27  C   UNL     1      13.766   0.327  29.076  1.00  0.00    -0.000 C 
BRANCH  27  28
ATOM     28  C   UNL     1      14.611   1.449  28.453  1.00  0.00    -0.000 C 
BRANCH  28  29
ATOM     29  C   UNL     1      14.189   1.715  26.999  1.00  0.00    -0.000 C 
BRANCH  29  30
ATOM     30  C   UNL     1      15.359   1.613  26.008  1.00  0.00    -0.000 C 
BRANCH  30  31
ATOM     31  C   UNL     1      15.170   2.505  24.770  1.00  0.00    -0.003 C 
ATOM     32  C   UNL     1      13.800   3.177  24.783  1.00  0.00     0.004 C 
ENDBRANCH  30  31
ENDBRANCH  29  30
ENDBRANCH  28  29
ENDBRANCH  27  28
ENDBRANCH  26  27
ENDBRANCH  25  26
ENDBRANCH  24  25
ENDBRANCH  23  24
ENDBRANCH  22  23
ENDBRANCH  21  22
ENDBRANCH  20  21
ENDBRANCH  19  20
ENDBRANCH  18  19
ENDBRANCH   1  18
TORSDOF 28
ENDMDL
MODEL 8
REMARK VINA RESULT:    -5.251      4.856      8.303
REMARK INTER + INTRA:         -17.899
REMARK INTER:                 -15.893
REMARK INTRA:                  -2.006
REMARK UNBOUND:                -4.053
REMARK SMILES CCCCCCCCCCCCCCCCCCCCCCCCCCCCCC(=O)[O-]
REMARK SMILES IDX 16 1 17 2 18 3 19 4 20 5 21 6 22 7 23 8 24 9 25 10 26 11
REMARK SMILES IDX 27 12 28 13 29 14 30 15 31 16 32 17 15 18 14 19 13 20 12 21
REMARK SMILES IDX 11 22 10 23 9 24 8 25 7 26 6 27 5 28 4 29 3 30 2 31 1 32
REMARK H PARENT
REMARK Flexibility Score: inf
ROOT
ATOM      1  C   UNL     1      13.299   0.364  28.665  1.00  0.00     0.000 C 
ENDROOT
BRANCH   1   2
ATOM      2  C   UNL     1      14.002  -0.610  27.704  1.00  0.00     0.000 C 
BRANCH   2   3
ATOM      3  C   UNL     1      13.639  -0.364  26.229  1.00  0.00     0.000 C 
BRANCH   3   4
ATOM      4  C   UNL     1      13.657   1.113  25.782  1.00  0.00     0.000 C 
BRANCH   4   5
ATOM      5  C   UNL     1      12.463   1.550  24.914  1.00  0.00     0.000 C 
BRANCH   5   6
ATOM      6  C   UNL     1      11.572   0.372  24.490  1.00  0.00     0.000 C 
BRANCH   6   7
ATOM      7  C   UNL     1      10.833   0.629  23.164  1.00  0.00     0.000 C 
BRANCH   7   8
ATOM      8  C   UNL     1      10.939   2.069  22.621  1.00  0.00     0.000 C 
BRANCH   8   9
ATOM      9  C   UNL     1      10.306   2.296  21.234  1.00  0.00     0.000 C 
BRANCH   9  10
ATOM     10  C   UNL     1      10.146   3.772  20.829  1.00  0.00     0.000 C 
BRANCH  10  11
ATOM     11  C   UNL     1      11.323   4.645  21.295  1.00  0.00     0.000 C 
BRANCH  11  12
ATOM     12  C   UNL     1      11.954   5.457  20.151  1.00  0.00     0.000 C 
BRANCH  12  13
ATOM     13  C   UNL     1      11.471   6.919  20.047  1.00  0.00     0.006 C 
BRANCH  13  14
ATOM     14  C   UNL     1      11.685   7.753  21.320  1.00  0.00     0.053 C 
BRANCH  14  15
ATOM     15  C   UNL     1      13.057   8.351  21.373  1.00  0.00     0.041 C 
ATOM     16  O   UNL     1      13.646   8.490  22.476  1.00  0.00    -0.550 OA
ATOM     17  O   UNL     1      13.671   8.786  20.204  1.00  0.00    -0.550 OA
ENDBRANCH  14  15
ENDBRANCH  13  14
ENDBRANCH  12  13
ENDBRANCH  11  12
ENDBRANCH  10  11
ENDBRANCH   9  10
ENDBRANCH   8   9
ENDBRANCH   7   8
ENDBRANCH   6   7
ENDBRANCH   5   6
ENDBRANCH   4   5
ENDBRANCH   3   4
ENDBRANCH   2   3
ENDBRANCH   1   2
BRANCH   1  18
ATOM     18  C   UNL     1      13.654   0.088  30.136  1.00  0.00     0.000 C 
BRANCH  18  19
ATOM     19  C   UNL     1      14.778  -0.952  30.281  1.00  0.00     0.000 C 
BRANCH  19  20
ATOM     20  C   UNL     1      15.660  -0.705  31.516  1.00  0.00     0.000 C 
BRANCH  20  21
ATOM     21  C   UNL     1      16.029  -2.006  32.253  1.00  0.00     0.000 C 
BRANCH  21  22
ATOM     22  C   UNL     1      17.077  -1.791  33.365  1.00  0.00     0.000 C 
BRANCH  22  23
ATOM     23  C   UNL     1      17.596  -3.099  33.996  1.00  0.00     0.000 C 
BRANCH  23  24
ATOM     24  C   UNL     1      18.008  -2.997  35.477  1.00  0.00    -0.000 C 
BRANCH  24  25
ATOM     25  C   UNL     1      17.102  -3.756  36.465  1.00  0.00    -0.000 C 
BRANCH  25  26
ATOM     26  C   UNL     1      17.026  -5.281  36.255  1.00  0.00    -0.000 C 
BRANCH  26  27
ATOM     27  C   UNL     1      18.190  -6.066  36.894  1.00  0.00    -0.000 C 
BRANCH  27  28
ATOM     28  C   UNL     1      18.915  -6.982  35.895  1.00  0.00    -0.000 C 
BRANCH  28  29
ATOM     29  C   UNL     1      18.670  -6.522  34.449  1.00  0.00    -0.000 C 
BRANCH  29  30
ATOM     30  C   UNL     1      18.029  -7.611  33.575  1.00  0.00    -0.000 C 
BRANCH  30  31
ATOM     31  C   UNL     1      16.717  -7.152  32.919  1.00  0.00    -0.003 C 
ATOM     32  C   UNL     1      15.512  -7.534  33.774  1.00  0.00     0.004 C 
ENDBRANCH  30  31
ENDBRANCH  29  30
ENDBRANCH  28  29
ENDBRANCH  27  28
ENDBRANCH  26  27
ENDBRANCH  25  26
ENDBRANCH  24  25
ENDBRANCH  23  24
ENDBRANCH  22  23
ENDBRANCH  21  22
ENDBRANCH  20  21
ENDBRANCH  19  20
ENDBRANCH  18  19
ENDBRANCH   1  18
TORSDOF 28
ENDMDL
MODEL 9
REMARK VINA RESULT:    -5.246      6.945     15.017
REMARK INTER + INTRA:         -17.885
REMARK INTER:                 -15.888
REMARK INTRA:                  -1.997
REMARK UNBOUND:                -4.053
REMARK SMILES CCCCCCCCCCCCCCCCCCCCCCCCCCCCCC(=O)[O-]
REMARK SMILES IDX 16 1 17 2 18 3 19 4 20 5 21 6 22 7 23 8 24 9 25 10 26 11
REMARK SMILES IDX 27 12 28 13 29 14 30 15 31 16 32 17 15 18 14 19 13 20 12 21
REMARK SMILES IDX 11 22 10 23 9 24 8 25 7 26 6 27 5 28 4 29 3 30 2 31 1 32
REMARK H PARENT
REMARK Flexibility Score: inf
ROOT
ATOM      1  C   UNL     1      13.467   0.388  29.002  1.00  0.00     0.000 C 
ENDROOT
BRANCH   1   2
ATOM      2  C   UNL     1      13.807   0.000  30.452  1.00  0.00     0.000 C 
BRANCH   2   3
ATOM      3  C   UNL     1      15.038  -0.917  30.555  1.00  0.00     0.000 C 
BRANCH   3   4
ATOM      4  C   UNL     1      15.872  -0.760  31.844  1.00  0.00     0.000 C 
BRANCH   4   5
ATOM      5  C   UNL     1      16.224  -2.076  32.562  1.00  0.00     0.000 C 
BRANCH   5   6
ATOM      6  C   UNL     1      17.312  -1.897  33.634  1.00  0.00     0.000 C 
BRANCH   6   7
ATOM      7  C   UNL     1      17.956  -3.228  34.059  1.00  0.00     0.000 C 
BRANCH   7   8
ATOM      8  C   UNL     1      18.043  -3.460  35.582  1.00  0.00     0.000 C 
BRANCH   8   9
ATOM      9  C   UNL     1      16.815  -4.144  36.213  1.00  0.00     0.000 C 
BRANCH   9  10
ATOM     10  C   UNL     1      17.039  -5.602  36.650  1.00  0.00     0.000 C 
BRANCH  10  11
ATOM     11  C   UNL     1      18.515  -6.026  36.563  1.00  0.00     0.000 C 
BRANCH  11  12
ATOM     12  C   UNL     1      18.741  -7.209  35.606  1.00  0.00     0.000 C 
BRANCH  12  13
ATOM     13  C   UNL     1      18.788  -6.835  34.109  1.00  0.00     0.006 C 
BRANCH  13  14
ATOM     14  C   UNL     1      18.085  -7.838  33.180  1.00  0.00     0.053 C 
BRANCH  14  15
ATOM     15  C   UNL     1      16.650  -7.476  32.951  1.00  0.00     0.041 C 
ATOM     16  O   UNL     1      15.869  -8.297  32.403  1.00  0.00    -0.550 OA
ATOM     17  O   UNL     1      16.184  -6.217  33.313  1.00  0.00    -0.550 OA
ENDBRANCH  14  15
ENDBRANCH  13  14
ENDBRANCH  12  13
ENDBRANCH  11  12
ENDBRANCH  10  11
ENDBRANCH   9  10
ENDBRANCH   8   9
ENDBRANCH   7   8
ENDBRANCH   6   7
ENDBRANCH   5   6
ENDBRANCH   4   5
ENDBRANCH   3   4
ENDBRANCH   2   3
ENDBRANCH   1   2
BRANCH   1  18
ATOM     18  C   UNL     1      14.235  -0.465  27.978  1.00  0.00     0.000 C 
BRANCH  18  19
ATOM     19  C   UNL     1      13.375  -0.823  26.754  1.00  0.00     0.000 C 
BRANCH  19  20
ATOM     20  C   UNL     1      12.452   0.329  26.320  1.00  0.00     0.000 C 
BRANCH  20  21
ATOM     21  C   UNL     1      10.977  -0.100  26.214  1.00  0.00     0.000 C 
BRANCH  21  22
ATOM     22  C   UNL     1      10.284   0.435  24.943  1.00  0.00     0.000 C 
BRANCH  22  23
ATOM     23  C   UNL     1      11.262   0.818  23.813  1.00  0.00     0.000 C 
BRANCH  23  24
ATOM     24  C   UNL     1      10.604   1.189  22.471  1.00  0.00    -0.000 C 
BRANCH  24  25
ATOM     25  C   UNL     1      10.595   2.692  22.134  1.00  0.00    -0.000 C 
BRANCH  25  26
ATOM     26  C   UNL     1      10.556   3.032  20.632  1.00  0.00    -0.000 C 
BRANCH  26  27
ATOM     27  C   UNL     1       9.381   3.944  20.221  1.00  0.00    -0.000 C 
BRANCH  27  28
ATOM     28  C   UNL     1       9.163   5.114  21.193  1.00  0.00    -0.000 C 
BRANCH  28  29
ATOM     29  C   UNL     1       9.635   6.440  20.575  1.00  0.00    -0.000 C 
BRANCH  29  30
ATOM     30  C   UNL     1      10.466   7.292  21.547  1.00  0.00    -0.000 C 
BRANCH  30  31
ATOM     31  C   UNL     1      11.866   7.620  21.004  1.00  0.00    -0.003 C 
ATOM     32  C   UNL     1      11.974   7.276  19.521  1.00  0.00     0.004 C 
ENDBRANCH  30  31
ENDBRANCH  29  30
ENDBRANCH  28  29
ENDBRANCH  27  28
ENDBRANCH  26  27
ENDBRANCH  25  26
ENDBRANCH  24  25
ENDBRANCH  23  24
ENDBRANCH  22  23
ENDBRANCH  21  22
ENDBRANCH  20  21
ENDBRANCH  19  20
ENDBRANCH  18  19
ENDBRANCH   1  18
TORSDOF 28
ENDMDL
