MODEL 1
REMARK VINA RESULT:    -4.511      0.000      0.000
REMARK INTER + INTRA:          -5.805
REMARK INTER:                  -5.566
REMARK INTRA:                  -0.239
REMARK UNBOUND:                -0.239
REMARK SMILES CCCCC=CC(C)=O
REMARK SMILES IDX 4 1 3 2 2 3 1 4 5 5 6 6 7 7 9 8 8 9
REMARK H PARENT
REMARK Flexibility Score: inf
ROOT
ATOM      1  C   UNL     1     -13.266 -33.885  32.201  1.00  0.00     0.027 C 
ENDROOT
BRANCH   1   2
ATOM      2  C   UNL     1     -13.998 -33.187  31.048  1.00  0.00     0.004 C 
BRANCH   2   3
ATOM      3  C   UNL     1     -15.091 -32.231  31.549  1.00  0.00    -0.003 C 
ATOM      4  C   UNL     1     -15.731 -32.751  32.833  1.00  0.00     0.004 C 
ENDBRANCH   2   3
ENDBRANCH   1   2
BRANCH   1   5
ATOM      5  C   UNL     1     -13.176 -35.369  31.980  1.00  0.00    -0.023 C 
ATOM      6  C   UNL     1     -13.094 -35.891  30.751  1.00  0.00     0.042 C 
BRANCH   6   7
ATOM      7  C   UNL     1     -12.969 -37.341  30.517  1.00  0.00     0.152 C 
ATOM      8  O   UNL     1     -13.159 -37.828  29.368  1.00  0.00    -0.295 OA
ATOM      9  C   UNL     1     -12.612 -38.247  31.651  1.00  0.00     0.093 C 
ENDBRANCH   6   7
ENDBRANCH   1   5
TORSDOF 4
ENDMDL
MODEL 2
REMARK VINA RESULT:    -4.402      3.073      3.594
REMARK INTER + INTRA:          -5.670
REMARK INTER:                  -5.508
REMARK INTRA:                  -0.162
REMARK UNBOUND:                -0.239
REMARK SMILES CCCCC=CC(C)=O
REMARK SMILES IDX 4 1 3 2 2 3 1 4 5 5 6 6 7 7 9 8 8 9
REMARK H PARENT
REMARK Flexibility Score: inf
ROOT
ATOM      1  C   UNL     1     -12.441 -33.553  30.761  1.00  0.00     0.027 C 
ENDROOT
BRANCH   1   2
ATOM      2  C   UNL     1     -13.860 -33.842  31.268  1.00  0.00     0.004 C 
BRANCH   2   3
ATOM      3  C   UNL     1     -14.676 -32.556  31.470  1.00  0.00    -0.003 C 
ATOM      4  C   UNL     1     -15.488 -32.616  32.760  1.00  0.00     0.004 C 
ENDBRANCH   2   3
ENDBRANCH   1   2
BRANCH   1   5
ATOM      5  C   UNL     1     -12.408 -33.399  29.267  1.00  0.00    -0.023 C 
ATOM      6  C   UNL     1     -12.927 -34.326  28.455  1.00  0.00     0.042 C 
BRANCH   6   7
ATOM      7  C   UNL     1     -12.937 -34.174  26.988  1.00  0.00     0.152 C 
ATOM      8  O   UNL     1     -13.942 -33.693  26.396  1.00  0.00    -0.295 OA
ATOM      9  C   UNL     1     -11.743 -34.593  26.192  1.00  0.00     0.093 C 
ENDBRANCH   6   7
ENDBRANCH   1   5
TORSDOF 4
ENDMDL
MODEL 3
REMARK VINA RESULT:    -4.365      3.144      4.876
REMARK INTER + INTRA:          -5.625
REMARK INTER:                  -5.424
REMARK INTRA:                  -0.201
REMARK UNBOUND:                -0.239
REMARK SMILES CCCCC=CC(C)=O
REMARK SMILES IDX 4 1 3 2 2 3 1 4 5 5 6 6 7 7 9 8 8 9
REMARK H PARENT
REMARK Flexibility Score: inf
ROOT
ATOM      1  C   UNL     1     -12.289 -33.329  28.727  1.00  0.00     0.027 C 
ENDROOT
BRANCH   1   2
ATOM      2  C   UNL     1     -13.484 -33.234  27.770  1.00  0.00     0.004 C 
BRANCH   2   3
ATOM      3  C   UNL     1     -13.262 -34.043  26.482  1.00  0.00    -0.003 C 
ATOM      4  C   UNL     1     -11.844 -34.602  26.422  1.00  0.00     0.004 C 
ENDBRANCH   2   3
ENDBRANCH   1   2
BRANCH   1   5
ATOM      5  C   UNL     1     -12.731 -33.605  30.136  1.00  0.00    -0.023 C 
ATOM      6  C   UNL     1     -13.888 -33.134  30.613  1.00  0.00     0.042 C 
BRANCH   6   7
ATOM      7  C   UNL     1     -14.354 -33.425  31.982  1.00  0.00     0.152 C 
ATOM      8  O   UNL     1     -14.174 -34.563  32.496  1.00  0.00    -0.295 OA
ATOM      9  C   UNL     1     -15.047 -32.361  32.770  1.00  0.00     0.093 C 
ENDBRANCH   6   7
ENDBRANCH   1   5
TORSDOF 4
ENDMDL
MODEL 4
REMARK VINA RESULT:    -4.358      3.010      4.612
REMARK INTER + INTRA:          -5.616
REMARK INTER:                  -5.410
REMARK INTRA:                  -0.206
REMARK UNBOUND:                -0.239
REMARK SMILES CCCCC=CC(C)=O
REMARK SMILES IDX 4 1 3 2 2 3 1 4 5 5 6 6 7 7 9 8 8 9
REMARK H PARENT
REMARK Flexibility Score: inf
ROOT
ATOM      1  C   UNL     1     -13.563 -32.705  28.373  1.00  0.00     0.027 C 
ENDROOT
BRANCH   1   2
ATOM      2  C   UNL     1     -13.618 -33.578  27.113  1.00  0.00     0.004 C 
BRANCH   2   3
ATOM      3  C   UNL     1     -12.659 -34.776  27.196  1.00  0.00    -0.003 C 
ATOM      4  C   UNL     1     -11.592 -34.704  26.108  1.00  0.00     0.004 C 
ENDBRANCH   2   3
ENDBRANCH   1   2
BRANCH   1   5
ATOM      5  C   UNL     1     -13.026 -33.468  29.551  1.00  0.00    -0.023 C 
ATOM      6  C   UNL     1     -13.688 -33.525  30.711  1.00  0.00     0.042 C 
BRANCH   6   7
ATOM      7  C   UNL     1     -13.193 -34.298  31.865  1.00  0.00     0.152 C 
ATOM      8  O   UNL     1     -13.646 -35.449  32.113  1.00  0.00    -0.295 OA
ATOM      9  C   UNL     1     -12.143 -33.713  32.753  1.00  0.00     0.093 C 
ENDBRANCH   6   7
ENDBRANCH   1   5
TORSDOF 4
ENDMDL
MODEL 5
REMARK VINA RESULT:    -4.277      2.993      4.195
REMARK INTER + INTRA:          -5.516
REMARK INTER:                  -5.247
REMARK INTRA:                  -0.269
REMARK UNBOUND:                -0.239
REMARK SMILES CCCCC=CC(C)=O
REMARK SMILES IDX 4 1 3 2 2 3 1 4 5 5 6 6 7 7 9 8 8 9
REMARK H PARENT
REMARK Flexibility Score: inf
ROOT
ATOM      1  C   UNL     1     -13.434 -33.506  30.756  1.00  0.00     0.027 C 
ENDROOT
BRANCH   1   2
ATOM      2  C   UNL     1     -12.581 -34.636  31.348  1.00  0.00     0.004 C 
BRANCH   2   3
ATOM      3  C   UNL     1     -13.441 -35.746  31.971  1.00  0.00    -0.003 C 
ATOM      4  C   UNL     1     -13.355 -37.032  31.155  1.00  0.00     0.004 C 
ENDBRANCH   2   3
ENDBRANCH   1   2
BRANCH   1   5
ATOM      5  C   UNL     1     -13.186 -33.340  29.284  1.00  0.00    -0.023 C 
ATOM      6  C   UNL     1     -13.260 -34.374  28.439  1.00  0.00     0.042 C 
BRANCH   6   7
ATOM      7  C   UNL     1     -13.056 -34.222  26.987  1.00  0.00     0.152 C 
ATOM      8  O   UNL     1     -13.962 -33.740  26.254  1.00  0.00    -0.295 OA
ATOM      9  C   UNL     1     -11.759 -34.645  26.373  1.00  0.00     0.093 C 
ENDBRANCH   6   7
ENDBRANCH   1   5
TORSDOF 4
ENDMDL
MODEL 6
REMARK VINA RESULT:    -4.230      3.073      4.821
REMARK INTER + INTRA:          -5.458
REMARK INTER:                  -5.191
REMARK INTRA:                  -0.267
REMARK UNBOUND:                -0.239
REMARK SMILES CCCCC=CC(C)=O
REMARK SMILES IDX 4 1 3 2 2 3 1 4 5 5 6 6 7 7 9 8 8 9
REMARK H PARENT
REMARK Flexibility Score: inf
ROOT
ATOM      1  C   UNL     1     -13.249 -37.546  29.324  1.00  0.00     0.027 C 
ENDROOT
BRANCH   1   2
ATOM      2  C   UNL     1     -13.472 -37.560  30.842  1.00  0.00     0.004 C 
BRANCH   2   3
ATOM      3  C   UNL     1     -12.150 -37.615  31.622  1.00  0.00    -0.003 C 
ATOM      4  C   UNL     1     -11.586 -36.216  31.848  1.00  0.00     0.004 C 
ENDBRANCH   2   3
ENDBRANCH   1   2
BRANCH   1   5
ATOM      5  C   UNL     1     -13.628 -36.222  28.723  1.00  0.00    -0.023 C 
ATOM      6  C   UNL     1     -12.708 -35.384  28.234  1.00  0.00     0.042 C 
BRANCH   6   7
ATOM      7  C   UNL     1     -13.065 -34.097  27.608  1.00  0.00     0.152 C 
ATOM      8  O   UNL     1     -13.196 -34.003  26.357  1.00  0.00    -0.295 OA
ATOM      9  C   UNL     1     -13.274 -32.890  28.464  1.00  0.00     0.093 C 
ENDBRANCH   6   7
ENDBRANCH   1   5
TORSDOF 4
ENDMDL
MODEL 7
REMARK VINA RESULT:    -4.228      2.378      4.819
REMARK INTER + INTRA:          -5.455
REMARK INTER:                  -5.212
REMARK INTRA:                  -0.243
REMARK UNBOUND:                -0.239
REMARK SMILES CCCCC=CC(C)=O
REMARK SMILES IDX 4 1 3 2 2 3 1 4 5 5 6 6 7 7 9 8 8 9
REMARK H PARENT
REMARK Flexibility Score: inf
ROOT
ATOM      1  C   UNL     1     -12.471 -35.263  30.036  1.00  0.00     0.027 C 
ENDROOT
BRANCH   1   2
ATOM      2  C   UNL     1     -13.281 -36.211  29.142  1.00  0.00     0.004 C 
BRANCH   2   3
ATOM      3  C   UNL     1     -13.557 -37.559  29.827  1.00  0.00    -0.003 C 
ATOM      4  C   UNL     1     -13.108 -37.538  31.284  1.00  0.00     0.004 C 
ENDBRANCH   2   3
ENDBRANCH   1   2
BRANCH   1   5
ATOM      5  C   UNL     1     -13.223 -33.993  30.317  1.00  0.00    -0.023 C 
ATOM      6  C   UNL     1     -13.969 -33.848  31.417  1.00  0.00     0.042 C 
BRANCH   6   7
ATOM      7  C   UNL     1     -14.684 -32.597  31.727  1.00  0.00     0.152 C 
ATOM      8  O   UNL     1     -15.138 -31.867  30.803  1.00  0.00    -0.295 OA
ATOM      9  C   UNL     1     -14.875 -32.185  33.151  1.00  0.00     0.093 C 
ENDBRANCH   6   7
ENDBRANCH   1   5
TORSDOF 4
ENDMDL
MODEL 8
REMARK VINA RESULT:    -4.131      2.253      3.026
REMARK INTER + INTRA:          -5.335
REMARK INTER:                  -5.050
REMARK INTRA:                  -0.285
REMARK UNBOUND:                -0.239
REMARK SMILES CCCCC=CC(C)=O
REMARK SMILES IDX 4 1 3 2 2 3 1 4 5 5 6 6 7 7 9 8 8 9
REMARK H PARENT
REMARK Flexibility Score: inf
ROOT
ATOM      1  C   UNL     1     -12.722 -33.521  30.383  1.00  0.00     0.027 C 
ENDROOT
BRANCH   1   2
ATOM      2  C   UNL     1     -12.376 -33.149  28.935  1.00  0.00     0.004 C 
BRANCH   2   3
ATOM      3  C   UNL     1     -13.617 -32.728  28.133  1.00  0.00    -0.003 C 
ATOM      4  C   UNL     1     -13.807 -33.614  26.906  1.00  0.00     0.004 C 
ENDBRANCH   2   3
ENDBRANCH   1   2
BRANCH   1   5
ATOM      5  C   UNL     1     -13.313 -34.900  30.472  1.00  0.00    -0.023 C 
ATOM      6  C   UNL     1     -12.853 -35.910  29.727  1.00  0.00     0.042 C 
BRANCH   6   7
ATOM      7  C   UNL     1     -13.397 -37.277  29.827  1.00  0.00     0.152 C 
ATOM      8  O   UNL     1     -13.201 -37.975  30.860  1.00  0.00    -0.295 OA
ATOM      9  C   UNL     1     -14.190 -37.844  28.694  1.00  0.00     0.093 C 
ENDBRANCH   6   7
ENDBRANCH   1   5
TORSDOF 4
ENDMDL
MODEL 9
REMARK VINA RESULT:    -4.098      2.734      3.384
REMARK INTER + INTRA:          -5.295
REMARK INTER:                  -5.100
REMARK INTRA:                  -0.195
REMARK UNBOUND:                -0.239
REMARK SMILES CCCCC=CC(C)=O
REMARK SMILES IDX 4 1 3 2 2 3 1 4 5 5 6 6 7 7 9 8 8 9
REMARK H PARENT
REMARK Flexibility Score: inf
ROOT
ATOM      1  C   UNL     1     -11.935 -33.871  31.236  1.00  0.00     0.027 C 
ENDROOT
BRANCH   1   2
ATOM      2  C   UNL     1     -13.090 -33.795  32.243  1.00  0.00     0.004 C 
BRANCH   2   3
ATOM      3  C   UNL     1     -14.337 -33.128  31.644  1.00  0.00    -0.003 C 
ATOM      4  C   UNL     1     -15.130 -32.382  32.713  1.00  0.00     0.004 C 
ENDBRANCH   2   3
ENDBRANCH   1   2
BRANCH   1   5
ATOM      5  C   UNL     1     -12.414 -34.298  29.877  1.00  0.00    -0.023 C 
ATOM      6  C   UNL     1     -11.842 -33.844  28.757  1.00  0.00     0.042 C 
BRANCH   6   7
ATOM      7  C   UNL     1     -12.276 -34.280  27.417  1.00  0.00     0.152 C 
ATOM      8  O   UNL     1     -11.524 -34.990  26.694  1.00  0.00    -0.295 OA
ATOM      9  C   UNL     1     -13.622 -33.876  26.906  1.00  0.00     0.093 C 
ENDBRANCH   6   7
ENDBRANCH   1   5
TORSDOF 4
ENDMDL
