MODEL 1
REMARK VINA RESULT:    -3.947      0.000      0.000
REMARK INTER + INTRA:         -13.354
REMARK INTER:                  -9.023
REMARK INTRA:                  -4.331
REMARK UNBOUND:                -4.331
REMARK SMILES CCCCCCCCCCCCCCCCCCCCCCCC(=O)[O-]
REMARK SMILES IDX 13 1 14 2 15 3 16 4 17 5 18 6 19 7 20 8 21 9 22 10 23 11
REMARK SMILES IDX 24 12 25 13 26 14 12 15 11 16 10 17 9 18 8 19 7 20 6 21 5 22
REMARK SMILES IDX 4 23 3 24 2 25 1 26
REMARK H PARENT
REMARK Flexibility Score: inf
ROOT
ATOM      1  C   UNL     1       1.401   4.247   7.988  1.00  0.00     0.000 C 
ENDROOT
BRANCH   1   2
ATOM      2  C   UNL     1       2.562   5.196   8.336  1.00  0.00     0.000 C 
BRANCH   2   3
ATOM      3  C   UNL     1       3.455   4.745   9.511  1.00  0.00     0.000 C 
BRANCH   3   4
ATOM      4  C   UNL     1       4.895   4.357   9.129  1.00  0.00     0.000 C 
BRANCH   4   5
ATOM      5  C   UNL     1       5.406   5.111   7.890  1.00  0.00     0.000 C 
BRANCH   5   6
ATOM      6  C   UNL     1       6.926   5.349   7.922  1.00  0.00     0.000 C 
BRANCH   6   7
ATOM      7  C   UNL     1       7.724   4.358   8.791  1.00  0.00     0.000 C 
BRANCH   7   8
ATOM      8  C   UNL     1       8.667   3.442   7.984  1.00  0.00     0.000 C 
BRANCH   8   9
ATOM      9  C   UNL     1       8.536   1.964   8.394  1.00  0.00     0.000 C 
BRANCH   9  10
ATOM     10  C   UNL     1       7.522   1.751   9.528  1.00  0.00     0.006 C 
BRANCH  10  11
ATOM     11  C   UNL     1       6.279   0.967   9.074  1.00  0.00     0.053 C 
BRANCH  11  12
ATOM     12  C   UNL     1       5.923  -0.146  10.019  1.00  0.00     0.041 C 
ATOM     13  O   UNL     1       4.789  -0.696   9.985  1.00  0.00    -0.550 OA
ATOM     14  O   UNL     1       6.886  -0.628  10.900  1.00  0.00    -0.550 OA
ENDBRANCH  11  12
ENDBRANCH  10  11
ENDBRANCH   9  10
ENDBRANCH   8   9
ENDBRANCH   7   8
ENDBRANCH   6   7
ENDBRANCH   5   6
ENDBRANCH   4   5
ENDBRANCH   3   4
ENDBRANCH   2   3
ENDBRANCH   1   2
BRANCH   1  15
ATOM     15  C   UNL     1       1.659   2.798   8.431  1.00  0.00     0.000 C 
BRANCH  15  16
ATOM     16  C   UNL     1       2.370   1.962   7.351  1.00  0.00     0.000 C 
BRANCH  16  17
ATOM     17  C   UNL     1       1.646   1.890   5.994  1.00  0.00     0.000 C 
BRANCH  17  18
ATOM     18  C   UNL     1       2.561   2.247   4.810  1.00  0.00    -0.000 C 
BRANCH  18  19
ATOM     19  C   UNL     1       3.560   3.369   5.142  1.00  0.00    -0.000 C 
BRANCH  19  20
ATOM     20  C   UNL     1       5.027   3.092   4.752  1.00  0.00    -0.000 C 
BRANCH  20  21
ATOM     21  C   UNL     1       5.822   2.223   5.744  1.00  0.00    -0.000 C 
BRANCH  21  22
ATOM     22  C   UNL     1       7.045   1.547   5.103  1.00  0.00    -0.000 C 
BRANCH  22  23
ATOM     23  C   UNL     1       7.293   2.007   3.655  1.00  0.00    -0.000 C 
BRANCH  23  24
ATOM     24  C   UNL     1       8.652   2.688   3.411  1.00  0.00    -0.000 C 
BRANCH  24  25
ATOM     25  C   UNL     1       8.955   3.800   4.426  1.00  0.00    -0.003 C 
ATOM     26  C   UNL     1       8.176   5.070   4.096  1.00  0.00     0.004 C 
ENDBRANCH  24  25
ENDBRANCH  23  24
ENDBRANCH  22  23
ENDBRANCH  21  22
ENDBRANCH  20  21
ENDBRANCH  19  20
ENDBRANCH  18  19
ENDBRANCH  17  18
ENDBRANCH  16  17
ENDBRANCH  15  16
ENDBRANCH   1  15
TORSDOF 22
ENDMDL
MODEL 2
REMARK VINA RESULT:    -3.911     10.815     14.581
REMARK INTER + INTRA:         -13.272
REMARK INTER:                  -9.448
REMARK INTRA:                  -3.824
REMARK UNBOUND:                -4.331
REMARK SMILES CCCCCCCCCCCCCCCCCCCCCCCC(=O)[O-]
REMARK SMILES IDX 13 1 14 2 15 3 16 4 17 5 18 6 19 7 20 8 21 9 22 10 23 11
REMARK SMILES IDX 24 12 25 13 26 14 12 15 11 16 10 17 9 18 8 19 7 20 6 21 5 22
REMARK SMILES IDX 4 23 3 24 2 25 1 26
REMARK H PARENT
REMARK Flexibility Score: inf
ROOT
ATOM      1  C   UNL     1      -9.079  -1.353  11.076  1.00  0.00     0.000 C 
ENDROOT
BRANCH   1   2
ATOM      2  C   UNL     1     -10.032  -2.541  10.847  1.00  0.00     0.000 C 
BRANCH   2   3
ATOM      3  C   UNL     1      -9.959  -3.187   9.448  1.00  0.00     0.000 C 
BRANCH   3   4
ATOM      4  C   UNL     1      -8.565  -3.686   9.028  1.00  0.00     0.000 C 
BRANCH   4   5
ATOM      5  C   UNL     1      -8.243  -3.382   7.555  1.00  0.00     0.000 C 
BRANCH   5   6
ATOM      6  C   UNL     1      -9.324  -2.525   6.873  1.00  0.00     0.000 C 
BRANCH   6   7
ATOM      7  C   UNL     1      -8.815  -1.217   6.236  1.00  0.00     0.000 C 
BRANCH   7   8
ATOM      8  C   UNL     1      -9.030  -1.143   4.710  1.00  0.00     0.000 C 
BRANCH   8   9
ATOM      9  C   UNL     1      -7.738  -1.430   3.924  1.00  0.00     0.000 C 
BRANCH   9  10
ATOM     10  C   UNL     1      -7.824  -2.720   3.094  1.00  0.00     0.006 C 
BRANCH  10  11
ATOM     11  C   UNL     1      -7.352  -3.960   3.872  1.00  0.00     0.053 C 
BRANCH  11  12
ATOM     12  C   UNL     1      -8.476  -4.906   4.185  1.00  0.00     0.041 C 
ATOM     13  O   UNL     1      -8.303  -5.902   4.939  1.00  0.00    -0.550 OA
ATOM     14  O   UNL     1      -9.749  -4.642   3.691  1.00  0.00    -0.550 OA
ENDBRANCH  11  12
ENDBRANCH  10  11
ENDBRANCH   9  10
ENDBRANCH   8   9
ENDBRANCH   7   8
ENDBRANCH   6   7
ENDBRANCH   5   6
ENDBRANCH   4   5
ENDBRANCH   3   4
ENDBRANCH   2   3
ENDBRANCH   1   2
BRANCH   1  15
ATOM     15  C   UNL     1      -9.459  -0.113  10.249  1.00  0.00     0.000 C 
BRANCH  15  16
ATOM     16  C   UNL     1      -8.263   0.478   9.479  1.00  0.00     0.000 C 
BRANCH  16  17
ATOM     17  C   UNL     1      -6.915  -0.224   9.720  1.00  0.00     0.000 C 
BRANCH  17  18
ATOM     18  C   UNL     1      -6.046  -0.298   8.452  1.00  0.00    -0.000 C 
BRANCH  18  19
ATOM     19  C   UNL     1      -4.731  -1.066   8.672  1.00  0.00    -0.000 C 
BRANCH  19  20
ATOM     20  C   UNL     1      -4.764  -2.563   8.299  1.00  0.00    -0.000 C 
BRANCH  20  21
ATOM     21  C   UNL     1      -5.009  -3.532   9.469  1.00  0.00    -0.000 C 
BRANCH  21  22
ATOM     22  C   UNL     1      -4.209  -4.839   9.345  1.00  0.00    -0.000 C 
BRANCH  22  23
ATOM     23  C   UNL     1      -3.243  -4.837   8.145  1.00  0.00    -0.000 C 
BRANCH  23  24
ATOM     24  C   UNL     1      -1.752  -4.944   8.509  1.00  0.00    -0.000 C 
BRANCH  24  25
ATOM     25  C   UNL     1      -1.040  -3.584   8.525  1.00  0.00    -0.003 C 
ATOM     26  C   UNL     1      -1.236  -2.877   9.862  1.00  0.00     0.004 C 
ENDBRANCH  24  25
ENDBRANCH  23  24
ENDBRANCH  22  23
ENDBRANCH  21  22
ENDBRANCH  20  21
ENDBRANCH  19  20
ENDBRANCH  18  19
ENDBRANCH  17  18
ENDBRANCH  16  17
ENDBRANCH  15  16
ENDBRANCH   1  15
TORSDOF 22
ENDMDL
MODEL 3
REMARK VINA RESULT:    -3.910      8.657     12.112
REMARK INTER + INTRA:         -13.271
REMARK INTER:                  -8.853
REMARK INTRA:                  -4.417
REMARK UNBOUND:                -4.331
REMARK SMILES CCCCCCCCCCCCCCCCCCCCCCCC(=O)[O-]
REMARK SMILES IDX 13 1 14 2 15 3 16 4 17 5 18 6 19 7 20 8 21 9 22 10 23 11
REMARK SMILES IDX 24 12 25 13 26 14 12 15 11 16 10 17 9 18 8 19 7 20 6 21 5 22
REMARK SMILES IDX 4 23 3 24 2 25 1 26
REMARK H PARENT
REMARK Flexibility Score: inf
ROOT
ATOM      1  C   UNL     1      -5.896   0.065   9.066  1.00  0.00     0.000 C 
ENDROOT
BRANCH   1   2
ATOM      2  C   UNL     1      -5.069  -1.036   9.756  1.00  0.00     0.000 C 
BRANCH   2   3
ATOM      3  C   UNL     1      -4.868  -2.326   8.934  1.00  0.00     0.000 C 
BRANCH   3   4
ATOM      4  C   UNL     1      -4.450  -3.564   9.748  1.00  0.00     0.000 C 
BRANCH   4   5
ATOM      5  C   UNL     1      -4.317  -4.827   8.882  1.00  0.00     0.000 C 
BRANCH   5   6
ATOM      6  C   UNL     1      -3.129  -4.757   7.905  1.00  0.00     0.000 C 
BRANCH   6   7
ATOM      7  C   UNL     1      -1.737  -4.837   8.562  1.00  0.00     0.000 C 
BRANCH   7   8
ATOM      8  C   UNL     1      -0.954  -3.509   8.525  1.00  0.00     0.000 C 
BRANCH   8   9
ATOM      9  C   UNL     1      -0.705  -2.939   9.933  1.00  0.00     0.000 C 
BRANCH   9  10
ATOM     10  C   UNL     1      -1.339  -1.554  10.133  1.00  0.00     0.006 C 
BRANCH  10  11
ATOM     11  C   UNL     1      -1.010  -0.579   8.991  1.00  0.00     0.053 C 
BRANCH  11  12
ATOM     12  C   UNL     1      -1.513   0.812   9.258  1.00  0.00     0.041 C 
ATOM     13  O   UNL     1      -0.823   1.644   9.906  1.00  0.00    -0.550 OA
ATOM     14  O   UNL     1      -2.732   1.213   8.720  1.00  0.00    -0.550 OA
ENDBRANCH  11  12
ENDBRANCH  10  11
ENDBRANCH   9  10
ENDBRANCH   8   9
ENDBRANCH   7   8
ENDBRANCH   6   7
ENDBRANCH   5   6
ENDBRANCH   4   5
ENDBRANCH   3   4
ENDBRANCH   2   3
ENDBRANCH   1   2
BRANCH   1  15
ATOM     15  C   UNL     1      -6.764  -0.472   7.916  1.00  0.00     0.000 C 
BRANCH  15  16
ATOM     16  C   UNL     1      -8.272  -0.376   8.213  1.00  0.00     0.000 C 
BRANCH  16  17
ATOM     17  C   UNL     1      -8.764  -1.233   9.393  1.00  0.00     0.000 C 
BRANCH  17  18
ATOM     18  C   UNL     1      -9.264  -2.621   8.955  1.00  0.00    -0.000 C 
BRANCH  18  19
ATOM     19  C   UNL     1      -8.193  -3.717   9.103  1.00  0.00    -0.000 C 
BRANCH  19  20
ATOM     20  C   UNL     1      -7.777  -4.421   7.795  1.00  0.00    -0.000 C 
BRANCH  20  21
ATOM     21  C   UNL     1      -8.203  -3.712   6.497  1.00  0.00    -0.000 C 
BRANCH  21  22
ATOM     22  C   UNL     1      -7.247  -3.981   5.324  1.00  0.00    -0.000 C 
BRANCH  22  23
ATOM     23  C   UNL     1      -6.331  -2.784   5.011  1.00  0.00    -0.000 C 
BRANCH  23  24
ATOM     24  C   UNL     1      -4.921  -2.865   5.624  1.00  0.00    -0.000 C 
BRANCH  24  25
ATOM     25  C   UNL     1      -3.929  -1.890   4.975  1.00  0.00    -0.003 C 
ATOM     26  C   UNL     1      -2.732  -1.636   5.887  1.00  0.00     0.004 C 
ENDBRANCH  24  25
ENDBRANCH  23  24
ENDBRANCH  22  23
ENDBRANCH  21  22
ENDBRANCH  20  21
ENDBRANCH  19  20
ENDBRANCH  18  19
ENDBRANCH  17  18
ENDBRANCH  16  17
ENDBRANCH  15  16
ENDBRANCH   1  15
TORSDOF 22
ENDMDL
MODEL 4
REMARK VINA RESULT:    -3.908      9.108     12.932
REMARK INTER + INTRA:         -13.266
REMARK INTER:                  -8.648
REMARK INTRA:                  -4.618
REMARK UNBOUND:                -4.331
REMARK SMILES CCCCCCCCCCCCCCCCCCCCCCCC(=O)[O-]
REMARK SMILES IDX 13 1 14 2 15 3 16 4 17 5 18 6 19 7 20 8 21 9 22 10 23 11
REMARK SMILES IDX 24 12 25 13 26 14 12 15 11 16 10 17 9 18 8 19 7 20 6 21 5 22
REMARK SMILES IDX 4 23 3 24 2 25 1 26
REMARK H PARENT
REMARK Flexibility Score: inf
ROOT
ATOM      1  C   UNL     1      -5.979  -1.119   8.834  1.00  0.00     0.000 C 
ENDROOT
BRANCH   1   2
ATOM      2  C   UNL     1      -7.345  -1.705   9.239  1.00  0.00     0.000 C 
BRANCH   2   3
ATOM      3  C   UNL     1      -8.478  -1.517   8.209  1.00  0.00     0.000 C 
BRANCH   3   4
ATOM      4  C   UNL     1      -9.068  -2.818   7.638  1.00  0.00     0.000 C 
BRANCH   4   5
ATOM      5  C   UNL     1      -8.313  -4.072   8.110  1.00  0.00     0.000 C 
BRANCH   5   6
ATOM      6  C   UNL     1      -7.608  -4.812   6.959  1.00  0.00     0.000 C 
BRANCH   6   7
ATOM      7  C   UNL     1      -7.520  -4.027   5.635  1.00  0.00     0.000 C 
BRANCH   7   8
ATOM      8  C   UNL     1      -6.153  -3.352   5.401  1.00  0.00     0.000 C 
BRANCH   8   9
ATOM      9  C   UNL     1      -6.295  -1.891   4.941  1.00  0.00     0.000 C 
BRANCH   9  10
ATOM     10  C   UNL     1      -5.923  -1.695   3.464  1.00  0.00     0.006 C 
BRANCH  10  11
ATOM     11  C   UNL     1      -4.508  -2.201   3.135  1.00  0.00     0.053 C 
BRANCH  11  12
ATOM     12  C   UNL     1      -3.450  -1.168   3.401  1.00  0.00     0.041 C 
ATOM     13  O   UNL     1      -2.689  -1.254   4.403  1.00  0.00    -0.550 OA
ATOM     14  O   UNL     1      -3.258  -0.136   2.489  1.00  0.00    -0.550 OA
ENDBRANCH  11  12
ENDBRANCH  10  11
ENDBRANCH   9  10
ENDBRANCH   8   9
ENDBRANCH   7   8
ENDBRANCH   6   7
ENDBRANCH   5   6
ENDBRANCH   4   5
ENDBRANCH   3   4
ENDBRANCH   2   3
ENDBRANCH   1   2
BRANCH   1  15
ATOM     15  C   UNL     1      -4.949  -2.200   8.468  1.00  0.00     0.000 C 
BRANCH  15  16
ATOM     16  C   UNL     1      -4.961  -3.390   9.447  1.00  0.00     0.000 C 
BRANCH  16  17
ATOM     17  C   UNL     1      -4.474  -4.727   8.860  1.00  0.00     0.000 C 
BRANCH  17  18
ATOM     18  C   UNL     1      -3.283  -4.559   7.900  1.00  0.00    -0.000 C 
BRANCH  18  19
ATOM     19  C   UNL     1      -1.924  -4.785   8.587  1.00  0.00    -0.000 C 
BRANCH  19  20
ATOM     20  C   UNL     1      -0.936  -3.602   8.511  1.00  0.00    -0.000 C 
BRANCH  20  21
ATOM     21  C   UNL     1      -1.364  -2.439   7.597  1.00  0.00    -0.000 C 
BRANCH  21  22
ATOM     22  C   UNL     1      -1.496  -1.104   8.347  1.00  0.00    -0.000 C 
BRANCH  22  23
ATOM     23  C   UNL     1      -1.388  -1.262   9.875  1.00  0.00    -0.000 C 
BRANCH  23  24
ATOM     24  C   UNL     1      -2.600  -0.746  10.671  1.00  0.00    -0.000 C 
BRANCH  24  25
ATOM     25  C   UNL     1      -2.829  -1.515  11.980  1.00  0.00    -0.003 C 
ATOM     26  C   UNL     1      -2.353  -2.959  11.858  1.00  0.00     0.004 C 
ENDBRANCH  24  25
ENDBRANCH  23  24
ENDBRANCH  22  23
ENDBRANCH  21  22
ENDBRANCH  20  21
ENDBRANCH  19  20
ENDBRANCH  18  19
ENDBRANCH  17  18
ENDBRANCH  16  17
ENDBRANCH  15  16
ENDBRANCH   1  15
TORSDOF 22
ENDMDL
MODEL 5
REMARK VINA RESULT:    -3.904     10.133     13.218
REMARK INTER + INTRA:         -13.257
REMARK INTER:                  -8.513
REMARK INTRA:                  -4.744
REMARK UNBOUND:                -4.331
REMARK SMILES CCCCCCCCCCCCCCCCCCCCCCCC(=O)[O-]
REMARK SMILES IDX 13 1 14 2 15 3 16 4 17 5 18 6 19 7 20 8 21 9 22 10 23 11
REMARK SMILES IDX 24 12 25 13 26 14 12 15 11 16 10 17 9 18 8 19 7 20 6 21 5 22
REMARK SMILES IDX 4 23 3 24 2 25 1 26
REMARK H PARENT
REMARK Flexibility Score: inf
ROOT
ATOM      1  C   UNL     1      -6.750  -3.524   9.076  1.00  0.00     0.000 C 
ENDROOT
BRANCH   1   2
ATOM      2  C   UNL     1      -5.614  -4.375   8.478  1.00  0.00     0.000 C 
BRANCH   2   3
ATOM      3  C   UNL     1      -4.531  -4.830   9.478  1.00  0.00     0.000 C 
BRANCH   3   4
ATOM      4  C   UNL     1      -3.081  -4.687   8.985  1.00  0.00     0.000 C 
BRANCH   4   5
ATOM      5  C   UNL     1      -2.992  -4.150   7.547  1.00  0.00     0.000 C 
BRANCH   5   6
ATOM      6  C   UNL     1      -2.357  -2.750   7.472  1.00  0.00     0.000 C 
BRANCH   6   7
ATOM      7  C   UNL     1      -3.350  -1.594   7.241  1.00  0.00     0.000 C 
BRANCH   7   8
ATOM      8  C   UNL     1      -3.382  -0.562   8.387  1.00  0.00     0.000 C 
BRANCH   8   9
ATOM      9  C   UNL     1      -4.279  -1.012   9.553  1.00  0.00     0.000 C 
BRANCH   9  10
ATOM     10  C   UNL     1      -3.475  -1.421  10.797  1.00  0.00     0.006 C 
BRANCH  10  11
ATOM     11  C   UNL     1      -2.902  -0.213  11.558  1.00  0.00     0.053 C 
BRANCH  11  12
ATOM     12  C   UNL     1      -3.951   0.809  11.891  1.00  0.00     0.041 C 
ATOM     13  O   UNL     1      -3.921   1.966  11.391  1.00  0.00    -0.550 OA
ATOM     14  O   UNL     1      -5.017   0.451  12.711  1.00  0.00    -0.550 OA
ENDBRANCH  11  12
ENDBRANCH  10  11
ENDBRANCH   9  10
ENDBRANCH   8   9
ENDBRANCH   7   8
ENDBRANCH   6   7
ENDBRANCH   5   6
ENDBRANCH   4   5
ENDBRANCH   3   4
ENDBRANCH   2   3
ENDBRANCH   1   2
BRANCH   1  15
ATOM     15  C   UNL     1      -8.145  -4.105   8.794  1.00  0.00     0.000 C 
BRANCH  15  16
ATOM     16  C   UNL     1      -9.271  -3.073   8.992  1.00  0.00     0.000 C 
BRANCH  16  17
ATOM     17  C   UNL     1      -9.196  -2.262  10.298  1.00  0.00     0.000 C 
BRANCH  17  18
ATOM     18  C   UNL     1      -9.255  -0.742  10.061  1.00  0.00    -0.000 C 
BRANCH  18  19
ATOM     19  C   UNL     1      -7.863  -0.108   9.895  1.00  0.00    -0.000 C 
BRANCH  19  20
ATOM     20  C   UNL     1      -7.503   0.344   8.464  1.00  0.00    -0.000 C 
BRANCH  20  21
ATOM     21  C   UNL     1      -8.631   0.214   7.426  1.00  0.00    -0.000 C 
BRANCH  21  22
ATOM     22  C   UNL     1      -8.293  -0.767   6.292  1.00  0.00    -0.000 C 
BRANCH  22  23
ATOM     23  C   UNL     1      -6.828  -1.237   6.324  1.00  0.00    -0.000 C 
BRANCH  23  24
ATOM     24  C   UNL     1      -6.505  -2.429   5.406  1.00  0.00    -0.000 C 
BRANCH  24  25
ATOM     25  C   UNL     1      -7.762  -3.108   4.842  1.00  0.00    -0.003 C 
ATOM     26  C   UNL     1      -7.829  -4.574   5.261  1.00  0.00     0.004 C 
ENDBRANCH  24  25
ENDBRANCH  23  24
ENDBRANCH  22  23
ENDBRANCH  21  22
ENDBRANCH  20  21
ENDBRANCH  19  20
ENDBRANCH  18  19
ENDBRANCH  17  18
ENDBRANCH  16  17
ENDBRANCH  15  16
ENDBRANCH   1  15
TORSDOF 22
ENDMDL
MODEL 6
REMARK VINA RESULT:    -3.891      8.906     12.262
REMARK INTER + INTRA:         -13.227
REMARK INTER:                  -8.522
REMARK INTRA:                  -4.705
REMARK UNBOUND:                -4.331
REMARK SMILES CCCCCCCCCCCCCCCCCCCCCCCC(=O)[O-]
REMARK SMILES IDX 13 1 14 2 15 3 16 4 17 5 18 6 19 7 20 8 21 9 22 10 23 11
REMARK SMILES IDX 24 12 25 13 26 14 12 15 11 16 10 17 9 18 8 19 7 20 6 21 5 22
REMARK SMILES IDX 4 23 3 24 2 25 1 26
REMARK H PARENT
REMARK Flexibility Score: inf
ROOT
ATOM      1  C   UNL     1      -8.214  -0.340   8.137  1.00  0.00     0.000 C 
ENDROOT
BRANCH   1   2
ATOM      2  C   UNL     1      -6.698  -0.304   7.868  1.00  0.00     0.000 C 
BRANCH   2   3
ATOM      3  C   UNL     1      -5.818   0.059   9.082  1.00  0.00     0.000 C 
BRANCH   3   4
ATOM      4  C   UNL     1      -4.830  -1.033   9.527  1.00  0.00     0.000 C 
BRANCH   4   5
ATOM      5  C   UNL     1      -4.907  -2.297   8.654  1.00  0.00     0.000 C 
BRANCH   5   6
ATOM      6  C   UNL     1      -4.810  -3.595   9.475  1.00  0.00     0.000 C 
BRANCH   6   7
ATOM      7  C   UNL     1      -4.460  -4.857   8.662  1.00  0.00     0.000 C 
BRANCH   7   8
ATOM      8  C   UNL     1      -3.143  -4.740   7.866  1.00  0.00     0.000 C 
BRANCH   8   9
ATOM      9  C   UNL     1      -1.907  -4.735   8.783  1.00  0.00     0.000 C 
BRANCH   9  10
ATOM     10  C   UNL     1      -1.108  -3.426   8.693  1.00  0.00     0.006 C 
BRANCH  10  11
ATOM     11  C   UNL     1      -1.326  -2.513   9.911  1.00  0.00     0.053 C 
BRANCH  11  12
ATOM     12  C   UNL     1      -0.844  -1.110   9.672  1.00  0.00     0.041 C 
ATOM     13  O   UNL     1      -1.446  -0.338   8.877  1.00  0.00    -0.550 OA
ATOM     14  O   UNL     1       0.243  -0.628  10.394  1.00  0.00    -0.550 OA
ENDBRANCH  11  12
ENDBRANCH  10  11
ENDBRANCH   9  10
ENDBRANCH   8   9
ENDBRANCH   7   8
ENDBRANCH   6   7
ENDBRANCH   5   6
ENDBRANCH   4   5
ENDBRANCH   3   4
ENDBRANCH   2   3
ENDBRANCH   1   2
BRANCH   1  15
ATOM     15  C   UNL     1      -8.553  -0.654   9.604  1.00  0.00     0.000 C 
BRANCH  15  16
ATOM     16  C   UNL     1      -8.712  -2.163   9.869  1.00  0.00     0.000 C 
BRANCH  16  17
ATOM     17  C   UNL     1      -9.206  -2.991   8.669  1.00  0.00     0.000 C 
BRANCH  17  18
ATOM     18  C   UNL     1      -8.241  -4.129   8.292  1.00  0.00    -0.000 C 
BRANCH  18  19
ATOM     19  C   UNL     1      -7.652  -3.970   6.878  1.00  0.00    -0.000 C 
BRANCH  19  20
ATOM     20  C   UNL     1      -8.637  -3.472   5.800  1.00  0.00    -0.000 C 
BRANCH  20  21
ATOM     21  C   UNL     1      -8.177  -2.238   5.003  1.00  0.00    -0.000 C 
BRANCH  21  22
ATOM     22  C   UNL     1      -6.962  -2.522   4.105  1.00  0.00    -0.000 C 
BRANCH  22  23
ATOM     23  C   UNL     1      -5.662  -1.894   4.641  1.00  0.00    -0.000 C 
BRANCH  23  24
ATOM     24  C   UNL     1      -4.588  -2.902   5.088  1.00  0.00    -0.000 C 
BRANCH  24  25
ATOM     25  C   UNL     1      -3.164  -2.462   4.722  1.00  0.00    -0.003 C 
ATOM     26  C   UNL     1      -2.565  -1.577   5.812  1.00  0.00     0.004 C 
ENDBRANCH  24  25
ENDBRANCH  23  24
ENDBRANCH  22  23
ENDBRANCH  21  22
ENDBRANCH  20  21
ENDBRANCH  19  20
ENDBRANCH  18  19
ENDBRANCH  17  18
ENDBRANCH  16  17
ENDBRANCH  15  16
ENDBRANCH   1  15
TORSDOF 22
ENDMDL
MODEL 7
REMARK VINA RESULT:    -3.885     10.020     13.606
REMARK INTER + INTRA:         -13.214
REMARK INTER:                  -8.965
REMARK INTRA:                  -4.249
REMARK UNBOUND:                -4.331
REMARK SMILES CCCCCCCCCCCCCCCCCCCCCCCC(=O)[O-]
REMARK SMILES IDX 13 1 14 2 15 3 16 4 17 5 18 6 19 7 20 8 21 9 22 10 23 11
REMARK SMILES IDX 24 12 25 13 26 14 12 15 11 16 10 17 9 18 8 19 7 20 6 21 5 22
REMARK SMILES IDX 4 23 3 24 2 25 1 26
REMARK H PARENT
REMARK Flexibility Score: inf
ROOT
ATOM      1  C   UNL     1      -5.760  -4.842   8.327  1.00  0.00     0.000 C 
ENDROOT
BRANCH   1   2
ATOM      2  C   UNL     1      -7.225  -5.027   8.764  1.00  0.00     0.000 C 
BRANCH   2   3
ATOM      3  C   UNL     1      -8.185  -3.889   8.361  1.00  0.00     0.000 C 
BRANCH   3   4
ATOM      4  C   UNL     1      -8.695  -3.017   9.522  1.00  0.00     0.000 C 
BRANCH   4   5
ATOM      5  C   UNL     1      -8.553  -1.512   9.244  1.00  0.00     0.000 C 
BRANCH   5   6
ATOM      6  C   UNL     1      -7.199  -1.148   8.608  1.00  0.00     0.000 C 
BRANCH   6   7
ATOM      7  C   UNL     1      -7.273  -0.129   7.454  1.00  0.00     0.000 C 
BRANCH   7   8
ATOM      8  C   UNL     1      -7.029  -0.746   6.061  1.00  0.00     0.000 C 
BRANCH   8   9
ATOM      9  C   UNL     1      -5.942  -1.835   6.088  1.00  0.00     0.000 C 
BRANCH   9  10
ATOM     10  C   UNL     1      -6.352  -3.102   5.322  1.00  0.00     0.006 C 
BRANCH  10  11
ATOM     11  C   UNL     1      -7.630  -2.906   4.489  1.00  0.00     0.053 C 
BRANCH  11  12
ATOM     12  C   UNL     1      -8.649  -3.982   4.735  1.00  0.00     0.041 C 
ATOM     13  O   UNL     1      -9.884  -3.752   4.621  1.00  0.00    -0.550 OA
ATOM     14  O   UNL     1      -8.222  -5.273   5.026  1.00  0.00    -0.550 OA
ENDBRANCH  11  12
ENDBRANCH  10  11
ENDBRANCH   9  10
ENDBRANCH   8   9
ENDBRANCH   7   8
ENDBRANCH   6   7
ENDBRANCH   5   6
ENDBRANCH   4   5
ENDBRANCH   3   4
ENDBRANCH   2   3
ENDBRANCH   1   2
BRANCH   1  15
ATOM     15  C   UNL     1      -4.962  -3.935   9.278  1.00  0.00     0.000 C 
BRANCH  15  16
ATOM     16  C   UNL     1      -3.586  -4.522   9.646  1.00  0.00     0.000 C 
BRANCH  16  17
ATOM     17  C   UNL     1      -2.640  -4.770   8.457  1.00  0.00     0.000 C 
BRANCH  17  18
ATOM     18  C   UNL     1      -1.615  -3.639   8.264  1.00  0.00    -0.000 C 
BRANCH  18  19
ATOM     19  C   UNL     1      -2.114  -2.537   7.312  1.00  0.00    -0.000 C 
BRANCH  19  20
ATOM     20  C   UNL     1      -2.161  -1.114   7.908  1.00  0.00    -0.000 C 
BRANCH  20  21
ATOM     21  C   UNL     1      -3.481  -0.729   8.600  1.00  0.00    -0.000 C 
BRANCH  21  22
ATOM     22  C   UNL     1      -3.371  -0.706  10.133  1.00  0.00    -0.000 C 
BRANCH  22  23
ATOM     23  C   UNL     1      -1.918  -0.816  10.630  1.00  0.00    -0.000 C 
BRANCH  23  24
ATOM     24  C   UNL     1      -1.647  -1.985  11.594  1.00  0.00    -0.000 C 
BRANCH  24  25
ATOM     25  C   UNL     1      -2.552  -1.962  12.834  1.00  0.00    -0.003 C 
ATOM     26  C   UNL     1      -2.507  -3.297  13.571  1.00  0.00     0.004 C 
ENDBRANCH  24  25
ENDBRANCH  23  24
ENDBRANCH  22  23
ENDBRANCH  21  22
ENDBRANCH  20  21
ENDBRANCH  19  20
ENDBRANCH  18  19
ENDBRANCH  17  18
ENDBRANCH  16  17
ENDBRANCH  15  16
ENDBRANCH   1  15
TORSDOF 22
ENDMDL
MODEL 8
REMARK VINA RESULT:    -3.885     10.288     13.453
REMARK INTER + INTRA:         -13.213
REMARK INTER:                  -8.773
REMARK INTRA:                  -4.440
REMARK UNBOUND:                -4.331
REMARK SMILES CCCCCCCCCCCCCCCCCCCCCCCC(=O)[O-]
REMARK SMILES IDX 13 1 14 2 15 3 16 4 17 5 18 6 19 7 20 8 21 9 22 10 23 11
REMARK SMILES IDX 24 12 25 13 26 14 12 15 11 16 10 17 9 18 8 19 7 20 6 21 5 22
REMARK SMILES IDX 4 23 3 24 2 25 1 26
REMARK H PARENT
REMARK Flexibility Score: inf
ROOT
ATOM      1  C   UNL     1      -5.843  -4.857   8.698  1.00  0.00     0.000 C 
ENDROOT
BRANCH   1   2
ATOM      2  C   UNL     1      -4.472  -5.048   9.374  1.00  0.00     0.000 C 
BRANCH   2   3
ATOM      3  C   UNL     1      -3.848  -3.772   9.977  1.00  0.00     0.000 C 
BRANCH   3   4
ATOM      4  C   UNL     1      -2.379  -3.518   9.597  1.00  0.00     0.000 C 
BRANCH   4   5
ATOM      5  C   UNL     1      -2.139  -3.571   8.079  1.00  0.00     0.000 C 
BRANCH   5   6
ATOM      6  C   UNL     1      -1.935  -2.177   7.459  1.00  0.00     0.000 C 
BRANCH   6   7
ATOM      7  C   UNL     1      -2.834  -1.863   6.247  1.00  0.00     0.000 C 
BRANCH   7   8
ATOM      8  C   UNL     1      -4.344  -1.958   6.550  1.00  0.00     0.000 C 
BRANCH   8   9
ATOM      9  C   UNL     1      -5.069  -2.929   5.601  1.00  0.00     0.000 C 
BRANCH   9  10
ATOM     10  C   UNL     1      -6.594  -2.750   5.623  1.00  0.00     0.006 C 
BRANCH  10  11
ATOM     11  C   UNL     1      -7.350  -4.059   5.336  1.00  0.00     0.053 C 
BRANCH  11  12
ATOM     12  C   UNL     1      -8.764  -3.821   4.888  1.00  0.00     0.041 C 
ATOM     13  O   UNL     1      -9.376  -4.664   4.177  1.00  0.00    -0.550 OA
ATOM     14  O   UNL     1      -9.437  -2.684   5.324  1.00  0.00    -0.550 OA
ENDBRANCH  11  12
ENDBRANCH  10  11
ENDBRANCH   9  10
ENDBRANCH   8   9
ENDBRANCH   7   8
ENDBRANCH   6   7
ENDBRANCH   5   6
ENDBRANCH   4   5
ENDBRANCH   3   4
ENDBRANCH   2   3
ENDBRANCH   1   2
BRANCH   1  15
ATOM     15  C   UNL     1      -6.536  -3.547   9.110  1.00  0.00     0.000 C 
BRANCH  15  16
ATOM     16  C   UNL     1      -8.070  -3.626   9.001  1.00  0.00     0.000 C 
BRANCH  16  17
ATOM     17  C   UNL     1      -8.826  -2.367   9.462  1.00  0.00     0.000 C 
BRANCH  17  18
ATOM     18  C   UNL     1      -8.767  -1.225   8.432  1.00  0.00    -0.000 C 
BRANCH  18  19
ATOM     19  C   UNL     1      -8.718   0.168   9.085  1.00  0.00    -0.000 C 
BRANCH  19  20
ATOM     20  C   UNL     1      -7.447   0.475   9.905  1.00  0.00    -0.000 C 
BRANCH  20  21
ATOM     21  C   UNL     1      -6.117   0.332   9.143  1.00  0.00    -0.000 C 
BRANCH  21  22
ATOM     22  C   UNL     1      -5.049  -0.435   9.939  1.00  0.00    -0.000 C 
BRANCH  22  23
ATOM     23  C   UNL     1      -3.627   0.111   9.712  1.00  0.00    -0.000 C 
BRANCH  23  24
ATOM     24  C   UNL     1      -2.666  -0.060  10.901  1.00  0.00    -0.000 C 
BRANCH  24  25
ATOM     25  C   UNL     1      -3.386  -0.434  12.205  1.00  0.00    -0.003 C 
ATOM     26  C   UNL     1      -2.757  -1.669  12.844  1.00  0.00     0.004 C 
ENDBRANCH  24  25
ENDBRANCH  23  24
ENDBRANCH  22  23
ENDBRANCH  21  22
ENDBRANCH  20  21
ENDBRANCH  19  20
ENDBRANCH  18  19
ENDBRANCH  17  18
ENDBRANCH  16  17
ENDBRANCH  15  16
ENDBRANCH   1  15
TORSDOF 22
ENDMDL
MODEL 9
REMARK VINA RESULT:    -3.859      1.971      5.351
REMARK INTER + INTRA:         -13.154
REMARK INTER:                  -8.966
REMARK INTRA:                  -4.189
REMARK UNBOUND:                -4.331
REMARK SMILES CCCCCCCCCCCCCCCCCCCCCCCC(=O)[O-]
REMARK SMILES IDX 13 1 14 2 15 3 16 4 17 5 18 6 19 7 20 8 21 9 22 10 23 11
REMARK SMILES IDX 24 12 25 13 26 14 12 15 11 16 10 17 9 18 8 19 7 20 6 21 5 22
REMARK SMILES IDX 4 23 3 24 2 25 1 26
REMARK H PARENT
REMARK Flexibility Score: inf
ROOT
ATOM      1  C   UNL     1       8.999   1.472   9.779  1.00  0.00     0.000 C 
ENDROOT
BRANCH   1   2
ATOM      2  C   UNL     1       7.573   0.913   9.617  1.00  0.00     0.000 C 
BRANCH   2   3
ATOM      3  C   UNL     1       7.091   0.744   8.161  1.00  0.00     0.000 C 
BRANCH   3   4
ATOM      4  C   UNL     1       5.817   1.526   7.796  1.00  0.00     0.000 C 
BRANCH   4   5
ATOM      5  C   UNL     1       5.601   2.760   8.688  1.00  0.00     0.000 C 
BRANCH   5   6
ATOM      6  C   UNL     1       5.532   4.071   7.885  1.00  0.00     0.000 C 
BRANCH   6   7
ATOM      7  C   UNL     1       5.060   5.302   8.685  1.00  0.00     0.000 C 
BRANCH   7   8
ATOM      8  C   UNL     1       3.716   5.093   9.415  1.00  0.00     0.000 C 
BRANCH   8   9
ATOM      9  C   UNL     1       2.516   5.553   8.570  1.00  0.00     0.000 C 
BRANCH   9  10
ATOM     10  C   UNL     1       1.809   4.389   7.860  1.00  0.00     0.006 C 
BRANCH  10  11
ATOM     11  C   UNL     1       1.660   3.148   8.756  1.00  0.00     0.053 C 
BRANCH  11  12
ATOM     12  C   UNL     1       2.115   1.888   8.075  1.00  0.00     0.041 C 
ATOM     13  O   UNL     1       2.161   0.790   8.693  1.00  0.00    -0.550 OA
ATOM     14  O   UNL     1       2.425   1.917   6.719  1.00  0.00    -0.550 OA
ENDBRANCH  11  12
ENDBRANCH  10  11
ENDBRANCH   9  10
ENDBRANCH   8   9
ENDBRANCH   7   8
ENDBRANCH   6   7
ENDBRANCH   5   6
ENDBRANCH   4   5
ENDBRANCH   3   4
ENDBRANCH   2   3
ENDBRANCH   1   2
BRANCH   1  15
ATOM     15  C   UNL     1       9.018   2.926  10.279  1.00  0.00     0.000 C 
BRANCH  15  16
ATOM     16  C   UNL     1       9.090   3.950   9.130  1.00  0.00     0.000 C 
BRANCH  16  17
ATOM     17  C   UNL     1       9.661   3.411   7.806  1.00  0.00     0.000 C 
BRANCH  17  18
ATOM     18  C   UNL     1       8.736   3.678   6.606  1.00  0.00    -0.000 C 
BRANCH  18  19
ATOM     19  C   UNL     1       9.334   3.197   5.271  1.00  0.00    -0.000 C 
BRANCH  19  20
ATOM     20  C   UNL     1       8.330   3.044   4.109  1.00  0.00    -0.000 C 
BRANCH  20  21
ATOM     21  C   UNL     1       6.867   2.807   4.525  1.00  0.00    -0.000 C 
BRANCH  21  22
ATOM     22  C   UNL     1       6.351   1.412   4.140  1.00  0.00    -0.000 C 
BRANCH  22  23
ATOM     23  C   UNL     1       7.435   0.532   3.490  1.00  0.00    -0.000 C 
BRANCH  23  24
ATOM     24  C   UNL     1       7.609  -0.860   4.122  1.00  0.00    -0.000 C 
BRANCH  24  25
ATOM     25  C   UNL     1       8.691  -0.893   5.211  1.00  0.00    -0.003 C 
ATOM     26  C   UNL     1      10.068  -0.594   4.626  1.00  0.00     0.004 C 
ENDBRANCH  24  25
ENDBRANCH  23  24
ENDBRANCH  22  23
ENDBRANCH  21  22
ENDBRANCH  20  21
ENDBRANCH  19  20
ENDBRANCH  18  19
ENDBRANCH  17  18
ENDBRANCH  16  17
ENDBRANCH  15  16
ENDBRANCH   1  15
TORSDOF 22
ENDMDL
