MODEL 1
REMARK VINA RESULT:    -5.154      0.000      0.000
REMARK INTER + INTRA:          -6.972
REMARK INTER:                  -6.359
REMARK INTRA:                  -0.614
REMARK UNBOUND:                -0.614
REMARK SMILES C=C(CCC=C(C)C)[C@@H]1CC=C(C)CC1
REMARK SMILES IDX 3 1 2 2 1 3 9 4 13 5 12 6 11 7 14 8 10 9 15 10 4 11 5 12
REMARK SMILES IDX 6 13 7 14 8 15
REMARK H PARENT
REMARK Flexibility Score: inf
ROOT
ATOM      1  C   UNL     1       6.232  18.801  22.928  1.00  0.00     0.035 C 
ENDROOT
BRANCH   1   2
ATOM      2  C   UNL     1       6.775  19.686  24.029  1.00  0.00    -0.074 C 
ATOM      3  C   UNL     1       6.170  20.862  24.281  1.00  0.00     0.008 C 
BRANCH   2   4
ATOM      4  C   UNL     1       7.987  19.232  24.831  1.00  0.00     0.018 C 
ATOM      5  C   UNL     1      11.344  18.893  27.617  1.00  0.00     0.039 C 
ATOM      6  C   UNL     1      10.178  19.155  26.705  1.00  0.00    -0.077 C 
ATOM      7  C   UNL     1       8.927  18.928  27.160  1.00  0.00    -0.027 C 
ATOM      8  C   UNL     1      10.448  19.539  25.262  1.00  0.00     0.031 C 
ATOM      9  C   UNL     1       7.691  19.211  26.341  1.00  0.00     0.035 C 
ATOM     10  C   UNL     1       9.216  20.111  24.552  1.00  0.00     0.013 C 
ENDBRANCH   2   4
ENDBRANCH   1   2
BRANCH   1  11
ATOM     11  C   UNL     1       5.773  19.642  21.732  1.00  0.00     0.032 C 
BRANCH  11  12
ATOM     12  C   UNL     1       4.398  19.228  21.266  1.00  0.00    -0.028 C 
ATOM     13  C   UNL     1       3.357  20.083  21.198  1.00  0.00    -0.080 C 
ATOM     14  C   UNL     1       3.499  21.534  21.591  1.00  0.00     0.039 C 
ATOM     15  C   UNL     1       2.025  19.566  20.718  1.00  0.00     0.039 C 
ENDBRANCH  11  12
ENDBRANCH   1  11
TORSDOF 4
ENDMDL
MODEL 2
REMARK VINA RESULT:    -5.101     15.618     17.357
REMARK INTER + INTRA:          -6.907
REMARK INTER:                  -6.284
REMARK INTRA:                  -0.623
REMARK UNBOUND:                -0.614
REMARK SMILES C=C(CCC=C(C)C)[C@@H]1CC=C(C)CC1
REMARK SMILES IDX 3 1 2 2 1 3 9 4 13 5 12 6 11 7 14 8 10 9 15 10 4 11 5 12
REMARK SMILES IDX 6 13 7 14 8 15
REMARK H PARENT
REMARK Flexibility Score: inf
ROOT
ATOM      1  C   UNL     1      15.304  15.291  36.223  1.00  0.00     0.035 C 
ENDROOT
BRANCH   1   2
ATOM      2  C   UNL     1      14.482  14.126  36.728  1.00  0.00    -0.074 C 
ATOM      3  C   UNL     1      14.832  12.875  36.375  1.00  0.00     0.008 C 
BRANCH   2   4
ATOM      4  C   UNL     1      13.279  14.387  37.625  1.00  0.00     0.018 C 
ATOM      5  C   UNL     1       9.366  15.452  39.269  1.00  0.00     0.039 C 
ATOM      6  C   UNL     1      10.664  15.149  38.573  1.00  0.00    -0.077 C 
ATOM      7  C   UNL     1      10.804  13.966  37.935  1.00  0.00    -0.027 C 
ATOM      8  C   UNL     1      11.820  16.120  38.721  1.00  0.00     0.031 C 
ATOM      9  C   UNL     1      12.045  13.592  37.162  1.00  0.00     0.035 C 
ATOM     10  C   UNL     1      12.938  15.883  37.700  1.00  0.00     0.013 C 
ENDBRANCH   2   4
ENDBRANCH   1   2
BRANCH   1  11
ATOM     11  C   UNL     1      16.594  15.439  37.039  1.00  0.00     0.032 C 
BRANCH  11  12
ATOM     12  C   UNL     1      16.573  16.699  37.871  1.00  0.00    -0.028 C 
ATOM     13  C   UNL     1      17.533  17.002  38.770  1.00  0.00    -0.080 C 
ATOM     14  C   UNL     1      18.709  16.086  39.009  1.00  0.00     0.039 C 
ATOM     15  C   UNL     1      17.416  18.287  39.548  1.00  0.00     0.039 C 
ENDBRANCH  11  12
ENDBRANCH   1  11
TORSDOF 4
ENDMDL
MODEL 3
REMARK VINA RESULT:    -5.037     15.208     17.346
REMARK INTER + INTRA:          -6.829
REMARK INTER:                  -6.408
REMARK INTRA:                  -0.420
REMARK UNBOUND:                -0.614
REMARK SMILES C=C(CCC=C(C)C)[C@@H]1CC=C(C)CC1
REMARK SMILES IDX 3 1 2 2 1 3 9 4 13 5 12 6 11 7 14 8 10 9 15 10 4 11 5 12
REMARK SMILES IDX 6 13 7 14 8 15
REMARK H PARENT
REMARK Flexibility Score: inf
ROOT
ATOM      1  C   UNL     1      15.292  15.205  36.111  1.00  0.00     0.035 C 
ENDROOT
BRANCH   1   2
ATOM      2  C   UNL     1      14.330  14.177  36.665  1.00  0.00    -0.074 C 
ATOM      3  C   UNL     1      14.531  12.875  36.387  1.00  0.00     0.008 C 
BRANCH   2   4
ATOM      4  C   UNL     1      13.158  14.630  37.525  1.00  0.00     0.018 C 
ATOM      5  C   UNL     1       9.256  15.887  39.054  1.00  0.00     0.039 C 
ATOM      6  C   UNL     1      10.537  15.468  38.388  1.00  0.00    -0.077 C 
ATOM      7  C   UNL     1      10.755  14.155  38.157  1.00  0.00    -0.027 C 
ATOM      8  C   UNL     1      11.600  16.515  38.119  1.00  0.00     0.031 C 
ATOM      9  C   UNL     1      11.983  13.639  37.447  1.00  0.00     0.035 C 
ATOM     10  C   UNL     1      12.679  16.038  37.141  1.00  0.00     0.013 C 
ENDBRANCH   2   4
ENDBRANCH   1   2
BRANCH   1  11
ATOM     11  C   UNL     1      16.497  15.377  37.043  1.00  0.00     0.032 C 
BRANCH  11  12
ATOM     12  C   UNL     1      17.574  14.365  36.738  1.00  0.00    -0.028 C 
ATOM     13  C   UNL     1      18.705  14.253  37.466  1.00  0.00    -0.080 C 
ATOM     14  C   UNL     1      18.974  15.148  38.651  1.00  0.00     0.039 C 
ATOM     15  C   UNL     1      19.717  13.206  37.075  1.00  0.00     0.039 C 
ENDBRANCH  11  12
ENDBRANCH   1  11
TORSDOF 4
ENDMDL
MODEL 4
REMARK VINA RESULT:    -5.022      1.110      7.097
REMARK INTER + INTRA:          -6.810
REMARK INTER:                  -6.146
REMARK INTRA:                  -0.663
REMARK UNBOUND:                -0.614
REMARK SMILES C=C(CCC=C(C)C)[C@@H]1CC=C(C)CC1
REMARK SMILES IDX 3 1 2 2 1 3 9 4 13 5 12 6 11 7 14 8 10 9 15 10 4 11 5 12
REMARK SMILES IDX 6 13 7 14 8 15
REMARK H PARENT
REMARK Flexibility Score: inf
ROOT
ATOM      1  C   UNL     1       9.455  20.250  24.802  1.00  0.00     0.035 C 
ENDROOT
BRANCH   1   2
ATOM      2  C   UNL     1       8.186  19.629  25.342  1.00  0.00    -0.074 C 
ATOM      3  C   UNL     1       8.142  19.245  26.632  1.00  0.00     0.008 C 
BRANCH   2   4
ATOM      4  C   UNL     1       6.985  19.451  24.423  1.00  0.00     0.018 C 
ATOM      5  C   UNL     1       4.207  19.369  21.043  1.00  0.00     0.039 C 
ATOM      6  C   UNL     1       5.256  19.478  22.115  1.00  0.00    -0.077 C 
ATOM      7  C   UNL     1       6.200  18.516  22.207  1.00  0.00    -0.027 C 
ATOM      8  C   UNL     1       5.143  20.590  23.140  1.00  0.00     0.031 C 
ATOM      9  C   UNL     1       7.325  18.564  23.212  1.00  0.00     0.035 C 
ATOM     10  C   UNL     1       6.432  20.802  23.941  1.00  0.00     0.013 C 
ENDBRANCH   2   4
ENDBRANCH   1   2
BRANCH   1  11
ATOM     11  C   UNL     1      10.610  19.242  24.836  1.00  0.00     0.032 C 
BRANCH  11  12
ATOM     12  C   UNL     1      11.869  19.869  25.385  1.00  0.00    -0.028 C 
ATOM     13  C   UNL     1      12.281  19.696  26.658  1.00  0.00    -0.080 C 
ATOM     14  C   UNL     1      11.497  18.852  27.635  1.00  0.00     0.039 C 
ATOM     15  C   UNL     1      13.555  20.367  27.104  1.00  0.00     0.039 C 
ENDBRANCH  11  12
ENDBRANCH   1  11
TORSDOF 4
ENDMDL
MODEL 5
REMARK VINA RESULT:    -4.997     11.808     15.028
REMARK INTER + INTRA:          -6.779
REMARK INTER:                  -5.699
REMARK INTRA:                  -1.080
REMARK UNBOUND:                -0.614
REMARK SMILES C=C(CCC=C(C)C)[C@@H]1CC=C(C)CC1
REMARK SMILES IDX 3 1 2 2 1 3 9 4 13 5 12 6 11 7 14 8 10 9 15 10 4 11 5 12
REMARK SMILES IDX 6 13 7 14 8 15
REMARK H PARENT
REMARK Flexibility Score: inf
ROOT
ATOM      1  C   UNL     1      15.238  14.952  35.768  1.00  0.00     0.035 C 
ENDROOT
BRANCH   1   2
ATOM      2  C   UNL     1      15.159  16.368  36.294  1.00  0.00    -0.074 C 
ATOM      3  C   UNL     1      15.814  16.683  37.428  1.00  0.00     0.008 C 
BRANCH   2   4
ATOM      4  C   UNL     1      14.347  17.409  35.535  1.00  0.00     0.018 C 
ATOM      5  C   UNL     1      11.448  20.436  34.280  1.00  0.00     0.039 C 
ATOM      6  C   UNL     1      12.359  19.377  34.836  1.00  0.00    -0.077 C 
ATOM      7  C   UNL     1      13.391  19.749  35.624  1.00  0.00    -0.027 C 
ATOM      8  C   UNL     1      12.170  17.940  34.389  1.00  0.00     0.031 C 
ATOM      9  C   UNL     1      14.326  18.759  36.274  1.00  0.00     0.035 C 
ATOM     10  C   UNL     1      12.910  16.933  35.277  1.00  0.00     0.013 C 
ENDBRANCH   2   4
ENDBRANCH   1   2
BRANCH   1  11
ATOM     11  C   UNL     1      14.913  13.942  36.875  1.00  0.00     0.032 C 
BRANCH  11  12
ATOM     12  C   UNL     1      13.593  13.257  36.620  1.00  0.00    -0.028 C 
ATOM     13  C   UNL     1      12.443  13.630  37.219  1.00  0.00    -0.080 C 
ATOM     14  C   UNL     1      12.399  14.776  38.201  1.00  0.00     0.039 C 
ATOM     15  C   UNL     1      11.178  12.878  36.892  1.00  0.00     0.039 C 
ENDBRANCH  11  12
ENDBRANCH   1  11
TORSDOF 4
ENDMDL
MODEL 6
REMARK VINA RESULT:    -4.994      2.205      4.405
REMARK INTER + INTRA:          -6.776
REMARK INTER:                  -6.022
REMARK INTRA:                  -0.753
REMARK UNBOUND:                -0.614
REMARK SMILES C=C(CCC=C(C)C)[C@@H]1CC=C(C)CC1
REMARK SMILES IDX 3 1 2 2 1 3 9 4 13 5 12 6 11 7 14 8 10 9 15 10 4 11 5 12
REMARK SMILES IDX 6 13 7 14 8 15
REMARK H PARENT
REMARK Flexibility Score: inf
ROOT
ATOM      1  C   UNL     1       8.899  20.144  25.543  1.00  0.00     0.035 C 
ENDROOT
BRANCH   1   2
ATOM      2  C   UNL     1      10.081  19.385  26.104  1.00  0.00    -0.074 C 
ATOM      3  C   UNL     1       9.966  18.790  27.306  1.00  0.00     0.008 C 
BRANCH   2   4
ATOM      4  C   UNL     1      11.373  19.305  25.302  1.00  0.00     0.018 C 
ATOM      5  C   UNL     1      14.868  20.120  22.798  1.00  0.00     0.039 C 
ATOM      6  C   UNL     1      13.615  19.978  23.618  1.00  0.00    -0.077 C 
ATOM      7  C   UNL     1      13.629  20.379  24.908  1.00  0.00    -0.027 C 
ATOM      8  C   UNL     1      12.419  19.269  23.013  1.00  0.00     0.031 C 
ATOM      9  C   UNL     1      12.410  20.329  25.797  1.00  0.00     0.035 C 
ATOM     10  C   UNL     1      11.124  19.500  23.799  1.00  0.00     0.013 C 
ENDBRANCH   2   4
ENDBRANCH   1   2
BRANCH   1  11
ATOM     11  C   UNL     1       7.702  19.209  25.337  1.00  0.00     0.032 C 
BRANCH  11  12
ATOM     12  C   UNL     1       6.795  19.713  24.240  1.00  0.00    -0.028 C 
ATOM     13  C   UNL     1       6.796  19.200  22.992  1.00  0.00    -0.080 C 
ATOM     14  C   UNL     1       7.719  18.071  22.602  1.00  0.00     0.039 C 
ATOM     15  C   UNL     1       5.849  19.777  21.971  1.00  0.00     0.039 C 
ENDBRANCH  11  12
ENDBRANCH   1  11
TORSDOF 4
ENDMDL
MODEL 7
REMARK VINA RESULT:    -4.977      1.090      6.979
REMARK INTER + INTRA:          -6.754
REMARK INTER:                  -6.116
REMARK INTRA:                  -0.638
REMARK UNBOUND:                -0.614
REMARK SMILES C=C(CCC=C(C)C)[C@@H]1CC=C(C)CC1
REMARK SMILES IDX 3 1 2 2 1 3 9 4 13 5 12 6 11 7 14 8 10 9 15 10 4 11 5 12
REMARK SMILES IDX 6 13 7 14 8 15
REMARK H PARENT
REMARK Flexibility Score: inf
ROOT
ATOM      1  C   UNL     1       7.366  19.159  24.559  1.00  0.00     0.035 C 
ENDROOT
BRANCH   1   2
ATOM      2  C   UNL     1       7.239  19.140  23.052  1.00  0.00    -0.074 C 
ATOM      3  C   UNL     1       8.193  18.533  22.322  1.00  0.00     0.008 C 
BRANCH   2   4
ATOM      4  C   UNL     1       6.037  19.801  22.389  1.00  0.00     0.018 C 
ATOM      5  C   UNL     1       2.048  21.237  21.307  1.00  0.00     0.039 C 
ATOM      6  C   UNL     1       3.351  20.657  21.784  1.00  0.00    -0.077 C 
ATOM      7  C   UNL     1       4.025  21.285  22.772  1.00  0.00    -0.027 C 
ATOM      8  C   UNL     1       3.932  19.461  21.053  1.00  0.00     0.031 C 
ATOM      9  C   UNL     1       5.310  20.752  23.357  1.00  0.00     0.035 C 
ATOM     10  C   UNL     1       5.049  18.763  21.836  1.00  0.00     0.013 C 
ENDBRANCH   2   4
ENDBRANCH   1   2
BRANCH   1  11
ATOM     11  C   UNL     1       8.428  20.172  25.001  1.00  0.00     0.032 C 
BRANCH  11  12
ATOM     12  C   UNL     1       9.211  19.663  26.187  1.00  0.00    -0.028 C 
ATOM     13  C   UNL     1      10.476  19.204  26.090  1.00  0.00    -0.080 C 
ATOM     14  C   UNL     1      11.204  19.167  24.768  1.00  0.00     0.039 C 
ATOM     15  C   UNL     1      11.168  18.718  27.338  1.00  0.00     0.039 C 
ENDBRANCH  11  12
ENDBRANCH   1  11
TORSDOF 4
ENDMDL
MODEL 8
REMARK VINA RESULT:    -4.964      3.204      4.608
REMARK INTER + INTRA:          -6.738
REMARK INTER:                  -5.564
REMARK INTRA:                  -1.174
REMARK UNBOUND:                -0.614
REMARK SMILES C=C(CCC=C(C)C)[C@@H]1CC=C(C)CC1
REMARK SMILES IDX 3 1 2 2 1 3 9 4 13 5 12 6 11 7 14 8 10 9 15 10 4 11 5 12
REMARK SMILES IDX 6 13 7 14 8 15
REMARK H PARENT
REMARK Flexibility Score: inf
ROOT
ATOM      1  C   UNL     1       7.613  19.833  24.635  1.00  0.00     0.035 C 
ENDROOT
BRANCH   1   2
ATOM      2  C   UNL     1       8.204  19.474  25.981  1.00  0.00    -0.074 C 
ATOM      3  C   UNL     1       7.380  19.107  26.981  1.00  0.00     0.008 C 
BRANCH   2   4
ATOM      4  C   UNL     1       9.713  19.529  26.180  1.00  0.00     0.018 C 
ATOM      5  C   UNL     1      13.769  20.092  27.721  1.00  0.00     0.039 C 
ATOM      6  C   UNL     1      12.326  19.975  27.315  1.00  0.00    -0.077 C 
ATOM      7  C   UNL     1      11.617  18.899  27.721  1.00  0.00    -0.027 C 
ATOM      8  C   UNL     1      11.750  20.997  26.354  1.00  0.00     0.031 C 
ATOM      9  C   UNL     1      10.151  18.717  27.412  1.00  0.00     0.035 C 
ATOM     10  C   UNL     1      10.218  20.975  26.301  1.00  0.00     0.013 C 
ENDBRANCH   2   4
ENDBRANCH   1   2
BRANCH   1  11
ATOM     11  C   UNL     1       8.404  19.170  23.501  1.00  0.00     0.032 C 
BRANCH  11  12
ATOM     12  C   UNL     1       9.238  20.180  22.752  1.00  0.00    -0.028 C 
ATOM     13  C   UNL     1      10.578  20.080  22.628  1.00  0.00    -0.080 C 
ATOM     14  C   UNL     1      11.345  18.934  23.244  1.00  0.00     0.039 C 
ATOM     15  C   UNL     1      11.316  21.145  21.857  1.00  0.00     0.039 C 
ENDBRANCH  11  12
ENDBRANCH   1  11
TORSDOF 4
ENDMDL
MODEL 9
REMARK VINA RESULT:    -4.936      1.388      6.194
REMARK INTER + INTRA:          -6.704
REMARK INTER:                  -5.522
REMARK INTRA:                  -1.182
REMARK UNBOUND:                -0.614
REMARK SMILES C=C(CCC=C(C)C)[C@@H]1CC=C(C)CC1
REMARK SMILES IDX 3 1 2 2 1 3 9 4 13 5 12 6 11 7 14 8 10 9 15 10 4 11 5 12
REMARK SMILES IDX 6 13 7 14 8 15
REMARK H PARENT
REMARK Flexibility Score: inf
ROOT
ATOM      1  C   UNL     1       8.881  19.085  26.881  1.00  0.00     0.035 C 
ENDROOT
BRANCH   1   2
ATOM      2  C   UNL     1       7.982  20.176  26.340  1.00  0.00    -0.074 C 
ATOM      3  C   UNL     1       8.083  21.419  26.846  1.00  0.00     0.008 C 
BRANCH   2   4
ATOM      4  C   UNL     1       6.986  19.851  25.235  1.00  0.00     0.018 C 
ATOM      5  C   UNL     1       4.853  19.425  21.438  1.00  0.00     0.039 C 
ATOM      6  C   UNL     1       5.684  19.664  22.669  1.00  0.00    -0.077 C 
ATOM      7  C   UNL     1       6.710  18.828  22.938  1.00  0.00    -0.027 C 
ATOM      8  C   UNL     1       5.262  20.752  23.638  1.00  0.00     0.031 C 
ATOM      9  C   UNL     1       7.634  19.015  24.117  1.00  0.00     0.035 C 
ATOM     10  C   UNL     1       6.360  21.122  24.640  1.00  0.00     0.013 C 
ENDBRANCH   2   4
ENDBRANCH   1   2
BRANCH   1  11
ATOM     11  C   UNL     1      10.354  19.500  26.787  1.00  0.00     0.032 C 
BRANCH  11  12
ATOM     12  C   UNL     1      11.009  18.920  25.557  1.00  0.00    -0.028 C 
ATOM     13  C   UNL     1      11.247  19.642  24.442  1.00  0.00    -0.080 C 
ATOM     14  C   UNL     1      10.866  21.100  24.347  1.00  0.00     0.039 C 
ATOM     15  C   UNL     1      11.908  18.964  23.268  1.00  0.00     0.039 C 
ENDBRANCH  11  12
ENDBRANCH   1  11
TORSDOF 4
ENDMDL
