MODEL 1
REMARK VINA RESULT:     7.749      0.000      0.000
REMARK INTER + INTRA:           8.074
REMARK INTER:                   8.202
REMARK INTRA:                  -0.128
REMARK UNBOUND:                -0.128
REMARK SMILES CC1=C[C@H]2C(=C(C)CC[C@H]2C(C)C)CC1
REMARK SMILES IDX 1 1 2 2 3 3 4 4 10 5 9 6 8 7 6 8 5 9 14 10 15 11 7 12 11 13
REMARK SMILES IDX 12 14 13 15
REMARK H PARENT
REMARK Flexibility Score: inf
ROOT
ATOM      1  C   UNL     1       5.128  10.532  10.875  1.00  0.00     0.039 C 
ATOM      2  C   UNL     1       5.106   9.554  12.017  1.00  0.00    -0.076 C 
ATOM      3  C   UNL     1       6.196   8.808  12.292  1.00  0.00    -0.020 C 
ATOM      4  C   UNL     1       6.105   7.781  13.399  1.00  0.00     0.041 C 
ATOM      5  C   UNL     1       7.353   6.886  13.627  1.00  0.00     0.003 C 
ATOM      6  C   UNL     1       7.405   5.780  12.569  1.00  0.00     0.009 C 
ATOM      7  C   UNL     1       6.178   4.876  12.730  1.00  0.00     0.031 C 
ATOM      8  C   UNL     1       4.874   5.651  12.792  1.00  0.00    -0.073 C 
ATOM      9  C   UNL     1       4.836   6.978  13.115  1.00  0.00    -0.064 C 
ATOM     10  C   UNL     1       3.554   7.795  12.941  1.00  0.00     0.036 C 
ATOM     11  C   UNL     1       3.839   9.310  12.821  1.00  0.00     0.035 C 
ATOM     12  C   UNL     1       3.602   4.875  12.540  1.00  0.00     0.039 C 
ENDROOT
BRANCH   5  13
ATOM     13  C   UNL     1       8.727   7.591  13.880  1.00  0.00    -0.013 C 
ATOM     14  C   UNL     1       9.549   7.955  12.632  1.00  0.00     0.007 C 
ATOM     15  C   UNL     1       8.583   8.816  14.797  1.00  0.00     0.007 C 
ENDBRANCH   5  13
TORSDOF 1
ENDMDL
