MODEL 1
REMARK VINA RESULT:    -2.876      0.000      0.000
REMARK INTER + INTRA:          -3.459
REMARK INTER:                  -3.380
REMARK INTRA:                  -0.079
REMARK UNBOUND:                -0.079
REMARK SMILES CCCCC(=O)[O-]
REMARK SMILES IDX 4 1 5 2 6 3 7 4 3 5 2 6 1 7
REMARK H PARENT
REMARK Flexibility Score: inf
ROOT
ATOM      1  C   UNL     1      19.063 -18.903  22.400  1.00  0.00     0.053 C 
ENDROOT
BRANCH   1   2
ATOM      2  C   UNL     1      17.809 -19.520  22.931  1.00  0.00     0.041 C 
ATOM      3  O   UNL     1      16.714 -18.905  22.847  1.00  0.00    -0.550 OA
ATOM      4  O   UNL     1      17.857 -20.756  23.565  1.00  0.00    -0.550 OA
ENDBRANCH   1   2
BRANCH   1   5
ATOM      5  C   UNL     1      20.274 -19.356  23.226  1.00  0.00     0.006 C 
BRANCH   5   6
ATOM      6  C   UNL     1      21.204 -20.296  22.442  1.00  0.00    -0.003 C 
ATOM      7  C   UNL     1      21.660 -21.499  23.268  1.00  0.00     0.004 C 
ENDBRANCH   5   6
ENDBRANCH   1   5
TORSDOF 3
ENDMDL
MODEL 2
REMARK VINA RESULT:    -2.864      8.188      9.654
REMARK INTER + INTRA:          -3.445
REMARK INTER:                  -3.422
REMARK INTRA:                  -0.023
REMARK UNBOUND:                -0.079
REMARK SMILES CCCCC(=O)[O-]
REMARK SMILES IDX 4 1 5 2 6 3 7 4 3 5 2 6 1 7
REMARK H PARENT
REMARK Flexibility Score: inf
ROOT
ATOM      1  C   UNL     1      10.184 -15.056  23.755  1.00  0.00     0.053 C 
ENDROOT
BRANCH   1   2
ATOM      2  C   UNL     1       9.700 -15.520  25.092  1.00  0.00     0.041 C 
ATOM      3  O   UNL     1       8.589 -15.127  25.536  1.00  0.00    -0.550 OA
ATOM      4  O   UNL     1      10.498 -16.349  25.871  1.00  0.00    -0.550 OA
ENDBRANCH   1   2
BRANCH   1   5
ATOM      5  C   UNL     1      11.561 -15.659  23.446  1.00  0.00     0.006 C 
BRANCH   5   6
ATOM      6  C   UNL     1      12.400 -14.768  22.518  1.00  0.00    -0.003 C 
ATOM      7  C   UNL     1      13.880 -14.741  22.904  1.00  0.00     0.004 C 
ENDBRANCH   5   6
ENDBRANCH   1   5
TORSDOF 3
ENDMDL
MODEL 3
REMARK VINA RESULT:    -2.836     11.085     12.089
REMARK INTER + INTRA:          -3.412
REMARK INTER:                  -3.314
REMARK INTRA:                  -0.099
REMARK UNBOUND:                -0.079
REMARK SMILES CCCCC(=O)[O-]
REMARK SMILES IDX 4 1 5 2 6 3 7 4 3 5 2 6 1 7
REMARK H PARENT
REMARK Flexibility Score: inf
ROOT
ATOM      1  C   UNL     1       9.277 -14.828  24.146  1.00  0.00     0.053 C 
ENDROOT
BRANCH   1   2
ATOM      2  C   UNL     1       9.222 -15.585  25.435  1.00  0.00     0.041 C 
ATOM      3  O   UNL     1       8.167 -15.594  26.120  1.00  0.00    -0.550 OA
ATOM      4  O   UNL     1      10.354 -16.241  25.904  1.00  0.00    -0.550 OA
ENDBRANCH   1   2
BRANCH   1   5
ATOM      5  C   UNL     1       7.875 -14.708  23.536  1.00  0.00     0.006 C 
BRANCH   5   6
ATOM      6  C   UNL     1       7.510 -15.911  22.652  1.00  0.00    -0.003 C 
ATOM      7  C   UNL     1       6.457 -16.816  23.292  1.00  0.00     0.004 C 
ENDBRANCH   5   6
ENDBRANCH   1   5
TORSDOF 3
ENDMDL
MODEL 4
REMARK VINA RESULT:    -2.805     12.530     12.874
REMARK INTER + INTRA:          -3.376
REMARK INTER:                  -3.327
REMARK INTRA:                  -0.048
REMARK UNBOUND:                -0.079
REMARK SMILES CCCCC(=O)[O-]
REMARK SMILES IDX 4 1 5 2 6 3 7 4 3 5 2 6 1 7
REMARK H PARENT
REMARK Flexibility Score: inf
ROOT
ATOM      1  C   UNL     1       6.235 -17.598  24.191  1.00  0.00     0.053 C 
ENDROOT
BRANCH   1   2
ATOM      2  C   UNL     1       6.895 -17.632  25.533  1.00  0.00     0.041 C 
ATOM      3  O   UNL     1       7.571 -16.649  25.933  1.00  0.00    -0.550 OA
ATOM      4  O   UNL     1       6.805 -18.772  26.323  1.00  0.00    -0.550 OA
ENDBRANCH   1   2
BRANCH   1   5
ATOM      5  C   UNL     1       6.986 -18.498  23.202  1.00  0.00     0.006 C 
BRANCH   5   6
ATOM      6  C   UNL     1       6.242 -19.812  22.918  1.00  0.00    -0.003 C 
ATOM      7  C   UNL     1       6.696 -20.479  21.620  1.00  0.00     0.004 C 
ENDBRANCH   5   6
ENDBRANCH   1   5
TORSDOF 3
ENDMDL
MODEL 5
REMARK VINA RESULT:    -2.804     11.682     12.331
REMARK INTER + INTRA:          -3.376
REMARK INTER:                  -3.267
REMARK INTRA:                  -0.109
REMARK UNBOUND:                -0.079
REMARK SMILES CCCCC(=O)[O-]
REMARK SMILES IDX 4 1 5 2 6 3 7 4 3 5 2 6 1 7
REMARK H PARENT
REMARK Flexibility Score: inf
ROOT
ATOM      1  C   UNL     1       7.617 -15.021  23.423  1.00  0.00     0.053 C 
ENDROOT
BRANCH   1   2
ATOM      2  C   UNL     1       8.796 -14.809  24.319  1.00  0.00     0.041 C 
ATOM      3  O   UNL     1       9.891 -14.412  23.843  1.00  0.00    -0.550 OA
ATOM      4  O   UNL     1       8.699 -15.097  25.675  1.00  0.00    -0.550 OA
ENDBRANCH   1   2
BRANCH   1   5
ATOM      5  C   UNL     1       7.857 -16.222  22.499  1.00  0.00     0.006 C 
BRANCH   5   6
ATOM      6  C   UNL     1       7.362 -17.543  23.108  1.00  0.00    -0.003 C 
ATOM      7  C   UNL     1       6.100 -17.367  23.954  1.00  0.00     0.004 C 
ENDBRANCH   5   6
ENDBRANCH   1   5
TORSDOF 3
ENDMDL
MODEL 6
REMARK VINA RESULT:    -2.803     10.402     11.476
REMARK INTER + INTRA:          -3.374
REMARK INTER:                  -3.267
REMARK INTRA:                  -0.107
REMARK UNBOUND:                -0.079
REMARK SMILES CCCCC(=O)[O-]
REMARK SMILES IDX 4 1 5 2 6 3 7 4 3 5 2 6 1 7
REMARK H PARENT
REMARK Flexibility Score: inf
ROOT
ATOM      1  C   UNL     1       8.656 -14.681  24.552  1.00  0.00     0.053 C 
ENDROOT
BRANCH   1   2
ATOM      2  C   UNL     1       7.608 -15.233  23.639  1.00  0.00     0.041 C 
ATOM      3  O   UNL     1       7.163 -16.397  23.815  1.00  0.00    -0.550 OA
ATOM      4  O   UNL     1       7.157 -14.478  22.562  1.00  0.00    -0.550 OA
ENDBRANCH   1   2
BRANCH   1   5
ATOM      5  C   UNL     1      10.048 -14.844  23.928  1.00  0.00     0.006 C 
BRANCH   5   6
ATOM      6  C   UNL     1      10.782 -16.092  24.442  1.00  0.00    -0.003 C 
ATOM      7  C   UNL     1      10.398 -16.454  25.877  1.00  0.00     0.004 C 
ENDBRANCH   5   6
ENDBRANCH   1   5
TORSDOF 3
ENDMDL
MODEL 7
REMARK VINA RESULT:    -2.800      2.303      3.756
REMARK INTER + INTRA:          -3.371
REMARK INTER:                  -3.329
REMARK INTRA:                  -0.042
REMARK UNBOUND:                -0.079
REMARK SMILES CCCCC(=O)[O-]
REMARK SMILES IDX 4 1 5 2 6 3 7 4 3 5 2 6 1 7
REMARK H PARENT
REMARK Flexibility Score: inf
ROOT
ATOM      1  C   UNL     1      21.374 -20.738  23.984  1.00  0.00     0.053 C 
ENDROOT
BRANCH   1   2
ATOM      2  C   UNL     1      20.828 -22.103  24.257  1.00  0.00     0.041 C 
ATOM      3  O   UNL     1      21.516 -23.125  24.000  1.00  0.00    -0.550 OA
ATOM      4  O   UNL     1      19.537 -22.249  24.750  1.00  0.00    -0.550 OA
ENDBRANCH   1   2
BRANCH   1   5
ATOM      5  C   UNL     1      21.019 -20.295  22.559  1.00  0.00     0.006 C 
BRANCH   5   6
ATOM      6  C   UNL     1      20.007 -19.139  22.536  1.00  0.00    -0.003 C 
ATOM      7  C   UNL     1      20.247 -18.166  21.381  1.00  0.00     0.004 C 
ENDBRANCH   5   6
ENDBRANCH   1   5
TORSDOF 3
ENDMDL
MODEL 8
REMARK VINA RESULT:    -2.792      2.149      3.835
REMARK INTER + INTRA:          -3.361
REMARK INTER:                  -3.336
REMARK INTRA:                  -0.024
REMARK UNBOUND:                -0.079
REMARK SMILES CCCCC(=O)[O-]
REMARK SMILES IDX 4 1 5 2 6 3 7 4 3 5 2 6 1 7
REMARK H PARENT
REMARK Flexibility Score: inf
ROOT
ATOM      1  C   UNL     1      19.225 -19.178  22.804  1.00  0.00     0.053 C 
ENDROOT
BRANCH   1   2
ATOM      2  C   UNL     1      20.426 -20.064  22.907  1.00  0.00     0.041 C 
ATOM      3  O   UNL     1      21.405 -19.898  22.134  1.00  0.00    -0.550 OA
ATOM      4  O   UNL     1      20.443 -21.106  23.827  1.00  0.00    -0.550 OA
ENDBRANCH   1   2
BRANCH   1   5
ATOM      5  C   UNL     1      17.948 -19.969  23.114  1.00  0.00     0.006 C 
BRANCH   5   6
ATOM      6  C   UNL     1      16.671 -19.157  22.846  1.00  0.00    -0.003 C 
ATOM      7  C   UNL     1      16.571 -18.674  21.398  1.00  0.00     0.004 C 
ENDBRANCH   5   6
ENDBRANCH   1   5
TORSDOF 3
ENDMDL
MODEL 9
REMARK VINA RESULT:    -2.789     11.667     12.396
REMARK INTER + INTRA:          -3.358
REMARK INTER:                  -3.273
REMARK INTRA:                  -0.085
REMARK UNBOUND:                -0.079
REMARK SMILES CCCCC(=O)[O-]
REMARK SMILES IDX 4 1 5 2 6 3 7 4 3 5 2 6 1 7
REMARK H PARENT
REMARK Flexibility Score: inf
ROOT
ATOM      1  C   UNL     1       7.621 -14.642  23.274  1.00  0.00     0.053 C 
ENDROOT
BRANCH   1   2
ATOM      2  C   UNL     1       8.798 -14.715  24.193  1.00  0.00     0.041 C 
ATOM      3  O   UNL     1       8.639 -15.013  25.405  1.00  0.00    -0.550 OA
ATOM      4  O   UNL     1      10.068 -14.404  23.722  1.00  0.00    -0.550 OA
ENDBRANCH   1   2
BRANCH   1   5
ATOM      5  C   UNL     1       6.800 -15.935  23.352  1.00  0.00     0.006 C 
BRANCH   5   6
ATOM      6  C   UNL     1       7.207 -16.958  22.279  1.00  0.00    -0.003 C 
ATOM      7  C   UNL     1       7.546 -16.305  20.939  1.00  0.00     0.004 C 
ENDBRANCH   5   6
ENDBRANCH   1   5
TORSDOF 3
ENDMDL
