MODEL 1
REMARK VINA RESULT:   -10.142      0.000      0.000
REMARK INTER + INTRA:         -13.695
REMARK INTER:                 -12.810
REMARK INTRA:                  -0.885
REMARK UNBOUND:                -0.885
REMARK SMILES O[C@H]1OC[C@H](Cc2ccc3c(c2)OCO3)[C@H]1Cc1ccc2c(c1)OCO2
REMARK SMILES IDX 4 1 5 2 16 3 2 4 3 5 6 6 7 7 12 8 8 9 11 10 9 11 10 12 13 13
REMARK SMILES IDX 15 14 14 15 17 16 18 17 23 18 19 19 22 20 20 21 21 22 24 23
REMARK SMILES IDX 26 24 25 25 1 26
REMARK H PARENT 1 27
REMARK Flexibility Score: inf
ROOT
ATOM      1  C   UNL     1     -14.334 -30.751  -9.985  1.00  0.00     0.168 C 
ATOM      2  C   UNL     1     -13.520 -31.809 -10.746  1.00  0.00     0.028 C 
ATOM      3  C   UNL     1     -14.326 -32.020 -12.025  1.00  0.00     0.055 C 
ATOM      4  C   UNL     1     -15.123 -30.714 -12.095  1.00  0.00     0.250 C 
ATOM      5  O   UNL     1     -15.415 -30.322 -10.779  1.00  0.00    -0.352 OA
ENDROOT
BRANCH   2   6
ATOM      6  C   UNL     1     -12.078 -31.340 -11.053  1.00  0.00     0.042 C 
BRANCH   6   7
ATOM      7  C   UNL     1     -11.197 -31.397  -9.831  1.00  0.00    -0.044 A 
ATOM      8  C   UNL     1     -11.072 -32.604  -9.106  1.00  0.00     0.054 A 
ATOM      9  C   UNL     1     -10.500 -30.240  -9.391  1.00  0.00     0.008 A 
ATOM     10  C   UNL     1     -10.260 -32.609  -7.976  1.00  0.00     0.166 A 
ATOM     11  C   UNL     1      -9.690 -30.289  -8.242  1.00  0.00     0.051 A 
ATOM     12  C   UNL     1      -9.598 -31.499  -7.562  1.00  0.00     0.165 A 
ATOM     13  O   UNL     1      -9.987 -33.655  -7.118  1.00  0.00    -0.454 OA
ATOM     14  O   UNL     1      -8.875 -31.793  -6.422  1.00  0.00    -0.454 OA
ATOM     15  C   UNL     1      -9.097 -33.174  -6.101  1.00  0.00     0.468 C 
ENDBRANCH   6   7
ENDBRANCH   2   6
BRANCH   3  16
ATOM     16  C   UNL     1     -15.211 -33.292 -11.911  1.00  0.00     0.044 C 
BRANCH  16  17
ATOM     17  C   UNL     1     -15.031 -34.241 -13.071  1.00  0.00    -0.044 A 
ATOM     18  C   UNL     1     -14.646 -33.745 -14.339  1.00  0.00     0.054 A 
ATOM     19  C   UNL     1     -15.218 -35.637 -12.895  1.00  0.00     0.008 A 
ATOM     20  C   UNL     1     -14.485 -34.657 -15.377  1.00  0.00     0.166 A 
ATOM     21  C   UNL     1     -15.045 -36.524 -13.972  1.00  0.00     0.051 A 
ATOM     22  C   UNL     1     -14.678 -35.988 -15.202  1.00  0.00     0.165 A 
ATOM     23  O   UNL     1     -14.124 -34.412 -16.688  1.00  0.00    -0.454 OA
ATOM     24  O   UNL     1     -14.448 -36.647 -16.395  1.00  0.00    -0.454 OA
ATOM     25  C   UNL     1     -14.089 -35.669 -17.380  1.00  0.00     0.468 C 
ENDBRANCH  16  17
ENDBRANCH   3  16
BRANCH   4  26
ATOM     26  O   UNL     1     -16.314 -30.841 -12.822  1.00  0.00    -0.368 OA
ATOM     27  H   UNL     1     -16.566 -29.927 -13.115  1.00  0.00     0.213 HD
ENDBRANCH   4  26
TORSDOF 5
ENDMDL
MODEL 2
REMARK VINA RESULT:    -9.537      1.876      7.280
REMARK INTER + INTRA:         -12.931
REMARK INTER:                 -11.708
REMARK INTRA:                  -1.224
REMARK UNBOUND:                -0.885
REMARK SMILES O[C@H]1OC[C@H](Cc2ccc3c(c2)OCO3)[C@H]1Cc1ccc2c(c1)OCO2
REMARK SMILES IDX 4 1 5 2 16 3 2 4 3 5 6 6 7 7 12 8 8 9 11 10 9 11 10 12 13 13
REMARK SMILES IDX 15 14 14 15 17 16 18 17 23 18 19 19 22 20 20 21 21 22 24 23
REMARK SMILES IDX 26 24 25 25 1 26
REMARK H PARENT 1 27
REMARK Flexibility Score: inf
ROOT
ATOM      1  C   UNL     1     -15.128 -28.566 -14.336  1.00  0.00     0.168 C 
ATOM      2  C   UNL     1     -14.839 -29.755 -13.409  1.00  0.00     0.028 C 
ATOM      3  C   UNL     1     -14.626 -29.098 -12.047  1.00  0.00     0.055 C 
ATOM      4  C   UNL     1     -15.359 -27.767 -12.242  1.00  0.00     0.250 C 
ATOM      5  O   UNL     1     -15.188 -27.378 -13.580  1.00  0.00    -0.352 OA
ENDROOT
BRANCH   2   6
ATOM      6  C   UNL     1     -16.000 -30.776 -13.372  1.00  0.00     0.042 C 
BRANCH   6   7
ATOM      7  C   UNL     1     -15.520 -32.183 -13.629  1.00  0.00    -0.044 A 
ATOM      8  C   UNL     1     -15.260 -32.609 -14.952  1.00  0.00     0.054 A 
ATOM      9  C   UNL     1     -15.339 -33.090 -12.552  1.00  0.00     0.008 A 
ATOM     10  C   UNL     1     -14.832 -33.919 -15.146  1.00  0.00     0.166 A 
ATOM     11  C   UNL     1     -14.905 -34.406 -12.793  1.00  0.00     0.051 A 
ATOM     12  C   UNL     1     -14.662 -34.780 -14.111  1.00  0.00     0.165 A 
ATOM     13  O   UNL     1     -14.521 -34.555 -16.330  1.00  0.00    -0.454 OA
ATOM     14  O   UNL     1     -14.235 -36.002 -14.594  1.00  0.00    -0.454 OA
ATOM     15  C   UNL     1     -14.130 -35.901 -16.022  1.00  0.00     0.468 C 
ENDBRANCH   6   7
ENDBRANCH   2   6
BRANCH   3  16
ATOM     16  C   UNL     1     -13.111 -28.944 -11.743  1.00  0.00     0.044 C 
BRANCH  16  17
ATOM     17  C   UNL     1     -12.558 -30.078 -10.915  1.00  0.00    -0.044 A 
ATOM     18  C   UNL     1     -11.255 -29.991 -10.373  1.00  0.00     0.054 A 
ATOM     19  C   UNL     1     -13.350 -31.227 -10.649  1.00  0.00     0.008 A 
ATOM     20  C   UNL     1     -10.790 -31.057  -9.610  1.00  0.00     0.166 A 
ATOM     21  C   UNL     1     -12.840 -32.283  -9.872  1.00  0.00     0.051 A 
ATOM     22  C   UNL     1     -11.549 -32.156  -9.371  1.00  0.00     0.165 A 
ATOM     23  O   UNL     1      -9.563 -31.200  -8.990  1.00  0.00    -0.454 OA
ATOM     24  O   UNL     1     -10.837 -33.045  -8.589  1.00  0.00    -0.454 OA
ATOM     25  C   UNL     1      -9.551 -32.469  -8.321  1.00  0.00     0.468 C 
ENDBRANCH  16  17
ENDBRANCH   3  16
BRANCH   4  26
ATOM     26  O   UNL     1     -14.883 -26.755 -11.396  1.00  0.00    -0.368 OA
ATOM     27  H   UNL     1     -15.140 -27.015 -10.473  1.00  0.00     0.213 HD
ENDBRANCH   4  26
TORSDOF 5
ENDMDL
MODEL 3
REMARK VINA RESULT:    -9.379      1.643      2.405
REMARK INTER + INTRA:         -12.731
REMARK INTER:                 -11.413
REMARK INTRA:                  -1.318
REMARK UNBOUND:                -0.885
REMARK SMILES O[C@H]1OC[C@H](Cc2ccc3c(c2)OCO3)[C@H]1Cc1ccc2c(c1)OCO2
REMARK SMILES IDX 4 1 5 2 16 3 2 4 3 5 6 6 7 7 12 8 8 9 11 10 9 11 10 12 13 13
REMARK SMILES IDX 15 14 14 15 17 16 18 17 23 18 19 19 22 20 20 21 21 22 24 23
REMARK SMILES IDX 26 24 25 25 1 26
REMARK H PARENT 1 27
REMARK Flexibility Score: inf
ROOT
ATOM      1  C   UNL     1     -14.995 -28.077 -11.256  1.00  0.00     0.168 C 
ATOM      2  C   UNL     1     -14.296 -29.418 -11.523  1.00  0.00     0.028 C 
ATOM      3  C   UNL     1     -14.668 -29.727 -12.971  1.00  0.00     0.055 C 
ATOM      4  C   UNL     1     -15.015 -28.330 -13.495  1.00  0.00     0.250 C 
ATOM      5  O   UNL     1     -15.601 -27.613 -12.440  1.00  0.00    -0.352 OA
ENDROOT
BRANCH   2   6
ATOM      6  C   UNL     1     -12.762 -29.336 -11.336  1.00  0.00     0.042 C 
BRANCH   6   7
ATOM      7  C   UNL     1     -12.237 -30.479 -10.504  1.00  0.00    -0.044 A 
ATOM      8  C   UNL     1     -10.959 -30.388  -9.906  1.00  0.00     0.054 A 
ATOM      9  C   UNL     1     -13.011 -31.656 -10.325  1.00  0.00     0.008 A 
ATOM     10  C   UNL     1     -10.507 -31.471  -9.159  1.00  0.00     0.166 A 
ATOM     11  C   UNL     1     -12.516 -32.727  -9.562  1.00  0.00     0.051 A 
ATOM     12  C   UNL     1     -11.253 -32.592  -8.994  1.00  0.00     0.165 A 
ATOM     13  O   UNL     1      -9.308 -31.614  -8.490  1.00  0.00    -0.454 OA
ATOM     14  O   UNL     1     -10.560 -33.496  -8.212  1.00  0.00    -0.454 OA
ATOM     15  C   UNL     1      -9.299 -32.905  -7.864  1.00  0.00     0.468 C 
ENDBRANCH   6   7
ENDBRANCH   2   6
BRANCH   3  16
ATOM     16  C   UNL     1     -15.851 -30.733 -13.030  1.00  0.00     0.044 C 
BRANCH  16  17
ATOM     17  C   UNL     1     -15.425 -32.120 -13.443  1.00  0.00    -0.044 A 
ATOM     18  C   UNL     1     -15.184 -32.411 -14.806  1.00  0.00     0.054 A 
ATOM     19  C   UNL     1     -15.236 -33.135 -12.468  1.00  0.00     0.008 A 
ATOM     20  C   UNL     1     -14.785 -33.701 -15.139  1.00  0.00     0.166 A 
ATOM     21  C   UNL     1     -14.832 -34.427 -12.850  1.00  0.00     0.051 A 
ATOM     22  C   UNL     1     -14.619 -34.668 -14.203  1.00  0.00     0.165 A 
ATOM     23  O   UNL     1     -14.500 -34.217 -16.390  1.00  0.00    -0.454 OA
ATOM     24  O   UNL     1     -14.221 -35.840 -14.817  1.00  0.00    -0.454 OA
ATOM     25  C   UNL     1     -14.133 -35.594 -16.227  1.00  0.00     0.468 C 
ENDBRANCH  16  17
ENDBRANCH   3  16
BRANCH   4  26
ATOM     26  O   UNL     1     -15.893 -28.360 -14.586  1.00  0.00    -0.368 OA
ATOM     27  H   UNL     1     -16.808 -28.252 -14.216  1.00  0.00     0.213 HD
ENDBRANCH   4  26
TORSDOF 5
ENDMDL
MODEL 4
REMARK VINA RESULT:    -9.238      0.606      8.122
REMARK INTER + INTRA:         -12.553
REMARK INTER:                 -11.839
REMARK INTRA:                  -0.714
REMARK UNBOUND:                -0.885
REMARK SMILES O[C@H]1OC[C@H](Cc2ccc3c(c2)OCO3)[C@H]1Cc1ccc2c(c1)OCO2
REMARK SMILES IDX 4 1 5 2 16 3 2 4 3 5 6 6 7 7 12 8 8 9 11 10 9 11 10 12 13 13
REMARK SMILES IDX 15 14 14 15 17 16 18 17 23 18 19 19 22 20 20 21 21 22 24 23
REMARK SMILES IDX 26 24 25 25 1 26
REMARK H PARENT 1 27
REMARK Flexibility Score: inf
ROOT
ATOM      1  C   UNL     1     -15.608 -31.333 -12.567  1.00  0.00     0.168 C 
ATOM      2  C   UNL     1     -14.544 -32.383 -12.214  1.00  0.00     0.028 C 
ATOM      3  C   UNL     1     -13.960 -31.866 -10.902  1.00  0.00     0.055 C 
ATOM      4  C   UNL     1     -15.096 -30.967 -10.403  1.00  0.00     0.250 C 
ATOM      5  O   UNL     1     -15.705 -30.387 -11.527  1.00  0.00    -0.352 OA
ENDROOT
BRANCH   2   6
ATOM      6  C   UNL     1     -15.140 -33.801 -12.050  1.00  0.00     0.042 C 
BRANCH   6   7
ATOM      7  C   UNL     1     -14.942 -34.639 -13.289  1.00  0.00    -0.044 A 
ATOM      8  C   UNL     1     -14.536 -34.028 -14.496  1.00  0.00     0.054 A 
ATOM      9  C   UNL     1     -15.175 -36.039 -13.256  1.00  0.00     0.008 A 
ATOM     10  C   UNL     1     -14.378 -34.836 -15.619  1.00  0.00     0.166 A 
ATOM     11  C   UNL     1     -15.004 -36.819 -14.414  1.00  0.00     0.051 A 
ATOM     12  C   UNL     1     -14.604 -36.173 -15.579  1.00  0.00     0.165 A 
ATOM     13  O   UNL     1     -13.995 -34.471 -16.894  1.00  0.00    -0.454 OA
ATOM     14  O   UNL     1     -14.372 -36.717 -16.828  1.00  0.00    -0.454 OA
ATOM     15  C   UNL     1     -13.977 -35.653 -17.707  1.00  0.00     0.468 C 
ENDBRANCH   6   7
ENDBRANCH   2   6
BRANCH   3  16
ATOM     16  C   UNL     1     -12.626 -31.111 -11.156  1.00  0.00     0.044 C 
BRANCH  16  17
ATOM     17  C   UNL     1     -11.628 -31.285 -10.037  1.00  0.00    -0.044 A 
ATOM     18  C   UNL     1     -11.520 -32.528  -9.371  1.00  0.00     0.054 A 
ATOM     19  C   UNL     1     -10.773 -30.215  -9.662  1.00  0.00     0.008 A 
ATOM     20  C   UNL     1     -10.581 -32.644  -8.351  1.00  0.00     0.166 A 
ATOM     21  C   UNL     1      -9.838 -30.376  -8.624  1.00  0.00     0.051 A 
ATOM     22  C   UNL     1      -9.777 -31.613  -7.991  1.00  0.00     0.165 A 
ATOM     23  O   UNL     1     -10.300 -33.744  -7.563  1.00  0.00    -0.454 OA
ATOM     24  O   UNL     1      -8.950 -32.012  -6.959  1.00  0.00    -0.454 OA
ATOM     25  C   UNL     1      -9.255 -33.379  -6.651  1.00  0.00     0.468 C 
ENDBRANCH  16  17
ENDBRANCH   3  16
BRANCH   4  26
ATOM     26  O   UNL     1     -14.652 -29.958  -9.538  1.00  0.00    -0.368 OA
ATOM     27  H   UNL     1     -14.382 -29.193 -10.110  1.00  0.00     0.213 HD
ENDBRANCH   4  26
TORSDOF 5
ENDMDL
MODEL 5
REMARK VINA RESULT:    -8.422      3.750      5.850
REMARK INTER + INTRA:         -11.523
REMARK INTER:                 -10.797
REMARK INTRA:                  -0.726
REMARK UNBOUND:                -0.885
REMARK SMILES O[C@H]1OC[C@H](Cc2ccc3c(c2)OCO3)[C@H]1Cc1ccc2c(c1)OCO2
REMARK SMILES IDX 4 1 5 2 16 3 2 4 3 5 6 6 7 7 12 8 8 9 11 10 9 11 10 12 13 13
REMARK SMILES IDX 15 14 14 15 17 16 18 17 23 18 19 19 22 20 20 21 21 22 24 23
REMARK SMILES IDX 26 24 25 25 1 26
REMARK H PARENT 1 27
REMARK Flexibility Score: inf
ROOT
ATOM      1  C   UNL     1     -14.740 -30.059 -11.258  1.00  0.00     0.168 C 
ATOM      2  C   UNL     1     -15.079 -30.901 -12.497  1.00  0.00     0.028 C 
ATOM      3  C   UNL     1     -15.766 -32.131 -11.911  1.00  0.00     0.055 C 
ATOM      4  C   UNL     1     -16.230 -31.596 -10.553  1.00  0.00     0.250 C 
ATOM      5  O   UNL     1     -15.268 -30.676 -10.107  1.00  0.00    -0.352 OA
ENDROOT
BRANCH   2   6
ATOM      6  C   UNL     1     -16.003 -30.152 -13.488  1.00  0.00     0.042 C 
BRANCH   6   7
ATOM      7  C   UNL     1     -15.461 -28.789 -13.840  1.00  0.00    -0.044 A 
ATOM      8  C   UNL     1     -14.241 -28.676 -14.544  1.00  0.00     0.054 A 
ATOM      9  C   UNL     1     -16.161 -27.615 -13.457  1.00  0.00     0.008 A 
ATOM     10  C   UNL     1     -13.770 -27.399 -14.836  1.00  0.00     0.166 A 
ATOM     11  C   UNL     1     -15.649 -26.344 -13.772  1.00  0.00     0.051 A 
ATOM     12  C   UNL     1     -14.445 -26.282 -14.466  1.00  0.00     0.165 A 
ATOM     13  O   UNL     1     -12.617 -27.040 -15.505  1.00  0.00    -0.454 OA
ATOM     14  O   UNL     1     -13.749 -25.163 -14.884  1.00  0.00    -0.454 OA
ATOM     15  C   UNL     1     -12.563 -25.607 -15.559  1.00  0.00     0.468 C 
ENDBRANCH   6   7
ENDBRANCH   2   6
BRANCH   3  16
ATOM     16  C   UNL     1     -14.770 -33.320 -11.812  1.00  0.00     0.044 C 
BRANCH  16  17
ATOM     17  C   UNL     1     -14.810 -34.224 -13.019  1.00  0.00    -0.044 A 
ATOM     18  C   UNL     1     -14.362 -33.752 -14.274  1.00  0.00     0.054 A 
ATOM     19  C   UNL     1     -15.270 -35.562 -12.900  1.00  0.00     0.008 A 
ATOM     20  C   UNL     1     -14.411 -34.624 -15.357  1.00  0.00     0.166 A 
ATOM     21  C   UNL     1     -15.303 -36.410 -14.022  1.00  0.00     0.051 A 
ATOM     22  C   UNL     1     -14.863 -35.897 -15.237  1.00  0.00     0.165 A 
ATOM     23  O   UNL     1     -14.037 -34.389 -16.667  1.00  0.00    -0.454 OA
ATOM     24  O   UNL     1     -14.797 -36.526 -16.465  1.00  0.00    -0.454 OA
ATOM     25  C   UNL     1     -14.271 -35.590 -17.416  1.00  0.00     0.468 C 
ENDBRANCH  16  17
ENDBRANCH   3  16
BRANCH   4  26
ATOM     26  O   UNL     1     -16.393 -32.606  -9.596  1.00  0.00    -0.368 OA
ATOM     27  H   UNL     1     -15.615 -33.216  -9.694  1.00  0.00     0.213 HD
ENDBRANCH   4  26
TORSDOF 5
ENDMDL
MODEL 6
REMARK VINA RESULT:    -7.960      2.640      7.637
REMARK INTER + INTRA:         -10.939
REMARK INTER:                 -10.337
REMARK INTRA:                  -0.602
REMARK UNBOUND:                -0.885
REMARK SMILES O[C@H]1OC[C@H](Cc2ccc3c(c2)OCO3)[C@H]1Cc1ccc2c(c1)OCO2
REMARK SMILES IDX 4 1 5 2 16 3 2 4 3 5 6 6 7 7 12 8 8 9 11 10 9 11 10 12 13 13
REMARK SMILES IDX 15 14 14 15 17 16 18 17 23 18 19 19 22 20 20 21 21 22 24 23
REMARK SMILES IDX 26 24 25 25 1 26
REMARK H PARENT 1 27
REMARK Flexibility Score: inf
ROOT
ATOM      1  C   UNL     1     -15.612 -32.279 -10.192  1.00  0.00     0.168 C 
ATOM      2  C   UNL     1     -14.469 -31.254 -10.231  1.00  0.00     0.028 C 
ATOM      3  C   UNL     1     -13.725 -31.604 -11.518  1.00  0.00     0.055 C 
ATOM      4  C   UNL     1     -14.813 -32.347 -12.299  1.00  0.00     0.250 C 
ATOM      5  O   UNL     1     -15.598 -33.051 -11.371  1.00  0.00    -0.352 OA
ENDROOT
BRANCH   2   6
ATOM      6  C   UNL     1     -14.980 -29.794 -10.249  1.00  0.00     0.042 C 
BRANCH   6   7
ATOM      7  C   UNL     1     -14.823 -29.161 -11.609  1.00  0.00    -0.044 A 
ATOM      8  C   UNL     1     -13.607 -28.529 -11.956  1.00  0.00     0.054 A 
ATOM      9  C   UNL     1     -15.893 -29.181 -12.541  1.00  0.00     0.008 A 
ATOM     10  C   UNL     1     -13.509 -27.945 -13.216  1.00  0.00     0.166 A 
ATOM     11  C   UNL     1     -15.752 -28.579 -13.804  1.00  0.00     0.051 A 
ATOM     12  C   UNL     1     -14.537 -27.968 -14.101  1.00  0.00     0.165 A 
ATOM     13  O   UNL     1     -12.437 -27.277 -13.773  1.00  0.00    -0.454 OA
ATOM     14  O   UNL     1     -14.162 -27.317 -15.260  1.00  0.00    -0.454 OA
ATOM     15  C   UNL     1     -12.814 -26.855 -15.092  1.00  0.00     0.468 C 
ENDBRANCH   6   7
ENDBRANCH   2   6
BRANCH   3  16
ATOM     16  C   UNL     1     -12.471 -32.467 -11.209  1.00  0.00     0.044 C 
BRANCH  16  17
ATOM     17  C   UNL     1     -11.553 -31.830 -10.194  1.00  0.00    -0.044 A 
ATOM     18  C   UNL     1     -11.095 -32.577  -9.085  1.00  0.00     0.054 A 
ATOM     19  C   UNL     1     -11.120 -30.487 -10.359  1.00  0.00     0.008 A 
ATOM     20  C   UNL     1     -10.245 -31.951  -8.180  1.00  0.00     0.166 A 
ATOM     21  C   UNL     1     -10.259 -29.893  -9.419  1.00  0.00     0.051 A 
ATOM     22  C   UNL     1      -9.845 -30.665  -8.338  1.00  0.00     0.165 A 
ATOM     23  O   UNL     1      -9.679 -32.471  -7.031  1.00  0.00    -0.454 OA
ATOM     24  O   UNL     1      -9.009 -30.311  -7.297  1.00  0.00    -0.454 OA
ATOM     25  C   UNL     1      -8.876 -31.445  -6.430  1.00  0.00     0.468 C 
ENDBRANCH  16  17
ENDBRANCH   3  16
BRANCH   4  26
ATOM     26  O   UNL     1     -14.291 -33.240 -13.244  1.00  0.00    -0.368 OA
ATOM     27  H   UNL     1     -13.417 -32.869 -13.531  1.00  0.00     0.213 HD
ENDBRANCH   4  26
TORSDOF 5
ENDMDL
MODEL 7
REMARK VINA RESULT:    -7.938      2.832      4.664
REMARK INTER + INTRA:         -10.911
REMARK INTER:                 -10.344
REMARK INTRA:                  -0.567
REMARK UNBOUND:                -0.885
REMARK SMILES O[C@H]1OC[C@H](Cc2ccc3c(c2)OCO3)[C@H]1Cc1ccc2c(c1)OCO2
REMARK SMILES IDX 4 1 5 2 16 3 2 4 3 5 6 6 7 7 12 8 8 9 11 10 9 11 10 12 13 13
REMARK SMILES IDX 15 14 14 15 17 16 18 17 23 18 19 19 22 20 20 21 21 22 24 23
REMARK SMILES IDX 26 24 25 25 1 26
REMARK H PARENT 1 27
REMARK Flexibility Score: inf
ROOT
ATOM      1  C   UNL     1     -14.034 -32.325 -12.425  1.00  0.00     0.168 C 
ATOM      2  C   UNL     1     -13.153 -31.619 -11.384  1.00  0.00     0.028 C 
ATOM      3  C   UNL     1     -14.090 -31.436 -10.194  1.00  0.00     0.055 C 
ATOM      4  C   UNL     1     -15.139 -32.518 -10.470  1.00  0.00     0.250 C 
ATOM      5  O   UNL     1     -15.293 -32.615 -11.862  1.00  0.00    -0.352 OA
ENDROOT
BRANCH   2   6
ATOM      6  C   UNL     1     -11.905 -32.450 -11.002  1.00  0.00     0.042 C 
BRANCH   6   7
ATOM      7  C   UNL     1     -11.108 -31.792  -9.903  1.00  0.00    -0.044 A 
ATOM      8  C   UNL     1     -10.749 -32.531  -8.753  1.00  0.00     0.054 A 
ATOM      9  C   UNL     1     -10.725 -30.429 -10.008  1.00  0.00     0.008 A 
ATOM     10  C   UNL     1     -10.026 -31.882  -7.756  1.00  0.00     0.166 A 
ATOM     11  C   UNL     1      -9.994 -29.812  -8.977  1.00  0.00     0.051 A 
ATOM     12  C   UNL     1      -9.665 -30.578  -7.864  1.00  0.00     0.165 A 
ATOM     13  O   UNL     1      -9.569 -32.388  -6.556  1.00  0.00    -0.454 OA
ATOM     14  O   UNL     1      -8.961 -30.201  -6.736  1.00  0.00    -0.454 OA
ATOM     15  C   UNL     1      -8.876 -31.339  -5.866  1.00  0.00     0.468 C 
ENDBRANCH   6   7
ENDBRANCH   2   6
BRANCH   3  16
ATOM     16  C   UNL     1     -14.667 -29.993 -10.167  1.00  0.00     0.044 C 
BRANCH  16  17
ATOM     17  C   UNL     1     -14.635 -29.321 -11.518  1.00  0.00    -0.044 A 
ATOM     18  C   UNL     1     -13.462 -28.665 -11.956  1.00  0.00     0.054 A 
ATOM     19  C   UNL     1     -15.771 -29.365 -12.369  1.00  0.00     0.008 A 
ATOM     20  C   UNL     1     -13.477 -28.066 -13.211  1.00  0.00     0.166 A 
ATOM     21  C   UNL     1     -15.743 -28.745 -13.632  1.00  0.00     0.051 A 
ATOM     22  C   UNL     1     -14.570 -28.103 -14.014  1.00  0.00     0.165 A 
ATOM     23  O   UNL     1     -12.464 -27.371 -13.844  1.00  0.00    -0.454 OA
ATOM     24  O   UNL     1     -14.299 -27.432 -15.191  1.00  0.00    -0.454 OA
ATOM     25  C   UNL     1     -12.953 -26.944 -15.124  1.00  0.00     0.468 C 
ENDBRANCH  16  17
ENDBRANCH   3  16
BRANCH   4  26
ATOM     26  O   UNL     1     -16.378 -32.238  -9.880  1.00  0.00    -0.368 OA
ATOM     27  H   UNL     1     -16.994 -32.967 -10.155  1.00  0.00     0.213 HD
ENDBRANCH   4  26
TORSDOF 5
ENDMDL
MODEL 8
REMARK VINA RESULT:    -7.818      2.947      7.368
REMARK INTER + INTRA:         -10.760
REMARK INTER:                  -9.981
REMARK INTRA:                  -0.779
REMARK UNBOUND:                -0.885
REMARK SMILES O[C@H]1OC[C@H](Cc2ccc3c(c2)OCO3)[C@H]1Cc1ccc2c(c1)OCO2
REMARK SMILES IDX 4 1 5 2 16 3 2 4 3 5 6 6 7 7 12 8 8 9 11 10 9 11 10 12 13 13
REMARK SMILES IDX 15 14 14 15 17 16 18 17 23 18 19 19 22 20 20 21 21 22 24 23
REMARK SMILES IDX 26 24 25 25 1 26
REMARK H PARENT 1 27
REMARK Flexibility Score: inf
ROOT
ATOM      1  C   UNL     1     -13.680 -32.441  -9.244  1.00  0.00     0.168 C 
ATOM      2  C   UNL     1     -14.476 -31.631 -10.277  1.00  0.00     0.028 C 
ATOM      3  C   UNL     1     -13.419 -31.233 -11.304  1.00  0.00     0.055 C 
ATOM      4  C   UNL     1     -12.344 -32.295 -11.053  1.00  0.00     0.250 C 
ATOM      5  O   UNL     1     -12.348 -32.589  -9.680  1.00  0.00    -0.352 OA
ENDROOT
BRANCH   2   6
ATOM      6  C   UNL     1     -15.616 -32.453 -10.924  1.00  0.00     0.042 C 
BRANCH   6   7
ATOM      7  C   UNL     1     -15.366 -32.703 -12.390  1.00  0.00    -0.044 A 
ATOM      8  C   UNL     1     -14.868 -33.955 -12.818  1.00  0.00     0.054 A 
ATOM      9  C   UNL     1     -15.613 -31.684 -13.348  1.00  0.00     0.008 A 
ATOM     10  C   UNL     1     -14.637 -34.139 -14.177  1.00  0.00     0.166 A 
ATOM     11  C   UNL     1     -15.366 -31.912 -14.713  1.00  0.00     0.051 A 
ATOM     12  C   UNL     1     -14.875 -33.160 -15.086  1.00  0.00     0.165 A 
ATOM     13  O   UNL     1     -14.158 -35.260 -14.825  1.00  0.00    -0.454 OA
ATOM     14  O   UNL     1     -14.558 -33.617 -16.351  1.00  0.00    -0.454 OA
ATOM     15  C   UNL     1     -14.091 -34.969 -16.228  1.00  0.00     0.468 C 
ENDBRANCH   6   7
ENDBRANCH   2   6
BRANCH   3  16
ATOM     16  C   UNL     1     -12.936 -29.778 -11.057  1.00  0.00     0.044 C 
BRANCH  16  17
ATOM     17  C   UNL     1     -13.653 -28.765 -11.916  1.00  0.00    -0.044 A 
ATOM     18  C   UNL     1     -12.942 -28.037 -12.897  1.00  0.00     0.054 A 
ATOM     19  C   UNL     1     -15.050 -28.554 -11.765  1.00  0.00     0.008 A 
ATOM     20  C   UNL     1     -13.646 -27.120 -13.670  1.00  0.00     0.166 A 
ATOM     21  C   UNL     1     -15.722 -27.616 -12.568  1.00  0.00     0.051 A 
ATOM     22  C   UNL     1     -14.978 -26.916 -13.512  1.00  0.00     0.165 A 
ATOM     23  O   UNL     1     -13.171 -26.298 -14.675  1.00  0.00    -0.454 OA
ATOM     24  O   UNL     1     -15.406 -25.956 -14.408  1.00  0.00    -0.454 OA
ATOM     25  C   UNL     1     -14.274 -25.530 -15.177  1.00  0.00     0.468 C 
ENDBRANCH  16  17
ENDBRANCH   3  16
BRANCH   4  26
ATOM     26  O   UNL     1     -11.064 -31.876 -11.439  1.00  0.00    -0.368 OA
ATOM     27  H   UNL     1     -10.941 -32.174 -12.378  1.00  0.00     0.213 HD
ENDBRANCH   4  26
TORSDOF 5
ENDMDL
MODEL 9
REMARK VINA RESULT:    -7.794      3.734      7.705
REMARK INTER + INTRA:         -10.729
REMARK INTER:                 -10.384
REMARK INTRA:                  -0.346
REMARK UNBOUND:                -0.885
REMARK SMILES O[C@H]1OC[C@H](Cc2ccc3c(c2)OCO3)[C@H]1Cc1ccc2c(c1)OCO2
REMARK SMILES IDX 4 1 5 2 16 3 2 4 3 5 6 6 7 7 12 8 8 9 11 10 9 11 10 12 13 13
REMARK SMILES IDX 15 14 14 15 17 16 18 17 23 18 19 19 22 20 20 21 21 22 24 23
REMARK SMILES IDX 26 24 25 25 1 26
REMARK H PARENT 1 27
REMARK Flexibility Score: inf
ROOT
ATOM      1  C   UNL     1     -16.170 -32.192 -10.331  1.00  0.00     0.168 C 
ATOM      2  C   UNL     1     -15.624 -32.398 -11.751  1.00  0.00     0.028 C 
ATOM      3  C   UNL     1     -15.078 -31.022 -12.123  1.00  0.00     0.055 C 
ATOM      4  C   UNL     1     -14.861 -30.404 -10.738  1.00  0.00     0.250 C 
ATOM      5  O   UNL     1     -15.872 -30.886  -9.893  1.00  0.00    -0.352 OA
ENDROOT
BRANCH   2   6
ATOM      6  C   UNL     1     -14.522 -33.483 -11.812  1.00  0.00     0.042 C 
BRANCH   6   7
ATOM      7  C   UNL     1     -14.656 -34.350 -13.039  1.00  0.00    -0.044 A 
ATOM      8  C   UNL     1     -14.166 -33.892 -14.283  1.00  0.00     0.054 A 
ATOM      9  C   UNL     1     -15.284 -35.621 -12.958  1.00  0.00     0.008 A 
ATOM     10  C   UNL     1     -14.322 -34.718 -15.393  1.00  0.00     0.166 A 
ATOM     11  C   UNL     1     -15.421 -36.424 -14.104  1.00  0.00     0.051 A 
ATOM     12  C   UNL     1     -14.924 -35.931 -15.307  1.00  0.00     0.165 A 
ATOM     13  O   UNL     1     -13.931 -34.490 -16.697  1.00  0.00    -0.454 OA
ATOM     14  O   UNL     1     -14.941 -36.526 -16.553  1.00  0.00    -0.454 OA
ATOM     15  C   UNL     1     -14.309 -35.631 -17.480  1.00  0.00     0.468 C 
ENDBRANCH   6   7
ENDBRANCH   2   6
BRANCH   3  16
ATOM     16  C   UNL     1     -16.096 -30.248 -13.005  1.00  0.00     0.044 C 
BRANCH  16  17
ATOM     17  C   UNL     1     -15.558 -28.931 -13.507  1.00  0.00    -0.044 A 
ATOM     18  C   UNL     1     -14.291 -28.875 -14.132  1.00  0.00     0.054 A 
ATOM     19  C   UNL     1     -16.328 -27.744 -13.383  1.00  0.00     0.008 A 
ATOM     20  C   UNL     1     -13.839 -27.640 -14.586  1.00  0.00     0.166 A 
ATOM     21  C   UNL     1     -15.832 -26.516 -13.856  1.00  0.00     0.051 A 
ATOM     22  C   UNL     1     -14.576 -26.510 -14.452  1.00  0.00     0.165 A 
ATOM     23  O   UNL     1     -12.645 -27.340 -15.215  1.00  0.00    -0.454 OA
ATOM     24  O   UNL     1     -13.883 -25.442 -14.990  1.00  0.00    -0.454 OA
ATOM     25  C   UNL     1     -12.633 -25.932 -15.492  1.00  0.00     0.468 C 
ENDBRANCH  16  17
ENDBRANCH   3  16
BRANCH   4  26
ATOM     26  O   UNL     1     -14.894 -29.003 -10.756  1.00  0.00    -0.368 OA
ATOM     27  H   UNL     1     -14.303 -28.697 -10.020  1.00  0.00     0.213 HD
ENDBRANCH   4  26
TORSDOF 5
ENDMDL
