MODEL 1
REMARK VINA RESULT:    -3.884      0.000      0.000
REMARK INTER + INTRA:          -4.347
REMARK INTER:                  -4.339
REMARK INTRA:                  -0.008
REMARK UNBOUND:                -0.008
REMARK SMILES CCCC(=O)[O-]
REMARK SMILES IDX 3 1 4 2 5 3 6 4 2 5 1 6
REMARK H PARENT
REMARK Flexibility Score: inf
ROOT
ATOM      1  C   UNL     1     -18.003  32.466  -1.079  1.00  0.00     0.052 C 
ENDROOT
BRANCH   1   2
ATOM      2  C   UNL     1     -18.255  31.172  -1.790  1.00  0.00     0.041 C 
ATOM      3  O   UNL     1     -18.491  30.123  -1.134  1.00  0.00    -0.550 OA
ATOM      4  O   UNL     1     -18.264  31.130  -3.178  1.00  0.00    -0.550 OA
ENDBRANCH   1   2
BRANCH   1   5
ATOM      5  C   UNL     1     -17.196  32.260   0.209  1.00  0.00     0.003 C 
ATOM      6  C   UNL     1     -16.279  33.443   0.517  1.00  0.00     0.004 C 
ENDBRANCH   1   5
TORSDOF 2
ENDMDL
MODEL 2
REMARK VINA RESULT:    -3.743      2.816      3.836
REMARK INTER + INTRA:          -4.189
REMARK INTER:                  -4.151
REMARK INTRA:                  -0.038
REMARK UNBOUND:                -0.008
REMARK SMILES CCCC(=O)[O-]
REMARK SMILES IDX 3 1 4 2 5 3 6 4 2 5 1 6
REMARK H PARENT
REMARK Flexibility Score: inf
ROOT
ATOM      1  C   UNL     1     -16.778  33.315  -0.599  1.00  0.00     0.052 C 
ENDROOT
BRANCH   1   2
ATOM      2  C   UNL     1     -16.288  33.233   0.814  1.00  0.00     0.041 C 
ATOM      3  O   UNL     1     -15.898  34.271   1.411  1.00  0.00    -0.550 OA
ATOM      4  O   UNL     1     -16.296  32.016   1.485  1.00  0.00    -0.550 OA
ENDBRANCH   1   2
BRANCH   1   5
ATOM      5  C   UNL     1     -18.168  32.685  -0.757  1.00  0.00     0.003 C 
ATOM      6  C   UNL     1     -18.140  31.422  -1.617  1.00  0.00     0.004 C 
ENDBRANCH   1   5
TORSDOF 2
ENDMDL
MODEL 3
REMARK VINA RESULT:    -3.523      2.517      3.413
REMARK INTER + INTRA:          -3.944
REMARK INTER:                  -3.903
REMARK INTRA:                  -0.041
REMARK UNBOUND:                -0.008
REMARK SMILES CCCC(=O)[O-]
REMARK SMILES IDX 3 1 4 2 5 3 6 4 2 5 1 6
REMARK H PARENT
REMARK Flexibility Score: inf
ROOT
ATOM      1  C   UNL     1     -16.641  32.085   1.504  1.00  0.00     0.052 C 
ENDROOT
BRANCH   1   2
ATOM      2  C   UNL     1     -15.870  30.823   1.267  1.00  0.00     0.041 C 
ATOM      3  O   UNL     1     -14.724  30.676   1.767  1.00  0.00    -0.550 OA
ATOM      4  O   UNL     1     -16.432  29.794   0.521  1.00  0.00    -0.550 OA
ENDBRANCH   1   2
BRANCH   1   5
ATOM      5  C   UNL     1     -16.347  33.141   0.431  1.00  0.00     0.003 C 
ATOM      6  C   UNL     1     -17.365  33.111  -0.709  1.00  0.00     0.004 C 
ENDBRANCH   1   5
TORSDOF 2
ENDMDL
MODEL 4
REMARK VINA RESULT:    -3.384      2.980      3.777
REMARK INTER + INTRA:          -3.788
REMARK INTER:                  -3.756
REMARK INTRA:                  -0.032
REMARK UNBOUND:                -0.008
REMARK SMILES CCCC(=O)[O-]
REMARK SMILES IDX 3 1 4 2 5 3 6 4 2 5 1 6
REMARK H PARENT
REMARK Flexibility Score: inf
ROOT
ATOM      1  C   UNL     1     -16.362  31.410   1.975  1.00  0.00     0.052 C 
ENDROOT
BRANCH   1   2
ATOM      2  C   UNL     1     -16.671  32.479   0.974  1.00  0.00     0.041 C 
ATOM      3  O   UNL     1     -15.990  33.538   0.946  1.00  0.00    -0.550 OA
ATOM      4  O   UNL     1     -17.689  32.293   0.047  1.00  0.00    -0.550 OA
ENDBRANCH   1   2
BRANCH   1   5
ATOM      5  C   UNL     1     -15.425  30.342   1.396  1.00  0.00     0.003 C 
ATOM      6  C   UNL     1     -16.188  29.202   0.722  1.00  0.00     0.004 C 
ENDBRANCH   1   5
TORSDOF 2
ENDMDL
MODEL 5
REMARK VINA RESULT:    -3.381      3.266      3.704
REMARK INTER + INTRA:          -3.785
REMARK INTER:                  -3.775
REMARK INTRA:                  -0.010
REMARK UNBOUND:                -0.008
REMARK SMILES CCCC(=O)[O-]
REMARK SMILES IDX 3 1 4 2 5 3 6 4 2 5 1 6
REMARK H PARENT
REMARK Flexibility Score: inf
ROOT
ATOM      1  C   UNL     1     -16.565  28.200   0.790  1.00  0.00     0.052 C 
ENDROOT
BRANCH   1   2
ATOM      2  C   UNL     1     -17.386  27.958  -0.439  1.00  0.00     0.041 C 
ATOM      3  O   UNL     1     -17.337  26.844  -1.025  1.00  0.00    -0.550 OA
ATOM      4  O   UNL     1     -18.233  28.950  -0.918  1.00  0.00    -0.550 OA
ENDBRANCH   1   2
BRANCH   1   5
ATOM      5  C   UNL     1     -16.013  29.630   0.832  1.00  0.00     0.003 C 
ATOM      6  C   UNL     1     -15.587  30.048   2.240  1.00  0.00     0.004 C 
ENDBRANCH   1   5
TORSDOF 2
ENDMDL
MODEL 6
REMARK VINA RESULT:    -3.303      4.278      5.099
REMARK INTER + INTRA:          -3.697
REMARK INTER:                  -3.678
REMARK INTRA:                  -0.020
REMARK UNBOUND:                -0.008
REMARK SMILES CCCC(=O)[O-]
REMARK SMILES IDX 3 1 4 2 5 3 6 4 2 5 1 6
REMARK H PARENT
REMARK Flexibility Score: inf
ROOT
ATOM      1  C   UNL     1     -16.615  27.260  -0.203  1.00  0.00     0.052 C 
ENDROOT
BRANCH   1   2
ATOM      2  C   UNL     1     -17.002  28.707  -0.189  1.00  0.00     0.041 C 
ATOM      3  O   UNL     1     -16.353  29.530   0.510  1.00  0.00    -0.550 OA
ATOM      4  O   UNL     1     -18.057  29.154  -0.974  1.00  0.00    -0.550 OA
ENDBRANCH   1   2
BRANCH   1   5
ATOM      5  C   UNL     1     -17.007  26.554   1.102  1.00  0.00     0.003 C 
ATOM      6  C   UNL     1     -18.122  25.529   0.896  1.00  0.00     0.004 C 
ENDBRANCH   1   5
TORSDOF 2
ENDMDL
MODEL 7
REMARK VINA RESULT:    -3.240     10.912     11.541
REMARK INTER + INTRA:          -3.627
REMARK INTER:                  -3.620
REMARK INTRA:                  -0.007
REMARK UNBOUND:                -0.008
REMARK SMILES CCCC(=O)[O-]
REMARK SMILES IDX 3 1 4 2 5 3 6 4 2 5 1 6
REMARK H PARENT
REMARK Flexibility Score: inf
ROOT
ATOM      1  C   UNL     1      -9.530  38.051   2.826  1.00  0.00     0.052 C 
ENDROOT
BRANCH   1   2
ATOM      2  C   UNL     1     -10.243  37.637   4.076  1.00  0.00     0.041 C 
ATOM      3  O   UNL     1     -11.088  38.405   4.608  1.00  0.00    -0.550 OA
ATOM      4  O   UNL     1     -10.001  36.389   4.635  1.00  0.00    -0.550 OA
ENDBRANCH   1   2
BRANCH   1   5
ATOM      5  C   UNL     1      -8.101  37.494   2.775  1.00  0.00     0.003 C 
ATOM      6  C   UNL     1      -7.143  38.418   2.023  1.00  0.00     0.004 C 
ENDBRANCH   1   5
TORSDOF 2
ENDMDL
MODEL 8
REMARK VINA RESULT:    -3.218      4.049      5.159
REMARK INTER + INTRA:          -3.602
REMARK INTER:                  -3.591
REMARK INTRA:                  -0.011
REMARK UNBOUND:                -0.008
REMARK SMILES CCCC(=O)[O-]
REMARK SMILES IDX 3 1 4 2 5 3 6 4 2 5 1 6
REMARK H PARENT
REMARK Flexibility Score: inf
ROOT
ATOM      1  C   UNL     1     -16.204  28.956   1.596  1.00  0.00     0.052 C 
ENDROOT
BRANCH   1   2
ATOM      2  C   UNL     1     -15.560  30.265   1.934  1.00  0.00     0.041 C 
ATOM      3  O   UNL     1     -15.707  31.259   1.176  1.00  0.00    -0.550 OA
ATOM      4  O   UNL     1     -14.824  30.397   3.105  1.00  0.00    -0.550 OA
ENDBRANCH   1   2
BRANCH   1   5
ATOM      5  C   UNL     1     -16.345  28.767   0.080  1.00  0.00     0.003 C 
ATOM      6  C   UNL     1     -17.252  27.589  -0.278  1.00  0.00     0.004 C 
ENDBRANCH   1   5
TORSDOF 2
ENDMDL
MODEL 9
REMARK VINA RESULT:    -3.217      5.581      6.367
REMARK INTER + INTRA:          -3.602
REMARK INTER:                  -3.597
REMARK INTRA:                  -0.005
REMARK UNBOUND:                -0.008
REMARK SMILES CCCC(=O)[O-]
REMARK SMILES IDX 3 1 4 2 5 3 6 4 2 5 1 6
REMARK H PARENT
REMARK Flexibility Score: inf
ROOT
ATOM      1  C   UNL     1     -17.535  25.956   0.778  1.00  0.00     0.052 C 
ENDROOT
BRANCH   1   2
ATOM      2  C   UNL     1     -18.513  24.885   0.407  1.00  0.00     0.041 C 
ATOM      3  O   UNL     1     -18.119  23.839  -0.173  1.00  0.00    -0.550 OA
ATOM      4  O   UNL     1     -19.857  25.026   0.731  1.00  0.00    -0.550 OA
ENDBRANCH   1   2
BRANCH   1   5
ATOM      5  C   UNL     1     -17.221  26.877  -0.408  1.00  0.00     0.003 C 
ATOM      6  C   UNL     1     -16.600  28.203   0.032  1.00  0.00     0.004 C 
ENDBRANCH   1   5
TORSDOF 2
ENDMDL
