MODEL 1
REMARK VINA RESULT:    -4.851      0.000      0.000
REMARK INTER + INTRA:          -5.440
REMARK INTER:                  -5.277
REMARK INTRA:                  -0.164
REMARK UNBOUND:                -0.164
REMARK SMILES C=C(C)[C@H]1CC[C@H](C)C[C@@H]1O
REMARK SMILES IDX 8 1 7 2 6 3 5 4 4 5 10 6 9 7 11 8 2 10 1 11 3 12
REMARK H PARENT 11 9
REMARK Flexibility Score: inf
ROOT
ATOM      1  C   UNL     1      18.523  27.885  37.221  1.00  0.00     0.008 C 
ATOM      2  C   UNL     1      17.169  28.556  37.476  1.00  0.00    -0.012 C 
ATOM      3  C   UNL     1      16.299  28.517  36.205  1.00  0.00     0.004 C 
ATOM      4  C   UNL     1      14.935  29.176  36.449  1.00  0.00     0.011 C 
ATOM      5  C   UNL     1      14.200  28.502  37.625  1.00  0.00     0.043 C 
ATOM      6  C   UNL     1      15.069  28.529  38.906  1.00  0.00     0.121 C 
ATOM      7  C   UNL     1      16.442  27.876  38.652  1.00  0.00     0.035 C 
ENDROOT
BRANCH   6   8
ATOM      8  O   UNL     1      14.416  27.890  39.974  1.00  0.00    -0.392 OA
ATOM      9  H   UNL     1      14.176  26.973  39.676  1.00  0.00     0.210 HD
ENDBRANCH   6   8
BRANCH   5  10
ATOM     10  C   UNL     1      12.839  29.149  37.857  1.00  0.00    -0.075 C 
ATOM     11  C   UNL     1      12.762  30.400  38.339  1.00  0.00     0.008 C 
ATOM     12  C   UNL     1      11.558  28.415  37.553  1.00  0.00     0.039 C 
ENDBRANCH   5  10
TORSDOF 2
ENDMDL
MODEL 2
REMARK VINA RESULT:    -4.774     23.291     24.572
REMARK INTER + INTRA:          -5.356
REMARK INTER:                  -5.216
REMARK INTRA:                  -0.140
REMARK UNBOUND:                -0.164
REMARK SMILES C=C(C)[C@H]1CC[C@H](C)C[C@@H]1O
REMARK SMILES IDX 8 1 7 2 6 3 5 4 4 5 10 6 9 7 11 8 2 10 1 11 3 12
REMARK H PARENT 11 9
REMARK Flexibility Score: inf
ROOT
ATOM      1  C   UNL     1       3.710  48.125  46.986  1.00  0.00     0.008 C 
ATOM      2  C   UNL     1       3.083  47.195  48.029  1.00  0.00    -0.012 C 
ATOM      3  C   UNL     1       1.912  47.897  48.745  1.00  0.00     0.004 C 
ATOM      4  C   UNL     1       1.267  46.973  49.785  1.00  0.00     0.011 C 
ATOM      5  C   UNL     1       0.788  45.659  49.134  1.00  0.00     0.043 C 
ATOM      6  C   UNL     1       1.956  44.949  48.406  1.00  0.00     0.121 C 
ATOM      7  C   UNL     1       2.608  45.886  47.370  1.00  0.00     0.035 C 
ENDROOT
BRANCH   6   8
ATOM      8  O   UNL     1       1.520  43.765  47.786  1.00  0.00    -0.392 OA
ATOM      9  H   UNL     1       0.771  43.399  48.328  1.00  0.00     0.210 HD
ENDBRANCH   6   8
BRANCH   5  10
ATOM     10  C   UNL     1       0.136  44.748  50.167  1.00  0.00    -0.075 C 
ATOM     11  C   UNL     1       0.678  44.617  51.388  1.00  0.00     0.008 C 
ATOM     12  C   UNL     1      -1.123  43.980  49.852  1.00  0.00     0.039 C 
ENDBRANCH   5  10
TORSDOF 2
ENDMDL
MODEL 3
REMARK VINA RESULT:    -4.178      1.853      4.635
REMARK INTER + INTRA:          -4.708
REMARK INTER:                  -4.943
REMARK INTRA:                   0.235
REMARK UNBOUND:                -0.164
REMARK SMILES C=C(C)[C@H]1CC[C@H](C)C[C@@H]1O
REMARK SMILES IDX 8 1 7 2 6 3 5 4 4 5 10 6 9 7 11 8 2 10 1 11 3 12
REMARK H PARENT 11 9
REMARK Flexibility Score: inf
ROOT
ATOM      1  C   UNL     1      11.573  28.424  37.496  1.00  0.00     0.008 C 
ATOM      2  C   UNL     1      13.050  28.814  37.387  1.00  0.00    -0.012 C 
ATOM      3  C   UNL     1      13.810  28.416  38.667  1.00  0.00     0.004 C 
ATOM      4  C   UNL     1      15.294  28.791  38.566  1.00  0.00     0.011 C 
ATOM      5  C   UNL     1      15.946  28.139  37.330  1.00  0.00     0.043 C 
ATOM      6  C   UNL     1      15.184  28.527  36.039  1.00  0.00     0.121 C 
ATOM      7  C   UNL     1      13.692  28.158  36.149  1.00  0.00     0.035 C 
ENDROOT
BRANCH   6   8
ATOM      8  O   UNL     1      15.756  27.912  34.911  1.00  0.00    -0.392 OA
ATOM      9  H   UNL     1      15.085  27.943  34.178  1.00  0.00     0.210 HD
ENDBRANCH   6   8
BRANCH   5  10
ATOM     10  C   UNL     1      17.423  28.501  37.240  1.00  0.00    -0.075 C 
ATOM     11  C   UNL     1      17.842  29.397  36.332  1.00  0.00     0.008 C 
ATOM     12  C   UNL     1      18.443  27.875  38.158  1.00  0.00     0.039 C 
ENDBRANCH   5  10
TORSDOF 2
ENDMDL
MODEL 4
REMARK VINA RESULT:    -3.800     23.824     25.429
REMARK INTER + INTRA:          -4.297
REMARK INTER:                  -4.282
REMARK INTRA:                  -0.014
REMARK UNBOUND:                -0.164
REMARK SMILES C=C(C)[C@H]1CC[C@H](C)C[C@@H]1O
REMARK SMILES IDX 8 1 7 2 6 3 5 4 4 5 10 6 9 7 11 8 2 10 1 11 3 12
REMARK H PARENT 11 9
REMARK Flexibility Score: inf
ROOT
ATOM      1  C   UNL     1       4.488  47.514  46.966  1.00  0.00     0.008 C 
ATOM      2  C   UNL     1       3.116  47.484  47.645  1.00  0.00    -0.012 C 
ATOM      3  C   UNL     1       2.454  46.103  47.467  1.00  0.00     0.004 C 
ATOM      4  C   UNL     1       1.083  46.055  48.153  1.00  0.00     0.011 C 
ATOM      5  C   UNL     1       1.203  46.404  49.650  1.00  0.00     0.043 C 
ATOM      6  C   UNL     1       1.873  47.787  49.841  1.00  0.00     0.121 C 
ATOM      7  C   UNL     1       3.245  47.833  49.141  1.00  0.00     0.035 C 
ENDROOT
BRANCH   6   8
ATOM      8  O   UNL     1       2.011  48.098  51.205  1.00  0.00    -0.392 OA
ATOM      9  H   UNL     1       1.104  48.285  51.565  1.00  0.00     0.210 HD
ENDBRANCH   6   8
BRANCH   5  10
ATOM     10  C   UNL     1      -0.159  46.342  50.332  1.00  0.00    -0.075 C 
ATOM     11  C   UNL     1      -0.604  45.183  50.844  1.00  0.00     0.008 C 
ATOM     12  C   UNL     1      -1.032  47.565  50.454  1.00  0.00     0.039 C 
ENDBRANCH   5  10
TORSDOF 2
ENDMDL
MODEL 5
REMARK VINA RESULT:    -3.645      1.094      4.287
REMARK INTER + INTRA:          -4.128
REMARK INTER:                  -4.527
REMARK INTRA:                   0.399
REMARK UNBOUND:                -0.164
REMARK SMILES C=C(C)[C@H]1CC[C@H](C)C[C@@H]1O
REMARK SMILES IDX 8 1 7 2 6 3 5 4 4 5 10 6 9 7 11 8 2 10 1 11 3 12
REMARK H PARENT 11 9
REMARK Flexibility Score: inf
ROOT
ATOM      1  C   UNL     1      12.157  29.030  37.989  1.00  0.00     0.008 C 
ATOM      2  C   UNL     1      13.529  28.473  37.596  1.00  0.00    -0.012 C 
ATOM      3  C   UNL     1      14.146  29.308  36.456  1.00  0.00     0.004 C 
ATOM      4  C   UNL     1      15.525  28.767  36.060  1.00  0.00     0.011 C 
ATOM      5  C   UNL     1      16.474  28.734  37.275  1.00  0.00     0.043 C 
ATOM      6  C   UNL     1      15.861  27.903  38.429  1.00  0.00     0.121 C 
ATOM      7  C   UNL     1      14.470  28.443  38.816  1.00  0.00     0.035 C 
ENDROOT
BRANCH   6   8
ATOM      8  O   UNL     1      16.708  27.892  39.550  1.00  0.00    -0.392 OA
ATOM      9  H   UNL     1      17.344  28.651  39.456  1.00  0.00     0.210 HD
ENDBRANCH   6   8
BRANCH   5  10
ATOM     10  C   UNL     1      17.849  28.210  36.876  1.00  0.00    -0.075 C 
ATOM     11  C   UNL     1      18.098  27.875  35.600  1.00  0.00     0.008 C 
ATOM     12  C   UNL     1      18.955  28.056  37.890  1.00  0.00     0.039 C 
ENDBRANCH   5  10
TORSDOF 2
ENDMDL
MODEL 6
REMARK VINA RESULT:    -3.381     23.757     25.525
REMARK INTER + INTRA:          -3.841
REMARK INTER:                  -3.728
REMARK INTRA:                  -0.113
REMARK UNBOUND:                -0.164
REMARK SMILES C=C(C)[C@H]1CC[C@H](C)C[C@@H]1O
REMARK SMILES IDX 8 1 7 2 6 3 5 4 4 5 10 6 9 7 11 8 2 10 1 11 3 12
REMARK H PARENT 11 9
REMARK Flexibility Score: inf
ROOT
ATOM      1  C   UNL     1      -1.125  48.124  46.667  1.00  0.00     0.008 C 
ATOM      2  C   UNL     1      -0.829  47.264  47.899  1.00  0.00    -0.012 C 
ATOM      3  C   UNL     1      -1.023  45.770  47.574  1.00  0.00     0.004 C 
ATOM      4  C   UNL     1      -0.719  44.895  48.797  1.00  0.00     0.011 C 
ATOM      5  C   UNL     1       0.711  45.150  49.316  1.00  0.00     0.043 C 
ATOM      6  C   UNL     1       0.918  46.650  49.639  1.00  0.00     0.121 C 
ATOM      7  C   UNL     1       0.601  47.525  48.410  1.00  0.00     0.035 C 
ENDROOT
BRANCH   6   8
ATOM      8  O   UNL     1       2.229  46.894  50.085  1.00  0.00    -0.392 OA
ATOM      9  H   UNL     1       2.249  47.808  50.478  1.00  0.00     0.210 HD
ENDBRANCH   6   8
BRANCH   5  10
ATOM     10  C   UNL     1       1.015  44.270  50.522  1.00  0.00    -0.075 C 
ATOM     11  C   UNL     1       2.181  43.607  50.595  1.00  0.00     0.008 C 
ATOM     12  C   UNL     1       0.031  44.122  51.655  1.00  0.00     0.039 C 
ENDBRANCH   5  10
TORSDOF 2
ENDMDL
