MODEL 1
REMARK VINA RESULT:    -6.003      0.000      0.000
REMARK INTER + INTRA:         -13.373
REMARK INTER:                  -9.863
REMARK INTRA:                  -3.510
REMARK UNBOUND:                -3.510
REMARK SMILES C[C@H]1O[C@@H](OC[C@H]2O[C@H](Oc3c(-c4ccc(O)c(O)c4)oc4cc(O)cc(O)c4c3=O)[C@H](O)[C@H](O)[C@@H]2O)[C@H](O)[C@@H](O)[C@H]1O
REMARK SMILES IDX 7 1 36 2 34 3 32 4 9 5 8 6 6 7 5 8 4 9 1 10 2 11 42 12 3 13
REMARK SMILES IDX 40 14 38 15 43 16 41 18 39 20 37 22 35 24 10 26 11 27 12 28
REMARK SMILES IDX 30 29 21 30 29 31 31 32 22 33 27 34 23 35 26 36 24 37 13 38
REMARK SMILES IDX 20 39 14 40 18 41 15 42 16 43 19 44 17 46 28 48 25 50 33 52
REMARK H PARENT 43 17 41 19 39 21 37 23 35 25 19 45 17 47 28 49 25 51 33 53
REMARK Flexibility Score: inf
ROOT
ATOM      1  C   UNL     1     481.425  41.860 458.734  1.00  0.00     0.180 C 
ATOM      2  C   UNL     1     480.773  43.275 458.705  1.00  0.00     0.177 C 
ATOM      3  C   UNL     1     479.281  43.219 459.085  1.00  0.00     0.180 C 
ATOM      4  C   UNL     1     479.077  42.391 460.363  1.00  0.00     0.214 C 
ATOM      5  C   UNL     1     479.845  41.053 460.295  1.00  0.00     0.339 C 
ATOM      6  O   UNL     1     481.219  41.237 459.995  1.00  0.00    -0.332 OA
ENDROOT
BRANCH   1   7
ATOM      7  C   UNL     1     482.947  41.939 458.527  1.00  0.00     0.198 C 
BRANCH   7   8
ATOM      8  O   UNL     1     483.563  42.695 459.554  1.00  0.00    -0.347 OA
BRANCH   8   9
ATOM      9  C   UNL     1     484.799  42.108 459.932  1.00  0.00     0.281 C 
ATOM     10  C   UNL     1     483.922  39.372 462.260  1.00  0.00     0.041 C 
ATOM     11  C   UNL     1     484.606  40.672 461.853  1.00  0.00     0.150 C 
ATOM     12  C   UNL     1     483.993  41.884 462.584  1.00  0.00     0.174 C 
ATOM     13  O   UNL     1     484.548  40.797 460.435  1.00  0.00    -0.344 OA
ATOM     14  C   UNL     1     484.814  43.164 462.274  1.00  0.00     0.179 C 
ATOM     15  C   UNL     1     485.533  43.062 460.904  1.00  0.00     0.202 C 
BRANCH  12  16
ATOM     16  O   UNL     1     482.652  42.028 462.194  1.00  0.00    -0.388 OA
ATOM     17  H   UNL     1     482.096  42.081 463.019  1.00  0.00     0.211 HD
ENDBRANCH  12  16
BRANCH  14  18
ATOM     18  O   UNL     1     483.992  44.309 462.295  1.00  0.00    -0.387 OA
ATOM     19  H   UNL     1     483.841  44.544 463.244  1.00  0.00     0.211 HD
ENDBRANCH  14  18
BRANCH  15  20
ATOM     20  O   UNL     1     486.846  42.590 461.095  1.00  0.00    -0.385 OA
ATOM     21  H   UNL     1     486.784  41.609 461.243  1.00  0.00     0.211 HD
ENDBRANCH  15  20
ENDBRANCH   8   9
ENDBRANCH   7   8
ENDBRANCH   1   7
BRANCH   2  22
ATOM     22  O   UNL     1     480.940  43.917 457.467  1.00  0.00    -0.387 OA
ATOM     23  H   UNL     1     481.798  44.407 457.488  1.00  0.00     0.211 HD
ENDBRANCH   2  22
BRANCH   3  24
ATOM     24  O   UNL     1     478.468  42.748 458.035  1.00  0.00    -0.387 OA
ATOM     25  H   UNL     1     478.731  43.211 457.201  1.00  0.00     0.211 HD
ENDBRANCH   3  24
BRANCH   5  26
ATOM     26  O   UNL     1     479.231  40.112 459.403  1.00  0.00    -0.454 OA
BRANCH  26  27
ATOM     27  C   UNL     1     478.909  38.812 459.828  1.00  0.00     0.214 A 
ATOM     28  C   UNL     1     479.727  37.722 459.505  1.00  0.00     0.180 A 
ATOM     29  C   UNL     1     477.780  38.604 460.626  1.00  0.00     0.239 A 
ATOM     30  O   UNL     1     479.468  36.525 460.006  1.00  0.00    -0.452 OA
ATOM     31  C   UNL     1     477.564  37.330 461.207  1.00  0.00     0.111 A 
ATOM     32  O   UNL     1     476.977  39.560 460.792  1.00  0.00    -0.285 OA
ATOM     33  C   UNL     1     478.453  36.292 460.835  1.00  0.00     0.146 A 
ATOM     34  C   UNL     1     476.523  37.032 462.134  1.00  0.00     0.134 A 
ATOM     35  C   UNL     1     478.278  34.995 461.330  1.00  0.00     0.094 A 
ATOM     36  C   UNL     1     476.349  35.725 462.589  1.00  0.00     0.093 A 
ATOM     37  C   UNL     1     477.240  34.711 462.210  1.00  0.00     0.123 A 
BRANCH  28  38
ATOM     38  C   UNL     1     480.838  37.866 458.553  1.00  0.00     0.025 A 
ATOM     39  C   UNL     1     482.124  38.180 459.009  1.00  0.00     0.062 A 
ATOM     40  C   UNL     1     480.611  37.731 457.176  1.00  0.00     0.016 A 
ATOM     41  C   UNL     1     483.180  38.356 458.102  1.00  0.00     0.158 A 
ATOM     42  C   UNL     1     481.656  37.880 456.267  1.00  0.00     0.051 A 
ATOM     43  C   UNL     1     482.946  38.197 456.717  1.00  0.00     0.157 A 
BRANCH  41  44
ATOM     44  O   UNL     1     484.439  38.662 458.626  1.00  0.00    -0.504 OA
ATOM     45  H   UNL     1     485.204  39.022 458.074  1.00  0.00     0.293 HD
ENDBRANCH  41  44
BRANCH  43  46
ATOM     46  O   UNL     1     483.945  38.378 455.757  1.00  0.00    -0.504 OA
ATOM     47  H   UNL     1     483.893  39.038 454.998  1.00  0.00     0.293 HD
ENDBRANCH  43  46
ENDBRANCH  28  38
BRANCH  34  48
ATOM     48  O   UNL     1     475.655  38.000 462.665  1.00  0.00    -0.507 OA
ATOM     49  H   UNL     1     475.068  38.609 462.110  1.00  0.00     0.293 HD
ENDBRANCH  34  48
BRANCH  37  50
ATOM     50  O   UNL     1     477.088  33.416 462.701  1.00  0.00    -0.508 OA
ATOM     51  H   UNL     1     476.564  32.709 462.196  1.00  0.00     0.293 HD
ENDBRANCH  37  50
ENDBRANCH  26  27
ENDBRANCH   5  26
BRANCH   4  52
ATOM     52  O   UNL     1     477.713  42.162 460.596  1.00  0.00    -0.384 OA
ATOM     53  H   UNL     1     477.280  42.070 459.710  1.00  0.00     0.211 HD
ENDBRANCH   4  52
TORSDOF 16
ENDMDL
MODEL 2
REMARK VINA RESULT:    -5.936      2.834      6.900
REMARK INTER + INTRA:         -13.262
REMARK INTER:                 -10.140
REMARK INTRA:                  -3.122
REMARK UNBOUND:                -3.510
REMARK SMILES C[C@H]1O[C@@H](OC[C@H]2O[C@H](Oc3c(-c4ccc(O)c(O)c4)oc4cc(O)cc(O)c4c3=O)[C@H](O)[C@H](O)[C@@H]2O)[C@H](O)[C@@H](O)[C@H]1O
REMARK SMILES IDX 7 1 36 2 34 3 32 4 9 5 8 6 6 7 5 8 4 9 1 10 2 11 42 12 3 13
REMARK SMILES IDX 40 14 38 15 43 16 41 18 39 20 37 22 35 24 10 26 11 27 12 28
REMARK SMILES IDX 30 29 21 30 29 31 31 32 22 33 27 34 23 35 26 36 24 37 13 38
REMARK SMILES IDX 20 39 14 40 18 41 15 42 16 43 19 44 17 46 28 48 25 50 33 52
REMARK H PARENT 43 17 41 19 39 21 37 23 35 25 19 45 17 47 28 49 25 51 33 53
REMARK Flexibility Score: inf
ROOT
ATOM      1  C   UNL     1     483.213  40.250 460.906  1.00  0.00     0.180 C 
ATOM      2  C   UNL     1     484.687  40.118 461.394  1.00  0.00     0.177 C 
ATOM      3  C   UNL     1     485.570  39.414 460.345  1.00  0.00     0.180 C 
ATOM      4  C   UNL     1     485.355  40.030 458.953  1.00  0.00     0.214 C 
ATOM      5  C   UNL     1     483.852  40.183 458.632  1.00  0.00     0.339 C 
ATOM      6  O   UNL     1     483.157  40.897 459.641  1.00  0.00    -0.332 OA
ENDROOT
BRANCH   1   7
ATOM      7  C   UNL     1     482.377  41.105 461.873  1.00  0.00     0.198 C 
BRANCH   7   8
ATOM      8  O   UNL     1     481.888  40.326 462.950  1.00  0.00    -0.347 OA
BRANCH   8   9
ATOM      9  C   UNL     1     481.907  41.074 464.156  1.00  0.00     0.281 C 
ATOM     10  C   UNL     1     484.722  39.705 466.124  1.00  0.00     0.041 C 
ATOM     11  C   UNL     1     483.262  40.061 465.867  1.00  0.00     0.150 C 
ATOM     12  C   UNL     1     482.400  38.798 465.675  1.00  0.00     0.174 C 
ATOM     13  O   UNL     1     483.197  40.947 464.753  1.00  0.00    -0.344 OA
ATOM     14  C   UNL     1     480.900  39.186 465.579  1.00  0.00     0.179 C 
ATOM     15  C   UNL     1     480.719  40.630 465.043  1.00  0.00     0.202 C 
BRANCH  12  16
ATOM     16  O   UNL     1     482.827  38.116 464.525  1.00  0.00    -0.388 OA
ATOM     17  H   UNL     1     483.798  37.915 464.630  1.00  0.00     0.211 HD
ENDBRANCH  12  16
BRANCH  14  18
ATOM     18  O   UNL     1     480.195  38.283 464.757  1.00  0.00    -0.387 OA
ATOM     19  H   UNL     1     479.886  37.542 465.335  1.00  0.00     0.211 HD
ENDBRANCH  14  18
BRANCH  15  20
ATOM     20  O   UNL     1     480.605  41.524 466.125  1.00  0.00    -0.385 OA
ATOM     21  H   UNL     1     479.853  42.139 465.917  1.00  0.00     0.211 HD
ENDBRANCH  15  20
ENDBRANCH   8   9
ENDBRANCH   7   8
ENDBRANCH   1   7
BRANCH   2  22
ATOM     22  O   UNL     1     484.785  39.467 462.634  1.00  0.00    -0.387 OA
ATOM     23  H   UNL     1     484.550  38.516 462.501  1.00  0.00     0.211 HD
ENDBRANCH   2  22
BRANCH   3  24
ATOM     24  O   UNL     1     485.380  38.018 460.322  1.00  0.00    -0.387 OA
ATOM     25  H   UNL     1     485.953  37.634 459.613  1.00  0.00     0.211 HD
ENDBRANCH   3  24
BRANCH   5  26
ATOM     26  O   UNL     1     483.221  38.928 458.343  1.00  0.00    -0.454 OA
BRANCH  26  27
ATOM     27  C   UNL     1     482.437  38.757 457.190  1.00  0.00     0.214 A 
ATOM     28  C   UNL     1     481.055  38.547 457.281  1.00  0.00     0.180 A 
ATOM     29  C   UNL     1     483.031  38.846 455.928  1.00  0.00     0.239 A 
ATOM     30  O   UNL     1     480.316  38.499 456.184  1.00  0.00    -0.452 OA
ATOM     31  C   UNL     1     482.211  38.862 454.773  1.00  0.00     0.111 A 
ATOM     32  O   UNL     1     484.288  38.892 455.858  1.00  0.00    -0.285 OA
ATOM     33  C   UNL     1     480.823  38.659 454.963  1.00  0.00     0.146 A 
ATOM     34  C   UNL     1     482.690  39.073 453.446  1.00  0.00     0.134 A 
ATOM     35  C   UNL     1     479.953  38.616 453.867  1.00  0.00     0.094 A 
ATOM     36  C   UNL     1     481.810  38.994 452.368  1.00  0.00     0.093 A 
ATOM     37  C   UNL     1     480.438  38.792 452.576  1.00  0.00     0.123 A 
BRANCH  28  38
ATOM     38  C   UNL     1     480.410  38.303 458.580  1.00  0.00     0.025 A 
ATOM     39  C   UNL     1     480.025  37.008 458.946  1.00  0.00     0.062 A 
ATOM     40  C   UNL     1     480.137  39.372 459.444  1.00  0.00     0.016 A 
ATOM     41  C   UNL     1     479.375  36.775 460.168  1.00  0.00     0.158 A 
ATOM     42  C   UNL     1     479.514  39.151 460.671  1.00  0.00     0.051 A 
ATOM     43  C   UNL     1     479.124  37.856 461.044  1.00  0.00     0.157 A 
BRANCH  41  44
ATOM     44  O   UNL     1     479.025  35.457 460.474  1.00  0.00    -0.504 OA
ATOM     45  H   UNL     1     478.182  35.009 460.144  1.00  0.00     0.293 HD
ENDBRANCH  41  44
BRANCH  43  46
ATOM     46  O   UNL     1     478.463  37.701 462.264  1.00  0.00    -0.504 OA
ATOM     47  H   UNL     1     477.762  38.333 462.617  1.00  0.00     0.293 HD
ENDBRANCH  43  46
ENDBRANCH  28  38
BRANCH  34  48
ATOM     48  O   UNL     1     484.022  39.400 453.144  1.00  0.00    -0.507 OA
ATOM     49  H   UNL     1     484.336  39.754 452.250  1.00  0.00     0.293 HD
ENDBRANCH  34  48
BRANCH  37  50
ATOM     50  O   UNL     1     479.556  38.756 451.499  1.00  0.00    -0.508 OA
ATOM     51  H   UNL     1     479.872  38.870 450.542  1.00  0.00     0.293 HD
ENDBRANCH  37  50
ENDBRANCH  26  27
ENDBRANCH   5  26
BRANCH   4  52
ATOM     52  O   UNL     1     485.992  39.263 457.966  1.00  0.00    -0.384 OA
ATOM     53  H   UNL     1     485.769  38.315 458.147  1.00  0.00     0.211 HD
ENDBRANCH   4  52
TORSDOF 16
ENDMDL
MODEL 3
REMARK VINA RESULT:    -5.895      1.066      1.944
REMARK INTER + INTRA:         -13.196
REMARK INTER:                 -10.742
REMARK INTRA:                  -2.454
REMARK UNBOUND:                -3.510
REMARK SMILES C[C@H]1O[C@@H](OC[C@H]2O[C@H](Oc3c(-c4ccc(O)c(O)c4)oc4cc(O)cc(O)c4c3=O)[C@H](O)[C@H](O)[C@@H]2O)[C@H](O)[C@@H](O)[C@H]1O
REMARK SMILES IDX 7 1 36 2 34 3 32 4 9 5 8 6 6 7 5 8 4 9 1 10 2 11 42 12 3 13
REMARK SMILES IDX 40 14 38 15 43 16 41 18 39 20 37 22 35 24 10 26 11 27 12 28
REMARK SMILES IDX 30 29 21 30 29 31 31 32 22 33 27 34 23 35 26 36 24 37 13 38
REMARK SMILES IDX 20 39 14 40 18 41 15 42 16 43 19 44 17 46 28 48 25 50 33 52
REMARK H PARENT 43 17 41 19 39 21 37 23 35 25 19 45 17 47 28 49 25 51 33 53
REMARK Flexibility Score: inf
ROOT
ATOM      1  C   UNL     1     481.068  42.088 459.597  1.00  0.00     0.180 C 
ATOM      2  C   UNL     1     480.443  43.359 458.950  1.00  0.00     0.177 C 
ATOM      3  C   UNL     1     479.006  43.096 458.458  1.00  0.00     0.180 C 
ATOM      4  C   UNL     1     478.179  42.398 459.548  1.00  0.00     0.214 C 
ATOM      5  C   UNL     1     478.948  41.210 460.165  1.00  0.00     0.339 C 
ATOM      6  O   UNL     1     480.232  41.587 460.633  1.00  0.00    -0.332 OA
ENDROOT
BRANCH   1   7
ATOM      7  C   UNL     1     482.429  42.398 460.242  1.00  0.00     0.198 C 
BRANCH   7   8
ATOM      8  O   UNL     1     483.241  41.240 460.304  1.00  0.00    -0.347 OA
BRANCH   8   9
ATOM      9  C   UNL     1     483.293  40.736 461.630  1.00  0.00     0.281 C 
ATOM     10  C   UNL     1     485.794  42.823 463.381  1.00  0.00     0.041 C 
ATOM     11  C   UNL     1     485.213  41.516 462.853  1.00  0.00     0.150 C 
ATOM     12  C   UNL     1     486.065  40.944 461.703  1.00  0.00     0.174 C 
ATOM     13  O   UNL     1     483.856  41.737 462.477  1.00  0.00    -0.344 OA
ATOM     14  C   UNL     1     485.543  39.539 461.301  1.00  0.00     0.179 C 
ATOM     15  C   UNL     1     484.034  39.377 461.624  1.00  0.00     0.202 C 
BRANCH  12  16
ATOM     16  O   UNL     1     486.033  41.833 460.617  1.00  0.00    -0.388 OA
ATOM     17  H   UNL     1     485.154  41.726 460.159  1.00  0.00     0.211 HD
ENDBRANCH  12  16
BRANCH  14  18
ATOM     18  O   UNL     1     485.764  39.290 459.931  1.00  0.00    -0.387 OA
ATOM     19  H   UNL     1     484.914  38.954 459.553  1.00  0.00     0.211 HD
ENDBRANCH  14  18
BRANCH  15  20
ATOM     20  O   UNL     1     483.885  38.777 462.889  1.00  0.00    -0.385 OA
ATOM     21  H   UNL     1     484.757  38.361 463.119  1.00  0.00     0.211 HD
ENDBRANCH  15  20
ENDBRANCH   8   9
ENDBRANCH   7   8
ENDBRANCH   1   7
BRANCH   2  22
ATOM     22  O   UNL     1     481.231  43.873 457.908  1.00  0.00    -0.387 OA
ATOM     23  H   UNL     1     481.160  44.859 457.926  1.00  0.00     0.211 HD
ENDBRANCH   2  22
BRANCH   3  24
ATOM     24  O   UNL     1     478.968  42.377 457.247  1.00  0.00    -0.387 OA
ATOM     25  H   UNL     1     478.499  41.520 457.404  1.00  0.00     0.211 HD
ENDBRANCH   3  24
BRANCH   5  26
ATOM     26  O   UNL     1     479.019  40.083 459.281  1.00  0.00    -0.454 OA
BRANCH  26  27
ATOM     27  C   UNL     1     478.753  38.782 459.739  1.00  0.00     0.214 A 
ATOM     28  C   UNL     1     479.592  37.712 459.405  1.00  0.00     0.180 A 
ATOM     29  C   UNL     1     477.660  38.554 460.582  1.00  0.00     0.239 A 
ATOM     30  O   UNL     1     479.389  36.516 459.936  1.00  0.00    -0.452 OA
ATOM     31  C   UNL     1     477.506  37.285 461.192  1.00  0.00     0.111 A 
ATOM     32  O   UNL     1     476.834  39.488 460.761  1.00  0.00    -0.285 OA
ATOM     33  C   UNL     1     478.412  36.268 460.806  1.00  0.00     0.146 A 
ATOM     34  C   UNL     1     476.508  36.972 462.162  1.00  0.00     0.134 A 
ATOM     35  C   UNL     1     478.295  34.975 461.329  1.00  0.00     0.094 A 
ATOM     36  C   UNL     1     476.392  35.670 462.645  1.00  0.00     0.093 A 
ATOM     37  C   UNL     1     477.299  34.676 462.251  1.00  0.00     0.123 A 
BRANCH  28  38
ATOM     38  C   UNL     1     480.663  37.872 458.411  1.00  0.00     0.025 A 
ATOM     39  C   UNL     1     481.766  38.689 458.685  1.00  0.00     0.062 A 
ATOM     40  C   UNL     1     480.568  37.241 457.162  1.00  0.00     0.016 A 
ATOM     41  C   UNL     1     482.772  38.876 457.724  1.00  0.00     0.158 A 
ATOM     42  C   UNL     1     481.573  37.399 456.209  1.00  0.00     0.051 A 
ATOM     43  C   UNL     1     482.679  38.217 456.477  1.00  0.00     0.157 A 
BRANCH  41  44
ATOM     44  O   UNL     1     483.849  39.699 458.067  1.00  0.00    -0.504 OA
ATOM     45  H   UNL     1     484.145  39.867 459.018  1.00  0.00     0.293 HD
ENDBRANCH  41  44
BRANCH  43  46
ATOM     46  O   UNL     1     483.632  38.374 455.467  1.00  0.00    -0.504 OA
ATOM     47  H   UNL     1     483.754  39.214 454.924  1.00  0.00     0.293 HD
ENDBRANCH  43  46
ENDBRANCH  28  38
BRANCH  34  48
ATOM     48  O   UNL     1     475.631  37.923 462.708  1.00  0.00    -0.507 OA
ATOM     49  H   UNL     1     474.650  37.999 462.472  1.00  0.00     0.293 HD
ENDBRANCH  34  48
BRANCH  37  50
ATOM     50  O   UNL     1     477.205  33.386 462.769  1.00  0.00    -0.508 OA
ATOM     51  H   UNL     1     477.779  32.625 462.422  1.00  0.00     0.293 HD
ENDBRANCH  37  50
ENDBRANCH  26  27
ENDBRANCH   5  26
BRANCH   4  52
ATOM     52  O   UNL     1     476.943  41.970 459.038  1.00  0.00    -0.384 OA
ATOM     53  H   UNL     1     476.669  41.181 459.571  1.00  0.00     0.211 HD
ENDBRANCH   4  52
TORSDOF 16
ENDMDL
MODEL 4
REMARK VINA RESULT:    -5.565      2.741      5.177
REMARK INTER + INTRA:         -12.654
REMARK INTER:                 -10.643
REMARK INTRA:                  -2.011
REMARK UNBOUND:                -3.510
REMARK SMILES C[C@H]1O[C@@H](OC[C@H]2O[C@H](Oc3c(-c4ccc(O)c(O)c4)oc4cc(O)cc(O)c4c3=O)[C@H](O)[C@H](O)[C@@H]2O)[C@H](O)[C@@H](O)[C@H]1O
REMARK SMILES IDX 7 1 36 2 34 3 32 4 9 5 8 6 6 7 5 8 4 9 1 10 2 11 42 12 3 13
REMARK SMILES IDX 40 14 38 15 43 16 41 18 39 20 37 22 35 24 10 26 11 27 12 28
REMARK SMILES IDX 30 29 21 30 29 31 31 32 22 33 27 34 23 35 26 36 24 37 13 38
REMARK SMILES IDX 20 39 14 40 18 41 15 42 16 43 19 44 17 46 28 48 25 50 33 52
REMARK H PARENT 43 17 41 19 39 21 37 23 35 25 19 45 17 47 28 49 25 51 33 53
REMARK Flexibility Score: inf
ROOT
ATOM      1  C   UNL     1     482.255  39.780 462.100  1.00  0.00     0.180 C 
ATOM      2  C   UNL     1     482.719  40.640 463.314  1.00  0.00     0.177 C 
ATOM      3  C   UNL     1     481.520  41.156 464.134  1.00  0.00     0.180 C 
ATOM      4  C   UNL     1     480.535  40.015 464.431  1.00  0.00     0.214 C 
ATOM      5  C   UNL     1     480.227  39.191 463.162  1.00  0.00     0.339 C 
ATOM      6  O   UNL     1     481.406  38.723 462.527  1.00  0.00    -0.332 OA
ENDROOT
BRANCH   1   7
ATOM      7  C   UNL     1     483.450  39.124 461.389  1.00  0.00     0.198 C 
BRANCH   7   8
ATOM      8  O   UNL     1     483.076  38.627 460.116  1.00  0.00    -0.347 OA
BRANCH   8   9
ATOM      9  C   UNL     1     482.748  39.694 459.240  1.00  0.00     0.281 C 
ATOM     10  C   UNL     1     482.182  38.126 455.940  1.00  0.00     0.041 C 
ATOM     11  C   UNL     1     482.867  39.072 456.919  1.00  0.00     0.150 C 
ATOM     12  C   UNL     1     484.318  38.635 457.204  1.00  0.00     0.174 C 
ATOM     13  O   UNL     1     482.076  39.161 458.100  1.00  0.00    -0.344 OA
ATOM     14  C   UNL     1     485.036  39.703 458.071  1.00  0.00     0.179 C 
ATOM     15  C   UNL     1     484.030  40.507 458.935  1.00  0.00     0.202 C 
BRANCH  12  16
ATOM     16  O   UNL     1     484.306  37.383 457.840  1.00  0.00    -0.388 OA
ATOM     17  H   UNL     1     484.711  36.718 457.217  1.00  0.00     0.211 HD
ENDBRANCH  12  16
BRANCH  14  18
ATOM     18  O   UNL     1     486.008  39.110 458.902  1.00  0.00    -0.387 OA
ATOM     19  H   UNL     1     486.042  38.148 458.673  1.00  0.00     0.211 HD
ENDBRANCH  14  18
BRANCH  15  20
ATOM     20  O   UNL     1     483.665  41.687 458.259  1.00  0.00    -0.385 OA
ATOM     21  H   UNL     1     484.505  42.113 457.943  1.00  0.00     0.211 HD
ENDBRANCH  15  20
ENDBRANCH   8   9
ENDBRANCH   7   8
ENDBRANCH   1   7
BRANCH   2  22
ATOM     22  O   UNL     1     483.546  41.707 462.930  1.00  0.00    -0.387 OA
ATOM     23  H   UNL     1     483.855  42.167 463.749  1.00  0.00     0.211 HD
ENDBRANCH   2  22
BRANCH   3  24
ATOM     24  O   UNL     1     480.871  42.246 463.522  1.00  0.00    -0.387 OA
ATOM     25  H   UNL     1     480.006  41.934 463.158  1.00  0.00     0.211 HD
ENDBRANCH   3  24
BRANCH   5  26
ATOM     26  O   UNL     1     479.377  39.893 462.244  1.00  0.00    -0.454 OA
BRANCH  26  27
ATOM     27  C   UNL     1     477.978  39.822 462.351  1.00  0.00     0.214 A 
ATOM     28  C   UNL     1     477.285  38.654 462.006  1.00  0.00     0.180 A 
ATOM     29  C   UNL     1     477.265  40.914 462.854  1.00  0.00     0.239 A 
ATOM     30  O   UNL     1     475.981  38.567 462.218  1.00  0.00    -0.452 OA
ATOM     31  C   UNL     1     475.884  40.772 463.136  1.00  0.00     0.111 A 
ATOM     32  O   UNL     1     477.875  42.002 463.025  1.00  0.00    -0.285 OA
ATOM     33  C   UNL     1     475.271  39.549 462.769  1.00  0.00     0.146 A 
ATOM     34  C   UNL     1     475.082  41.770 463.764  1.00  0.00     0.134 A 
ATOM     35  C   UNL     1     473.901  39.350 462.973  1.00  0.00     0.094 A 
ATOM     36  C   UNL     1     473.713  41.561 463.929  1.00  0.00     0.093 A 
ATOM     37  C   UNL     1     473.125  40.343 463.559  1.00  0.00     0.123 A 
BRANCH  28  38
ATOM     38  C   UNL     1     477.970  37.536 461.340  1.00  0.00     0.025 A 
ATOM     39  C   UNL     1     478.854  37.778 460.282  1.00  0.00     0.062 A 
ATOM     40  C   UNL     1     477.712  36.215 461.733  1.00  0.00     0.016 A 
ATOM     41  C   UNL     1     479.481  36.712 459.618  1.00  0.00     0.158 A 
ATOM     42  C   UNL     1     478.347  35.150 461.097  1.00  0.00     0.051 A 
ATOM     43  C   UNL     1     479.232  35.384 460.035  1.00  0.00     0.157 A 
BRANCH  41  44
ATOM     44  O   UNL     1     480.357  37.026 458.575  1.00  0.00    -0.504 OA
ATOM     45  H   UNL     1     480.177  37.744 457.888  1.00  0.00     0.293 HD
ENDBRANCH  41  44
BRANCH  43  46
ATOM     46  O   UNL     1     479.804  34.276 459.407  1.00  0.00    -0.504 OA
ATOM     47  H   UNL     1     479.280  33.536 458.967  1.00  0.00     0.293 HD
ENDBRANCH  43  46
ENDBRANCH  28  38
BRANCH  34  48
ATOM     48  O   UNL     1     475.598  42.971 464.277  1.00  0.00    -0.507 OA
ATOM     49  H   UNL     1     475.674  43.832 463.751  1.00  0.00     0.293 HD
ENDBRANCH  34  48
BRANCH  37  50
ATOM     50  O   UNL     1     471.765  40.123 463.764  1.00  0.00    -0.508 OA
ATOM     51  H   UNL     1     471.092  40.179 463.007  1.00  0.00     0.293 HD
ENDBRANCH  37  50
ENDBRANCH  26  27
ENDBRANCH   5  26
BRANCH   4  52
ATOM     52  O   UNL     1     479.349  40.514 464.991  1.00  0.00    -0.384 OA
ATOM     53  H   UNL     1     478.791  40.842 464.241  1.00  0.00     0.211 HD
ENDBRANCH   4  52
TORSDOF 16
ENDMDL
MODEL 5
REMARK VINA RESULT:    -5.472      2.555      6.881
REMARK INTER + INTRA:         -12.500
REMARK INTER:                  -8.603
REMARK INTRA:                  -3.897
REMARK UNBOUND:                -3.510
REMARK SMILES C[C@H]1O[C@@H](OC[C@H]2O[C@H](Oc3c(-c4ccc(O)c(O)c4)oc4cc(O)cc(O)c4c3=O)[C@H](O)[C@H](O)[C@@H]2O)[C@H](O)[C@@H](O)[C@H]1O
REMARK SMILES IDX 7 1 36 2 34 3 32 4 9 5 8 6 6 7 5 8 4 9 1 10 2 11 42 12 3 13
REMARK SMILES IDX 40 14 38 15 43 16 41 18 39 20 37 22 35 24 10 26 11 27 12 28
REMARK SMILES IDX 30 29 21 30 29 31 31 32 22 33 27 34 23 35 26 36 24 37 13 38
REMARK SMILES IDX 20 39 14 40 18 41 15 42 16 43 19 44 17 46 28 48 25 50 33 52
REMARK H PARENT 43 17 41 19 39 21 37 23 35 25 19 45 17 47 28 49 25 51 33 53
REMARK Flexibility Score: inf
ROOT
ATOM      1  C   UNL     1     481.683  38.896 462.339  1.00  0.00     0.180 C 
ATOM      2  C   UNL     1     483.015  39.524 462.846  1.00  0.00     0.177 C 
ATOM      3  C   UNL     1     484.001  39.773 461.687  1.00  0.00     0.180 C 
ATOM      4  C   UNL     1     483.299  40.488 460.523  1.00  0.00     0.214 C 
ATOM      5  C   UNL     1     481.951  39.816 460.179  1.00  0.00     0.339 C 
ATOM      6  O   UNL     1     481.108  39.694 461.313  1.00  0.00    -0.332 OA
ENDROOT
BRANCH   1   7
ATOM      7  C   UNL     1     480.639  38.812 463.466  1.00  0.00     0.198 C 
BRANCH   7   8
ATOM      8  O   UNL     1     479.433  39.456 463.094  1.00  0.00    -0.347 OA
BRANCH   8   9
ATOM      9  C   UNL     1     478.908  40.198 464.184  1.00  0.00     0.281 C 
ATOM     10  C   UNL     1     475.898  41.893 462.864  1.00  0.00     0.041 C 
ATOM     11  C   UNL     1     477.281  41.835 463.504  1.00  0.00     0.150 C 
ATOM     12  C   UNL     1     478.364  42.386 462.556  1.00  0.00     0.174 C 
ATOM     13  O   UNL     1     477.539  40.496 463.917  1.00  0.00    -0.344 OA
ATOM     14  C   UNL     1     479.727  42.465 463.294  1.00  0.00     0.179 C 
ATOM     15  C   UNL     1     479.816  41.425 464.441  1.00  0.00     0.202 C 
BRANCH  12  16
ATOM     16  O   UNL     1     478.443  41.567 461.419  1.00  0.00    -0.388 OA
ATOM     17  H   UNL     1     477.577  41.632 460.932  1.00  0.00     0.211 HD
ENDBRANCH  12  16
BRANCH  14  18
ATOM     18  O   UNL     1     480.799  42.276 462.398  1.00  0.00    -0.387 OA
ATOM     19  H   UNL     1     481.504  41.781 462.885  1.00  0.00     0.211 HD
ENDBRANCH  14  18
BRANCH  15  20
ATOM     20  O   UNL     1     479.428  42.027 465.654  1.00  0.00    -0.385 OA
ATOM     21  H   UNL     1     478.540  41.652 465.893  1.00  0.00     0.211 HD
ENDBRANCH  15  20
ENDBRANCH   8   9
ENDBRANCH   7   8
ENDBRANCH   1   7
BRANCH   2  22
ATOM     22  O   UNL     1     483.623  38.753 463.850  1.00  0.00    -0.387 OA
ATOM     23  H   UNL     1     483.181  38.963 464.709  1.00  0.00     0.211 HD
ENDBRANCH   2  22
BRANCH   3  24
ATOM     24  O   UNL     1     484.641  38.595 461.254  1.00  0.00    -0.387 OA
ATOM     25  H   UNL     1     484.438  38.462 460.295  1.00  0.00     0.211 HD
ENDBRANCH   3  24
BRANCH   5  26
ATOM     26  O   UNL     1     482.119  38.559 459.509  1.00  0.00    -0.454 OA
BRANCH  26  27
ATOM     27  C   UNL     1     481.619  38.356 458.212  1.00  0.00     0.214 A 
ATOM     28  C   UNL     1     480.307  37.912 458.005  1.00  0.00     0.180 A 
ATOM     29  C   UNL     1     482.425  38.644 457.106  1.00  0.00     0.239 A 
ATOM     30  O   UNL     1     479.818  37.832 456.777  1.00  0.00    -0.452 OA
ATOM     31  C   UNL     1     481.857  38.618 455.808  1.00  0.00     0.111 A 
ATOM     32  O   UNL     1     483.641  38.903 457.299  1.00  0.00    -0.285 OA
ATOM     33  C   UNL     1     480.518  38.172 455.697  1.00  0.00     0.146 A 
ATOM     34  C   UNL     1     482.541  39.012 454.620  1.00  0.00     0.134 A 
ATOM     35  C   UNL     1     479.902  38.075 454.443  1.00  0.00     0.094 A 
ATOM     36  C   UNL     1     481.918  38.876 453.381  1.00  0.00     0.093 A 
ATOM     37  C   UNL     1     480.591  38.433 453.291  1.00  0.00     0.123 A 
BRANCH  28  38
ATOM     38  C   UNL     1     479.474  37.460 459.129  1.00  0.00     0.025 A 
ATOM     39  C   UNL     1     478.612  38.354 459.774  1.00  0.00     0.062 A 
ATOM     40  C   UNL     1     479.569  36.140 459.591  1.00  0.00     0.016 A 
ATOM     41  C   UNL     1     477.843  37.937 460.872  1.00  0.00     0.158 A 
ATOM     42  C   UNL     1     478.793  35.708 460.666  1.00  0.00     0.051 A 
ATOM     43  C   UNL     1     477.928  36.598 461.318  1.00  0.00     0.157 A 
BRANCH  41  44
ATOM     44  O   UNL     1     476.998  38.880 461.465  1.00  0.00    -0.504 OA
ATOM     45  H   UNL     1     477.284  39.819 461.703  1.00  0.00     0.293 HD
ENDBRANCH  41  44
BRANCH  43  46
ATOM     46  O   UNL     1     477.209  36.121 462.416  1.00  0.00    -0.504 OA
ATOM     47  H   UNL     1     477.209  36.550 463.328  1.00  0.00     0.293 HD
ENDBRANCH  43  46
ENDBRANCH  28  38
BRANCH  34  48
ATOM     48  O   UNL     1     483.827  39.579 454.616  1.00  0.00    -0.507 OA
ATOM     49  H   UNL     1     484.426  39.644 455.429  1.00  0.00     0.293 HD
ENDBRANCH  34  48
BRANCH  37  50
ATOM     50  O   UNL     1     479.958  38.340 452.053  1.00  0.00    -0.508 OA
ATOM     51  H   UNL     1     479.489  37.493 451.753  1.00  0.00     0.293 HD
ENDBRANCH  37  50
ENDBRANCH  26  27
ENDBRANCH   5  26
BRANCH   4  52
ATOM     52  O   UNL     1     484.128  40.530 459.391  1.00  0.00    -0.384 OA
ATOM     53  H   UNL     1     484.218  39.599 459.064  1.00  0.00     0.211 HD
ENDBRANCH   4  52
TORSDOF 16
ENDMDL
MODEL 6
REMARK VINA RESULT:    -5.471      2.856      6.388
REMARK INTER + INTRA:         -12.499
REMARK INTER:                  -9.058
REMARK INTRA:                  -3.441
REMARK UNBOUND:                -3.510
REMARK SMILES C[C@H]1O[C@@H](OC[C@H]2O[C@H](Oc3c(-c4ccc(O)c(O)c4)oc4cc(O)cc(O)c4c3=O)[C@H](O)[C@H](O)[C@@H]2O)[C@H](O)[C@@H](O)[C@H]1O
REMARK SMILES IDX 7 1 36 2 34 3 32 4 9 5 8 6 6 7 5 8 4 9 1 10 2 11 42 12 3 13
REMARK SMILES IDX 40 14 38 15 43 16 41 18 39 20 37 22 35 24 10 26 11 27 12 28
REMARK SMILES IDX 30 29 21 30 29 31 31 32 22 33 27 34 23 35 26 36 24 37 13 38
REMARK SMILES IDX 20 39 14 40 18 41 15 42 16 43 19 44 17 46 28 48 25 50 33 52
REMARK H PARENT 43 17 41 19 39 21 37 23 35 25 19 45 17 47 28 49 25 51 33 53
REMARK Flexibility Score: inf
ROOT
ATOM      1  C   UNL     1     483.133  39.957 460.225  1.00  0.00     0.180 C 
ATOM      2  C   UNL     1     484.627  39.520 460.290  1.00  0.00     0.177 C 
ATOM      3  C   UNL     1     485.001  38.604 459.108  1.00  0.00     0.180 C 
ATOM      4  C   UNL     1     484.514  39.205 457.781  1.00  0.00     0.214 C 
ATOM      5  C   UNL     1     483.046  39.675 457.880  1.00  0.00     0.339 C 
ATOM      6  O   UNL     1     482.838  40.557 458.970  1.00  0.00    -0.332 OA
ENDROOT
BRANCH   1   7
ATOM      7  C   UNL     1     482.808  41.006 461.301  1.00  0.00     0.198 C 
BRANCH   7   8
ATOM      8  O   UNL     1     482.317  40.393 462.480  1.00  0.00    -0.347 OA
BRANCH   8   9
ATOM      9  C   UNL     1     482.345  41.306 463.566  1.00  0.00     0.281 C 
ATOM     10  C   UNL     1     485.540  40.664 465.313  1.00  0.00     0.041 C 
ATOM     11  C   UNL     1     484.023  40.764 465.203  1.00  0.00     0.150 C 
ATOM     12  C   UNL     1     483.359  39.374 465.290  1.00  0.00     0.174 C 
ATOM     13  O   UNL     1     483.695  41.457 464.002  1.00  0.00    -0.344 OA
ATOM     14  C   UNL     1     481.815  39.523 465.339  1.00  0.00     0.179 C 
ATOM     15  C   UNL     1     481.346  40.831 464.649  1.00  0.00     0.202 C 
BRANCH  12  16
ATOM     16  O   UNL     1     483.765  38.599 464.191  1.00  0.00    -0.388 OA
ATOM     17  H   UNL     1     483.245  37.749 464.207  1.00  0.00     0.211 HD
ENDBRANCH  12  16
BRANCH  14  18
ATOM     18  O   UNL     1     481.181  38.416 464.739  1.00  0.00    -0.387 OA
ATOM     19  H   UNL     1     481.263  38.527 463.760  1.00  0.00     0.211 HD
ENDBRANCH  14  18
BRANCH  15  20
ATOM     20  O   UNL     1     481.207  41.849 465.612  1.00  0.00    -0.385 OA
ATOM     21  H   UNL     1     482.089  41.950 466.058  1.00  0.00     0.211 HD
ENDBRANCH  15  20
ENDBRANCH   8   9
ENDBRANCH   7   8
ENDBRANCH   1   7
BRANCH   2  22
ATOM     22  O   UNL     1     484.953  38.904 461.509  1.00  0.00    -0.387 OA
ATOM     23  H   UNL     1     485.901  39.102 461.710  1.00  0.00     0.211 HD
ENDBRANCH   2  22
BRANCH   3  24
ATOM     24  O   UNL     1     484.537  37.284 459.273  1.00  0.00    -0.387 OA
ATOM     25  H   UNL     1     484.218  36.951 458.398  1.00  0.00     0.211 HD
ENDBRANCH   3  24
BRANCH   5  26
ATOM     26  O   UNL     1     482.119  38.580 457.902  1.00  0.00    -0.454 OA
BRANCH  26  27
ATOM     27  C   UNL     1     480.995  38.564 457.060  1.00  0.00     0.214 A 
ATOM     28  C   UNL     1     479.705  38.749 457.574  1.00  0.00     0.180 A 
ATOM     29  C   UNL     1     481.164  38.408 455.681  1.00  0.00     0.239 A 
ATOM     30  O   UNL     1     478.670  38.842 456.754  1.00  0.00    -0.452 OA
ATOM     31  C   UNL     1     480.051  38.581 454.821  1.00  0.00     0.111 A 
ATOM     32  O   UNL     1     482.305  38.101 455.246  1.00  0.00    -0.285 OA
ATOM     33  C   UNL     1     478.789  38.781 455.430  1.00  0.00     0.146 A 
ATOM     34  C   UNL     1     480.123  38.570 453.397  1.00  0.00     0.134 A 
ATOM     35  C   UNL     1     477.635  38.913 454.648  1.00  0.00     0.094 A 
ATOM     36  C   UNL     1     478.957  38.673 452.640  1.00  0.00     0.093 A 
ATOM     37  C   UNL     1     477.715  38.871 453.261  1.00  0.00     0.123 A 
BRANCH  28  38
ATOM     38  C   UNL     1     479.464  38.772 459.024  1.00  0.00     0.025 A 
ATOM     39  C   UNL     1     479.467  39.984 459.723  1.00  0.00     0.062 A 
ATOM     40  C   UNL     1     479.271  37.574 459.727  1.00  0.00     0.016 A 
ATOM     41  C   UNL     1     479.276  40.008 461.113  1.00  0.00     0.158 A 
ATOM     42  C   UNL     1     479.056  37.586 461.104  1.00  0.00     0.051 A 
ATOM     43  C   UNL     1     479.059  38.798 461.810  1.00  0.00     0.157 A 
BRANCH  41  44
ATOM     44  O   UNL     1     479.283  41.255 461.746  1.00  0.00    -0.504 OA
ATOM     45  H   UNL     1     479.229  42.134 461.252  1.00  0.00     0.293 HD
ENDBRANCH  41  44
BRANCH  43  46
ATOM     46  O   UNL     1     478.883  38.745 463.195  1.00  0.00    -0.504 OA
ATOM     47  H   UNL     1     478.080  38.344 463.652  1.00  0.00     0.293 HD
ENDBRANCH  43  46
ENDBRANCH  28  38
BRANCH  34  48
ATOM     48  O   UNL     1     481.330  38.498 452.681  1.00  0.00    -0.507 OA
ATOM     49  H   UNL     1     482.072  39.183 452.739  1.00  0.00     0.293 HD
ENDBRANCH  34  48
BRANCH  37  50
ATOM     50  O   UNL     1     476.558  39.015 452.500  1.00  0.00    -0.508 OA
ATOM     51  H   UNL     1     476.591  39.213 451.506  1.00  0.00     0.293 HD
ENDBRANCH  37  50
ENDBRANCH  26  27
ENDBRANCH   5  26
BRANCH   4  52
ATOM     52  O   UNL     1     484.664  38.284 456.732  1.00  0.00    -0.384 OA
ATOM     53  H   UNL     1     485.606  37.975 456.752  1.00  0.00     0.211 HD
ENDBRANCH   4  52
TORSDOF 16
ENDMDL
MODEL 7
REMARK VINA RESULT:    -5.467      1.932      3.759
REMARK INTER + INTRA:         -12.493
REMARK INTER:                  -8.726
REMARK INTRA:                  -3.767
REMARK UNBOUND:                -3.510
REMARK SMILES C[C@H]1O[C@@H](OC[C@H]2O[C@H](Oc3c(-c4ccc(O)c(O)c4)oc4cc(O)cc(O)c4c3=O)[C@H](O)[C@H](O)[C@@H]2O)[C@H](O)[C@@H](O)[C@H]1O
REMARK SMILES IDX 7 1 36 2 34 3 32 4 9 5 8 6 6 7 5 8 4 9 1 10 2 11 42 12 3 13
REMARK SMILES IDX 40 14 38 15 43 16 41 18 39 20 37 22 35 24 10 26 11 27 12 28
REMARK SMILES IDX 30 29 21 30 29 31 31 32 22 33 27 34 23 35 26 36 24 37 13 38
REMARK SMILES IDX 20 39 14 40 18 41 15 42 16 43 19 44 17 46 28 48 25 50 33 52
REMARK H PARENT 43 17 41 19 39 21 37 23 35 25 19 45 17 47 28 49 25 51 33 53
REMARK Flexibility Score: inf
ROOT
ATOM      1  C   UNL     1     481.676  41.916 458.881  1.00  0.00     0.180 C 
ATOM      2  C   UNL     1     481.133  43.365 459.067  1.00  0.00     0.177 C 
ATOM      3  C   UNL     1     479.699  43.364 459.632  1.00  0.00     0.180 C 
ATOM      4  C   UNL     1     479.594  42.425 460.844  1.00  0.00     0.214 C 
ATOM      5  C   UNL     1     480.245  41.055 460.553  1.00  0.00     0.339 C 
ATOM      6  O   UNL     1     481.581  41.183 460.095  1.00  0.00    -0.332 OA
ENDROOT
BRANCH   1   7
ATOM      7  C   UNL     1     483.162  41.921 458.485  1.00  0.00     0.198 C 
BRANCH   7   8
ATOM      8  O   UNL     1     483.389  42.753 457.361  1.00  0.00    -0.347 OA
BRANCH   8   9
ATOM      9  C   UNL     1     483.941  42.004 456.289  1.00  0.00     0.281 C 
ATOM     10  C   UNL     1     485.302  44.509 453.934  1.00  0.00     0.041 C 
ATOM     11  C   UNL     1     484.404  43.349 454.349  1.00  0.00     0.150 C 
ATOM     12  C   UNL     1     482.923  43.773 454.401  1.00  0.00     0.174 C 
ATOM     13  O   UNL     1     484.872  42.828 455.589  1.00  0.00    -0.344 OA
ATOM     14  C   UNL     1     482.023  42.537 454.665  1.00  0.00     0.179 C 
ATOM     15  C   UNL     1     482.789  41.427 455.432  1.00  0.00     0.202 C 
BRANCH  12  16
ATOM     16  O   UNL     1     482.757  44.749 455.397  1.00  0.00    -0.388 OA
ATOM     17  H   UNL     1     482.262  44.333 456.155  1.00  0.00     0.211 HD
ENDBRANCH  12  16
BRANCH  14  18
ATOM     18  O   UNL     1     480.865  42.897 455.383  1.00  0.00    -0.387 OA
ATOM     19  H   UNL     1     481.148  43.114 456.306  1.00  0.00     0.211 HD
ENDBRANCH  14  18
BRANCH  15  20
ATOM     20  O   UNL     1     483.328  40.505 454.514  1.00  0.00    -0.385 OA
ATOM     21  H   UNL     1     483.989  39.954 455.010  1.00  0.00     0.211 HD
ENDBRANCH  15  20
ENDBRANCH   8   9
ENDBRANCH   7   8
ENDBRANCH   1   7
BRANCH   2  22
ATOM     22  O   UNL     1     481.193  44.116 457.883  1.00  0.00    -0.387 OA
ATOM     23  H   UNL     1     480.382  44.678 457.833  1.00  0.00     0.211 HD
ENDBRANCH   2  22
BRANCH   3  24
ATOM     24  O   UNL     1     478.730  43.053 458.658  1.00  0.00    -0.387 OA
ATOM     25  H   UNL     1     479.171  43.026 457.773  1.00  0.00     0.211 HD
ENDBRANCH   3  24
BRANCH   5  26
ATOM     26  O   UNL     1     479.457  40.250 459.666  1.00  0.00    -0.454 OA
BRANCH  26  27
ATOM     27  C   UNL     1     479.073  38.945 460.018  1.00  0.00     0.214 A 
ATOM     28  C   UNL     1     479.868  37.842 459.682  1.00  0.00     0.180 A 
ATOM     29  C   UNL     1     477.903  38.743 460.757  1.00  0.00     0.239 A 
ATOM     30  O   UNL     1     479.547  36.634 460.118  1.00  0.00    -0.452 OA
ATOM     31  C   UNL     1     477.619  37.453 461.270  1.00  0.00     0.111 A 
ATOM     32  O   UNL     1     477.125  39.718 460.930  1.00  0.00    -0.285 OA
ATOM     33  C   UNL     1     478.488  36.402 460.891  1.00  0.00     0.146 A 
ATOM     34  C   UNL     1     476.528  37.152 462.137  1.00  0.00     0.134 A 
ATOM     35  C   UNL     1     478.249  35.091 461.320  1.00  0.00     0.094 A 
ATOM     36  C   UNL     1     476.291  35.834 462.525  1.00  0.00     0.093 A 
ATOM     37  C   UNL     1     477.163  34.806 462.140  1.00  0.00     0.123 A 
BRANCH  28  38
ATOM     38  C   UNL     1     481.024  37.988 458.786  1.00  0.00     0.025 A 
ATOM     39  C   UNL     1     480.860  37.898 457.399  1.00  0.00     0.062 A 
ATOM     40  C   UNL     1     482.308  38.176 459.316  1.00  0.00     0.016 A 
ATOM     41  C   UNL     1     481.967  37.998 456.541  1.00  0.00     0.158 A 
ATOM     42  C   UNL     1     483.412  38.301 458.474  1.00  0.00     0.051 A 
ATOM     43  C   UNL     1     483.255  38.210 457.083  1.00  0.00     0.157 A 
BRANCH  41  44
ATOM     44  O   UNL     1     481.730  37.906 455.167  1.00  0.00    -0.504 OA
ATOM     45  H   UNL     1     481.897  38.662 454.518  1.00  0.00     0.293 HD
ENDBRANCH  41  44
BRANCH  43  46
ATOM     46  O   UNL     1     484.403  38.297 456.291  1.00  0.00    -0.504 OA
ATOM     47  H   UNL     1     484.454  38.005 455.329  1.00  0.00     0.293 HD
ENDBRANCH  43  46
ENDBRANCH  28  38
BRANCH  34  48
ATOM     48  O   UNL     1     475.671  38.127 462.674  1.00  0.00    -0.507 OA
ATOM     49  H   UNL     1     474.868  37.925 463.255  1.00  0.00     0.293 HD
ENDBRANCH  34  48
BRANCH  37  50
ATOM     50  O   UNL     1     476.946  33.497 462.565  1.00  0.00    -0.508 OA
ATOM     51  H   UNL     1     476.014  33.131 462.721  1.00  0.00     0.293 HD
ENDBRANCH  37  50
ENDBRANCH  26  27
ENDBRANCH   5  26
BRANCH   4  52
ATOM     52  O   UNL     1     478.255  42.260 461.231  1.00  0.00    -0.384 OA
ATOM     53  H   UNL     1     477.716  42.878 460.676  1.00  0.00     0.211 HD
ENDBRANCH   4  52
TORSDOF 16
ENDMDL
MODEL 8
REMARK VINA RESULT:    -5.359      2.485      5.882
REMARK INTER + INTRA:         -12.316
REMARK INTER:                  -8.741
REMARK INTRA:                  -3.575
REMARK UNBOUND:                -3.510
REMARK SMILES C[C@H]1O[C@@H](OC[C@H]2O[C@H](Oc3c(-c4ccc(O)c(O)c4)oc4cc(O)cc(O)c4c3=O)[C@H](O)[C@H](O)[C@@H]2O)[C@H](O)[C@@H](O)[C@H]1O
REMARK SMILES IDX 7 1 36 2 34 3 32 4 9 5 8 6 6 7 5 8 4 9 1 10 2 11 42 12 3 13
REMARK SMILES IDX 40 14 38 15 43 16 41 18 39 20 37 22 35 24 10 26 11 27 12 28
REMARK SMILES IDX 30 29 21 30 29 31 31 32 22 33 27 34 23 35 26 36 24 37 13 38
REMARK SMILES IDX 20 39 14 40 18 41 15 42 16 43 19 44 17 46 28 48 25 50 33 52
REMARK H PARENT 43 17 41 19 39 21 37 23 35 25 19 45 17 47 28 49 25 51 33 53
REMARK Flexibility Score: inf
ROOT
ATOM      1  C   UNL     1     483.478  39.183 460.383  1.00  0.00     0.180 C 
ATOM      2  C   UNL     1     484.928  38.915 459.880  1.00  0.00     0.177 C 
ATOM      3  C   UNL     1     484.944  38.493 458.398  1.00  0.00     0.180 C 
ATOM      4  C   UNL     1     484.084  39.446 457.553  1.00  0.00     0.214 C 
ATOM      5  C   UNL     1     482.707  39.693 458.208  1.00  0.00     0.339 C 
ATOM      6  O   UNL     1     482.823  40.132 459.551  1.00  0.00    -0.332 OA
ENDROOT
BRANCH   1   7
ATOM      7  C   UNL     1     483.477  39.771 461.804  1.00  0.00     0.198 C 
BRANCH   7   8
ATOM      8  O   UNL     1     484.512  40.724 461.963  1.00  0.00    -0.347 OA
BRANCH   8   9
ATOM      9  C   UNL     1     484.032  41.873 462.646  1.00  0.00     0.281 C 
ATOM     10  C   UNL     1     482.044  43.744 460.153  1.00  0.00     0.041 C 
ATOM     11  C   UNL     1     483.175  43.557 461.157  1.00  0.00     0.150 C 
ATOM     12  C   UNL     1     484.548  43.508 460.457  1.00  0.00     0.174 C 
ATOM     13  O   UNL     1     482.911  42.393 461.934  1.00  0.00    -0.344 OA
ATOM     14  C   UNL     1     485.685  43.482 461.513  1.00  0.00     0.179 C 
ATOM     15  C   UNL     1     485.205  42.862 462.852  1.00  0.00     0.202 C 
BRANCH  12  16
ATOM     16  O   UNL     1     484.600  42.381 459.620  1.00  0.00    -0.388 OA
ATOM     17  H   UNL     1     485.125  41.675 460.088  1.00  0.00     0.211 HD
ENDBRANCH  12  16
BRANCH  14  18
ATOM     18  O   UNL     1     486.804  42.770 461.035  1.00  0.00    -0.387 OA
ATOM     19  H   UNL     1     487.323  42.476 461.824  1.00  0.00     0.211 HD
ENDBRANCH  14  18
BRANCH  15  20
ATOM     20  O   UNL     1     484.783  43.886 463.721  1.00  0.00    -0.385 OA
ATOM     21  H   UNL     1     485.183  43.695 464.611  1.00  0.00     0.211 HD
ENDBRANCH  15  20
ENDBRANCH   8   9
ENDBRANCH   7   8
ENDBRANCH   1   7
BRANCH   2  22
ATOM     22  O   UNL     1     485.602  37.968 460.667  1.00  0.00    -0.387 OA
ATOM     23  H   UNL     1     486.381  38.411 461.082  1.00  0.00     0.211 HD
ENDBRANCH   2  22
BRANCH   3  24
ATOM     24  O   UNL     1     484.557  37.151 458.209  1.00  0.00    -0.387 OA
ATOM     25  H   UNL     1     485.073  36.584 458.834  1.00  0.00     0.211 HD
ENDBRANCH   3  24
BRANCH   5  26
ATOM     26  O   UNL     1     481.835  38.559 458.096  1.00  0.00    -0.454 OA
BRANCH  26  27
ATOM     27  C   UNL     1     480.583  38.666 457.468  1.00  0.00     0.214 A 
ATOM     28  C   UNL     1     479.441  39.032 458.192  1.00  0.00     0.180 A 
ATOM     29  C   UNL     1     480.477  38.450 456.091  1.00  0.00     0.239 A 
ATOM     30  O   UNL     1     478.293  39.235 457.565  1.00  0.00    -0.452 OA
ATOM     31  C   UNL     1     479.257  38.742 455.434  1.00  0.00     0.111 A 
ATOM     32  O   UNL     1     481.474  37.985 455.478  1.00  0.00    -0.285 OA
ATOM     33  C   UNL     1     478.161  39.122 456.245  1.00  0.00     0.146 A 
ATOM     34  C   UNL     1     479.067  38.682 454.021  1.00  0.00     0.134 A 
ATOM     35  C   UNL     1     476.909  39.382 455.674  1.00  0.00     0.094 A 
ATOM     36  C   UNL     1     477.804  38.914 453.479  1.00  0.00     0.093 A 
ATOM     37  C   UNL     1     476.730  39.289 454.298  1.00  0.00     0.123 A 
BRANCH  28  38
ATOM     38  C   UNL     1     479.472  39.127 459.659  1.00  0.00     0.025 A 
ATOM     39  C   UNL     1     479.713  40.356 460.283  1.00  0.00     0.062 A 
ATOM     40  C   UNL     1     479.303  37.978 460.445  1.00  0.00     0.016 A 
ATOM     41  C   UNL     1     479.783  40.446 461.682  1.00  0.00     0.158 A 
ATOM     42  C   UNL     1     479.345  38.058 461.836  1.00  0.00     0.051 A 
ATOM     43  C   UNL     1     479.589  39.286 462.467  1.00  0.00     0.157 A 
BRANCH  41  44
ATOM     44  O   UNL     1     480.019  41.706 462.239  1.00  0.00    -0.504 OA
ATOM     45  H   UNL     1     479.984  42.567 461.712  1.00  0.00     0.293 HD
ENDBRANCH  41  44
BRANCH  43  46
ATOM     46  O   UNL     1     479.665  39.298 463.862  1.00  0.00    -0.504 OA
ATOM     47  H   UNL     1     480.350  39.813 464.391  1.00  0.00     0.293 HD
ENDBRANCH  43  46
ENDBRANCH  28  38
BRANCH  34  48
ATOM     48  O   UNL     1     480.105  38.432 453.108  1.00  0.00    -0.507 OA
ATOM     49  H   UNL     1     480.117  37.663 452.451  1.00  0.00     0.293 HD
ENDBRANCH  34  48
BRANCH  37  50
ATOM     50  O   UNL     1     475.480  39.562 453.747  1.00  0.00    -0.508 OA
ATOM     51  H   UNL     1     475.221  39.243 452.820  1.00  0.00     0.293 HD
ENDBRANCH  37  50
ENDBRANCH  26  27
ENDBRANCH   5  26
BRANCH   4  52
ATOM     52  O   UNL     1     483.926  38.950 456.250  1.00  0.00    -0.384 OA
ATOM     53  H   UNL     1     482.965  39.037 456.022  1.00  0.00     0.211 HD
ENDBRANCH   4  52
TORSDOF 16
ENDMDL
MODEL 9
REMARK VINA RESULT:    -5.358      2.551      7.367
REMARK INTER + INTRA:         -12.314
REMARK INTER:                  -8.947
REMARK INTRA:                  -3.366
REMARK UNBOUND:                -3.510
REMARK SMILES C[C@H]1O[C@@H](OC[C@H]2O[C@H](Oc3c(-c4ccc(O)c(O)c4)oc4cc(O)cc(O)c4c3=O)[C@H](O)[C@H](O)[C@@H]2O)[C@H](O)[C@@H](O)[C@H]1O
REMARK SMILES IDX 7 1 36 2 34 3 32 4 9 5 8 6 6 7 5 8 4 9 1 10 2 11 42 12 3 13
REMARK SMILES IDX 40 14 38 15 43 16 41 18 39 20 37 22 35 24 10 26 11 27 12 28
REMARK SMILES IDX 30 29 21 30 29 31 31 32 22 33 27 34 23 35 26 36 24 37 13 38
REMARK SMILES IDX 20 39 14 40 18 41 15 42 16 43 19 44 17 46 28 48 25 50 33 52
REMARK H PARENT 43 17 41 19 39 21 37 23 35 25 19 45 17 47 28 49 25 51 33 53
REMARK Flexibility Score: inf
ROOT
ATOM      1  C   UNL     1     480.535  38.228 460.013  1.00  0.00     0.180 C 
ATOM      2  C   UNL     1     479.246  38.502 460.845  1.00  0.00     0.177 C 
ATOM      3  C   UNL     1     479.566  39.250 462.154  1.00  0.00     0.180 C 
ATOM      4  C   UNL     1     480.482  40.453 461.881  1.00  0.00     0.214 C 
ATOM      5  C   UNL     1     481.670  40.063 460.976  1.00  0.00     0.339 C 
ATOM      6  O   UNL     1     481.248  39.434 459.777  1.00  0.00    -0.332 OA
ENDROOT
BRANCH   1   7
ATOM      7  C   UNL     1     480.196  37.640 458.633  1.00  0.00     0.198 C 
BRANCH   7   8
ATOM      8  O   UNL     1     480.802  38.391 457.596  1.00  0.00    -0.347 OA
BRANCH   8   9
ATOM      9  C   UNL     1     480.001  38.361 456.425  1.00  0.00     0.281 C 
ATOM     10  C   UNL     1     481.492  40.860 454.144  1.00  0.00     0.041 C 
ATOM     11  C   UNL     1     480.375  40.251 454.984  1.00  0.00     0.150 C 
ATOM     12  C   UNL     1     480.045  41.132 456.206  1.00  0.00     0.174 C 
ATOM     13  O   UNL     1     480.746  38.924 455.346  1.00  0.00    -0.344 OA
ATOM     14  C   UNL     1     478.801  40.572 456.946  1.00  0.00     0.179 C 
ATOM     15  C   UNL     1     478.645  39.045 456.724  1.00  0.00     0.202 C 
BRANCH  12  16
ATOM     16  O   UNL     1     481.163  41.187 457.052  1.00  0.00    -0.388 OA
ATOM     17  H   UNL     1     481.479  42.132 457.084  1.00  0.00     0.211 HD
ENDBRANCH  12  16
BRANCH  14  18
ATOM     18  O   UNL     1     478.868  40.847 458.327  1.00  0.00    -0.387 OA
ATOM     19  H   UNL     1     479.132  40.008 458.780  1.00  0.00     0.211 HD
ENDBRANCH  14  18
BRANCH  15  20
ATOM     20  O   UNL     1     477.774  38.812 455.642  1.00  0.00    -0.385 OA
ATOM     21  H   UNL     1     476.940  39.319 455.825  1.00  0.00     0.211 HD
ENDBRANCH  15  20
ENDBRANCH   8   9
ENDBRANCH   7   8
ENDBRANCH   1   7
BRANCH   2  22
ATOM     22  O   UNL     1     478.523  37.329 461.115  1.00  0.00    -0.387 OA
ATOM     23  H   UNL     1     479.106  36.556 460.918  1.00  0.00     0.211 HD
ENDBRANCH   2  22
BRANCH   3  24
ATOM     24  O   UNL     1     480.109  38.408 463.145  1.00  0.00    -0.387 OA
ATOM     25  H   UNL     1     480.800  37.837 462.728  1.00  0.00     0.211 HD
ENDBRANCH   3  24
BRANCH   5  26
ATOM     26  O   UNL     1     482.652  39.277 461.667  1.00  0.00    -0.454 OA
BRANCH  26  27
ATOM     27  C   UNL     1     483.918  39.802 461.973  1.00  0.00     0.214 A 
ATOM     28  C   UNL     1     484.848  40.081 460.963  1.00  0.00     0.180 A 
ATOM     29  C   UNL     1     484.244  40.097 463.300  1.00  0.00     0.239 A 
ATOM     30  O   UNL     1     485.992  40.678 461.259  1.00  0.00    -0.452 OA
ATOM     31  C   UNL     1     485.442  40.798 463.582  1.00  0.00     0.111 A 
ATOM     32  O   UNL     1     483.463  39.713 464.210  1.00  0.00    -0.285 OA
ATOM     33  C   UNL     1     486.314  41.052 462.495  1.00  0.00     0.146 A 
ATOM     34  C   UNL     1     485.820  41.263 464.877  1.00  0.00     0.134 A 
ATOM     35  C   UNL     1     487.538  41.699 462.701  1.00  0.00     0.094 A 
ATOM     36  C   UNL     1     487.057  41.877 465.062  1.00  0.00     0.093 A 
ATOM     37  C   UNL     1     487.907  42.119 463.973  1.00  0.00     0.123 A 
BRANCH  28  38
ATOM     38  C   UNL     1     484.609  39.655 459.576  1.00  0.00     0.025 A 
ATOM     39  C   UNL     1     484.420  40.607 458.567  1.00  0.00     0.062 A 
ATOM     40  C   UNL     1     484.527  38.292 459.260  1.00  0.00     0.016 A 
ATOM     41  C   UNL     1     484.154  40.207 457.249  1.00  0.00     0.158 A 
ATOM     42  C   UNL     1     484.288  37.882 457.949  1.00  0.00     0.051 A 
ATOM     43  C   UNL     1     484.095  38.830 456.934  1.00  0.00     0.157 A 
BRANCH  41  44
ATOM     44  O   UNL     1     483.983  41.210 456.290  1.00  0.00    -0.504 OA
ATOM     45  H   UNL     1     484.043  42.197 456.495  1.00  0.00     0.293 HD
ENDBRANCH  41  44
BRANCH  43  46
ATOM     46  O   UNL     1     483.814  38.360 455.649  1.00  0.00    -0.504 OA
ATOM     47  H   UNL     1     484.378  38.550 454.837  1.00  0.00     0.293 HD
ENDBRANCH  43  46
ENDBRANCH  28  38
BRANCH  34  48
ATOM     48  O   UNL     1     484.989  41.175 466.006  1.00  0.00    -0.507 OA
ATOM     49  H   UNL     1     484.049  41.548 466.055  1.00  0.00     0.293 HD
ENDBRANCH  34  48
BRANCH  37  50
ATOM     50  O   UNL     1     489.125  42.771 464.157  1.00  0.00    -0.508 OA
ATOM     51  H   UNL     1     489.945  42.541 463.607  1.00  0.00     0.293 HD
ENDBRANCH  37  50
ENDBRANCH  26  27
ENDBRANCH   5  26
BRANCH   4  52
ATOM     52  O   UNL     1     480.943  41.011 463.084  1.00  0.00    -0.384 OA
ATOM     53  H   UNL     1     481.099  41.975 462.914  1.00  0.00     0.211 HD
ENDBRANCH   4  52
TORSDOF 16
ENDMDL
