MODEL 1
REMARK VINA RESULT:    -4.879      0.000      0.000
REMARK INTER + INTRA:          -6.241
REMARK INTER:                  -5.877
REMARK INTRA:                  -0.364
REMARK UNBOUND:                -0.364
REMARK SMILES Oc1cc(O)c2c(c1)O[C@H](c1ccc(O)c(O)c1)[C@H](O)C2
REMARK SMILES IDX 21 1 19 2 10 3 9 4 7 5 8 6 2 7 3 8 4 9 6 10 20 11 11 13
REMARK SMILES IDX 18 14 12 15 16 16 13 17 14 18 17 19 15 21 5 23 1 25
REMARK H PARENT 20 12 17 20 15 22 5 24 1 26
REMARK Flexibility Score: inf
ROOT
ATOM      1  C   UNL     1       9.186 -10.305   4.342  1.00  0.00     0.079 C 
ATOM      2  C   UNL     1       8.965 -11.198   3.105  1.00  0.00     0.164 C 
ATOM      3  C   UNL     1       7.452 -11.381   2.860  1.00  0.00     0.232 C 
ATOM      4  O   UNL     1       6.856 -11.945   4.029  1.00  0.00    -0.482 OA
ATOM      5  C   UNL     1       7.220 -11.550   5.322  1.00  0.00     0.131 A 
ATOM      6  C   UNL     1       6.454 -11.985   6.407  1.00  0.00     0.093 A 
ATOM      7  C   UNL     1       6.785 -11.592   7.707  1.00  0.00     0.122 A 
ATOM      8  C   UNL     1       7.883 -10.754   7.920  1.00  0.00     0.092 A 
ATOM      9  C   UNL     1       8.660 -10.309   6.845  1.00  0.00     0.126 A 
ATOM     10  C   UNL     1       8.356 -10.739   5.532  1.00  0.00     0.039 A 
ENDROOT
BRANCH   2  11
ATOM     11  O   UNL     1       9.567 -12.452   3.309  1.00  0.00    -0.389 OA
ATOM     12  H   UNL     1       8.905 -13.137   3.032  1.00  0.00     0.211 HD
ENDBRANCH   2  11
BRANCH   3  13
ATOM     13  C   UNL     1       7.077 -12.227   1.650  1.00  0.00    -0.001 A 
ATOM     14  C   UNL     1       7.355 -11.718   0.368  1.00  0.00     0.057 A 
ATOM     15  C   UNL     1       6.532 -13.524   1.754  1.00  0.00     0.012 A 
ATOM     16  C   UNL     1       7.065 -12.460  -0.783  1.00  0.00     0.157 A 
ATOM     17  C   UNL     1       6.241 -14.267   0.606  1.00  0.00     0.050 A 
ATOM     18  C   UNL     1       6.502 -13.739  -0.664  1.00  0.00     0.157 A 
BRANCH  16  19
ATOM     19  O   UNL     1       7.347 -11.910  -2.032  1.00  0.00    -0.504 OA
ATOM     20  H   UNL     1       8.009 -11.151  -2.149  1.00  0.00     0.293 HD
ENDBRANCH  16  19
BRANCH  18  21
ATOM     21  O   UNL     1       6.208 -14.484  -1.806  1.00  0.00    -0.504 OA
ATOM     22  H   UNL     1       6.261 -15.495  -1.809  1.00  0.00     0.293 HD
ENDBRANCH  18  21
ENDBRANCH   3  13
BRANCH   9  23
ATOM     23  O   UNL     1       9.718  -9.438   7.117  1.00  0.00    -0.507 OA
ATOM     24  H   UNL     1      10.100  -8.797   6.433  1.00  0.00     0.293 HD
ENDBRANCH   9  23
BRANCH   7  25
ATOM     25  O   UNL     1       6.028 -12.023   8.794  1.00  0.00    -0.508 OA
ATOM     26  H   UNL     1       5.927 -11.455   9.627  1.00  0.00     0.293 HD
ENDBRANCH   7  25
TORSDOF 6
ENDMDL
MODEL 2
REMARK VINA RESULT:    -4.870      5.047      6.683
REMARK INTER + INTRA:          -6.230
REMARK INTER:                  -5.852
REMARK INTRA:                  -0.378
REMARK UNBOUND:                -0.364
REMARK SMILES Oc1cc(O)c2c(c1)O[C@H](c1ccc(O)c(O)c1)[C@H](O)C2
REMARK SMILES IDX 21 1 19 2 10 3 9 4 7 5 8 6 2 7 3 8 4 9 6 10 20 11 11 13
REMARK SMILES IDX 18 14 12 15 16 16 13 17 14 18 17 19 15 21 5 23 1 25
REMARK H PARENT 20 12 17 20 15 22 5 24 1 26
REMARK Flexibility Score: inf
ROOT
ATOM      1  C   UNL     1       4.702 -15.674   3.890  1.00  0.00     0.079 C 
ATOM      2  C   UNL     1       5.869 -16.665   3.707  1.00  0.00     0.164 C 
ATOM      3  C   UNL     1       6.517 -16.964   5.075  1.00  0.00     0.232 C 
ATOM      4  O   UNL     1       6.955 -15.737   5.661  1.00  0.00    -0.482 OA
ATOM      5  C   UNL     1       6.203 -14.560   5.588  1.00  0.00     0.131 A 
ATOM      6  C   UNL     1       6.587 -13.458   6.357  1.00  0.00     0.093 A 
ATOM      7  C   UNL     1       5.844 -12.275   6.316  1.00  0.00     0.122 A 
ATOM      8  C   UNL     1       4.707 -12.198   5.507  1.00  0.00     0.092 A 
ATOM      9  C   UNL     1       4.308 -13.291   4.730  1.00  0.00     0.126 A 
ATOM     10  C   UNL     1       5.081 -14.476   4.735  1.00  0.00     0.039 A 
ENDROOT
BRANCH   2  11
ATOM     11  O   UNL     1       6.828 -16.117   2.839  1.00  0.00    -0.389 OA
ATOM     12  H   UNL     1       6.419 -15.309   2.431  1.00  0.00     0.211 HD
ENDBRANCH   2  11
BRANCH   3  13
ATOM     13  C   UNL     1       7.676 -17.952   5.055  1.00  0.00    -0.001 A 
ATOM     14  C   UNL     1       8.834 -17.636   5.789  1.00  0.00     0.057 A 
ATOM     15  C   UNL     1       7.618 -19.197   4.394  1.00  0.00     0.012 A 
ATOM     16  C   UNL     1       9.921 -18.516   5.837  1.00  0.00     0.157 A 
ATOM     17  C   UNL     1       8.704 -20.077   4.441  1.00  0.00     0.050 A 
ATOM     18  C   UNL     1       9.858 -19.741   5.157  1.00  0.00     0.157 A 
BRANCH  16  19
ATOM     19  O   UNL     1      11.052 -18.155   6.568  1.00  0.00    -0.504 OA
ATOM     20  H   UNL     1      11.986 -18.433   6.287  1.00  0.00     0.293 HD
ENDBRANCH  16  19
BRANCH  18  21
ATOM     21  O   UNL     1      10.938 -20.622   5.198  1.00  0.00    -0.504 OA
ATOM     22  H   UNL     1      10.864 -21.533   5.634  1.00  0.00     0.293 HD
ENDBRANCH  18  21
ENDBRANCH   3  13
BRANCH   9  23
ATOM     23  O   UNL     1       3.138 -13.168   3.977  1.00  0.00    -0.507 OA
ATOM     24  H   UNL     1       2.910 -13.777   3.201  1.00  0.00     0.293 HD
ENDBRANCH   9  23
BRANCH   7  25
ATOM     25  O   UNL     1       6.221 -11.172   7.079  1.00  0.00    -0.508 OA
ATOM     26  H   UNL     1       6.319 -10.252   6.666  1.00  0.00     0.293 HD
ENDBRANCH   7  25
TORSDOF 6
ENDMDL
MODEL 3
REMARK VINA RESULT:    -4.858      3.534      7.440
REMARK INTER + INTRA:          -6.215
REMARK INTER:                  -5.830
REMARK INTRA:                  -0.385
REMARK UNBOUND:                -0.364
REMARK SMILES Oc1cc(O)c2c(c1)O[C@H](c1ccc(O)c(O)c1)[C@H](O)C2
REMARK SMILES IDX 21 1 19 2 10 3 9 4 7 5 8 6 2 7 3 8 4 9 6 10 20 11 11 13
REMARK SMILES IDX 18 14 12 15 16 16 13 17 14 18 17 19 15 21 5 23 1 25
REMARK H PARENT 20 12 17 20 15 22 5 24 1 26
REMARK Flexibility Score: inf
ROOT
ATOM      1  C   UNL     1       4.789 -14.395   3.450  1.00  0.00     0.079 C 
ATOM      2  C   UNL     1       4.833 -13.239   4.469  1.00  0.00     0.164 C 
ATOM      3  C   UNL     1       6.262 -13.099   5.035  1.00  0.00     0.232 C 
ATOM      4  O   UNL     1       6.652 -14.339   5.627  1.00  0.00    -0.482 OA
ATOM      5  C   UNL     1       6.344 -15.576   5.050  1.00  0.00     0.131 A 
ATOM      6  C   UNL     1       6.934 -16.733   5.566  1.00  0.00     0.093 A 
ATOM      7  C   UNL     1       6.657 -17.980   4.998  1.00  0.00     0.122 A 
ATOM      8  C   UNL     1       5.794 -18.067   3.903  1.00  0.00     0.092 A 
ATOM      9  C   UNL     1       5.195 -16.919   3.373  1.00  0.00     0.126 A 
ATOM     10  C   UNL     1       5.437 -15.660   3.972  1.00  0.00     0.039 A 
ENDROOT
BRANCH   2  11
ATOM     11  O   UNL     1       3.932 -13.494   5.517  1.00  0.00    -0.389 OA
ATOM     12  H   UNL     1       4.121 -14.413   5.842  1.00  0.00     0.211 HD
ENDBRANCH   2  11
BRANCH   3  13
ATOM     13  C   UNL     1       6.465 -11.977   6.044  1.00  0.00    -0.001 A 
ATOM     14  C   UNL     1       6.787 -12.322   7.370  1.00  0.00     0.057 A 
ATOM     15  C   UNL     1       6.415 -10.610   5.699  1.00  0.00     0.012 A 
ATOM     16  C   UNL     1       7.018 -11.337   8.337  1.00  0.00     0.157 A 
ATOM     17  C   UNL     1       6.645  -9.624   6.664  1.00  0.00     0.050 A 
ATOM     18  C   UNL     1       6.943  -9.982   7.984  1.00  0.00     0.157 A 
BRANCH  16  19
ATOM     19  O   UNL     1       7.322 -11.727   9.640  1.00  0.00    -0.504 OA
ATOM     20  H   UNL     1       7.336 -11.067  10.410  1.00  0.00     0.293 HD
ENDBRANCH  16  19
BRANCH  18  21
ATOM     21  O   UNL     1       7.169  -8.994   8.943  1.00  0.00    -0.504 OA
ATOM     22  H   UNL     1       7.320  -9.225   9.917  1.00  0.00     0.293 HD
ENDBRANCH  18  21
ENDBRANCH   3  13
BRANCH   9  23
ATOM     23  O   UNL     1       4.376 -17.065   2.252  1.00  0.00    -0.507 OA
ATOM     24  H   UNL     1       3.953 -17.944   1.982  1.00  0.00     0.293 HD
ENDBRANCH   9  23
BRANCH   7  25
ATOM     25  O   UNL     1       7.240 -19.138   5.508  1.00  0.00    -0.508 OA
ATOM     26  H   UNL     1       8.224 -19.175   5.746  1.00  0.00     0.293 HD
ENDBRANCH   7  25
TORSDOF 6
ENDMDL
MODEL 4
REMARK VINA RESULT:    -4.848      2.373      3.225
REMARK INTER + INTRA:          -6.203
REMARK INTER:                  -5.838
REMARK INTRA:                  -0.365
REMARK UNBOUND:                -0.364
REMARK SMILES Oc1cc(O)c2c(c1)O[C@H](c1ccc(O)c(O)c1)[C@H](O)C2
REMARK SMILES IDX 21 1 19 2 10 3 9 4 7 5 8 6 2 7 3 8 4 9 6 10 20 11 11 13
REMARK SMILES IDX 18 14 12 15 16 16 13 17 14 18 17 19 15 21 5 23 1 25
REMARK H PARENT 20 12 17 20 15 22 5 24 1 26
REMARK Flexibility Score: inf
ROOT
ATOM      1  C   UNL     1       9.263 -10.013   4.327  1.00  0.00     0.079 C 
ATOM      2  C   UNL     1       8.754 -11.266   3.587  1.00  0.00     0.164 C 
ATOM      3  C   UNL     1       7.472 -11.789   4.270  1.00  0.00     0.232 C 
ATOM      4  O   UNL     1       7.756 -12.066   5.642  1.00  0.00    -0.482 OA
ATOM      5  C   UNL     1       8.568 -11.236   6.423  1.00  0.00     0.131 A 
ATOM      6  C   UNL     1       8.632 -11.451   7.803  1.00  0.00     0.093 A 
ATOM      7  C   UNL     1       9.421 -10.626   8.609  1.00  0.00     0.122 A 
ATOM      8  C   UNL     1      10.143  -9.578   8.033  1.00  0.00     0.092 A 
ATOM      9  C   UNL     1      10.090  -9.348   6.654  1.00  0.00     0.126 A 
ATOM     10  C   UNL     1       9.328 -10.207   5.827  1.00  0.00     0.039 A 
ENDROOT
BRANCH   2  11
ATOM     11  O   UNL     1       9.742 -12.265   3.606  1.00  0.00    -0.389 OA
ATOM     12  H   UNL     1       9.281 -13.122   3.801  1.00  0.00     0.211 HD
ENDBRANCH   2  11
BRANCH   3  13
ATOM     13  C   UNL     1       6.838 -13.017   3.631  1.00  0.00    -0.001 A 
ATOM     14  C   UNL     1       6.344 -14.028   4.476  1.00  0.00     0.057 A 
ATOM     15  C   UNL     1       6.659 -13.158   2.239  1.00  0.00     0.012 A 
ATOM     16  C   UNL     1       5.721 -15.167   3.953  1.00  0.00     0.157 A 
ATOM     17  C   UNL     1       6.037 -14.295   1.714  1.00  0.00     0.050 A 
ATOM     18  C   UNL     1       5.570 -15.303   2.565  1.00  0.00     0.157 A 
BRANCH  16  19
ATOM     19  O   UNL     1       5.257 -16.147   4.828  1.00  0.00    -0.504 OA
ATOM     20  H   UNL     1       5.412 -17.135   4.660  1.00  0.00     0.293 HD
ENDBRANCH  16  19
BRANCH  18  21
ATOM     21  O   UNL     1       4.953 -16.436   2.035  1.00  0.00    -0.504 OA
ATOM     22  H   UNL     1       5.013 -17.337   2.494  1.00  0.00     0.293 HD
ENDBRANCH  18  21
ENDBRANCH   3  13
BRANCH   9  23
ATOM     23  O   UNL     1      10.798  -8.258   6.143  1.00  0.00    -0.507 OA
ATOM     24  H   UNL     1      11.719  -7.991   6.467  1.00  0.00     0.293 HD
ENDBRANCH   9  23
BRANCH   7  25
ATOM     25  O   UNL     1       9.492 -10.835   9.985  1.00  0.00    -0.508 OA
ATOM     26  H   UNL     1      10.331 -11.196  10.423  1.00  0.00     0.293 HD
ENDBRANCH   7  25
TORSDOF 6
ENDMDL
MODEL 5
REMARK VINA RESULT:    -4.808      4.796      6.481
REMARK INTER + INTRA:          -6.155
REMARK INTER:                  -5.825
REMARK INTRA:                  -0.330
REMARK UNBOUND:                -0.364
REMARK SMILES Oc1cc(O)c2c(c1)O[C@H](c1ccc(O)c(O)c1)[C@H](O)C2
REMARK SMILES IDX 21 1 19 2 10 3 9 4 7 5 8 6 2 7 3 8 4 9 6 10 20 11 11 13
REMARK SMILES IDX 18 14 12 15 16 16 13 17 14 18 17 19 15 21 5 23 1 25
REMARK H PARENT 20 12 17 20 15 22 5 24 1 26
REMARK Flexibility Score: inf
ROOT
ATOM      1  C   UNL     1       6.489 -14.586   2.640  1.00  0.00     0.079 C 
ATOM      2  C   UNL     1       7.114 -15.891   3.172  1.00  0.00     0.164 C 
ATOM      3  C   UNL     1       6.480 -16.254   4.531  1.00  0.00     0.232 C 
ATOM      4  O   UNL     1       6.674 -15.168   5.440  1.00  0.00    -0.482 OA
ATOM      5  C   UNL     1       6.550 -13.831   5.048  1.00  0.00     0.131 A 
ATOM      6  C   UNL     1       6.544 -12.833   6.027  1.00  0.00     0.093 A 
ATOM      7  C   UNL     1       6.406 -11.490   5.665  1.00  0.00     0.122 A 
ATOM      8  C   UNL     1       6.264 -11.146   4.318  1.00  0.00     0.092 A 
ATOM      9  C   UNL     1       6.268 -12.131   3.325  1.00  0.00     0.126 A 
ATOM     10  C   UNL     1       6.452 -13.488   3.682  1.00  0.00     0.039 A 
ENDROOT
BRANCH   2  11
ATOM     11  O   UNL     1       8.501 -15.727   3.325  1.00  0.00    -0.389 OA
ATOM     12  H   UNL     1       8.790 -16.365   4.028  1.00  0.00     0.211 HD
ENDBRANCH   2  11
BRANCH   3  13
ATOM     13  C   UNL     1       6.985 -17.539   5.172  1.00  0.00    -0.001 A 
ATOM     14  C   UNL     1       7.940 -17.442   6.201  1.00  0.00     0.057 A 
ATOM     15  C   UNL     1       6.491 -18.817   4.835  1.00  0.00     0.012 A 
ATOM     16  C   UNL     1       8.421 -18.583   6.853  1.00  0.00     0.157 A 
ATOM     17  C   UNL     1       6.969 -19.959   5.484  1.00  0.00     0.050 A 
ATOM     18  C   UNL     1       7.936 -19.849   6.490  1.00  0.00     0.157 A 
BRANCH  16  19
ATOM     19  O   UNL     1       9.375 -18.438   7.857  1.00  0.00    -0.504 OA
ATOM     20  H   UNL     1      10.127 -17.761   7.792  1.00  0.00     0.293 HD
ENDBRANCH  16  19
BRANCH  18  21
ATOM     21  O   UNL     1       8.411 -20.991   7.133  1.00  0.00    -0.504 OA
ATOM     22  H   UNL     1       7.850 -21.490   7.813  1.00  0.00     0.293 HD
ENDBRANCH  18  21
ENDBRANCH   3  13
BRANCH   9  23
ATOM     23  O   UNL     1       6.077 -11.729   2.001  1.00  0.00    -0.507 OA
ATOM     24  H   UNL     1       5.629 -12.309   1.303  1.00  0.00     0.293 HD
ENDBRANCH   9  23
BRANCH   7  25
ATOM     25  O   UNL     1       6.401 -10.490   6.635  1.00  0.00    -0.508 OA
ATOM     26  H   UNL     1       6.661  -9.536   6.413  1.00  0.00     0.293 HD
ENDBRANCH   7  25
TORSDOF 6
ENDMDL
MODEL 6
REMARK VINA RESULT:    -4.804      1.743      7.434
REMARK INTER + INTRA:          -6.151
REMARK INTER:                  -5.803
REMARK INTRA:                  -0.347
REMARK UNBOUND:                -0.364
REMARK SMILES Oc1cc(O)c2c(c1)O[C@H](c1ccc(O)c(O)c1)[C@H](O)C2
REMARK SMILES IDX 21 1 19 2 10 3 9 4 7 5 8 6 2 7 3 8 4 9 6 10 20 11 11 13
REMARK SMILES IDX 18 14 12 15 16 16 13 17 14 18 17 19 15 21 5 23 1 25
REMARK H PARENT 20 12 17 20 15 22 5 24 1 26
REMARK Flexibility Score: inf
ROOT
ATOM      1  C   UNL     1       4.910 -14.382   4.001  1.00  0.00     0.079 C 
ATOM      2  C   UNL     1       5.845 -13.955   5.150  1.00  0.00     0.164 C 
ATOM      3  C   UNL     1       6.264 -12.482   4.959  1.00  0.00     0.232 C 
ATOM      4  O   UNL     1       6.895 -12.339   3.686  1.00  0.00    -0.482 OA
ATOM      5  C   UNL     1       6.430 -12.993   2.539  1.00  0.00     0.131 A 
ATOM      6  C   UNL     1       6.962 -12.645   1.295  1.00  0.00     0.093 A 
ATOM      7  C   UNL     1       6.504 -13.270   0.132  1.00  0.00     0.122 A 
ATOM      8  C   UNL     1       5.503 -14.241   0.215  1.00  0.00     0.092 A 
ATOM      9  C   UNL     1       4.959 -14.602   1.453  1.00  0.00     0.126 A 
ATOM     10  C   UNL     1       5.450 -14.004   2.637  1.00  0.00     0.039 A 
ENDROOT
BRANCH   2  11
ATOM     11  O   UNL     1       6.987 -14.774   5.164  1.00  0.00    -0.389 OA
ATOM     12  H   UNL     1       7.049 -15.196   4.268  1.00  0.00     0.211 HD
ENDBRANCH   2  11
BRANCH   3  13
ATOM     13  C   UNL     1       7.175 -11.910   6.037  1.00  0.00    -0.001 A 
ATOM     14  C   UNL     1       6.827 -12.118   7.384  1.00  0.00     0.057 A 
ATOM     15  C   UNL     1       8.386 -11.245   5.751  1.00  0.00     0.012 A 
ATOM     16  C   UNL     1       7.639 -11.647   8.422  1.00  0.00     0.157 A 
ATOM     17  C   UNL     1       9.199 -10.773   6.786  1.00  0.00     0.050 A 
ATOM     18  C   UNL     1       8.829 -10.968   8.122  1.00  0.00     0.157 A 
BRANCH  16  19
ATOM     19  O   UNL     1       7.248 -11.867   9.741  1.00  0.00    -0.504 OA
ATOM     20  H   UNL     1       7.425 -12.745  10.216  1.00  0.00     0.293 HD
ENDBRANCH  16  19
BRANCH  18  21
ATOM     21  O   UNL     1       9.643 -10.493   9.150  1.00  0.00    -0.504 OA
ATOM     22  H   UNL     1      10.653 -10.539   9.092  1.00  0.00     0.293 HD
ENDBRANCH  18  21
ENDBRANCH   3  13
BRANCH   9  23
ATOM     23  O   UNL     1       3.930 -15.547   1.467  1.00  0.00    -0.507 OA
ATOM     24  H   UNL     1       3.823 -16.240   2.197  1.00  0.00     0.293 HD
ENDBRANCH   9  23
BRANCH   7  25
ATOM     25  O   UNL     1       7.030 -12.931  -1.113  1.00  0.00    -0.508 OA
ATOM     26  H   UNL     1       8.016 -13.042  -1.318  1.00  0.00     0.293 HD
ENDBRANCH   7  25
TORSDOF 6
ENDMDL
MODEL 7
REMARK VINA RESULT:    -4.801      6.811      7.739
REMARK INTER + INTRA:          -6.146
REMARK INTER:                  -5.914
REMARK INTRA:                  -0.232
REMARK UNBOUND:                -0.364
REMARK SMILES Oc1cc(O)c2c(c1)O[C@H](c1ccc(O)c(O)c1)[C@H](O)C2
REMARK SMILES IDX 21 1 19 2 10 3 9 4 7 5 8 6 2 7 3 8 4 9 6 10 20 11 11 13
REMARK SMILES IDX 18 14 12 15 16 16 13 17 14 18 17 19 15 21 5 23 1 25
REMARK H PARENT 20 12 17 20 15 22 5 24 1 26
REMARK Flexibility Score: inf
ROOT
ATOM      1  C   UNL     1       9.866 -20.071   4.286  1.00  0.00     0.079 C 
ATOM      2  C   UNL     1       8.604 -19.216   4.054  1.00  0.00     0.164 C 
ATOM      3  C   UNL     1       8.908 -17.740   4.383  1.00  0.00     0.232 C 
ATOM      4  O   UNL     1       9.365 -17.649   5.734  1.00  0.00    -0.482 OA
ATOM      5  C   UNL     1      10.234 -18.589   6.297  1.00  0.00     0.131 A 
ATOM      6  C   UNL     1      10.803 -18.326   7.546  1.00  0.00     0.093 A 
ATOM      7  C   UNL     1      11.688 -19.242   8.125  1.00  0.00     0.122 A 
ATOM      8  C   UNL     1      12.009 -20.420   7.446  1.00  0.00     0.092 A 
ATOM      9  C   UNL     1      11.448 -20.699   6.195  1.00  0.00     0.126 A 
ATOM     10  C   UNL     1      10.519 -19.797   5.625  1.00  0.00     0.039 A 
ENDROOT
BRANCH   2  11
ATOM     11  O   UNL     1       7.559 -19.679   4.872  1.00  0.00    -0.389 OA
ATOM     12  H   UNL     1       6.713 -19.349   4.471  1.00  0.00     0.211 HD
ENDBRANCH   2  11
BRANCH   3  13
ATOM     13  C   UNL     1       7.755 -16.767   4.178  1.00  0.00    -0.001 A 
ATOM     14  C   UNL     1       7.629 -16.135   2.927  1.00  0.00     0.057 A 
ATOM     15  C   UNL     1       6.767 -16.523   5.156  1.00  0.00     0.012 A 
ATOM     16  C   UNL     1       6.572 -15.256   2.664  1.00  0.00     0.157 A 
ATOM     17  C   UNL     1       5.711 -15.644   4.896  1.00  0.00     0.050 A 
ATOM     18  C   UNL     1       5.611 -15.006   3.654  1.00  0.00     0.157 A 
BRANCH  16  19
ATOM     19  O   UNL     1       6.495 -14.644   1.414  1.00  0.00    -0.504 OA
ATOM     20  H   UNL     1       7.279 -14.632   0.772  1.00  0.00     0.293 HD
ENDBRANCH  16  19
BRANCH  18  21
ATOM     21  O   UNL     1       4.556 -14.129   3.401  1.00  0.00    -0.504 OA
ATOM     22  H   UNL     1       3.595 -14.449   3.370  1.00  0.00     0.293 HD
ENDBRANCH  18  21
ENDBRANCH   3  13
BRANCH   9  23
ATOM     23  O   UNL     1      11.842 -21.871   5.546  1.00  0.00    -0.507 OA
ATOM     24  H   UNL     1      11.768 -22.005   4.546  1.00  0.00     0.293 HD
ENDBRANCH   9  23
BRANCH   7  25
ATOM     25  O   UNL     1      12.258 -18.988   9.370  1.00  0.00    -0.508 OA
ATOM     26  H   UNL     1      11.706 -18.639  10.144  1.00  0.00     0.293 HD
ENDBRANCH   7  25
TORSDOF 6
ENDMDL
MODEL 8
REMARK VINA RESULT:    -4.790      1.831      7.236
REMARK INTER + INTRA:          -6.134
REMARK INTER:                  -5.800
REMARK INTRA:                  -0.334
REMARK UNBOUND:                -0.364
REMARK SMILES Oc1cc(O)c2c(c1)O[C@H](c1ccc(O)c(O)c1)[C@H](O)C2
REMARK SMILES IDX 21 1 19 2 10 3 9 4 7 5 8 6 2 7 3 8 4 9 6 10 20 11 11 13
REMARK SMILES IDX 18 14 12 15 16 16 13 17 14 18 17 19 15 21 5 23 1 25
REMARK H PARENT 20 12 17 20 15 22 5 24 1 26
REMARK Flexibility Score: inf
ROOT
ATOM      1  C   UNL     1       6.593 -11.815   2.099  1.00  0.00     0.079 C 
ATOM      2  C   UNL     1       7.021 -12.070   3.558  1.00  0.00     0.164 C 
ATOM      3  C   UNL     1       7.832 -10.865   4.080  1.00  0.00     0.232 C 
ATOM      4  O   UNL     1       8.960 -10.659   3.229  1.00  0.00    -0.482 OA
ATOM      5  C   UNL     1       8.882 -10.784   1.837  1.00  0.00     0.131 A 
ATOM      6  C   UNL     1       9.963 -10.364   1.056  1.00  0.00     0.093 A 
ATOM      7  C   UNL     1       9.905 -10.462  -0.338  1.00  0.00     0.122 A 
ATOM      8  C   UNL     1       8.758 -10.973  -0.950  1.00  0.00     0.092 A 
ATOM      9  C   UNL     1       7.668 -11.398  -0.184  1.00  0.00     0.126 A 
ATOM     10  C   UNL     1       7.738 -11.342   1.228  1.00  0.00     0.039 A 
ENDROOT
BRANCH   2  11
ATOM     11  O   UNL     1       7.805 -13.234   3.627  1.00  0.00    -0.389 OA
ATOM     12  H   UNL     1       7.185 -14.004   3.535  1.00  0.00     0.211 HD
ENDBRANCH   2  11
BRANCH   3  13
ATOM     13  C   UNL     1       8.306 -10.965   5.524  1.00  0.00    -0.001 A 
ATOM     14  C   UNL     1       9.557 -10.412   5.855  1.00  0.00     0.057 A 
ATOM     15  C   UNL     1       7.523 -11.521   6.557  1.00  0.00     0.012 A 
ATOM     16  C   UNL     1      10.035 -10.442   7.170  1.00  0.00     0.157 A 
ATOM     17  C   UNL     1       7.999 -11.553   7.872  1.00  0.00     0.050 A 
ATOM     18  C   UNL     1       9.255 -11.019   8.183  1.00  0.00     0.157 A 
BRANCH  16  19
ATOM     19  O   UNL     1      11.285  -9.892   7.448  1.00  0.00    -0.504 OA
ATOM     20  H   UNL     1      11.873 -10.242   8.195  1.00  0.00     0.293 HD
ENDBRANCH  16  19
BRANCH  18  21
ATOM     21  O   UNL     1       9.726 -11.055   9.495  1.00  0.00    -0.504 OA
ATOM     22  H   UNL     1      10.714 -10.995   9.706  1.00  0.00     0.293 HD
ENDBRANCH  18  21
ENDBRANCH   3  13
BRANCH   9  23
ATOM     23  O   UNL     1       6.533 -11.858  -0.855  1.00  0.00    -0.507 OA
ATOM     24  H   UNL     1       6.507 -12.028  -1.853  1.00  0.00     0.293 HD
ENDBRANCH   9  23
BRANCH   7  25
ATOM     25  O   UNL     1      10.978 -10.048  -1.124  1.00  0.00    -0.508 OA
ATOM     26  H   UNL     1      11.218  -9.069  -1.219  1.00  0.00     0.293 HD
ENDBRANCH   7  25
TORSDOF 6
ENDMDL
MODEL 9
REMARK VINA RESULT:    -4.743      1.097      2.622
REMARK INTER + INTRA:          -6.077
REMARK INTER:                  -5.724
REMARK INTRA:                  -0.353
REMARK UNBOUND:                -0.364
REMARK SMILES Oc1cc(O)c2c(c1)O[C@H](c1ccc(O)c(O)c1)[C@H](O)C2
REMARK SMILES IDX 21 1 19 2 10 3 9 4 7 5 8 6 2 7 3 8 4 9 6 10 20 11 11 13
REMARK SMILES IDX 18 14 12 15 16 16 13 17 14 18 17 19 15 21 5 23 1 25
REMARK H PARENT 20 12 17 20 15 22 5 24 1 26
REMARK Flexibility Score: inf
ROOT
ATOM      1  C   UNL     1       5.963 -12.862   5.961  1.00  0.00     0.079 C 
ATOM      2  C   UNL     1       5.668 -12.846   4.448  1.00  0.00     0.164 C 
ATOM      3  C   UNL     1       6.973 -13.089   3.661  1.00  0.00     0.232 C 
ATOM      4  O   UNL     1       7.927 -12.090   4.022  1.00  0.00    -0.482 OA
ATOM      5  C   UNL     1       8.085 -11.643   5.339  1.00  0.00     0.131 A 
ATOM      6  C   UNL     1       9.173 -10.825   5.653  1.00  0.00     0.093 A 
ATOM      7  C   UNL     1       9.364 -10.378   6.964  1.00  0.00     0.122 A 
ATOM      8  C   UNL     1       8.466 -10.760   7.965  1.00  0.00     0.092 A 
ATOM      9  C   UNL     1       7.372 -11.578   7.667  1.00  0.00     0.126 A 
ATOM     10  C   UNL     1       7.149 -11.997   6.334  1.00  0.00     0.039 A 
ENDROOT
BRANCH   2  11
ATOM     11  O   UNL     1       5.119 -11.604   4.084  1.00  0.00    -0.389 OA
ATOM     12  H   UNL     1       5.394 -10.953   4.780  1.00  0.00     0.211 HD
ENDBRANCH   2  11
BRANCH   3  13
ATOM     13  C   UNL     1       6.832 -13.123   2.145  1.00  0.00    -0.001 A 
ATOM     14  C   UNL     1       7.262 -12.002   1.410  1.00  0.00     0.057 A 
ATOM     15  C   UNL     1       6.359 -14.248   1.438  1.00  0.00     0.012 A 
ATOM     16  C   UNL     1       7.190 -11.983   0.013  1.00  0.00     0.157 A 
ATOM     17  C   UNL     1       6.285 -14.231   0.042  1.00  0.00     0.050 A 
ATOM     18  C   UNL     1       6.696 -13.101  -0.675  1.00  0.00     0.157 A 
BRANCH  16  19
ATOM     19  O   UNL     1       7.617 -10.847  -0.672  1.00  0.00    -0.504 OA
ATOM     20  H   UNL     1       8.538 -10.784  -1.090  1.00  0.00     0.293 HD
ENDBRANCH  16  19
BRANCH  18  21
ATOM     21  O   UNL     1       6.618 -13.090  -2.068  1.00  0.00    -0.504 OA
ATOM     22  H   UNL     1       5.747 -13.267  -2.553  1.00  0.00     0.293 HD
ENDBRANCH  18  21
ENDBRANCH   3  13
BRANCH   9  23
ATOM     23  O   UNL     1       6.535 -11.962   8.718  1.00  0.00    -0.507 OA
ATOM     24  H   UNL     1       6.878 -12.270   9.618  1.00  0.00     0.293 HD
ENDBRANCH   9  23
BRANCH   7  25
ATOM     25  O   UNL     1      10.445  -9.560   7.286  1.00  0.00    -0.508 OA
ATOM     26  H   UNL     1      11.000  -9.720   8.118  1.00  0.00     0.293 HD
ENDBRANCH   7  25
TORSDOF 6
ENDMDL
