MODEL 1
REMARK VINA RESULT:    -3.716      0.000      0.000
REMARK INTER + INTRA:          -6.005
REMARK INTER:                  -5.455
REMARK INTRA:                  -0.550
REMARK UNBOUND:                -0.550
REMARK SMILES O=C([O-])CCCCCCCC(=O)[O-]
REMARK SMILES IDX 7 1 6 2 5 3 4 4 2 5 1 6 3 7 8 8 9 9 10 10 11 11 12 12 13 13
REMARK H PARENT
REMARK Flexibility Score: inf
ROOT
ATOM      1  C   UNL     1     -19.985 -19.759   2.485  1.00  0.00     0.000 C 
ENDROOT
BRANCH   1   2
ATOM      2  C   UNL     1     -20.041 -19.526   0.964  1.00  0.00     0.000 C 
BRANCH   2   3
ATOM      3  C   UNL     1     -21.446 -19.624   0.334  1.00  0.00     0.006 C 
BRANCH   3   4
ATOM      4  C   UNL     1     -21.591 -20.717  -0.737  1.00  0.00     0.053 C 
BRANCH   4   5
ATOM      5  C   UNL     1     -22.318 -21.919  -0.218  1.00  0.00     0.041 C 
ATOM      6  O   UNL     1     -22.483 -22.926  -0.956  1.00  0.00    -0.550 OA
ATOM      7  O   UNL     1     -22.843 -21.913   1.068  1.00  0.00    -0.550 OA
ENDBRANCH   4   5
ENDBRANCH   3   4
ENDBRANCH   2   3
ENDBRANCH   1   2
BRANCH   1   8
ATOM      8  C   UNL     1     -19.764 -21.235   2.857  1.00  0.00     0.000 C 
BRANCH   8   9
ATOM      9  C   UNL     1     -18.308 -21.537   3.256  1.00  0.00     0.006 C 
BRANCH   9  10
ATOM     10  C   UNL     1     -17.481 -20.296   3.631  1.00  0.00     0.053 C 
BRANCH  10  11
ATOM     11  C   UNL     1     -16.215 -20.202   2.835  1.00  0.00     0.041 C 
ATOM     12  O   UNL     1     -16.257 -20.200   1.577  1.00  0.00    -0.550 OA
ATOM     13  O   UNL     1     -14.992 -20.084   3.484  1.00  0.00    -0.550 OA
ENDBRANCH  10  11
ENDBRANCH   9  10
ENDBRANCH   8   9
ENDBRANCH   1   8
TORSDOF 8
ENDMDL
MODEL 2
REMARK VINA RESULT:    -3.653      0.217      6.108
REMARK INTER + INTRA:          -5.911
REMARK INTER:                  -5.367
REMARK INTRA:                  -0.545
REMARK UNBOUND:                -0.550
REMARK SMILES O=C([O-])CCCCCCCC(=O)[O-]
REMARK SMILES IDX 7 1 6 2 5 3 4 4 2 5 1 6 3 7 8 8 9 9 10 10 11 11 12 12 13 13
REMARK H PARENT
REMARK Flexibility Score: inf
ROOT
ATOM      1  C   UNL     1     -20.026 -19.900   2.722  1.00  0.00     0.000 C 
ENDROOT
BRANCH   1   2
ATOM      2  C   UNL     1     -19.662 -21.344   3.117  1.00  0.00     0.000 C 
BRANCH   2   3
ATOM      3  C   UNL     1     -18.158 -21.608   3.337  1.00  0.00     0.006 C 
BRANCH   3   4
ATOM      4  C   UNL     1     -17.345 -20.368   3.740  1.00  0.00     0.053 C 
BRANCH   4   5
ATOM      5  C   UNL     1     -16.161 -20.158   2.847  1.00  0.00     0.041 C 
ATOM      6  O   UNL     1     -14.998 -20.139   3.330  1.00  0.00    -0.550 OA
ATOM      7  O   UNL     1     -16.345 -19.949   1.485  1.00  0.00    -0.550 OA
ENDBRANCH   4   5
ENDBRANCH   3   4
ENDBRANCH   2   3
ENDBRANCH   1   2
BRANCH   1   8
ATOM      8  C   UNL     1     -19.966 -19.663   1.204  1.00  0.00     0.000 C 
BRANCH   8   9
ATOM      9  C   UNL     1     -21.362 -19.581   0.559  1.00  0.00     0.006 C 
BRANCH   9  10
ATOM     10  C   UNL     1     -21.609 -20.610  -0.556  1.00  0.00     0.053 C 
BRANCH  10  11
ATOM     11  C   UNL     1     -22.281 -21.846  -0.042  1.00  0.00     0.041 C 
ATOM     12  O   UNL     1     -22.667 -21.905   1.155  1.00  0.00    -0.550 OA
ATOM     13  O   UNL     1     -22.510 -22.920  -0.894  1.00  0.00    -0.550 OA
ENDBRANCH  10  11
ENDBRANCH   9  10
ENDBRANCH   8   9
ENDBRANCH   1   8
TORSDOF 8
ENDMDL
MODEL 3
REMARK VINA RESULT:    -3.574      1.328      1.828
REMARK INTER + INTRA:          -5.795
REMARK INTER:                  -5.479
REMARK INTRA:                  -0.316
REMARK UNBOUND:                -0.550
REMARK SMILES O=C([O-])CCCCCCCC(=O)[O-]
REMARK SMILES IDX 7 1 6 2 5 3 4 4 2 5 1 6 3 7 8 8 9 9 10 10 11 11 12 12 13 13
REMARK H PARENT
REMARK Flexibility Score: inf
ROOT
ATOM      1  C   UNL     1     -20.269 -18.455   1.888  1.00  0.00     0.000 C 
ENDROOT
BRANCH   1   2
ATOM      2  C   UNL     1     -21.138 -18.636   0.629  1.00  0.00     0.000 C 
BRANCH   2   3
ATOM      3  C   UNL     1     -20.917 -19.955  -0.140  1.00  0.00     0.006 C 
BRANCH   3   4
ATOM      4  C   UNL     1     -22.182 -20.534  -0.792  1.00  0.00     0.053 C 
BRANCH   4   5
ATOM      5  C   UNL     1     -22.570 -21.852  -0.195  1.00  0.00     0.041 C 
ATOM      6  O   UNL     1     -22.886 -21.928   1.022  1.00  0.00    -0.550 OA
ATOM      7  O   UNL     1     -22.548 -23.002  -0.974  1.00  0.00    -0.550 OA
ENDBRANCH   4   5
ENDBRANCH   3   4
ENDBRANCH   2   3
ENDBRANCH   1   2
BRANCH   1   8
ATOM      8  C   UNL     1     -19.149 -19.504   1.998  1.00  0.00     0.000 C 
BRANCH   8   9
ATOM      9  C   UNL     1     -17.742 -18.881   1.934  1.00  0.00     0.006 C 
BRANCH   9  10
ATOM     10  C   UNL     1     -16.593 -19.903   1.941  1.00  0.00     0.053 C 
BRANCH  10  11
ATOM     11  C   UNL     1     -16.028 -20.105   3.313  1.00  0.00     0.041 C 
ATOM     12  O   UNL     1     -14.785 -20.045   3.501  1.00  0.00    -0.550 OA
ATOM     13  O   UNL     1     -16.878 -20.329   4.390  1.00  0.00    -0.550 OA
ENDBRANCH  10  11
ENDBRANCH   9  10
ENDBRANCH   8   9
ENDBRANCH   1   8
TORSDOF 8
ENDMDL
MODEL 4
REMARK VINA RESULT:    -3.450      1.389      6.188
REMARK INTER + INTRA:          -5.614
REMARK INTER:                  -5.256
REMARK INTRA:                  -0.358
REMARK UNBOUND:                -0.550
REMARK SMILES O=C([O-])CCCCCCCC(=O)[O-]
REMARK SMILES IDX 7 1 6 2 5 3 4 4 2 5 1 6 3 7 8 8 9 9 10 10 11 11 12 12 13 13
REMARK H PARENT
REMARK Flexibility Score: inf
ROOT
ATOM      1  C   UNL     1     -19.838 -19.275   1.419  1.00  0.00     0.000 C 
ENDROOT
BRANCH   1   2
ATOM      2  C   UNL     1     -19.095 -17.974   1.777  1.00  0.00     0.000 C 
BRANCH   2   3
ATOM      3  C   UNL     1     -17.594 -18.139   2.091  1.00  0.00     0.006 C 
BRANCH   3   4
ATOM      4  C   UNL     1     -17.027 -19.534   1.785  1.00  0.00     0.053 C 
BRANCH   4   5
ATOM      5  C   UNL     1     -16.429 -20.176   2.999  1.00  0.00     0.041 C 
ATOM      6  O   UNL     1     -17.169 -20.742   3.845  1.00  0.00    -0.550 OA
ATOM      7  O   UNL     1     -15.057 -20.120   3.211  1.00  0.00    -0.550 OA
ENDBRANCH   4   5
ENDBRANCH   3   4
ENDBRANCH   2   3
ENDBRANCH   1   2
BRANCH   1   8
ATOM      8  C   UNL     1     -20.975 -19.055   0.405  1.00  0.00     0.000 C 
BRANCH   8   9
ATOM      9  C   UNL     1     -21.124 -20.225  -0.584  1.00  0.00     0.006 C 
BRANCH   9  10
ATOM     10  C   UNL     1     -22.578 -20.644  -0.859  1.00  0.00     0.053 C 
BRANCH  10  11
ATOM     11  C   UNL     1     -23.005 -21.790   0.006  1.00  0.00     0.041 C 
ATOM     12  O   UNL     1     -24.083 -22.395  -0.232  1.00  0.00    -0.550 OA
ATOM     13  O   UNL     1     -22.197 -22.209   1.056  1.00  0.00    -0.550 OA
ENDBRANCH  10  11
ENDBRANCH   9  10
ENDBRANCH   8   9
ENDBRANCH   1   8
TORSDOF 8
ENDMDL
MODEL 5
REMARK VINA RESULT:    -3.431      1.706      6.350
REMARK INTER + INTRA:          -5.586
REMARK INTER:                  -5.310
REMARK INTRA:                  -0.277
REMARK UNBOUND:                -0.550
REMARK SMILES O=C([O-])CCCCCCCC(=O)[O-]
REMARK SMILES IDX 7 1 6 2 5 3 4 4 2 5 1 6 3 7 8 8 9 9 10 10 11 11 12 12 13 13
REMARK H PARENT
REMARK Flexibility Score: inf
ROOT
ATOM      1  C   UNL     1     -19.016 -19.515   1.995  1.00  0.00     0.000 C 
ENDROOT
BRANCH   1   2
ATOM      2  C   UNL     1     -17.519 -19.168   1.900  1.00  0.00     0.000 C 
BRANCH   2   3
ATOM      3  C   UNL     1     -16.553 -20.310   2.277  1.00  0.00     0.006 C 
BRANCH   3   4
ATOM      4  C   UNL     1     -15.514 -19.941   3.348  1.00  0.00     0.053 C 
BRANCH   4   5
ATOM      5  C   UNL     1     -15.954 -20.346   4.721  1.00  0.00     0.041 C 
ATOM      6  O   UNL     1     -15.107 -20.730   5.570  1.00  0.00    -0.550 OA
ATOM      7  O   UNL     1     -17.303 -20.331   5.052  1.00  0.00    -0.550 OA
ENDBRANCH   4   5
ENDBRANCH   3   4
ENDBRANCH   2   3
ENDBRANCH   1   2
BRANCH   1   8
ATOM      8  C   UNL     1     -19.917 -18.466   1.321  1.00  0.00     0.000 C 
BRANCH   8   9
ATOM      9  C   UNL     1     -21.040 -19.100   0.479  1.00  0.00     0.006 C 
BRANCH   9  10
ATOM     10  C   UNL     1     -21.370 -20.555   0.851  1.00  0.00     0.053 C 
BRANCH  10  11
ATOM     11  C   UNL     1     -21.858 -21.340  -0.327  1.00  0.00     0.041 C 
ATOM     12  O   UNL     1     -22.481 -22.420  -0.154  1.00  0.00    -0.550 OA
ATOM     13  O   UNL     1     -21.652 -20.862  -1.616  1.00  0.00    -0.550 OA
ENDBRANCH  10  11
ENDBRANCH   9  10
ENDBRANCH   8   9
ENDBRANCH   1   8
TORSDOF 8
ENDMDL
MODEL 6
REMARK VINA RESULT:    -3.414      1.718      2.087
REMARK INTER + INTRA:          -5.560
REMARK INTER:                  -5.244
REMARK INTRA:                  -0.317
REMARK UNBOUND:                -0.550
REMARK SMILES O=C([O-])CCCCCCCC(=O)[O-]
REMARK SMILES IDX 7 1 6 2 5 3 4 4 2 5 1 6 3 7 8 8 9 9 10 10 11 11 12 12 13 13
REMARK H PARENT
REMARK Flexibility Score: inf
ROOT
ATOM      1  C   UNL     1     -19.068 -19.384   2.110  1.00  0.00     0.000 C 
ENDROOT
BRANCH   1   2
ATOM      2  C   UNL     1     -19.920 -18.374   1.318  1.00  0.00     0.000 C 
BRANCH   2   3
ATOM      3  C   UNL     1     -21.096 -18.982   0.527  1.00  0.00     0.006 C 
BRANCH   3   4
ATOM      4  C   UNL     1     -21.284 -20.495   0.725  1.00  0.00     0.053 C 
BRANCH   4   5
ATOM      5  C   UNL     1     -21.813 -21.162  -0.508  1.00  0.00     0.041 C 
ATOM      6  O   UNL     1     -21.667 -20.618  -1.634  1.00  0.00    -0.550 OA
ATOM      7  O   UNL     1     -22.496 -22.367  -0.408  1.00  0.00    -0.550 OA
ENDBRANCH   4   5
ENDBRANCH   3   4
ENDBRANCH   2   3
ENDBRANCH   1   2
BRANCH   1   8
ATOM      8  C   UNL     1     -17.561 -19.237   1.840  1.00  0.00     0.000 C 
BRANCH   8   9
ATOM      9  C   UNL     1     -16.738 -20.410   2.403  1.00  0.00     0.006 C 
BRANCH   9  10
ATOM     10  C   UNL     1     -15.599 -19.992   3.347  1.00  0.00     0.053 C 
BRANCH  10  11
ATOM     11  C   UNL     1     -15.954 -20.208   4.786  1.00  0.00     0.041 C 
ATOM     12  O   UNL     1     -17.064 -19.814   5.231  1.00  0.00    -0.550 OA
ATOM     13  O   UNL     1     -15.071 -20.874   5.629  1.00  0.00    -0.550 OA
ENDBRANCH  10  11
ENDBRANCH   9  10
ENDBRANCH   8   9
ENDBRANCH   1   8
TORSDOF 8
ENDMDL
MODEL 7
REMARK VINA RESULT:    -3.353      5.149      7.360
REMARK INTER + INTRA:          -5.471
REMARK INTER:                  -5.286
REMARK INTRA:                  -0.185
REMARK UNBOUND:                -0.550
REMARK SMILES O=C([O-])CCCCCCCC(=O)[O-]
REMARK SMILES IDX 7 1 6 2 5 3 4 4 2 5 1 6 3 7 8 8 9 9 10 10 11 11 12 12 13 13
REMARK H PARENT
REMARK Flexibility Score: inf
ROOT
ATOM      1  C   UNL     1     -17.833 -15.938   1.405  1.00  0.00     0.000 C 
ENDROOT
BRANCH   1   2
ATOM      2  C   UNL     1     -18.321 -17.394   1.525  1.00  0.00     0.000 C 
BRANCH   2   3
ATOM      3  C   UNL     1     -17.682 -18.211   2.667  1.00  0.00     0.006 C 
BRANCH   3   4
ATOM      4  C   UNL     1     -16.912 -19.458   2.207  1.00  0.00     0.053 C 
BRANCH   4   5
ATOM      5  C   UNL     1     -16.183 -20.118   3.337  1.00  0.00     0.041 C 
ATOM      6  O   UNL     1     -14.928 -20.212   3.311  1.00  0.00    -0.550 OA
ATOM      7  O   UNL     1     -16.893 -20.658   4.402  1.00  0.00    -0.550 OA
ENDBRANCH   4   5
ENDBRANCH   3   4
ENDBRANCH   2   3
ENDBRANCH   1   2
BRANCH   1   8
ATOM      8  C   UNL     1     -18.305 -15.254   0.110  1.00  0.00     0.000 C 
BRANCH   8   9
ATOM      9  C   UNL     1     -17.183 -14.465  -0.589  1.00  0.00     0.006 C 
BRANCH   9  10
ATOM     10  C   UNL     1     -17.079 -14.713  -2.103  1.00  0.00     0.053 C 
BRANCH  10  11
ATOM     11  C   UNL     1     -17.819 -13.678  -2.894  1.00  0.00     0.041 C 
ATOM     12  O   UNL     1     -17.628 -12.454  -2.670  1.00  0.00    -0.550 OA
ATOM     13  O   UNL     1     -18.696 -14.066  -3.899  1.00  0.00    -0.550 OA
ENDBRANCH  10  11
ENDBRANCH   9  10
ENDBRANCH   8   9
ENDBRANCH   1   8
TORSDOF 8
ENDMDL
MODEL 8
REMARK VINA RESULT:    -3.190      7.743      8.472
REMARK INTER + INTRA:          -5.232
REMARK INTER:                  -4.849
REMARK INTRA:                  -0.383
REMARK UNBOUND:                -0.550
REMARK SMILES O=C([O-])CCCCCCCC(=O)[O-]
REMARK SMILES IDX 7 1 6 2 5 3 4 4 2 5 1 6 3 7 8 8 9 9 10 10 11 11 12 12 13 13
REMARK H PARENT
REMARK Flexibility Score: inf
ROOT
ATOM      1  C   UNL     1     -17.690 -14.535  -0.469  1.00  0.00     0.000 C 
ENDROOT
BRANCH   1   2
ATOM      2  C   UNL     1     -16.945 -14.879  -1.773  1.00  0.00     0.000 C 
BRANCH   2   3
ATOM      3  C   UNL     1     -17.607 -14.361  -3.066  1.00  0.00     0.006 C 
BRANCH   3   4
ATOM      4  C   UNL     1     -18.241 -12.966  -2.944  1.00  0.00     0.053 C 
BRANCH   4   5
ATOM      5  C   UNL     1     -19.633 -12.931  -3.496  1.00  0.00     0.041 C 
ATOM      6  O   UNL     1     -19.845 -12.472  -4.650  1.00  0.00    -0.550 OA
ATOM      7  O   UNL     1     -20.699 -13.373  -2.723  1.00  0.00    -0.550 OA
ENDBRANCH   4   5
ENDBRANCH   3   4
ENDBRANCH   2   3
ENDBRANCH   1   2
BRANCH   1   8
ATOM      8  C   UNL     1     -16.745 -14.359   0.732  1.00  0.00     0.000 C 
BRANCH   8   9
ATOM      9  C   UNL     1     -15.552 -13.437   0.420  1.00  0.00     0.006 C 
BRANCH   9  10
ATOM     10  C   UNL     1     -14.437 -13.459   1.478  1.00  0.00     0.053 C 
BRANCH  10  11
ATOM     11  C   UNL     1     -13.117 -13.033   0.914  1.00  0.00     0.041 C 
ATOM     12  O   UNL     1     -12.967 -11.866   0.466  1.00  0.00    -0.550 OA
ATOM     13  O   UNL     1     -12.043 -13.915   0.912  1.00  0.00    -0.550 OA
ENDBRANCH  10  11
ENDBRANCH   9  10
ENDBRANCH   8   9
ENDBRANCH   1   8
TORSDOF 8
ENDMDL
MODEL 9
REMARK VINA RESULT:    -3.148      7.831     10.723
REMARK INTER + INTRA:          -5.170
REMARK INTER:                  -4.737
REMARK INTRA:                  -0.433
REMARK UNBOUND:                -0.550
REMARK SMILES O=C([O-])CCCCCCCC(=O)[O-]
REMARK SMILES IDX 7 1 6 2 5 3 4 4 2 5 1 6 3 7 8 8 9 9 10 10 11 11 12 12 13 13
REMARK H PARENT
REMARK Flexibility Score: inf
ROOT
ATOM      1  C   UNL     1     -16.278 -12.641  -0.073  1.00  0.00     0.000 C 
ENDROOT
BRANCH   1   2
ATOM      2  C   UNL     1     -14.827 -12.370   0.367  1.00  0.00     0.000 C 
BRANCH   2   3
ATOM      3  C   UNL     1     -14.163 -13.501   1.180  1.00  0.00     0.006 C 
BRANCH   3   4
ATOM      4  C   UNL     1     -12.636 -13.585   1.028  1.00  0.00     0.053 C 
BRANCH   4   5
ATOM      5  C   UNL     1     -11.924 -13.200   2.288  1.00  0.00     0.041 C 
ATOM      6  O   UNL     1     -11.591 -12.002   2.486  1.00  0.00    -0.550 OA
ATOM      7  O   UNL     1     -11.598 -14.171   3.227  1.00  0.00    -0.550 OA
ENDBRANCH   4   5
ENDBRANCH   3   4
ENDBRANCH   2   3
ENDBRANCH   1   2
BRANCH   1   8
ATOM      8  C   UNL     1     -16.691 -14.113   0.100  1.00  0.00     0.000 C 
BRANCH   8   9
ATOM      9  C   UNL     1     -17.207 -14.744  -1.207  1.00  0.00     0.006 C 
BRANCH   9  10
ATOM     10  C   UNL     1     -17.108 -13.827  -2.438  1.00  0.00     0.053 C 
BRANCH  10  11
ATOM     11  C   UNL     1     -18.453 -13.524  -3.023  1.00  0.00     0.041 C 
ATOM     12  O   UNL     1     -19.178 -12.630  -2.514  1.00  0.00    -0.550 OA
ATOM     13  O   UNL     1     -18.892 -14.208  -4.151  1.00  0.00    -0.550 OA
ENDBRANCH  10  11
ENDBRANCH   9  10
ENDBRANCH   8   9
ENDBRANCH   1   8
TORSDOF 8
ENDMDL
