MODEL 1
REMARK VINA RESULT:    -6.249      0.000      0.000
REMARK INTER + INTRA:          -9.413
REMARK INTER:                  -8.258
REMARK INTRA:                  -1.155
REMARK UNBOUND:                -1.155
REMARK SMILES CC[C@@H](C=C[C@@H](C)[C@H]1CC[C@@H]2C3=CC[C@H]4C[C@@H](O)CC[C@@]4(C)[C@H]3CC[C@@]21C)C(C)C
REMARK SMILES IDX 6 1 7 2 5 3 4 4 3 5 2 6 1 7 28 8 29 9 30 10 8 11 9 12 26 13
REMARK SMILES IDX 10 14 11 15 25 16 27 17 12 18 24 19 23 20 13 21 21 22 14 23
REMARK SMILES IDX 15 24 20 25 22 26 16 27 19 28 17 29 18 30
REMARK H PARENT 18 31
REMARK Flexibility Score: inf
ROOT
ATOM      1  C   UNL     1     138.036 134.605 140.387  1.00  0.00     0.012 C 
ATOM      2  C   UNL     1     136.507 134.442 140.414  1.00  0.00     0.012 C 
ENDROOT
BRANCH   1   3
ATOM      3  C   UNL     1     138.379 136.014 140.839  1.00  0.00    -0.028 C 
ATOM      4  C   UNL     1     139.143 136.234 141.920  1.00  0.00    -0.027 C 
BRANCH   4   5
ATOM      5  C   UNL     1     139.366 137.625 142.486  1.00  0.00     0.014 C 
BRANCH   5   6
ATOM      6  C   UNL     1     140.875 137.823 142.773  1.00  0.00     0.004 C 
ATOM      7  C   UNL     1     141.707 137.924 141.493  1.00  0.00     0.004 C 
ENDBRANCH   5   6
BRANCH   5   8
ATOM      8  C   UNL     1     138.486 137.818 143.763  1.00  0.00    -0.011 C 
ATOM      9  C   UNL     1     137.001 138.055 143.425  1.00  0.00     0.008 C 
ATOM     10  C   UNL     1     138.587 136.598 144.701  1.00  0.00     0.008 C 
ENDBRANCH   5   8
ENDBRANCH   4   5
ENDBRANCH   1   3
BRANCH   1  11
ATOM     11  C   UNL     1     138.613 134.210 138.973  1.00  0.00     0.002 C 
ATOM     12  C   UNL     1     139.693 135.122 138.394  1.00  0.00     0.005 C 
ATOM     13  C   UNL     1     139.209 132.777 138.816  1.00  0.00    -0.023 C 
ATOM     14  C   UNL     1     140.282 134.355 137.218  1.00  0.00     0.009 C 
ATOM     15  C   UNL     1     140.069 132.858 137.511  1.00  0.00     0.021 C 
ATOM     16  C   UNL     1     138.105 131.683 138.726  1.00  0.00     0.008 C 
ATOM     17  C   UNL     1     140.153 132.405 139.997  1.00  0.00     0.012 C 
ATOM     18  C   UNL     1     139.406 132.164 136.328  1.00  0.00    -0.067 C 
ATOM     19  C   UNL     1     137.228 131.697 137.447  1.00  0.00     0.009 C 
ATOM     20  C   UNL     1     137.905 132.317 136.196  1.00  0.00     0.021 C 
ATOM     21  C   UNL     1     140.131 131.372 135.514  1.00  0.00    -0.027 C 
ATOM     22  C   UNL     1     137.350 131.919 134.769  1.00  0.00    -0.023 C 
ATOM     23  C   UNL     1     139.591 130.726 134.267  1.00  0.00     0.031 C 
ATOM     24  C   UNL     1     138.051 130.646 134.195  1.00  0.00     0.002 C 
ATOM     25  C   UNL     1     135.792 131.751 134.731  1.00  0.00     0.010 C 
ATOM     26  C   UNL     1     137.676 133.106 133.812  1.00  0.00     0.012 C 
ATOM     27  C   UNL     1     137.522 129.333 134.798  1.00  0.00     0.036 C 
ATOM     28  C   UNL     1     135.233 130.378 135.157  1.00  0.00     0.032 C 
ATOM     29  C   UNL     1     136.013 129.199 134.559  1.00  0.00     0.114 C 
BRANCH  29  30
ATOM     30  O   UNL     1     135.562 127.998 135.130  1.00  0.00    -0.393 OA
ATOM     31  H   UNL     1     135.349 128.195 136.082  1.00  0.00     0.210 HD
ENDBRANCH  29  30
ENDBRANCH   1  11
TORSDOF 6
ENDMDL
MODEL 2
REMARK VINA RESULT:    -6.058      4.166      9.951
REMARK INTER + INTRA:          -9.161
REMARK INTER:                  -7.887
REMARK INTRA:                  -1.274
REMARK UNBOUND:                -1.155
REMARK SMILES CC[C@@H](C=C[C@@H](C)[C@H]1CC[C@@H]2C3=CC[C@H]4C[C@@H](O)CC[C@@]4(C)[C@H]3CC[C@@]21C)C(C)C
REMARK SMILES IDX 6 1 7 2 5 3 4 4 3 5 2 6 1 7 28 8 29 9 30 10 8 11 9 12 26 13
REMARK SMILES IDX 10 14 11 15 25 16 27 17 12 18 24 19 23 20 13 21 21 22 14 23
REMARK SMILES IDX 15 24 20 25 22 26 16 27 19 28 17 29 18 30
REMARK H PARENT 18 31
REMARK Flexibility Score: inf
ROOT
ATOM      1  C   UNL     1     136.276 130.706 140.142  1.00  0.00     0.012 C 
ATOM      2  C   UNL     1     136.579 131.783 139.086  1.00  0.00     0.012 C 
ENDROOT
BRANCH   1   3
ATOM      3  C   UNL     1     135.282 129.720 139.554  1.00  0.00    -0.028 C 
ATOM      4  C   UNL     1     134.580 130.011 138.448  1.00  0.00    -0.027 C 
BRANCH   4   5
ATOM      5  C   UNL     1     133.468 129.115 137.934  1.00  0.00     0.014 C 
BRANCH   5   6
ATOM      6  C   UNL     1     133.428 127.817 138.778  1.00  0.00     0.004 C 
ATOM      7  C   UNL     1     132.070 127.594 139.448  1.00  0.00     0.004 C 
ENDBRANCH   5   6
BRANCH   5   8
ATOM      8  C   UNL     1     133.684 128.831 136.413  1.00  0.00    -0.011 C 
ATOM      9  C   UNL     1     134.945 129.521 135.858  1.00  0.00     0.008 C 
ATOM     10  C   UNL     1     133.793 127.317 136.137  1.00  0.00     0.008 C 
ENDBRANCH   5   8
ENDBRANCH   4   5
ENDBRANCH   1   3
BRANCH   1  11
ATOM     11  C   UNL     1     135.821 131.370 141.498  1.00  0.00     0.002 C 
ATOM     12  C   UNL     1     134.588 130.772 142.174  1.00  0.00     0.005 C 
ATOM     13  C   UNL     1     136.874 131.453 142.646  1.00  0.00    -0.023 C 
ATOM     14  C   UNL     1     134.566 131.368 143.575  1.00  0.00     0.009 C 
ATOM     15  C   UNL     1     136.023 131.721 143.931  1.00  0.00     0.021 C 
ATOM     16  C   UNL     1     137.933 132.568 142.399  1.00  0.00     0.008 C 
ATOM     17  C   UNL     1     137.634 130.108 142.839  1.00  0.00     0.012 C 
ATOM     18  C   UNL     1     136.128 133.162 144.415  1.00  0.00    -0.067 C 
ATOM     19  C   UNL     1     137.417 134.029 142.467  1.00  0.00     0.009 C 
ATOM     20  C   UNL     1     136.162 134.240 143.353  1.00  0.00     0.021 C 
ATOM     21  C   UNL     1     136.287 133.425 145.726  1.00  0.00    -0.027 C 
ATOM     22  C   UNL     1     135.876 135.691 143.914  1.00  0.00    -0.023 C 
ATOM     23  C   UNL     1     136.300 134.812 146.311  1.00  0.00     0.031 C 
ATOM     24  C   UNL     1     136.569 135.941 145.292  1.00  0.00     0.002 C 
ATOM     25  C   UNL     1     136.239 136.833 142.904  1.00  0.00     0.010 C 
ATOM     26  C   UNL     1     134.336 135.792 144.138  1.00  0.00     0.012 C 
ATOM     27  C   UNL     1     138.071 136.252 145.173  1.00  0.00     0.036 C 
ATOM     28  C   UNL     1     137.709 137.301 142.887  1.00  0.00     0.032 C 
ATOM     29  C   UNL     1     138.298 137.487 144.293  1.00  0.00     0.114 C 
BRANCH  29  30
ATOM     30  O   UNL     1     139.677 137.736 144.196  1.00  0.00    -0.393 OA
ATOM     31  H   UNL     1     139.921 138.304 144.976  1.00  0.00     0.210 HD
ENDBRANCH  29  30
ENDBRANCH   1  11
TORSDOF 6
ENDMDL
MODEL 3
REMARK VINA RESULT:    -6.050      4.818      9.653
REMARK INTER + INTRA:          -9.150
REMARK INTER:                  -7.843
REMARK INTRA:                  -1.307
REMARK UNBOUND:                -1.155
REMARK SMILES CC[C@@H](C=C[C@@H](C)[C@H]1CC[C@@H]2C3=CC[C@H]4C[C@@H](O)CC[C@@]4(C)[C@H]3CC[C@@]21C)C(C)C
REMARK SMILES IDX 6 1 7 2 5 3 4 4 3 5 2 6 1 7 28 8 29 9 30 10 8 11 9 12 26 13
REMARK SMILES IDX 10 14 11 15 25 16 27 17 12 18 24 19 23 20 13 21 21 22 14 23
REMARK SMILES IDX 15 24 20 25 22 26 16 27 19 28 17 29 18 30
REMARK H PARENT 18 31
REMARK Flexibility Score: inf
ROOT
ATOM      1  C   UNL     1     134.627 129.042 139.600  1.00  0.00     0.012 C 
ATOM      2  C   UNL     1     134.522 129.863 138.305  1.00  0.00     0.012 C 
ENDROOT
BRANCH   1   3
ATOM      3  C   UNL     1     133.444 128.091 139.666  1.00  0.00    -0.028 C 
ATOM      4  C   UNL     1     132.829 127.664 138.553  1.00  0.00    -0.027 C 
BRANCH   4   5
ATOM      5  C   UNL     1     131.551 126.846 138.596  1.00  0.00     0.014 C 
BRANCH   5   6
ATOM      6  C   UNL     1     130.433 127.606 137.839  1.00  0.00     0.004 C 
ATOM      7  C   UNL     1     130.973 128.427 136.665  1.00  0.00     0.004 C 
ENDBRANCH   5   6
BRANCH   5   8
ATOM      8  C   UNL     1     131.168 126.550 140.081  1.00  0.00    -0.011 C 
ATOM      9  C   UNL     1     129.889 127.288 140.519  1.00  0.00     0.008 C 
ATOM     10  C   UNL     1     130.966 125.038 140.315  1.00  0.00     0.008 C 
ENDBRANCH   5   8
ENDBRANCH   4   5
ENDBRANCH   1   3
BRANCH   1  11
ATOM     11  C   UNL     1     134.776 129.992 140.851  1.00  0.00     0.002 C 
ATOM     12  C   UNL     1     133.827 129.739 142.021  1.00  0.00     0.005 C 
ATOM     13  C   UNL     1     136.182 130.081 141.520  1.00  0.00    -0.023 C 
ATOM     14  C   UNL     1     134.387 130.555 143.179  1.00  0.00     0.009 C 
ATOM     15  C   UNL     1     135.900 130.704 142.928  1.00  0.00     0.021 C 
ATOM     16  C   UNL     1     137.181 130.938 140.688  1.00  0.00     0.008 C 
ATOM     17  C   UNL     1     136.819 128.676 141.730  1.00  0.00     0.012 C 
ATOM     18  C   UNL     1     136.323 132.165 143.019  1.00  0.00    -0.067 C 
ATOM     19  C   UNL     1     136.880 132.457 140.608  1.00  0.00     0.009 C 
ATOM     20  C   UNL     1     136.070 133.028 141.801  1.00  0.00     0.021 C 
ATOM     21  C   UNL     1     136.982 132.612 144.105  1.00  0.00    -0.027 C 
ATOM     22  C   UNL     1     136.162 134.580 142.094  1.00  0.00    -0.023 C 
ATOM     23  C   UNL     1     137.352 134.053 144.331  1.00  0.00     0.031 C 
ATOM     24  C   UNL     1     137.338 134.932 143.062  1.00  0.00     0.002 C 
ATOM     25  C   UNL     1     136.239 135.456 140.797  1.00  0.00     0.010 C 
ATOM     26  C   UNL     1     134.834 134.983 142.804  1.00  0.00     0.012 C 
ATOM     27  C   UNL     1     138.712 134.952 142.370  1.00  0.00     0.036 C 
ATOM     28  C   UNL     1     137.637 135.651 140.175  1.00  0.00     0.032 C 
ATOM     29  C   UNL     1     138.721 135.964 141.218  1.00  0.00     0.114 C 
BRANCH  29  30
ATOM     30  O   UNL     1     139.983 135.950 140.603  1.00  0.00    -0.393 OA
ATOM     31  H   UNL     1     139.939 135.274 139.873  1.00  0.00     0.210 HD
ENDBRANCH  29  30
ENDBRANCH   1  11
TORSDOF 6
ENDMDL
MODEL 4
REMARK VINA RESULT:    -6.033      7.506     10.984
REMARK INTER + INTRA:          -9.128
REMARK INTER:                  -7.788
REMARK INTRA:                  -1.339
REMARK UNBOUND:                -1.155
REMARK SMILES CC[C@@H](C=C[C@@H](C)[C@H]1CC[C@@H]2C3=CC[C@H]4C[C@@H](O)CC[C@@]4(C)[C@H]3CC[C@@]21C)C(C)C
REMARK SMILES IDX 6 1 7 2 5 3 4 4 3 5 2 6 1 7 28 8 29 9 30 10 8 11 9 12 26 13
REMARK SMILES IDX 10 14 11 15 25 16 27 17 12 18 24 19 23 20 13 21 21 22 14 23
REMARK SMILES IDX 15 24 20 25 22 26 16 27 19 28 17 29 18 30
REMARK H PARENT 18 31
REMARK Flexibility Score: inf
ROOT
ATOM      1  C   UNL     1     132.681 127.992 137.112  1.00  0.00     0.012 C 
ATOM      2  C   UNL     1     133.767 127.311 136.262  1.00  0.00     0.012 C 
ENDROOT
BRANCH   1   3
ATOM      3  C   UNL     1     133.293 129.199 137.799  1.00  0.00    -0.028 C 
ATOM      4  C   UNL     1     134.616 129.289 138.008  1.00  0.00    -0.027 C 
BRANCH   4   5
ATOM      5  C   UNL     1     135.233 130.403 138.832  1.00  0.00     0.014 C 
BRANCH   5   6
ATOM      6  C   UNL     1     136.726 130.557 138.447  1.00  0.00     0.004 C 
ATOM      7  C   UNL     1     136.924 130.778 136.946  1.00  0.00     0.004 C 
ENDBRANCH   5   6
BRANCH   5   8
ATOM      8  C   UNL     1     135.039 130.100 140.353  1.00  0.00    -0.011 C 
ATOM      9  C   UNL     1     135.628 128.736 140.761  1.00  0.00     0.008 C 
ATOM     10  C   UNL     1     135.684 131.194 141.228  1.00  0.00     0.008 C 
ENDBRANCH   5   8
ENDBRANCH   4   5
ENDBRANCH   1   3
BRANCH   1  11
ATOM     11  C   UNL     1     132.006 126.952 138.088  1.00  0.00     0.002 C 
ATOM     12  C   UNL     1     131.923 127.349 139.561  1.00  0.00     0.005 C 
ATOM     13  C   UNL     1     130.559 126.482 137.744  1.00  0.00    -0.023 C 
ATOM     14  C   UNL     1     130.968 126.346 140.196  1.00  0.00     0.009 C 
ATOM     15  C   UNL     1     130.031 125.853 139.077  1.00  0.00     0.021 C 
ATOM     16  C   UNL     1     130.530 125.466 136.564  1.00  0.00     0.008 C 
ATOM     17  C   UNL     1     129.630 127.674 137.369  1.00  0.00     0.012 C 
ATOM     18  C   UNL     1     129.994 124.331 139.033  1.00  0.00    -0.067 C 
ATOM     19  C   UNL     1     131.154 124.074 136.843  1.00  0.00     0.009 C 
ATOM     20  C   UNL     1     131.142 123.638 138.331  1.00  0.00     0.021 C 
ATOM     21  C   UNL     1     128.926 123.666 139.514  1.00  0.00    -0.027 C 
ATOM     22  C   UNL     1     131.246 122.093 138.660  1.00  0.00    -0.023 C 
ATOM     23  C   UNL     1     128.839 122.166 139.606  1.00  0.00     0.031 C 
ATOM     24  C   UNL     1     129.845 121.404 138.717  1.00  0.00     0.002 C 
ATOM     25  C   UNL     1     132.201 121.313 137.692  1.00  0.00     0.010 C 
ATOM     26  C   UNL     1     131.885 121.977 140.077  1.00  0.00     0.012 C 
ATOM     27  C   UNL     1     129.257 121.098 137.329  1.00  0.00     0.036 C 
ATOM     28  C   UNL     1     131.592 120.827 136.361  1.00  0.00     0.032 C 
ATOM     29  C   UNL     1     130.204 120.193 136.530  1.00  0.00     0.114 C 
BRANCH  29  30
ATOM     30  O   UNL     1     129.644 119.943 135.267  1.00  0.00    -0.393 OA
ATOM     31  H   UNL     1     129.870 119.002 135.035  1.00  0.00     0.210 HD
ENDBRANCH  29  30
ENDBRANCH   1  11
TORSDOF 6
ENDMDL
MODEL 5
REMARK VINA RESULT:    -5.981      3.097      8.825
REMARK INTER + INTRA:          -9.059
REMARK INTER:                  -7.851
REMARK INTRA:                  -1.209
REMARK UNBOUND:                -1.155
REMARK SMILES CC[C@@H](C=C[C@@H](C)[C@H]1CC[C@@H]2C3=CC[C@H]4C[C@@H](O)CC[C@@]4(C)[C@H]3CC[C@@]21C)C(C)C
REMARK SMILES IDX 6 1 7 2 5 3 4 4 3 5 2 6 1 7 28 8 29 9 30 10 8 11 9 12 26 13
REMARK SMILES IDX 10 14 11 15 25 16 27 17 12 18 24 19 23 20 13 21 21 22 14 23
REMARK SMILES IDX 15 24 20 25 22 26 16 27 19 28 17 29 18 30
REMARK H PARENT 18 31
REMARK Flexibility Score: inf
ROOT
ATOM      1  C   UNL     1     139.310 133.895 137.464  1.00  0.00     0.012 C 
ATOM      2  C   UNL     1     139.945 135.296 137.438  1.00  0.00     0.012 C 
ENDROOT
BRANCH   1   3
ATOM      3  C   UNL     1     138.929 133.512 136.045  1.00  0.00    -0.028 C 
ATOM      4  C   UNL     1     139.340 132.357 135.499  1.00  0.00    -0.027 C 
BRANCH   4   5
ATOM      5  C   UNL     1     139.111 132.025 134.036  1.00  0.00     0.014 C 
BRANCH   5   6
ATOM      6  C   UNL     1     137.804 132.704 133.557  1.00  0.00     0.004 C 
ATOM      7  C   UNL     1     138.043 133.698 132.418  1.00  0.00     0.004 C 
ENDBRANCH   5   6
BRANCH   5   8
ATOM      8  C   UNL     1     139.079 130.473 133.850  1.00  0.00    -0.011 C 
ATOM      9  C   UNL     1     138.474 129.746 135.066  1.00  0.00     0.008 C 
ATOM     10  C   UNL     1     138.276 130.078 132.593  1.00  0.00     0.008 C 
ENDBRANCH   5   8
ENDBRANCH   4   5
ENDBRANCH   1   3
BRANCH   1  11
ATOM     11  C   UNL     1     138.122 133.842 138.500  1.00  0.00     0.002 C 
ATOM     12  C   UNL     1     136.818 133.209 138.017  1.00  0.00     0.005 C 
ATOM     13  C   UNL     1     138.393 133.143 139.868  1.00  0.00    -0.023 C 
ATOM     14  C   UNL     1     135.981 133.000 139.271  1.00  0.00     0.009 C 
ATOM     15  C   UNL     1     136.967 132.862 140.447  1.00  0.00     0.021 C 
ATOM     16  C   UNL     1     139.252 134.024 140.823  1.00  0.00     0.008 C 
ATOM     17  C   UNL     1     139.123 131.780 139.692  1.00  0.00     0.012 C 
ATOM     18  C   UNL     1     136.595 133.810 141.580  1.00  0.00    -0.067 C 
ATOM     19  C   UNL     1     138.574 135.310 141.364  1.00  0.00     0.009 C 
ATOM     20  C   UNL     1     137.025 135.254 141.432  1.00  0.00     0.021 C 
ATOM     21  C   UNL     1     136.004 133.336 142.693  1.00  0.00    -0.027 C 
ATOM     22  C   UNL     1     136.283 136.241 142.423  1.00  0.00    -0.023 C 
ATOM     23  C   UNL     1     135.511 134.204 143.819  1.00  0.00     0.031 C 
ATOM     24  C   UNL     1     136.108 135.628 143.849  1.00  0.00     0.002 C 
ATOM     25  C   UNL     1     136.954 137.655 142.513  1.00  0.00     0.010 C 
ATOM     26  C   UNL     1     134.859 136.480 141.836  1.00  0.00     0.012 C 
ATOM     27  C   UNL     1     137.387 135.688 144.702  1.00  0.00     0.036 C 
ATOM     28  C   UNL     1     138.130 137.801 143.500  1.00  0.00     0.032 C 
ATOM     29  C   UNL     1     137.862 137.138 144.859  1.00  0.00     0.114 C 
BRANCH  29  30
ATOM     30  O   UNL     1     139.035 137.157 145.631  1.00  0.00    -0.393 OA
ATOM     31  H   UNL     1     138.785 137.523 146.522  1.00  0.00     0.210 HD
ENDBRANCH  29  30
ENDBRANCH   1  11
TORSDOF 6
ENDMDL
MODEL 6
REMARK VINA RESULT:    -5.958      9.641     12.502
REMARK INTER + INTRA:          -9.028
REMARK INTER:                  -7.782
REMARK INTRA:                  -1.246
REMARK UNBOUND:                -1.155
REMARK SMILES CC[C@@H](C=C[C@@H](C)[C@H]1CC[C@@H]2C3=CC[C@H]4C[C@@H](O)CC[C@@]4(C)[C@H]3CC[C@@]21C)C(C)C
REMARK SMILES IDX 6 1 7 2 5 3 4 4 3 5 2 6 1 7 28 8 29 9 30 10 8 11 9 12 26 13
REMARK SMILES IDX 10 14 11 15 25 16 27 17 12 18 24 19 23 20 13 21 21 22 14 23
REMARK SMILES IDX 15 24 20 25 22 26 16 27 19 28 17 29 18 30
REMARK H PARENT 18 31
REMARK Flexibility Score: inf
ROOT
ATOM      1  C   UNL     1     130.647 127.043 140.389  1.00  0.00     0.012 C 
ATOM      2  C   UNL     1     131.763 127.170 139.339  1.00  0.00     0.012 C 
ENDROOT
BRANCH   1   3
ATOM      3  C   UNL     1     130.984 127.944 141.564  1.00  0.00    -0.028 C 
ATOM      4  C   UNL     1     132.204 128.488 141.699  1.00  0.00    -0.027 C 
BRANCH   4   5
ATOM      5  C   UNL     1     132.615 129.257 142.941  1.00  0.00     0.014 C 
BRANCH   5   6
ATOM      6  C   UNL     1     132.108 128.507 144.198  1.00  0.00     0.004 C 
ATOM      7  C   UNL     1     133.153 128.459 145.314  1.00  0.00     0.004 C 
ENDBRANCH   5   6
BRANCH   5   8
ATOM      8  C   UNL     1     132.066 130.718 142.858  1.00  0.00    -0.011 C 
ATOM      9  C   UNL     1     130.972 130.997 143.906  1.00  0.00     0.008 C 
ATOM     10  C   UNL     1     133.197 131.751 143.043  1.00  0.00     0.008 C 
ENDBRANCH   5   8
ENDBRANCH   4   5
ENDBRANCH   1   3
BRANCH   1  11
ATOM     11  C   UNL     1     130.410 125.530 140.769  1.00  0.00     0.002 C 
ATOM     12  C   UNL     1     130.445 125.183 142.256  1.00  0.00     0.005 C 
ATOM     13  C   UNL     1     129.098 124.859 140.258  1.00  0.00    -0.023 C 
ATOM     14  C   UNL     1     129.882 123.771 142.355  1.00  0.00     0.009 C 
ATOM     15  C   UNL     1     128.950 123.578 141.145  1.00  0.00     0.021 C 
ATOM     16  C   UNL     1     129.158 124.519 138.740  1.00  0.00     0.008 C 
ATOM     17  C   UNL     1     127.850 125.760 140.496  1.00  0.00     0.012 C 
ATOM     18  C   UNL     1     129.297 122.300 140.392  1.00  0.00    -0.067 C 
ATOM     19  C   UNL     1     130.151 123.402 138.326  1.00  0.00     0.009 C 
ATOM     20  C   UNL     1     130.469 122.366 139.436  1.00  0.00     0.021 C 
ATOM     21  C   UNL     1     128.517 121.209 140.514  1.00  0.00    -0.027 C 
ATOM     22  C   UNL     1     131.012 120.945 139.000  1.00  0.00    -0.023 C 
ATOM     23  C   UNL     1     128.831 119.875 139.892  1.00  0.00     0.031 C 
ATOM     24  C   UNL     1     129.858 119.924 138.739  1.00  0.00     0.002 C 
ATOM     25  C   UNL     1     131.983 120.999 137.770  1.00  0.00     0.010 C 
ATOM     26  C   UNL     1     131.860 120.402 140.190  1.00  0.00     0.012 C 
ATOM     27  C   UNL     1     129.172 120.112 137.376  1.00  0.00     0.036 C 
ATOM     28  C   UNL     1     131.330 121.003 136.372  1.00  0.00     0.032 C 
ATOM     29  C   UNL     1     130.191 119.983 136.237  1.00  0.00     0.114 C 
BRANCH  29  30
ATOM     30  O   UNL     1     129.535 120.170 135.009  1.00  0.00    -0.393 OA
ATOM     31  H   UNL     1     128.619 120.497 135.221  1.00  0.00     0.210 HD
ENDBRANCH  29  30
ENDBRANCH   1  11
TORSDOF 6
ENDMDL
MODEL 7
REMARK VINA RESULT:    -5.861      8.490     11.765
REMARK INTER + INTRA:          -8.900
REMARK INTER:                  -7.808
REMARK INTRA:                  -1.091
REMARK UNBOUND:                -1.155
REMARK SMILES CC[C@@H](C=C[C@@H](C)[C@H]1CC[C@@H]2C3=CC[C@H]4C[C@@H](O)CC[C@@]4(C)[C@H]3CC[C@@]21C)C(C)C
REMARK SMILES IDX 6 1 7 2 5 3 4 4 3 5 2 6 1 7 28 8 29 9 30 10 8 11 9 12 26 13
REMARK SMILES IDX 10 14 11 15 25 16 27 17 12 18 24 19 23 20 13 21 21 22 14 23
REMARK SMILES IDX 15 24 20 25 22 26 16 27 19 28 17 29 18 30
REMARK H PARENT 18 31
REMARK Flexibility Score: inf
ROOT
ATOM      1  C   UNL     1     131.914 127.476 138.819  1.00  0.00     0.012 C 
ATOM      2  C   UNL     1     132.708 127.093 137.559  1.00  0.00     0.012 C 
ENDROOT
BRANCH   1   3
ATOM      3  C   UNL     1     132.829 128.253 139.748  1.00  0.00    -0.028 C 
ATOM      4  C   UNL     1     134.126 128.438 139.457  1.00  0.00    -0.027 C 
BRANCH   4   5
ATOM      5  C   UNL     1     135.096 129.068 140.440  1.00  0.00     0.014 C 
BRANCH   5   6
ATOM      6  C   UNL     1     134.298 129.723 141.595  1.00  0.00     0.004 C 
ATOM      7  C   UNL     1     134.624 129.106 142.957  1.00  0.00     0.004 C 
ENDBRANCH   5   6
BRANCH   5   8
ATOM      8  C   UNL     1     136.009 130.092 139.692  1.00  0.00    -0.011 C 
ATOM      9  C   UNL     1     135.551 130.341 138.243  1.00  0.00     0.008 C 
ATOM     10  C   UNL     1     136.055 131.445 140.432  1.00  0.00     0.008 C 
ENDBRANCH   5   8
ENDBRANCH   4   5
ENDBRANCH   1   3
BRANCH   1  11
ATOM     11  C   UNL     1     131.249 126.200 139.467  1.00  0.00     0.002 C 
ATOM     12  C   UNL     1     131.029 126.234 140.978  1.00  0.00     0.005 C 
ATOM     13  C   UNL     1     129.871 125.742 138.897  1.00  0.00    -0.023 C 
ATOM     14  C   UNL     1     130.109 125.059 141.280  1.00  0.00     0.009 C 
ATOM     15  C   UNL     1     129.296 124.790 139.999  1.00  0.00     0.021 C 
ATOM     16  C   UNL     1     130.005 125.032 137.518  1.00  0.00     0.008 C 
ATOM     17  C   UNL     1     128.885 126.935 138.725  1.00  0.00     0.012 C 
ATOM     18  C   UNL     1     129.377 123.321 139.604  1.00  0.00    -0.067 C 
ATOM     19  C   UNL     1     130.710 123.651 137.525  1.00  0.00     0.009 C 
ATOM     20  C   UNL     1     130.623 122.877 138.867  1.00  0.00     0.021 C 
ATOM     21  C   UNL     1     128.330 122.502 139.823  1.00  0.00    -0.027 C 
ATOM     22  C   UNL     1     130.819 121.307 138.840  1.00  0.00    -0.023 C 
ATOM     23  C   UNL     1     128.350 121.021 139.561  1.00  0.00     0.031 C 
ATOM     24  C   UNL     1     129.473 120.546 138.614  1.00  0.00     0.002 C 
ATOM     25  C   UNL     1     131.898 120.831 137.808  1.00  0.00     0.010 C 
ATOM     26  C   UNL     1     131.360 120.898 140.244  1.00  0.00     0.012 C 
ATOM     27  C   UNL     1     129.013 120.541 137.146  1.00  0.00     0.036 C 
ATOM     28  C   UNL     1     131.426 120.638 136.352  1.00  0.00     0.032 C 
ATOM     29  C   UNL     1     130.081 119.904 136.248  1.00  0.00     0.114 C 
BRANCH  29  30
ATOM     30  O   UNL     1     129.635 119.926 134.917  1.00  0.00    -0.393 OA
ATOM     31  H   UNL     1     130.447 119.893 134.342  1.00  0.00     0.210 HD
ENDBRANCH  29  30
ENDBRANCH   1  11
TORSDOF 6
ENDMDL
MODEL 8
REMARK VINA RESULT:    -5.748      1.750      2.536
REMARK INTER + INTRA:          -8.751
REMARK INTER:                  -7.488
REMARK INTRA:                  -1.263
REMARK UNBOUND:                -1.155
REMARK SMILES CC[C@@H](C=C[C@@H](C)[C@H]1CC[C@@H]2C3=CC[C@H]4C[C@@H](O)CC[C@@]4(C)[C@H]3CC[C@@]21C)C(C)C
REMARK SMILES IDX 6 1 7 2 5 3 4 4 3 5 2 6 1 7 28 8 29 9 30 10 8 11 9 12 26 13
REMARK SMILES IDX 10 14 11 15 25 16 27 17 12 18 24 19 23 20 13 21 21 22 14 23
REMARK SMILES IDX 15 24 20 25 22 26 16 27 19 28 17 29 18 30
REMARK H PARENT 18 31
REMARK Flexibility Score: inf
ROOT
ATOM      1  C   UNL     1     137.086 132.865 141.617  1.00  0.00     0.012 C 
ATOM      2  C   UNL     1     135.832 131.983 141.502  1.00  0.00     0.012 C 
ENDROOT
BRANCH   1   3
ATOM      3  C   UNL     1     136.727 134.114 142.404  1.00  0.00    -0.028 C 
ATOM      4  C   UNL     1     135.540 134.719 142.249  1.00  0.00    -0.027 C 
BRANCH   4   5
ATOM      5  C   UNL     1     135.219 136.053 142.899  1.00  0.00     0.014 C 
BRANCH   5   6
ATOM      6  C   UNL     1     135.306 137.174 141.834  1.00  0.00     0.004 C 
ATOM      7  C   UNL     1     134.408 136.905 140.625  1.00  0.00     0.004 C 
ENDBRANCH   5   6
BRANCH   5   8
ATOM      8  C   UNL     1     136.188 136.296 144.101  1.00  0.00    -0.011 C 
ATOM      9  C   UNL     1     136.930 137.642 143.996  1.00  0.00     0.008 C 
ATOM     10  C   UNL     1     135.432 136.257 145.445  1.00  0.00     0.008 C 
ENDBRANCH   5   8
ENDBRANCH   4   5
ENDBRANCH   1   3
BRANCH   1  11
ATOM     11  C   UNL     1     137.704 133.142 140.192  1.00  0.00     0.002 C 
ATOM     12  C   UNL     1     138.342 134.513 139.976  1.00  0.00     0.005 C 
ATOM     13  C   UNL     1     138.782 132.141 139.671  1.00  0.00    -0.023 C 
ATOM     14  C   UNL     1     139.120 134.396 138.672  1.00  0.00     0.009 C 
ATOM     15  C   UNL     1     139.491 132.910 138.506  1.00  0.00     0.021 C 
ATOM     16  C   UNL     1     138.159 130.796 139.194  1.00  0.00     0.008 C 
ATOM     17  C   UNL     1     139.849 131.814 140.756  1.00  0.00     0.012 C 
ATOM     18  C   UNL     1     139.080 132.399 137.131  1.00  0.00    -0.067 C 
ATOM     19  C   UNL     1     137.283 130.861 137.916  1.00  0.00     0.009 C 
ATOM     20  C   UNL     1     137.625 132.023 136.946  1.00  0.00     0.021 C 
ATOM     21  C   UNL     1     140.010 132.205 136.176  1.00  0.00    -0.027 C 
ATOM     22  C   UNL     1     137.194 131.884 135.430  1.00  0.00    -0.023 C 
ATOM     23  C   UNL     1     139.692 131.800 134.762  1.00  0.00     0.031 C 
ATOM     24  C   UNL     1     138.290 131.185 134.564  1.00  0.00     0.002 C 
ATOM     25  C   UNL     1     135.809 131.175 135.238  1.00  0.00     0.010 C 
ATOM     26  C   UNL     1     137.014 133.332 134.880  1.00  0.00     0.012 C 
ATOM     27  C   UNL     1     138.314 129.655 134.726  1.00  0.00     0.036 C 
ATOM     28  C   UNL     1     135.819 129.633 135.212  1.00  0.00     0.032 C 
ATOM     29  C   UNL     1     136.953 129.053 134.355  1.00  0.00     0.114 C 
BRANCH  29  30
ATOM     30  O   UNL     1     137.005 127.660 134.524  1.00  0.00    -0.393 OA
ATOM     31  H   UNL     1     136.862 127.256 133.626  1.00  0.00     0.210 HD
ENDBRANCH  29  30
ENDBRANCH   1  11
TORSDOF 6
ENDMDL
MODEL 9
REMARK VINA RESULT:    -5.683     11.006     13.994
REMARK INTER + INTRA:          -8.665
REMARK INTER:                  -7.616
REMARK INTRA:                  -1.049
REMARK UNBOUND:                -1.155
REMARK SMILES CC[C@@H](C=C[C@@H](C)[C@H]1CC[C@@H]2C3=CC[C@H]4C[C@@H](O)CC[C@@]4(C)[C@H]3CC[C@@]21C)C(C)C
REMARK SMILES IDX 6 1 7 2 5 3 4 4 3 5 2 6 1 7 28 8 29 9 30 10 8 11 9 12 26 13
REMARK SMILES IDX 10 14 11 15 25 16 27 17 12 18 24 19 23 20 13 21 21 22 14 23
REMARK SMILES IDX 15 24 20 25 22 26 16 27 19 28 17 29 18 30
REMARK H PARENT 18 31
REMARK Flexibility Score: inf
ROOT
ATOM      1  C   UNL     1     130.716 126.536 140.381  1.00  0.00     0.012 C 
ATOM      2  C   UNL     1     131.054 125.071 140.062  1.00  0.00     0.012 C 
ENDROOT
BRANCH   1   3
ATOM      3  C   UNL     1     131.918 127.396 140.033  1.00  0.00    -0.028 C 
ATOM      4  C   UNL     1     132.419 127.424 138.788  1.00  0.00    -0.027 C 
BRANCH   4   5
ATOM      5  C   UNL     1     133.712 128.145 138.451  1.00  0.00     0.014 C 
BRANCH   5   6
ATOM      6  C   UNL     1     134.024 129.178 139.562  1.00  0.00     0.004 C 
ATOM      7  C   UNL     1     135.293 128.833 140.344  1.00  0.00     0.004 C 
ENDBRANCH   5   6
BRANCH   5   8
ATOM      8  C   UNL     1     133.591 128.805 137.040  1.00  0.00    -0.011 C 
ATOM      9  C   UNL     1     134.810 129.681 136.693  1.00  0.00     0.008 C 
ATOM     10  C   UNL     1     133.423 127.739 135.937  1.00  0.00     0.008 C 
ENDBRANCH   5   8
ENDBRANCH   4   5
ENDBRANCH   1   3
BRANCH   1  11
ATOM     11  C   UNL     1     130.215 126.679 141.870  1.00  0.00     0.002 C 
ATOM     12  C   UNL     1     130.772 127.855 142.671  1.00  0.00     0.005 C 
ATOM     13  C   UNL     1     128.674 126.764 142.104  1.00  0.00    -0.023 C 
ATOM     14  C   UNL     1     129.905 127.941 143.920  1.00  0.00     0.009 C 
ATOM     15  C   UNL     1     128.536 127.338 143.553  1.00  0.00     0.021 C 
ATOM     16  C   UNL     1     127.975 125.381 141.950  1.00  0.00     0.008 C 
ATOM     17  C   UNL     1     127.988 127.757 141.121  1.00  0.00     0.012 C 
ATOM     18  C   UNL     1     128.121 126.279 144.567  1.00  0.00    -0.067 C 
ATOM     19  C   UNL     1     128.304 124.322 143.034  1.00  0.00     0.009 C 
ATOM     20  C   UNL     1     128.732 124.903 144.408  1.00  0.00     0.021 C 
ATOM     21  C   UNL     1     127.176 126.555 145.486  1.00  0.00    -0.027 C 
ATOM     22  C   UNL     1     128.575 123.988 145.689  1.00  0.00    -0.023 C 
ATOM     23  C   UNL     1     126.772 125.612 146.587  1.00  0.00     0.031 C 
ATOM     24  C   UNL     1     127.170 124.138 146.356  1.00  0.00     0.002 C 
ATOM     25  C   UNL     1     128.895 122.477 145.419  1.00  0.00     0.010 C 
ATOM     26  C   UNL     1     129.639 124.472 146.720  1.00  0.00     0.012 C 
ATOM     27  C   UNL     1     126.062 123.358 145.629  1.00  0.00     0.036 C 
ATOM     28  C   UNL     1     127.744 121.616 144.858  1.00  0.00     0.032 C 
ATOM     29  C   UNL     1     126.405 121.865 145.567  1.00  0.00     0.114 C 
BRANCH  29  30
ATOM     30  O   UNL     1     125.380 121.185 144.889  1.00  0.00    -0.393 OA
ATOM     31  H   UNL     1     125.781 120.349 144.527  1.00  0.00     0.210 HD
ENDBRANCH  29  30
ENDBRANCH   1  11
TORSDOF 6
ENDMDL
