MODEL 1
REMARK VINA RESULT:    -7.831      0.000      0.000
REMARK INTER + INTRA:          -8.059
REMARK INTER:                  -8.059
REMARK INTRA:                   0.000
REMARK UNBOUND:                 0.000
REMARK SMILES CC1(C)CC[C@]2(C)CC[C@]3(C)C(=CC[C@@H]4[C@]5(C)CC[C@@H](O)C(C)(C)[C@H]5CC[C@@]43C)[C@@H]2C1
REMARK SMILES IDX 1 1 2 2 4 3 5 4 6 5 8 6 9 7 10 8 12 9 13 10 14 11 15 12
REMARK SMILES IDX 28 13 27 14 26 15 25 16 16 17 18 18 19 19 20 20 22 21 23 22
REMARK SMILES IDX 24 23 17 24 29 25 30 26 31 27 11 28 7 29 3 30 21 31
REMARK H PARENT 21 32
REMARK Flexibility Score: inf
ROOT
ATOM      1  C   UNL     1     114.985 124.703 124.540  1.00  0.00     0.011 C 
ATOM      2  C   UNL     1     114.830 123.398 123.724  1.00  0.00    -0.035 C 
ATOM      3  C   UNL     1     114.179 123.645 122.340  1.00  0.00     0.007 C 
ATOM      4  C   UNL     1     115.096 124.391 121.351  1.00  0.00     0.008 C 
ATOM      5  C   UNL     1     116.528 123.792 121.199  1.00  0.00    -0.026 C 
ATOM      6  C   UNL     1     116.488 122.495 120.353  1.00  0.00     0.008 C 
ATOM      7  C   UNL     1     117.887 121.906 120.111  1.00  0.00     0.012 C 
ATOM      8  C   UNL     1     118.761 121.649 121.404  1.00  0.00    -0.006 C 
ATOM      9  C   UNL     1     118.477 122.717 122.475  1.00  0.00    -0.064 C 
ATOM     10  C   UNL     1     119.338 122.882 123.493  1.00  0.00    -0.027 C 
ATOM     11  C   UNL     1     120.692 122.262 123.588  1.00  0.00     0.032 C 
ATOM     12  C   UNL     1     121.182 121.344 122.414  1.00  0.00     0.006 C 
ATOM     13  C   UNL     1     120.350 121.593 121.074  1.00  0.00    -0.020 C 
ATOM     14  C   UNL     1     120.869 122.934 120.447  1.00  0.00     0.008 C 
ATOM     15  C   UNL     1     122.400 123.021 120.264  1.00  0.00     0.005 C 
ATOM     16  C   UNL     1     123.172 122.779 121.587  1.00  0.00     0.003 C 
ATOM     17  C   UNL     1     122.779 121.406 122.254  1.00  0.00    -0.025 C 
ATOM     18  C   UNL     1     123.489 121.320 123.657  1.00  0.00     0.010 C 
ATOM     19  C   UNL     1     125.005 121.592 123.614  1.00  0.00     0.033 C 
ATOM     20  C   UNL     1     125.328 122.947 122.963  1.00  0.00     0.120 C 
ATOM     21  C   UNL     1     124.721 123.108 121.530  1.00  0.00    -0.006 C 
ATOM     22  C   UNL     1     125.497 122.245 120.502  1.00  0.00     0.014 C 
ATOM     23  C   UNL     1     124.924 124.593 121.112  1.00  0.00     0.014 C 
ATOM     24  C   UNL     1     123.272 120.156 121.444  1.00  0.00     0.012 C 
ATOM     25  C   UNL     1     120.583 120.446 120.031  1.00  0.00     0.012 C 
ATOM     26  C   UNL     1     117.149 123.474 122.586  1.00  0.00     0.022 C 
ATOM     27  C   UNL     1     116.193 122.701 123.523  1.00  0.00     0.015 C 
ATOM     28  C   UNL     1     118.282 120.283 122.002  1.00  0.00     0.017 C 
ATOM     29  C   UNL     1     117.382 124.872 120.479  1.00  0.00     0.012 C 
ATOM     30  C   UNL     1     113.918 122.436 124.524  1.00  0.00     0.011 C 
ENDROOT
BRANCH  20  31
ATOM     31  O   UNL     1     126.728 123.112 122.924  1.00  0.00    -0.393 OA
ATOM     32  H   UNL     1     126.981 123.652 123.722  1.00  0.00     0.210 HD
ENDBRANCH  20  31
TORSDOF 1
ENDMDL
MODEL 2
REMARK VINA RESULT:    -6.815      2.665      8.013
REMARK INTER + INTRA:          -7.014
REMARK INTER:                  -7.014
REMARK INTRA:                   0.000
REMARK UNBOUND:                 0.000
REMARK SMILES CC1(C)CC[C@]2(C)CC[C@]3(C)C(=CC[C@@H]4[C@]5(C)CC[C@@H](O)C(C)(C)[C@H]5CC[C@@]43C)[C@@H]2C1
REMARK SMILES IDX 1 1 2 2 4 3 5 4 6 5 8 6 9 7 10 8 12 9 13 10 14 11 15 12
REMARK SMILES IDX 28 13 27 14 26 15 25 16 16 17 18 18 19 19 20 20 22 21 23 22
REMARK SMILES IDX 24 23 17 24 29 25 30 26 31 27 11 28 7 29 3 30 21 31
REMARK H PARENT 21 32
REMARK Flexibility Score: inf
ROOT
ATOM      1  C   UNL     1     125.315 123.373 121.047  1.00  0.00     0.011 C 
ATOM      2  C   UNL     1     124.957 121.869 120.981  1.00  0.00    -0.035 C 
ATOM      3  C   UNL     1     125.427 121.099 122.241  1.00  0.00     0.007 C 
ATOM      4  C   UNL     1     124.622 121.441 123.510  1.00  0.00     0.008 C 
ATOM      5  C   UNL     1     123.073 121.361 123.349  1.00  0.00    -0.026 C 
ATOM      6  C   UNL     1     122.603 119.886 123.317  1.00  0.00     0.008 C 
ATOM      7  C   UNL     1     121.074 119.755 123.236  1.00  0.00     0.012 C 
ATOM      8  C   UNL     1     120.377 120.542 122.054  1.00  0.00    -0.006 C 
ATOM      9  C   UNL     1     121.120 121.856 121.759  1.00  0.00    -0.064 C 
ATOM     10  C   UNL     1     120.513 122.817 121.042  1.00  0.00    -0.027 C 
ATOM     11  C   UNL     1     119.070 122.829 120.663  1.00  0.00     0.032 C 
ATOM     12  C   UNL     1     118.159 121.642 121.133  1.00  0.00     0.006 C 
ATOM     13  C   UNL     1     118.808 120.838 122.352  1.00  0.00    -0.020 C 
ATOM     14  C   UNL     1     118.607 121.707 123.642  1.00  0.00     0.008 C 
ATOM     15  C   UNL     1     117.158 122.175 123.896  1.00  0.00     0.005 C 
ATOM     16  C   UNL     1     116.565 122.956 122.694  1.00  0.00     0.003 C 
ATOM     17  C   UNL     1     116.643 122.125 121.357  1.00  0.00    -0.025 C 
ATOM     18  C   UNL     1     116.167 123.050 120.176  1.00  0.00     0.010 C 
ATOM     19  C   UNL     1     114.807 123.732 120.417  1.00  0.00     0.033 C 
ATOM     20  C   UNL     1     114.792 124.536 121.729  1.00  0.00     0.120 C 
ATOM     21  C   UNL     1     115.187 123.686 122.981  1.00  0.00    -0.006 C 
ATOM     22  C   UNL     1     114.045 122.714 123.373  1.00  0.00     0.014 C 
ATOM     23  C   UNL     1     115.360 124.676 124.169  1.00  0.00     0.014 C 
ATOM     24  C   UNL     1     115.690 120.879 121.341  1.00  0.00     0.012 C 
ATOM     25  C   UNL     1     118.094 119.461 122.576  1.00  0.00     0.012 C 
ATOM     26  C   UNL     1     122.611 122.070 122.047  1.00  0.00     0.022 C 
ATOM     27  C   UNL     1     123.437 121.665 120.804  1.00  0.00     0.015 C 
ATOM     28  C   UNL     1     120.528 119.651 120.775  1.00  0.00     0.017 C 
ATOM     29  C   UNL     1     122.465 122.088 124.582  1.00  0.00     0.012 C 
ATOM     30  C   UNL     1     125.665 121.259 119.748  1.00  0.00     0.011 C 
ENDROOT
BRANCH  20  31
ATOM     31  O   UNL     1     113.511 125.100 121.903  1.00  0.00    -0.393 OA
ATOM     32  H   UNL     1     112.868 124.523 121.407  1.00  0.00     0.210 HD
ENDBRANCH  20  31
TORSDOF 1
ENDMDL
MODEL 3
REMARK VINA RESULT:    -6.773      5.239      7.164
REMARK INTER + INTRA:          -6.971
REMARK INTER:                  -6.971
REMARK INTRA:                   0.000
REMARK UNBOUND:                 0.000
REMARK SMILES CC1(C)CC[C@]2(C)CC[C@]3(C)C(=CC[C@@H]4[C@]5(C)CC[C@@H](O)C(C)(C)[C@H]5CC[C@@]43C)[C@@H]2C1
REMARK SMILES IDX 1 1 2 2 4 3 5 4 6 5 8 6 9 7 10 8 12 9 13 10 14 11 15 12
REMARK SMILES IDX 28 13 27 14 26 15 25 16 16 17 18 18 19 19 20 20 22 21 23 22
REMARK SMILES IDX 24 23 17 24 29 25 30 26 31 27 11 28 7 29 3 30 21 31
REMARK H PARENT 21 32
REMARK Flexibility Score: inf
ROOT
ATOM      1  C   UNL     1     119.229 121.990 121.726  1.00  0.00     0.011 C 
ATOM      2  C   UNL     1     119.348 120.450 121.817  1.00  0.00    -0.035 C 
ATOM      3  C   UNL     1     118.000 119.740 121.538  1.00  0.00     0.007 C 
ATOM      4  C   UNL     1     117.554 119.818 120.065  1.00  0.00     0.008 C 
ATOM      5  C   UNL     1     118.636 119.396 119.024  1.00  0.00    -0.026 C 
ATOM      6  C   UNL     1     118.802 117.857 119.005  1.00  0.00     0.008 C 
ATOM      7  C   UNL     1     119.805 117.385 117.941  1.00  0.00     0.012 C 
ATOM      8  C   UNL     1     121.237 118.054 117.998  1.00  0.00    -0.006 C 
ATOM      9  C   UNL     1     121.137 119.518 118.461  1.00  0.00    -0.064 C 
ATOM     10  C   UNL     1     122.170 120.352 118.257  1.00  0.00    -0.027 C 
ATOM     11  C   UNL     1     123.365 120.055 117.414  1.00  0.00     0.032 C 
ATOM     12  C   UNL     1     123.446 118.668 116.688  1.00  0.00     0.006 C 
ATOM     13  C   UNL     1     122.015 117.968 116.575  1.00  0.00    -0.020 C 
ATOM     14  C   UNL     1     121.230 118.696 115.429  1.00  0.00     0.008 C 
ATOM     15  C   UNL     1     121.985 118.805 114.087  1.00  0.00     0.005 C 
ATOM     16  C   UNL     1     123.367 119.495 114.235  1.00  0.00     0.003 C 
ATOM     17  C   UNL     1     124.268 118.778 115.311  1.00  0.00    -0.025 C 
ATOM     18  C   UNL     1     125.576 119.633 115.504  1.00  0.00     0.010 C 
ATOM     19  C   UNL     1     126.307 119.972 114.191  1.00  0.00     0.033 C 
ATOM     20  C   UNL     1     125.383 120.677 113.184  1.00  0.00     0.120 C 
ATOM     21  C   UNL     1     124.078 119.873 112.870  1.00  0.00    -0.006 C 
ATOM     22  C   UNL     1     124.387 118.646 111.975  1.00  0.00     0.014 C 
ATOM     23  C   UNL     1     123.152 120.811 112.042  1.00  0.00     0.014 C 
ATOM     24  C   UNL     1     124.747 117.350 114.872  1.00  0.00     0.012 C 
ATOM     25  C   UNL     1     122.144 116.453 116.191  1.00  0.00     0.012 C 
ATOM     26  C   UNL     1     120.006 120.050 119.350  1.00  0.00     0.022 C 
ATOM     27  C   UNL     1     120.413 119.914 120.835  1.00  0.00     0.015 C 
ATOM     28  C   UNL     1     122.042 117.293 119.104  1.00  0.00     0.017 C 
ATOM     29  C   UNL     1     118.134 119.896 117.640  1.00  0.00     0.012 C 
ATOM     30  C   UNL     1     119.800 120.087 123.252  1.00  0.00     0.011 C 
ENDROOT
BRANCH  20  31
ATOM     31  O   UNL     1     126.105 120.923 111.997  1.00  0.00    -0.393 OA
ATOM     32  H   UNL     1     126.410 120.041 111.653  1.00  0.00     0.210 HD
ENDBRANCH  20  31
TORSDOF 1
ENDMDL
MODEL 4
REMARK VINA RESULT:    -6.666      3.429      4.280
REMARK INTER + INTRA:          -6.861
REMARK INTER:                  -6.861
REMARK INTRA:                   0.000
REMARK UNBOUND:                 0.000
REMARK SMILES CC1(C)CC[C@]2(C)CC[C@]3(C)C(=CC[C@@H]4[C@]5(C)CC[C@@H](O)C(C)(C)[C@H]5CC[C@@]43C)[C@@H]2C1
REMARK SMILES IDX 1 1 2 2 4 3 5 4 6 5 8 6 9 7 10 8 12 9 13 10 14 11 15 12
REMARK SMILES IDX 28 13 27 14 26 15 25 16 16 17 18 18 19 19 20 20 22 21 23 22
REMARK SMILES IDX 24 23 17 24 29 25 30 26 31 27 11 28 7 29 3 30 21 31
REMARK H PARENT 21 32
REMARK Flexibility Score: inf
ROOT
ATOM      1  C   UNL     1     116.569 126.551 123.908  1.00  0.00     0.011 C 
ATOM      2  C   UNL     1     115.562 125.429 124.254  1.00  0.00    -0.035 C 
ATOM      3  C   UNL     1     114.233 125.570 123.471  1.00  0.00     0.007 C 
ATOM      4  C   UNL     1     114.367 125.261 121.967  1.00  0.00     0.008 C 
ATOM      5  C   UNL     1     115.075 123.913 121.631  1.00  0.00    -0.026 C 
ATOM      6  C   UNL     1     114.129 122.718 121.904  1.00  0.00     0.008 C 
ATOM      7  C   UNL     1     114.756 121.369 121.517  1.00  0.00     0.012 C 
ATOM      8  C   UNL     1     116.171 121.058 122.151  1.00  0.00    -0.006 C 
ATOM      9  C   UNL     1     116.994 122.348 122.307  1.00  0.00    -0.064 C 
ATOM     10  C   UNL     1     118.321 122.271 122.504  1.00  0.00    -0.027 C 
ATOM     11  C   UNL     1     119.141 121.031 122.376  1.00  0.00     0.032 C 
ATOM     12  C   UNL     1     118.426 119.695 121.972  1.00  0.00     0.006 C 
ATOM     13  C   UNL     1     117.004 119.960 121.293  1.00  0.00    -0.020 C 
ATOM     14  C   UNL     1     117.273 120.441 119.824  1.00  0.00     0.008 C 
ATOM     15  C   UNL     1     118.206 119.530 118.998  1.00  0.00     0.005 C 
ATOM     16  C   UNL     1     119.577 119.300 119.686  1.00  0.00     0.003 C 
ATOM     17  C   UNL     1     119.413 118.732 121.147  1.00  0.00    -0.025 C 
ATOM     18  C   UNL     1     120.837 118.680 121.817  1.00  0.00     0.010 C 
ATOM     19  C   UNL     1     121.904 117.957 120.973  1.00  0.00     0.033 C 
ATOM     20  C   UNL     1     122.028 118.559 119.563  1.00  0.00     0.120 C 
ATOM     21  C   UNL     1     120.672 118.595 118.783  1.00  0.00    -0.006 C 
ATOM     22  C   UNL     1     120.264 117.173 118.318  1.00  0.00     0.014 C 
ATOM     23  C   UNL     1     120.908 119.437 117.496  1.00  0.00     0.014 C 
ATOM     24  C   UNL     1     118.863 117.263 121.187  1.00  0.00     0.012 C 
ATOM     25  C   UNL     1     116.145 118.651 121.227  1.00  0.00     0.012 C 
ATOM     26  C   UNL     1     116.369 123.739 122.473  1.00  0.00     0.022 C 
ATOM     27  C   UNL     1     116.165 124.034 123.977  1.00  0.00     0.015 C 
ATOM     28  C   UNL     1     115.903 120.526 123.599  1.00  0.00     0.017 C 
ATOM     29  C   UNL     1     115.439 123.972 120.121  1.00  0.00     0.012 C 
ATOM     30  C   UNL     1     115.245 125.516 125.767  1.00  0.00     0.011 C 
ENDROOT
BRANCH  20  31
ATOM     31  O   UNL     1     122.992 117.828 118.838  1.00  0.00    -0.393 OA
ATOM     32  H   UNL     1     123.875 118.015 119.257  1.00  0.00     0.210 HD
ENDBRANCH  20  31
TORSDOF 1
ENDMDL
MODEL 5
REMARK VINA RESULT:    -6.603      5.839      8.426
REMARK INTER + INTRA:          -6.796
REMARK INTER:                  -6.796
REMARK INTRA:                   0.000
REMARK UNBOUND:                 0.000
REMARK SMILES CC1(C)CC[C@]2(C)CC[C@]3(C)C(=CC[C@@H]4[C@]5(C)CC[C@@H](O)C(C)(C)[C@H]5CC[C@@]43C)[C@@H]2C1
REMARK SMILES IDX 1 1 2 2 4 3 5 4 6 5 8 6 9 7 10 8 12 9 13 10 14 11 15 12
REMARK SMILES IDX 28 13 27 14 26 15 25 16 16 17 18 18 19 19 20 20 22 21 23 22
REMARK SMILES IDX 24 23 17 24 29 25 30 26 31 27 11 28 7 29 3 30 21 31
REMARK H PARENT 21 32
REMARK Flexibility Score: inf
ROOT
ATOM      1  C   UNL     1     117.020 117.997 117.912  1.00  0.00     0.011 C 
ATOM      2  C   UNL     1     117.987 118.202 119.102  1.00  0.00    -0.035 C 
ATOM      3  C   UNL     1     118.254 116.886 119.875  1.00  0.00     0.007 C 
ATOM      4  C   UNL     1     119.112 115.874 119.093  1.00  0.00     0.008 C 
ATOM      5  C   UNL     1     120.432 116.450 118.496  1.00  0.00    -0.026 C 
ATOM      6  C   UNL     1     121.490 116.653 119.608  1.00  0.00     0.008 C 
ATOM      7  C   UNL     1     122.837 117.150 119.058  1.00  0.00     0.012 C 
ATOM      8  C   UNL     1     122.778 118.452 118.163  1.00  0.00    -0.006 C 
ATOM      9  C   UNL     1     121.475 118.495 117.346  1.00  0.00    -0.064 C 
ATOM     10  C   UNL     1     121.377 119.321 116.291  1.00  0.00    -0.027 C 
ATOM     11  C   UNL     1     122.510 120.076 115.680  1.00  0.00     0.032 C 
ATOM     12  C   UNL     1     123.944 119.906 116.292  1.00  0.00     0.006 C 
ATOM     13  C   UNL     1     124.062 118.582 117.178  1.00  0.00    -0.020 C 
ATOM     14  C   UNL     1     124.172 117.370 116.189  1.00  0.00     0.008 C 
ATOM     15  C   UNL     1     125.266 117.504 115.108  1.00  0.00     0.005 C 
ATOM     16  C   UNL     1     125.114 118.798 114.265  1.00  0.00     0.003 C 
ATOM     17  C   UNL     1     125.080 120.088 115.170  1.00  0.00    -0.025 C 
ATOM     18  C   UNL     1     124.769 121.326 114.249  1.00  0.00     0.010 C 
ATOM     19  C   UNL     1     125.688 121.442 113.018  1.00  0.00     0.033 C 
ATOM     20  C   UNL     1     125.673 120.160 112.167  1.00  0.00     0.120 C 
ATOM     21  C   UNL     1     126.037 118.873 112.979  1.00  0.00    -0.006 C 
ATOM     22  C   UNL     1     127.553 118.835 113.305  1.00  0.00     0.014 C 
ATOM     23  C   UNL     1     125.746 117.654 112.057  1.00  0.00     0.014 C 
ATOM     24  C   UNL     1     126.453 120.399 115.864  1.00  0.00     0.012 C 
ATOM     25  C   UNL     1     125.351 118.601 118.070  1.00  0.00     0.012 C 
ATOM     26  C   UNL     1     120.176 117.807 117.786  1.00  0.00     0.022 C 
ATOM     27  C   UNL     1     119.334 118.791 118.631  1.00  0.00     0.015 C 
ATOM     28  C   UNL     1     122.724 119.668 119.148  1.00  0.00     0.017 C 
ATOM     29  C   UNL     1     120.940 115.407 117.460  1.00  0.00     0.012 C 
ATOM     30  C   UNL     1     117.341 119.216 120.078  1.00  0.00     0.011 C 
ENDROOT
BRANCH  20  31
ATOM     31  O   UNL     1     126.559 120.323 111.082  1.00  0.00    -0.393 OA
ATOM     32  H   UNL     1     126.942 121.239 111.153  1.00  0.00     0.210 HD
ENDBRANCH  20  31
TORSDOF 1
ENDMDL
MODEL 6
REMARK VINA RESULT:    -6.534      4.244      8.251
REMARK INTER + INTRA:          -6.725
REMARK INTER:                  -6.725
REMARK INTRA:                   0.000
REMARK UNBOUND:                 0.000
REMARK SMILES CC1(C)CC[C@]2(C)CC[C@]3(C)C(=CC[C@@H]4[C@]5(C)CC[C@@H](O)C(C)(C)[C@H]5CC[C@@]43C)[C@@H]2C1
REMARK SMILES IDX 1 1 2 2 4 3 5 4 6 5 8 6 9 7 10 8 12 9 13 10 14 11 15 12
REMARK SMILES IDX 28 13 27 14 26 15 25 16 16 17 18 18 19 19 20 20 22 21 23 22
REMARK SMILES IDX 24 23 17 24 29 25 30 26 31 27 11 28 7 29 3 30 21 31
REMARK H PARENT 21 32
REMARK Flexibility Score: inf
ROOT
ATOM      1  C   UNL     1     122.638 119.496 115.546  1.00  0.00     0.011 C 
ATOM      2  C   UNL     1     121.515 118.439 115.428  1.00  0.00    -0.035 C 
ATOM      3  C   UNL     1     122.014 117.012 115.766  1.00  0.00     0.007 C 
ATOM      4  C   UNL     1     122.328 116.805 117.261  1.00  0.00     0.008 C 
ATOM      5  C   UNL     1     121.198 117.250 118.239  1.00  0.00    -0.026 C 
ATOM      6  C   UNL     1     120.035 116.227 118.230  1.00  0.00     0.008 C 
ATOM      7  C   UNL     1     118.929 116.583 119.236  1.00  0.00     0.012 C 
ATOM      8  C   UNL     1     118.330 118.041 119.115  1.00  0.00    -0.006 C 
ATOM      9  C   UNL     1     119.413 119.042 118.677  1.00  0.00    -0.064 C 
ATOM     10  C   UNL     1     119.207 120.359 118.839  1.00  0.00    -0.027 C 
ATOM     11  C   UNL     1     118.088 120.968 119.616  1.00  0.00     0.032 C 
ATOM     12  C   UNL     1     117.058 120.018 120.319  1.00  0.00     0.006 C 
ATOM     13  C   UNL     1     117.633 118.538 120.495  1.00  0.00    -0.020 C 
ATOM     14  C   UNL     1     118.650 118.573 121.689  1.00  0.00     0.008 C 
ATOM     15  C   UNL     1     118.106 119.197 122.993  1.00  0.00     0.005 C 
ATOM     16  C   UNL     1     117.562 120.634 122.784  1.00  0.00     0.003 C 
ATOM     17  C   UNL     1     116.464 120.688 121.654  1.00  0.00    -0.025 C 
ATOM     18  C   UNL     1     116.088 122.197 121.406  1.00  0.00     0.010 C 
ATOM     19  C   UNL     1     115.718 122.972 122.685  1.00  0.00     0.033 C 
ATOM     20  C   UNL     1     116.828 122.894 123.746  1.00  0.00     0.120 C 
ATOM     21  C   UNL     1     117.231 121.428 124.115  1.00  0.00    -0.006 C 
ATOM     22  C   UNL     1     116.133 120.753 124.978  1.00  0.00     0.014 C 
ATOM     23  C   UNL     1     118.507 121.514 125.001  1.00  0.00     0.014 C 
ATOM     24  C   UNL     1     115.127 119.969 122.049  1.00  0.00     0.012 C 
ATOM     25  C   UNL     1     116.497 117.518 120.853  1.00  0.00     0.012 C 
ATOM     26  C   UNL     1     120.647 118.649 117.854  1.00  0.00     0.022 C 
ATOM     27  C   UNL     1     120.324 118.786 116.348  1.00  0.00     0.015 C 
ATOM     28  C   UNL     1     117.274 117.996 117.959  1.00  0.00     0.017 C 
ATOM     29  C   UNL     1     121.841 117.314 119.654  1.00  0.00     0.012 C 
ATOM     30  C   UNL     1     121.003 118.440 113.968  1.00  0.00     0.011 C 
ENDROOT
BRANCH  20  31
ATOM     31  O   UNL     1     116.408 123.591 124.898  1.00  0.00    -0.393 OA
ATOM     32  H   UNL     1     116.226 122.911 125.601  1.00  0.00     0.210 HD
ENDBRANCH  20  31
TORSDOF 1
ENDMDL
MODEL 7
REMARK VINA RESULT:    -6.493      3.258      8.043
REMARK INTER + INTRA:          -6.683
REMARK INTER:                  -6.683
REMARK INTRA:                   0.000
REMARK UNBOUND:                 0.000
REMARK SMILES CC1(C)CC[C@]2(C)CC[C@]3(C)C(=CC[C@@H]4[C@]5(C)CC[C@@H](O)C(C)(C)[C@H]5CC[C@@]43C)[C@@H]2C1
REMARK SMILES IDX 1 1 2 2 4 3 5 4 6 5 8 6 9 7 10 8 12 9 13 10 14 11 15 12
REMARK SMILES IDX 28 13 27 14 26 15 25 16 16 17 18 18 19 19 20 20 22 21 23 22
REMARK SMILES IDX 24 23 17 24 29 25 30 26 31 27 11 28 7 29 3 30 21 31
REMARK H PARENT 21 32
REMARK Flexibility Score: inf
ROOT
ATOM      1  C   UNL     1     122.118 119.874 117.118  1.00  0.00     0.011 C 
ATOM      2  C   UNL     1     121.671 118.697 118.015  1.00  0.00    -0.035 C 
ATOM      3  C   UNL     1     122.745 118.317 119.065  1.00  0.00     0.007 C 
ATOM      4  C   UNL     1     122.914 119.366 120.182  1.00  0.00     0.008 C 
ATOM      5  C   UNL     1     121.590 119.814 120.872  1.00  0.00    -0.026 C 
ATOM      6  C   UNL     1     121.077 118.714 121.833  1.00  0.00     0.008 C 
ATOM      7  C   UNL     1     119.812 119.139 122.596  1.00  0.00     0.012 C 
ATOM      8  C   UNL     1     118.608 119.645 121.705  1.00  0.00    -0.006 C 
ATOM      9  C   UNL     1     119.123 120.388 120.461  1.00  0.00    -0.064 C 
ATOM     10  C   UNL     1     118.288 121.176 119.763  1.00  0.00    -0.027 C 
ATOM     11  C   UNL     1     116.921 121.585 120.200  1.00  0.00     0.032 C 
ATOM     12  C   UNL     1     116.391 121.076 121.586  1.00  0.00     0.006 C 
ATOM     13  C   UNL     1     117.579 120.587 122.536  1.00  0.00    -0.020 C 
ATOM     14  C   UNL     1     118.281 121.870 123.101  1.00  0.00     0.008 C 
ATOM     15  C   UNL     1     117.334 122.899 123.755  1.00  0.00     0.005 C 
ATOM     16  C   UNL     1     116.199 123.355 122.802  1.00  0.00     0.003 C 
ATOM     17  C   UNL     1     115.375 122.132 122.244  1.00  0.00    -0.025 C 
ATOM     18  C   UNL     1     114.356 122.674 121.174  1.00  0.00     0.010 C 
ATOM     19  C   UNL     1     113.489 123.849 121.666  1.00  0.00     0.033 C 
ATOM     20  C   UNL     1     114.345 125.015 122.188  1.00  0.00     0.120 C 
ATOM     21  C   UNL     1     115.350 124.593 123.310  1.00  0.00    -0.006 C 
ATOM     22  C   UNL     1     114.608 124.325 124.645  1.00  0.00     0.014 C 
ATOM     23  C   UNL     1     116.295 125.805 123.557  1.00  0.00     0.014 C 
ATOM     24  C   UNL     1     114.510 121.412 123.338  1.00  0.00     0.012 C 
ATOM     25  C   UNL     1     117.038 119.753 123.749  1.00  0.00     0.012 C 
ATOM     26  C   UNL     1     120.491 120.122 119.820  1.00  0.00     0.022 C 
ATOM     27  C   UNL     1     120.348 119.022 118.743  1.00  0.00     0.015 C 
ATOM     28  C   UNL     1     117.871 118.365 121.183  1.00  0.00     0.017 C 
ATOM     29  C   UNL     1     121.925 121.106 121.670  1.00  0.00     0.012 C 
ATOM     30  C   UNL     1     121.424 117.467 117.108  1.00  0.00     0.011 C 
ENDROOT
BRANCH  20  31
ATOM     31  O   UNL     1     113.490 126.035 122.654  1.00  0.00    -0.393 OA
ATOM     32  H   UNL     1     112.634 125.601 122.917  1.00  0.00     0.210 HD
ENDBRANCH  20  31
TORSDOF 1
ENDMDL
MODEL 8
REMARK VINA RESULT:    -6.428      5.235      8.485
REMARK INTER + INTRA:          -6.616
REMARK INTER:                  -6.616
REMARK INTRA:                   0.000
REMARK UNBOUND:                 0.000
REMARK SMILES CC1(C)CC[C@]2(C)CC[C@]3(C)C(=CC[C@@H]4[C@]5(C)CC[C@@H](O)C(C)(C)[C@H]5CC[C@@]43C)[C@@H]2C1
REMARK SMILES IDX 1 1 2 2 4 3 5 4 6 5 8 6 9 7 10 8 12 9 13 10 14 11 15 12
REMARK SMILES IDX 28 13 27 14 26 15 25 16 16 17 18 18 19 19 20 20 22 21 23 22
REMARK SMILES IDX 24 23 17 24 29 25 30 26 31 27 11 28 7 29 3 30 21 31
REMARK H PARENT 21 32
REMARK Flexibility Score: inf
ROOT
ATOM      1  C   UNL     1     125.620 122.850 122.950  1.00  0.00     0.011 C 
ATOM      2  C   UNL     1     125.116 121.394 123.083  1.00  0.00    -0.035 C 
ATOM      3  C   UNL     1     123.616 121.324 123.464  1.00  0.00     0.007 C 
ATOM      4  C   UNL     1     122.670 121.759 122.328  1.00  0.00     0.008 C 
ATOM      5  C   UNL     1     122.931 121.073 120.953  1.00  0.00    -0.026 C 
ATOM      6  C   UNL     1     122.419 119.612 120.966  1.00  0.00     0.008 C 
ATOM      7  C   UNL     1     122.586 118.915 119.606  1.00  0.00     0.012 C 
ATOM      8  C   UNL     1     124.043 118.943 118.992  1.00  0.00    -0.006 C 
ATOM      9  C   UNL     1     124.764 120.253 119.354  1.00  0.00    -0.064 C 
ATOM     10  C   UNL     1     125.858 120.622 118.667  1.00  0.00    -0.027 C 
ATOM     11  C   UNL     1     126.345 119.980 117.411  1.00  0.00     0.032 C 
ATOM     12  C   UNL     1     125.530 118.779 116.816  1.00  0.00     0.006 C 
ATOM     13  C   UNL     1     124.037 118.731 117.382  1.00  0.00    -0.020 C 
ATOM     14  C   UNL     1     123.224 119.851 116.644  1.00  0.00     0.008 C 
ATOM     15  C   UNL     1     123.315 119.816 115.103  1.00  0.00     0.005 C 
ATOM     16  C   UNL     1     124.778 119.870 114.591  1.00  0.00     0.003 C 
ATOM     17  C   UNL     1     125.661 118.724 115.215  1.00  0.00    -0.025 C 
ATOM     18  C   UNL     1     127.152 118.952 114.764  1.00  0.00     0.010 C 
ATOM     19  C   UNL     1     127.331 119.131 113.244  1.00  0.00     0.033 C 
ATOM     20  C   UNL     1     126.454 120.269 112.693  1.00  0.00     0.120 C 
ATOM     21  C   UNL     1     124.936 120.101 113.031  1.00  0.00    -0.006 C 
ATOM     22  C   UNL     1     124.300 118.975 112.174  1.00  0.00     0.014 C 
ATOM     23  C   UNL     1     124.228 121.426 112.626  1.00  0.00     0.014 C 
ATOM     24  C   UNL     1     125.271 117.291 114.709  1.00  0.00     0.012 C 
ATOM     25  C   UNL     1     123.353 117.353 117.082  1.00  0.00     0.012 C 
ATOM     26  C   UNL     1     124.445 121.077 120.607  1.00  0.00     0.022 C 
ATOM     27  C   UNL     1     125.341 120.605 121.775  1.00  0.00     0.015 C 
ATOM     28  C   UNL     1     124.842 117.790 119.688  1.00  0.00     0.017 C 
ATOM     29  C   UNL     1     122.151 121.902 119.893  1.00  0.00     0.012 C 
ATOM     30  C   UNL     1     125.933 120.702 124.201  1.00  0.00     0.011 C 
ENDROOT
BRANCH  20  31
ATOM     31  O   UNL     1     126.640 120.352 111.298  1.00  0.00    -0.393 OA
ATOM     32  H   UNL     1     127.622 120.381 111.135  1.00  0.00     0.210 HD
ENDBRANCH  20  31
TORSDOF 1
ENDMDL
MODEL 9
REMARK VINA RESULT:    -6.393      5.221     10.037
REMARK INTER + INTRA:          -6.580
REMARK INTER:                  -6.580
REMARK INTRA:                   0.000
REMARK UNBOUND:                 0.000
REMARK SMILES CC1(C)CC[C@]2(C)CC[C@]3(C)C(=CC[C@@H]4[C@]5(C)CC[C@@H](O)C(C)(C)[C@H]5CC[C@@]43C)[C@@H]2C1
REMARK SMILES IDX 1 1 2 2 4 3 5 4 6 5 8 6 9 7 10 8 12 9 13 10 14 11 15 12
REMARK SMILES IDX 28 13 27 14 26 15 25 16 16 17 18 18 19 19 20 20 22 21 23 22
REMARK SMILES IDX 24 23 17 24 29 25 30 26 31 27 11 28 7 29 3 30 21 31
REMARK H PARENT 21 32
REMARK Flexibility Score: inf
ROOT
ATOM      1  C   UNL     1     125.818 122.186 113.439  1.00  0.00     0.011 C 
ATOM      2  C   UNL     1     126.051 120.658 113.367  1.00  0.00    -0.035 C 
ATOM      3  C   UNL     1     127.384 120.236 114.033  1.00  0.00     0.007 C 
ATOM      4  C   UNL     1     127.375 120.364 115.569  1.00  0.00     0.008 C 
ATOM      5  C   UNL     1     126.158 119.696 116.279  1.00  0.00    -0.026 C 
ATOM      6  C   UNL     1     126.316 118.156 116.299  1.00  0.00     0.008 C 
ATOM      7  C   UNL     1     125.176 117.456 117.056  1.00  0.00     0.012 C 
ATOM      8  C   UNL     1     123.711 117.815 116.582  1.00  0.00    -0.006 C 
ATOM      9  C   UNL     1     123.630 119.280 116.119  1.00  0.00    -0.064 C 
ATOM     10  C   UNL     1     122.432 119.875 116.000  1.00  0.00    -0.027 C 
ATOM     11  C   UNL     1     121.137 119.312 116.486  1.00  0.00     0.032 C 
ATOM     12  C   UNL     1     121.147 117.918 117.204  1.00  0.00     0.006 C 
ATOM     13  C   UNL     1     122.603 117.528 117.733  1.00  0.00    -0.020 C 
ATOM     14  C   UNL     1     122.867 118.370 119.029  1.00  0.00     0.008 C 
ATOM     15  C   UNL     1     121.762 118.282 120.103  1.00  0.00     0.005 C 
ATOM     16  C   UNL     1     120.365 118.674 119.554  1.00  0.00     0.003 C 
ATOM     17  C   UNL     1     119.969 117.817 118.292  1.00  0.00    -0.025 C 
ATOM     18  C   UNL     1     118.619 118.386 117.716  1.00  0.00     0.010 C 
ATOM     19  C   UNL     1     117.497 118.528 118.762  1.00  0.00     0.033 C 
ATOM     20  C   UNL     1     117.936 119.382 119.964  1.00  0.00     0.120 C 
ATOM     21  C   UNL     1     119.239 118.857 120.654  1.00  0.00    -0.006 C 
ATOM     22  C   UNL     1     118.954 117.568 121.466  1.00  0.00     0.014 C 
ATOM     23  C   UNL     1     119.682 119.943 121.677  1.00  0.00     0.014 C 
ATOM     24  C   UNL     1     119.694 116.308 118.625  1.00  0.00     0.012 C 
ATOM     25  C   UNL     1     122.688 116.009 118.113  1.00  0.00     0.012 C 
ATOM     26  C   UNL     1     124.828 120.061 115.564  1.00  0.00     0.022 C 
ATOM     27  C   UNL     1     124.890 119.885 114.030  1.00  0.00     0.015 C 
ATOM     28  C   UNL     1     123.423 116.934 115.319  1.00  0.00     0.017 C 
ATOM     29  C   UNL     1     126.138 120.250 117.732  1.00  0.00     0.012 C 
ATOM     30  C   UNL     1     126.103 120.250 111.875  1.00  0.00     0.011 C 
ENDROOT
BRANCH  20  31
ATOM     31  O   UNL     1     116.877 119.438 120.894  1.00  0.00    -0.393 OA
ATOM     32  H   UNL     1     117.119 120.127 121.570  1.00  0.00     0.210 HD
ENDBRANCH  20  31
TORSDOF 1
ENDMDL
