MODEL 1
REMARK VINA RESULT:    -4.520      0.000      0.000
REMARK INTER + INTRA:          -4.802
REMARK INTER:                  -4.785
REMARK INTRA:                  -0.017
REMARK UNBOUND:                -0.017
REMARK SMILES O=C([O-])c1cccnc1
REMARK SMILES IDX 4 1 5 2 9 3 6 4 8 5 7 6 2 7 1 8 3 9
REMARK H PARENT
REMARK Flexibility Score: inf
ROOT
ATOM      1  C   UNL     1      23.458  -7.733  55.130  1.00  0.00     0.016 A 
ATOM      2  C   UNL     1      24.219  -7.355  56.248  1.00  0.00     0.013 A 
ATOM      3  C   UNL     1      23.981  -8.710  54.265  1.00  0.00     0.120 A 
ATOM      4  C   UNL     1      25.463  -7.944  56.481  1.00  0.00     0.021 A 
ATOM      5  N   UNL     1      25.196  -9.269  54.515  1.00  0.00    -0.264 NA
ATOM      6  C   UNL     1      25.940  -8.910  55.594  1.00  0.00     0.111 A 
ENDROOT
BRANCH   1   7
ATOM      7  C   UNL     1      22.139  -7.115  54.873  1.00  0.00     0.073 C 
ATOM      8  O   UNL     1      21.182  -7.294  55.674  1.00  0.00    -0.545 OA
ATOM      9  O   UNL     1      21.937  -6.330  53.744  1.00  0.00    -0.545 OA
ENDBRANCH   1   7
TORSDOF 1
ENDMDL
MODEL 2
REMARK VINA RESULT:    -4.450     11.824     13.284
REMARK INTER + INTRA:          -4.728
REMARK INTER:                  -4.712
REMARK INTRA:                  -0.016
REMARK UNBOUND:                -0.017
REMARK SMILES O=C([O-])c1cccnc1
REMARK SMILES IDX 4 1 5 2 9 3 6 4 8 5 7 6 2 7 1 8 3 9
REMARK H PARENT
REMARK Flexibility Score: inf
ROOT
ATOM      1  C   UNL     1      15.573   1.465  56.416  1.00  0.00     0.016 A 
ATOM      2  C   UNL     1      15.845   2.598  55.631  1.00  0.00     0.013 A 
ATOM      3  C   UNL     1      14.362   1.420  57.127  1.00  0.00     0.120 A 
ATOM      4  C   UNL     1      14.925   3.645  55.570  1.00  0.00     0.021 A 
ATOM      5  N   UNL     1      13.481   2.454  57.049  1.00  0.00    -0.264 NA
ATOM      6  C   UNL     1      13.735   3.554  56.293  1.00  0.00     0.111 A 
ENDROOT
BRANCH   1   7
ATOM      7  C   UNL     1      16.541   0.350  56.489  1.00  0.00     0.073 C 
ATOM      8  O   UNL     1      16.557  -0.543  55.600  1.00  0.00    -0.545 OA
ATOM      9  O   UNL     1      17.447   0.271  57.541  1.00  0.00    -0.545 OA
ENDBRANCH   1   7
TORSDOF 1
ENDMDL
MODEL 3
REMARK VINA RESULT:    -4.280     13.003     14.254
REMARK INTER + INTRA:          -4.548
REMARK INTER:                  -4.523
REMARK INTRA:                  -0.024
REMARK UNBOUND:                -0.017
REMARK SMILES O=C([O-])c1cccnc1
REMARK SMILES IDX 4 1 5 2 9 3 6 4 8 5 7 6 2 7 1 8 3 9
REMARK H PARENT
REMARK Flexibility Score: inf
ROOT
ATOM      1  C   UNL     1      14.046   2.795  56.416  1.00  0.00     0.016 A 
ATOM      2  C   UNL     1      15.155   3.106  55.612  1.00  0.00     0.013 A 
ATOM      3  C   UNL     1      14.074   1.605  57.162  1.00  0.00     0.120 A 
ATOM      4  C   UNL     1      16.250   2.243  55.566  1.00  0.00     0.021 A 
ATOM      5  N   UNL     1      15.155   0.781  57.100  1.00  0.00    -0.264 NA
ATOM      6  C   UNL     1      16.232   1.072  56.325  1.00  0.00     0.111 A 
ENDROOT
BRANCH   1   7
ATOM      7  C   UNL     1      12.879   3.703  56.473  1.00  0.00     0.073 C 
ATOM      8  O   UNL     1      12.862   4.767  55.799  1.00  0.00    -0.545 OA
ATOM      9  O   UNL     1      11.784   3.393  57.272  1.00  0.00    -0.545 OA
ENDBRANCH   1   7
TORSDOF 1
ENDMDL
MODEL 4
REMARK VINA RESULT:    -4.234     16.439     17.612
REMARK INTER + INTRA:          -4.499
REMARK INTER:                  -4.480
REMARK INTRA:                  -0.019
REMARK UNBOUND:                -0.017
REMARK SMILES O=C([O-])c1cccnc1
REMARK SMILES IDX 4 1 5 2 9 3 6 4 8 5 7 6 2 7 1 8 3 9
REMARK H PARENT
REMARK Flexibility Score: inf
ROOT
ATOM      1  C   UNL     1      12.241   4.725  55.262  1.00  0.00     0.016 A 
ATOM      2  C   UNL     1      12.472   4.468  53.901  1.00  0.00     0.013 A 
ATOM      3  C   UNL     1      11.727   5.980  55.628  1.00  0.00     0.120 A 
ATOM      4  C   UNL     1      12.194   5.448  52.947  1.00  0.00     0.021 A 
ATOM      5  N   UNL     1      11.464   6.917  54.678  1.00  0.00    -0.264 NA
ATOM      6  C   UNL     1      11.684   6.680  53.358  1.00  0.00     0.111 A 
ENDROOT
BRANCH   1   7
ATOM      7  C   UNL     1      12.532   3.694  56.282  1.00  0.00     0.073 C 
ATOM      8  O   UNL     1      13.646   3.105  56.298  1.00  0.00    -0.545 OA
ATOM      9  O   UNL     1      11.579   3.360  57.238  1.00  0.00    -0.545 OA
ENDBRANCH   1   7
TORSDOF 1
ENDMDL
MODEL 5
REMARK VINA RESULT:    -4.118     16.063     16.982
REMARK INTER + INTRA:          -4.376
REMARK INTER:                  -4.359
REMARK INTRA:                  -0.017
REMARK UNBOUND:                -0.017
REMARK SMILES O=C([O-])c1cccnc1
REMARK SMILES IDX 4 1 5 2 9 3 6 4 8 5 7 6 2 7 1 8 3 9
REMARK H PARENT
REMARK Flexibility Score: inf
ROOT
ATOM      1  C   UNL     1      12.217   4.448  54.924  1.00  0.00     0.016 A 
ATOM      2  C   UNL     1      13.308   3.752  55.470  1.00  0.00     0.013 A 
ATOM      3  C   UNL     1      11.108   4.706  55.748  1.00  0.00     0.120 A 
ATOM      4  C   UNL     1      13.275   3.333  56.801  1.00  0.00     0.021 A 
ATOM      5  N   UNL     1      11.102   4.286  57.042  1.00  0.00    -0.264 NA
ATOM      6  C   UNL     1      12.152   3.612  57.580  1.00  0.00     0.111 A 
ENDROOT
BRANCH   1   7
ATOM      7  C   UNL     1      12.240   4.897  53.515  1.00  0.00     0.073 C 
ATOM      8  O   UNL     1      12.155   4.062  52.575  1.00  0.00    -0.545 OA
ATOM      9  O   UNL     1      12.355   6.248  53.208  1.00  0.00    -0.545 OA
ENDBRANCH   1   7
TORSDOF 1
ENDMDL
MODEL 6
REMARK VINA RESULT:    -4.111     17.481     18.952
REMARK INTER + INTRA:          -4.369
REMARK INTER:                  -4.351
REMARK INTRA:                  -0.018
REMARK UNBOUND:                -0.017
REMARK SMILES O=C([O-])c1cccnc1
REMARK SMILES IDX 4 1 5 2 9 3 6 4 8 5 7 6 2 7 1 8 3 9
REMARK H PARENT
REMARK Flexibility Score: inf
ROOT
ATOM      1  C   UNL     1      10.822   5.252  55.249  1.00  0.00     0.016 A 
ATOM      2  C   UNL     1       9.494   5.710  55.269  1.00  0.00     0.013 A 
ATOM      3  C   UNL     1      11.856   6.203  55.269  1.00  0.00     0.120 A 
ATOM      4  C   UNL     1       9.226   7.080  55.306  1.00  0.00     0.021 A 
ATOM      5  N   UNL     1      11.567   7.532  55.306  1.00  0.00    -0.264 NA
ATOM      6  C   UNL     1      10.287   7.985  55.325  1.00  0.00     0.111 A 
ENDROOT
BRANCH   1   7
ATOM      7  C   UNL     1      11.118   3.804  55.210  1.00  0.00     0.073 C 
ATOM      8  O   UNL     1      11.777   3.260  56.137  1.00  0.00    -0.545 OA
ATOM      9  O   UNL     1      10.674   3.023  54.150  1.00  0.00    -0.545 OA
ENDBRANCH   1   7
TORSDOF 1
ENDMDL
MODEL 7
REMARK VINA RESULT:    -4.095     16.407     17.928
REMARK INTER + INTRA:          -4.352
REMARK INTER:                  -4.329
REMARK INTRA:                  -0.023
REMARK UNBOUND:                -0.017
REMARK SMILES O=C([O-])c1cccnc1
REMARK SMILES IDX 4 1 5 2 9 3 6 4 8 5 7 6 2 7 1 8 3 9
REMARK H PARENT
REMARK Flexibility Score: inf
ROOT
ATOM      1  C   UNL     1      11.782   4.582  55.486  1.00  0.00     0.016 A 
ATOM      2  C   UNL     1      10.620   4.557  56.276  1.00  0.00     0.013 A 
ATOM      3  C   UNL     1      11.817   5.442  54.376  1.00  0.00     0.120 A 
ATOM      4  C   UNL     1       9.535   5.372  55.950  1.00  0.00     0.021 A 
ATOM      5  N   UNL     1      10.745   6.227  54.081  1.00  0.00    -0.264 NA
ATOM      6  C   UNL     1       9.617   6.210  54.838  1.00  0.00     0.111 A 
ENDROOT
BRANCH   1   7
ATOM      7  C   UNL     1      12.938   3.722  55.821  1.00  0.00     0.073 C 
ATOM      8  O   UNL     1      14.053   3.903  55.264  1.00  0.00    -0.545 OA
ATOM      9  O   UNL     1      12.809   2.701  56.756  1.00  0.00    -0.545 OA
ENDBRANCH   1   7
TORSDOF 1
ENDMDL
MODEL 8
REMARK VINA RESULT:    -4.089     17.847     18.857
REMARK INTER + INTRA:          -4.346
REMARK INTER:                  -4.329
REMARK INTRA:                  -0.016
REMARK UNBOUND:                -0.017
REMARK SMILES O=C([O-])c1cccnc1
REMARK SMILES IDX 4 1 5 2 9 3 6 4 8 5 7 6 2 7 1 8 3 9
REMARK H PARENT
REMARK Flexibility Score: inf
ROOT
ATOM      1  C   UNL     1      11.067   6.151  54.142  1.00  0.00     0.016 A 
ATOM      2  C   UNL     1      11.975   5.436  53.343  1.00  0.00     0.013 A 
ATOM      3  C   UNL     1      10.152   5.428  54.925  1.00  0.00     0.120 A 
ATOM      4  C   UNL     1      11.955   4.041  53.339  1.00  0.00     0.021 A 
ATOM      5  N   UNL     1      10.155   4.067  54.904  1.00  0.00    -0.264 NA
ATOM      6  C   UNL     1      11.028   3.366  54.135  1.00  0.00     0.111 A 
ENDROOT
BRANCH   1   7
ATOM      7  C   UNL     1      11.078   7.630  54.154  1.00  0.00     0.073 C 
ATOM      8  O   UNL     1      10.552   8.283  53.213  1.00  0.00    -0.545 OA
ATOM      9  O   UNL     1      11.671   8.321  55.205  1.00  0.00    -0.545 OA
ENDBRANCH   1   7
TORSDOF 1
ENDMDL
MODEL 9
REMARK VINA RESULT:    -4.084     17.854     19.002
REMARK INTER + INTRA:          -4.340
REMARK INTER:                  -4.317
REMARK INTRA:                  -0.022
REMARK UNBOUND:                -0.017
REMARK SMILES O=C([O-])c1cccnc1
REMARK SMILES IDX 4 1 5 2 9 3 6 4 8 5 7 6 2 7 1 8 3 9
REMARK H PARENT
REMARK Flexibility Score: inf
ROOT
ATOM      1  C   UNL     1      10.609   5.992  54.863  1.00  0.00     0.016 A 
ATOM      2  C   UNL     1       9.590   5.092  55.214  1.00  0.00     0.013 A 
ATOM      3  C   UNL     1      11.731   5.497  54.176  1.00  0.00     0.120 A 
ATOM      4  C   UNL     1       9.704   3.741  54.882  1.00  0.00     0.021 A 
ATOM      5  N   UNL     1      11.816   4.175  53.863  1.00  0.00    -0.264 NA
ATOM      6  C   UNL     1      10.836   3.296  54.199  1.00  0.00     0.111 A 
ENDROOT
BRANCH   1   7
ATOM      7  C   UNL     1      10.500   7.425  55.209  1.00  0.00     0.073 C 
ATOM      8  O   UNL     1      11.530   8.150  55.271  1.00  0.00    -0.545 OA
ATOM      9  O   UNL     1       9.259   7.994  55.472  1.00  0.00    -0.545 OA
ENDBRANCH   1   7
TORSDOF 1
ENDMDL
