MODEL 1
REMARK VINA RESULT:    -5.993      0.000      0.000
REMARK INTER + INTRA:          -6.343
REMARK INTER:                  -6.343
REMARK INTRA:                   0.000
REMARK UNBOUND:                 0.000
REMARK SMILES O=c1ccc2cc(O)c(O)cc2o1
REMARK SMILES IDX 4 1 3 2 2 3 1 4 13 5 12 6 11 7 9 8 7 9 6 10 5 11 8 12 10 14
REMARK H PARENT 8 13 10 15
REMARK Flexibility Score: inf
ROOT
ATOM      1  C   UNL     1     137.840 140.618 140.443  1.00  0.00     0.019 A 
ATOM      2  C   UNL     1     137.404 139.526 139.692  1.00  0.00     0.094 A 
ATOM      3  C   UNL     1     136.166 139.598 139.046  1.00  0.00     0.336 A 
ATOM      4  O   UNL     1     135.756 138.623 138.363  1.00  0.00    -0.246 OA
ATOM      5  O   UNL     1     135.417 140.693 139.145  1.00  0.00    -0.423 OA
ATOM      6  C   UNL     1     135.794 141.757 139.850  1.00  0.00     0.142 A 
ATOM      7  C   UNL     1     134.964 142.880 139.920  1.00  0.00     0.098 A 
ATOM      8  C   UNL     1     135.357 144.004 140.662  1.00  0.00     0.161 A 
ATOM      9  C   UNL     1     136.587 144.004 141.336  1.00  0.00     0.158 A 
ATOM     10  C   UNL     1     137.423 142.880 141.271  1.00  0.00     0.062 A 
ATOM     11  C   UNL     1     137.031 141.756 140.530  1.00  0.00     0.022 A 
ENDROOT
BRANCH   9  12
ATOM     12  O   UNL     1     136.970 145.125 142.071  1.00  0.00    -0.504 OA
ATOM     13  H   UNL     1     136.594 146.044 141.869  1.00  0.00     0.293 HD
ENDBRANCH   9  12
BRANCH   8  14
ATOM     14  O   UNL     1     134.533 145.125 140.732  1.00  0.00    -0.504 OA
ATOM     15  H   UNL     1     134.566 145.759 141.522  1.00  0.00     0.293 HD
ENDBRANCH   8  14
TORSDOF 2
ENDMDL
MODEL 2
REMARK VINA RESULT:    -5.875      1.834      3.073
REMARK INTER + INTRA:          -6.218
REMARK INTER:                  -6.218
REMARK INTRA:                   0.000
REMARK UNBOUND:                 0.000
REMARK SMILES O=c1ccc2cc(O)c(O)cc2o1
REMARK SMILES IDX 4 1 3 2 2 3 1 4 13 5 12 6 11 7 9 8 7 9 6 10 5 11 8 12 10 14
REMARK H PARENT 8 13 10 15
REMARK Flexibility Score: inf
ROOT
ATOM      1  C   UNL     1     135.534 141.359 139.054  1.00  0.00     0.019 A 
ATOM      2  C   UNL     1     135.385 140.259 138.208  1.00  0.00     0.094 A 
ATOM      3  C   UNL     1     136.347 139.244 138.241  1.00  0.00     0.336 A 
ATOM      4  O   UNL     1     136.231 138.244 137.487  1.00  0.00    -0.246 OA
ATOM      5  O   UNL     1     137.387 139.328 139.068  1.00  0.00    -0.423 OA
ATOM      6  C   UNL     1     137.566 140.358 139.891  1.00  0.00     0.142 A 
ATOM      7  C   UNL     1     138.679 140.393 140.736  1.00  0.00     0.098 A 
ATOM      8  C   UNL     1     138.873 141.477 141.606  1.00  0.00     0.161 A 
ATOM      9  C   UNL     1     137.948 142.532 141.627  1.00  0.00     0.158 A 
ATOM     10  C   UNL     1     136.831 142.503 140.780  1.00  0.00     0.062 A 
ATOM     11  C   UNL     1     136.636 141.420 139.912  1.00  0.00     0.022 A 
ENDROOT
BRANCH   9  12
ATOM     12  O   UNL     1     138.149 143.605 142.494  1.00  0.00    -0.504 OA
ATOM     13  H   UNL     1     137.736 143.623 143.419  1.00  0.00     0.293 HD
ENDBRANCH   9  12
BRANCH   8  14
ATOM     14  O   UNL     1     139.980 141.513 142.450  1.00  0.00    -0.504 OA
ATOM     15  H   UNL     1     140.090 142.238 143.151  1.00  0.00     0.293 HD
ENDBRANCH   8  14
TORSDOF 2
ENDMDL
MODEL 3
REMARK VINA RESULT:    -5.553      8.380      9.086
REMARK INTER + INTRA:          -5.878
REMARK INTER:                  -5.878
REMARK INTRA:                   0.000
REMARK UNBOUND:                 0.000
REMARK SMILES O=c1ccc2cc(O)c(O)cc2o1
REMARK SMILES IDX 4 1 3 2 2 3 1 4 13 5 12 6 11 7 9 8 7 9 6 10 5 11 8 12 10 14
REMARK H PARENT 8 13 10 15
REMARK Flexibility Score: inf
ROOT
ATOM      1  C   UNL     1     134.271 137.947 148.470  1.00  0.00     0.019 A 
ATOM      2  C   UNL     1     133.599 136.874 149.056  1.00  0.00     0.094 A 
ATOM      3  C   UNL     1     133.819 135.585 148.560  1.00  0.00     0.336 A 
ATOM      4  O   UNL     1     133.223 134.603 149.076  1.00  0.00    -0.246 OA
ATOM      5  O   UNL     1     134.657 135.387 147.546  1.00  0.00    -0.423 OA
ATOM      6  C   UNL     1     135.318 136.382 146.959  1.00  0.00     0.142 A 
ATOM      7  C   UNL     1     136.185 136.114 145.896  1.00  0.00     0.098 A 
ATOM      8  C   UNL     1     136.884 137.160 145.273  1.00  0.00     0.161 A 
ATOM      9  C   UNL     1     136.713 138.479 145.717  1.00  0.00     0.158 A 
ATOM     10  C   UNL     1     135.844 138.754 146.783  1.00  0.00     0.062 A 
ATOM     11  C   UNL     1     135.145 137.710 147.406  1.00  0.00     0.022 A 
ENDROOT
BRANCH   9  12
ATOM     12  O   UNL     1     137.412 139.511 145.093  1.00  0.00    -0.504 OA
ATOM     13  H   UNL     1     137.657 139.467 144.111  1.00  0.00     0.293 HD
ENDBRANCH   9  12
BRANCH   8  14
ATOM     14  O   UNL     1     137.750 136.895 144.214  1.00  0.00    -0.504 OA
ATOM     15  H   UNL     1     138.562 137.474 144.036  1.00  0.00     0.293 HD
ENDBRANCH   8  14
TORSDOF 2
ENDMDL
MODEL 4
REMARK VINA RESULT:    -5.488      9.270      9.720
REMARK INTER + INTRA:          -5.809
REMARK INTER:                  -5.809
REMARK INTRA:                   0.000
REMARK UNBOUND:                 0.000
REMARK SMILES O=c1ccc2cc(O)c(O)cc2o1
REMARK SMILES IDX 4 1 3 2 2 3 1 4 13 5 12 6 11 7 9 8 7 9 6 10 5 11 8 12 10 14
REMARK H PARENT 8 13 10 15
REMARK Flexibility Score: inf
ROOT
ATOM      1  C   UNL     1     135.153 134.316 146.273  1.00  0.00     0.019 A 
ATOM      2  C   UNL     1     134.468 133.291 146.926  1.00  0.00     0.094 A 
ATOM      3  C   UNL     1     133.726 133.594 148.072  1.00  0.00     0.336 A 
ATOM      4  O   UNL     1     133.101 132.683 148.675  1.00  0.00    -0.246 OA
ATOM      5  O   UNL     1     133.676 134.842 148.532  1.00  0.00    -0.423 OA
ATOM      6  C   UNL     1     134.313 135.849 147.940  1.00  0.00     0.142 A 
ATOM      7  C   UNL     1     134.224 137.140 148.468  1.00  0.00     0.098 A 
ATOM      8  C   UNL     1     134.895 138.205 147.849  1.00  0.00     0.161 A 
ATOM      9  C   UNL     1     135.658 137.976 146.694  1.00  0.00     0.158 A 
ATOM     10  C   UNL     1     135.752 136.683 146.160  1.00  0.00     0.062 A 
ATOM     11  C   UNL     1     135.082 135.618 146.779  1.00  0.00     0.022 A 
ENDROOT
BRANCH   9  12
ATOM     12  O   UNL     1     136.322 139.040 146.085  1.00  0.00    -0.504 OA
ATOM     13  H   UNL     1     137.163 138.897 145.539  1.00  0.00     0.293 HD
ENDBRANCH   9  12
BRANCH   8  14
ATOM     14  O   UNL     1     134.808 139.493 148.373  1.00  0.00    -0.504 OA
ATOM     15  H   UNL     1     134.073 140.131 148.091  1.00  0.00     0.293 HD
ENDBRANCH   8  14
TORSDOF 2
ENDMDL
MODEL 5
REMARK VINA RESULT:    -5.475      9.764     11.123
REMARK INTER + INTRA:          -5.795
REMARK INTER:                  -5.795
REMARK INTRA:                   0.000
REMARK UNBOUND:                 0.000
REMARK SMILES O=c1ccc2cc(O)c(O)cc2o1
REMARK SMILES IDX 4 1 3 2 2 3 1 4 13 5 12 6 11 7 9 8 7 9 6 10 5 11 8 12 10 14
REMARK H PARENT 8 13 10 15
REMARK Flexibility Score: inf
ROOT
ATOM      1  C   UNL     1     133.747 136.888 148.873  1.00  0.00     0.019 A 
ATOM      2  C   UNL     1     134.246 138.051 148.286  1.00  0.00     0.094 A 
ATOM      3  C   UNL     1     134.973 137.950 147.095  1.00  0.00     0.336 A 
ATOM      4  O   UNL     1     135.430 138.988 146.548  1.00  0.00    -0.246 OA
ATOM      5  O   UNL     1     135.183 136.763 146.532  1.00  0.00    -0.423 OA
ATOM      6  C   UNL     1     134.724 135.630 147.059  1.00  0.00     0.142 A 
ATOM      7  C   UNL     1     134.977 134.411 146.423  1.00  0.00     0.098 A 
ATOM      8  C   UNL     1     134.497 133.213 146.975  1.00  0.00     0.161 A 
ATOM      9  C   UNL     1     133.760 133.237 148.168  1.00  0.00     0.158 A 
ATOM     10  C   UNL     1     133.504 134.457 148.810  1.00  0.00     0.062 A 
ATOM     11  C   UNL     1     133.984 135.654 148.260  1.00  0.00     0.022 A 
ENDROOT
BRANCH   9  12
ATOM     12  O   UNL     1     133.287 132.042 148.709  1.00  0.00    -0.504 OA
ATOM     13  H   UNL     1     133.601 131.709 149.612  1.00  0.00     0.293 HD
ENDBRANCH   9  12
BRANCH   8  14
ATOM     14  O   UNL     1     134.747 131.997 146.342  1.00  0.00    -0.504 OA
ATOM     15  H   UNL     1     133.999 131.448 145.935  1.00  0.00     0.293 HD
ENDBRANCH   8  14
TORSDOF 2
ENDMDL
MODEL 6
REMARK VINA RESULT:    -5.435      9.402      9.886
REMARK INTER + INTRA:          -5.753
REMARK INTER:                  -5.753
REMARK INTRA:                   0.000
REMARK UNBOUND:                 0.000
REMARK SMILES O=c1ccc2cc(O)c(O)cc2o1
REMARK SMILES IDX 4 1 3 2 2 3 1 4 13 5 12 6 11 7 9 8 7 9 6 10 5 11 8 12 10 14
REMARK H PARENT 8 13 10 15
REMARK Flexibility Score: inf
ROOT
ATOM      1  C   UNL     1     133.370 134.836 148.852  1.00  0.00     0.019 A 
ATOM      2  C   UNL     1     133.451 133.522 148.393  1.00  0.00     0.094 A 
ATOM      3  C   UNL     1     134.281 133.234 147.305  1.00  0.00     0.336 A 
ATOM      4  O   UNL     1     134.368 132.054 146.876  1.00  0.00    -0.246 OA
ATOM      5  O   UNL     1     134.983 134.201 146.719  1.00  0.00    -0.423 OA
ATOM      6  C   UNL     1     134.936 135.467 147.125  1.00  0.00     0.142 A 
ATOM      7  C   UNL     1     135.695 136.441 146.470  1.00  0.00     0.098 A 
ATOM      8  C   UNL     1     135.648 137.778 146.894  1.00  0.00     0.161 A 
ATOM      9  C   UNL     1     134.837 138.140 147.980  1.00  0.00     0.158 A 
ATOM     10  C   UNL     1     134.072 137.168 148.641  1.00  0.00     0.062 A 
ATOM     11  C   UNL     1     134.119 135.832 148.217  1.00  0.00     0.022 A 
ENDROOT
BRANCH   9  12
ATOM     12  O   UNL     1     134.796 139.471 148.395  1.00  0.00    -0.504 OA
ATOM     13  H   UNL     1     135.203 140.212 147.836  1.00  0.00     0.293 HD
ENDBRANCH   9  12
BRANCH   8  14
ATOM     14  O   UNL     1     136.404 138.750 146.243  1.00  0.00    -0.504 OA
ATOM     15  H   UNL     1     135.970 139.552 145.802  1.00  0.00     0.293 HD
ENDBRANCH   8  14
TORSDOF 2
ENDMDL
MODEL 7
REMARK VINA RESULT:    -5.407      2.037      4.027
REMARK INTER + INTRA:          -5.723
REMARK INTER:                  -5.723
REMARK INTRA:                   0.000
REMARK UNBOUND:                 0.000
REMARK SMILES O=c1ccc2cc(O)c(O)cc2o1
REMARK SMILES IDX 4 1 3 2 2 3 1 4 13 5 12 6 11 7 9 8 7 9 6 10 5 11 8 12 10 14
REMARK H PARENT 8 13 10 15
REMARK Flexibility Score: inf
ROOT
ATOM      1  C   UNL     1     139.028 140.357 141.297  1.00  0.00     0.019 A 
ATOM      2  C   UNL     1     139.675 140.867 142.422  1.00  0.00     0.094 A 
ATOM      3  C   UNL     1     139.238 142.080 142.964  1.00  0.00     0.336 A 
ATOM      4  O   UNL     1     139.808 142.556 143.980  1.00  0.00    -0.246 OA
ATOM      5  O   UNL     1     138.220 142.736 142.413  1.00  0.00    -0.423 OA
ATOM      6  C   UNL     1     137.575 142.285 141.339  1.00  0.00     0.142 A 
ATOM      7  C   UNL     1     136.512 143.018 140.803  1.00  0.00     0.098 A 
ATOM      8  C   UNL     1     135.829 142.547 139.671  1.00  0.00     0.161 A 
ATOM      9  C   UNL     1     136.212 141.337 139.074  1.00  0.00     0.158 A 
ATOM     10  C   UNL     1     137.278 140.598 139.608  1.00  0.00     0.062 A 
ATOM     11  C   UNL     1     137.961 141.068 140.738  1.00  0.00     0.022 A 
ENDROOT
BRANCH   9  12
ATOM     12  O   UNL     1     135.528 140.877 137.950  1.00  0.00    -0.504 OA
ATOM     13  H   UNL     1     135.975 140.827 137.042  1.00  0.00     0.293 HD
ENDBRANCH   9  12
BRANCH   8  14
ATOM     14  O   UNL     1     134.769 143.275 139.135  1.00  0.00    -0.504 OA
ATOM     15  H   UNL     1     133.918 143.439 139.661  1.00  0.00     0.293 HD
ENDBRANCH   8  14
TORSDOF 2
ENDMDL
MODEL 8
REMARK VINA RESULT:    -5.258     10.691     12.356
REMARK INTER + INTRA:          -5.566
REMARK INTER:                  -5.566
REMARK INTRA:                   0.000
REMARK UNBOUND:                 0.000
REMARK SMILES O=c1ccc2cc(O)c(O)cc2o1
REMARK SMILES IDX 4 1 3 2 2 3 1 4 13 5 12 6 11 7 9 8 7 9 6 10 5 11 8 12 10 14
REMARK H PARENT 8 13 10 15
REMARK Flexibility Score: inf
ROOT
ATOM      1  C   UNL     1     134.382 135.003 145.945  1.00  0.00     0.019 A 
ATOM      2  C   UNL     1     134.368 136.130 146.767  1.00  0.00     0.094 A 
ATOM      3  C   UNL     1     133.982 135.989 148.104  1.00  0.00     0.336 A 
ATOM      4  O   UNL     1     133.964 136.994 148.862  1.00  0.00    -0.246 OA
ATOM      5  O   UNL     1     133.635 134.797 148.583  1.00  0.00    -0.423 OA
ATOM      6  C   UNL     1     133.634 133.697 147.834  1.00  0.00     0.142 A 
ATOM      7  C   UNL     1     133.258 132.472 148.392  1.00  0.00     0.098 A 
ATOM      8  C   UNL     1     133.255 131.309 147.606  1.00  0.00     0.161 A 
ATOM      9  C   UNL     1     133.631 131.374 146.257  1.00  0.00     0.158 A 
ATOM     10  C   UNL     1     134.008 132.601 145.691  1.00  0.00     0.062 A 
ATOM     11  C   UNL     1     134.011 133.763 146.476  1.00  0.00     0.022 A 
ENDROOT
BRANCH   9  12
ATOM     12  O   UNL     1     133.625 130.214 145.484  1.00  0.00    -0.504 OA
ATOM     13  H   UNL     1     134.478 129.703 145.290  1.00  0.00     0.293 HD
ENDBRANCH   9  12
BRANCH   8  14
ATOM     14  O   UNL     1     132.881 130.086 148.160  1.00  0.00    -0.504 OA
ATOM     15  H   UNL     1     132.131 129.532 147.764  1.00  0.00     0.293 HD
ENDBRANCH   8  14
TORSDOF 2
ENDMDL
MODEL 9
REMARK VINA RESULT:    -5.070     10.860     11.872
REMARK INTER + INTRA:          -5.367
REMARK INTER:                  -5.367
REMARK INTRA:                   0.000
REMARK UNBOUND:                 0.000
REMARK SMILES O=c1ccc2cc(O)c(O)cc2o1
REMARK SMILES IDX 4 1 3 2 2 3 1 4 13 5 12 6 11 7 9 8 7 9 6 10 5 11 8 12 10 14
REMARK H PARENT 8 13 10 15
REMARK Flexibility Score: inf
ROOT
ATOM      1  C   UNL     1     133.320 130.914 148.046  1.00  0.00     0.019 A 
ATOM      2  C   UNL     1     133.071 129.806 147.235  1.00  0.00     0.094 A 
ATOM      3  C   UNL     1     133.025 129.979 145.848  1.00  0.00     0.336 A 
ATOM      4  O   UNL     1     132.803 128.993 145.098  1.00  0.00    -0.246 OA
ATOM      5  O   UNL     1     133.216 131.183 145.312  1.00  0.00    -0.423 OA
ATOM      6  C   UNL     1     133.457 132.264 146.049  1.00  0.00     0.142 A 
ATOM      7  C   UNL     1     133.649 133.503 145.430  1.00  0.00     0.098 A 
ATOM      8  C   UNL     1     133.902 134.647 146.203  1.00  0.00     0.161 A 
ATOM      9  C   UNL     1     133.962 134.549 147.601  1.00  0.00     0.158 A 
ATOM     10  C   UNL     1     133.769 133.309 148.227  1.00  0.00     0.062 A 
ATOM     11  C   UNL     1     133.517 132.166 147.456  1.00  0.00     0.022 A 
ENDROOT
BRANCH   9  12
ATOM     12  O   UNL     1     134.214 135.691 148.360  1.00  0.00    -0.504 OA
ATOM     13  H   UNL     1     134.859 136.406 148.044  1.00  0.00     0.293 HD
ENDBRANCH   9  12
BRANCH   8  14
ATOM     14  O   UNL     1     134.094 135.883 145.589  1.00  0.00    -0.504 OA
ATOM     15  H   UNL     1     134.070 135.983 144.581  1.00  0.00     0.293 HD
ENDBRANCH   8  14
TORSDOF 2
ENDMDL
