MODEL 1
REMARK VINA RESULT:    -3.186      0.000      0.000
REMARK INTER + INTRA:         -13.939
REMARK INTER:                  -8.401
REMARK INTRA:                  -5.538
REMARK UNBOUND:                -5.538
REMARK SMILES CCCCCCCCCCCCCCCCCCCCCCCCCCCCCC(=O)[O-]
REMARK SMILES IDX 16 1 17 2 18 3 19 4 20 5 21 6 22 7 23 8 24 9 25 10 26 11
REMARK SMILES IDX 27 12 28 13 29 14 30 15 31 16 32 17 15 18 14 19 13 20 12 21
REMARK SMILES IDX 11 22 10 23 9 24 8 25 7 26 6 27 5 28 4 29 3 30 2 31 1 32
REMARK H PARENT
REMARK Flexibility Score: inf
ROOT
ATOM      1  C   UNL     1      57.066  27.952  50.738  1.00  0.00     0.000 C 
ENDROOT
BRANCH   1   2
ATOM      2  C   UNL     1      58.443  28.634  50.644  1.00  0.00     0.000 C 
BRANCH   2   3
ATOM      3  C   UNL     1      59.251  28.270  49.378  1.00  0.00     0.000 C 
BRANCH   3   4
ATOM      4  C   UNL     1      60.435  27.311  49.611  1.00  0.00     0.000 C 
BRANCH   4   5
ATOM      5  C   UNL     1      59.992  25.871  49.922  1.00  0.00     0.000 C 
BRANCH   5   6
ATOM      6  C   UNL     1      60.384  25.427  51.342  1.00  0.00     0.000 C 
BRANCH   6   7
ATOM      7  C   UNL     1      61.681  26.062  51.881  1.00  0.00     0.000 C 
BRANCH   7   8
ATOM      8  C   UNL     1      61.548  26.755  53.251  1.00  0.00     0.000 C 
BRANCH   8   9
ATOM      9  C   UNL     1      60.292  27.634  53.422  1.00  0.00     0.000 C 
BRANCH   9  10
ATOM     10  C   UNL     1      60.535  28.997  54.104  1.00  0.00     0.000 C 
BRANCH  10  11
ATOM     11  C   UNL     1      60.652  30.192  53.140  1.00  0.00     0.000 C 
BRANCH  11  12
ATOM     12  C   UNL     1      61.563  29.957  51.919  1.00  0.00     0.000 C 
BRANCH  12  13
ATOM     13  C   UNL     1      62.366  31.189  51.462  1.00  0.00     0.006 C 
BRANCH  13  14
ATOM     14  C   UNL     1      62.613  31.214  49.948  1.00  0.00     0.053 C 
BRANCH  14  15
ATOM     15  C   UNL     1      63.061  32.573  49.511  1.00  0.00     0.041 C 
ATOM     16  O   UNL     1      62.235  33.523  49.442  1.00  0.00    -0.550 OA
ATOM     17  O   UNL     1      64.396  32.797  49.204  1.00  0.00    -0.550 OA
ENDBRANCH  14  15
ENDBRANCH  13  14
ENDBRANCH  12  13
ENDBRANCH  11  12
ENDBRANCH  10  11
ENDBRANCH   9  10
ENDBRANCH   8   9
ENDBRANCH   7   8
ENDBRANCH   6   7
ENDBRANCH   5   6
ENDBRANCH   4   5
ENDBRANCH   3   4
ENDBRANCH   2   3
ENDBRANCH   1   2
BRANCH   1  18
ATOM     18  C   UNL     1      56.986  26.906  51.871  1.00  0.00     0.000 C 
BRANCH  18  19
ATOM     19  C   UNL     1      56.431  25.557  51.383  1.00  0.00     0.000 C 
BRANCH  19  20
ATOM     20  C   UNL     1      56.004  25.624  49.903  1.00  0.00     0.000 C 
BRANCH  20  21
ATOM     21  C   UNL     1      54.644  24.951  49.631  1.00  0.00     0.000 C 
BRANCH  21  22
ATOM     22  C   UNL     1      53.429  25.725  50.180  1.00  0.00     0.000 C 
BRANCH  22  23
ATOM     23  C   UNL     1      53.451  27.250  49.960  1.00  0.00     0.000 C 
BRANCH  23  24
ATOM     24  C   UNL     1      53.461  28.101  51.248  1.00  0.00    -0.000 C 
BRANCH  24  25
ATOM     25  C   UNL     1      53.833  29.581  51.045  1.00  0.00    -0.000 C 
BRANCH  25  26
ATOM     26  C   UNL     1      54.416  30.228  52.312  1.00  0.00    -0.000 C 
BRANCH  26  27
ATOM     27  C   UNL     1      54.516  29.242  53.489  1.00  0.00    -0.000 C 
BRANCH  27  28
ATOM     28  C   UNL     1      55.887  29.275  54.184  1.00  0.00    -0.000 C 
BRANCH  28  29
ATOM     29  C   UNL     1      56.743  30.480  53.757  1.00  0.00    -0.000 C 
BRANCH  29  30
ATOM     30  C   UNL     1      57.514  31.135  54.924  1.00  0.00    -0.000 C 
BRANCH  30  31
ATOM     31  C   UNL     1      57.533  32.667  54.818  1.00  0.00    -0.003 C 
ATOM     32  C   UNL     1      58.389  33.128  53.641  1.00  0.00     0.004 C 
ENDBRANCH  30  31
ENDBRANCH  29  30
ENDBRANCH  28  29
ENDBRANCH  27  28
ENDBRANCH  26  27
ENDBRANCH  25  26
ENDBRANCH  24  25
ENDBRANCH  23  24
ENDBRANCH  22  23
ENDBRANCH  21  22
ENDBRANCH  20  21
ENDBRANCH  19  20
ENDBRANCH  18  19
ENDBRANCH   1  18
TORSDOF 28
ENDMDL
MODEL 2
REMARK VINA RESULT:    -3.119      2.157      4.817
REMARK INTER + INTRA:         -13.761
REMARK INTER:                  -7.702
REMARK INTRA:                  -6.058
REMARK UNBOUND:                -5.538
REMARK SMILES CCCCCCCCCCCCCCCCCCCCCCCCCCCCCC(=O)[O-]
REMARK SMILES IDX 16 1 17 2 18 3 19 4 20 5 21 6 22 7 23 8 24 9 25 10 26 11
REMARK SMILES IDX 27 12 28 13 29 14 30 15 31 16 32 17 15 18 14 19 13 20 12 21
REMARK SMILES IDX 11 22 10 23 9 24 8 25 7 26 6 27 5 28 4 29 3 30 2 31 1 32
REMARK H PARENT
REMARK Flexibility Score: inf
ROOT
ATOM      1  C   UNL     1      59.697  26.479  50.250  1.00  0.00     0.000 C 
ENDROOT
BRANCH   1   2
ATOM      2  C   UNL     1      58.567  25.441  50.122  1.00  0.00     0.000 C 
BRANCH   2   3
ATOM      3  C   UNL     1      58.029  24.914  51.472  1.00  0.00     0.000 C 
BRANCH   3   4
ATOM      4  C   UNL     1      59.083  24.784  52.589  1.00  0.00     0.000 C 
BRANCH   4   5
ATOM      5  C   UNL     1      59.283  23.334  53.064  1.00  0.00     0.000 C 
BRANCH   5   6
ATOM      6  C   UNL     1      60.671  22.780  52.698  1.00  0.00     0.000 C 
BRANCH   6   7
ATOM      7  C   UNL     1      60.929  22.638  51.185  1.00  0.00     0.000 C 
BRANCH   7   8
ATOM      8  C   UNL     1      62.186  23.364  50.667  1.00  0.00     0.000 C 
BRANCH   8   9
ATOM      9  C   UNL     1      62.924  24.226  51.713  1.00  0.00     0.000 C 
BRANCH   9  10
ATOM     10  C   UNL     1      62.986  25.734  51.391  1.00  0.00     0.000 C 
BRANCH  10  11
ATOM     11  C   UNL     1      63.358  26.071  49.935  1.00  0.00     0.000 C 
BRANCH  11  12
ATOM     12  C   UNL     1      63.145  27.544  49.533  1.00  0.00     0.000 C 
BRANCH  12  13
ATOM     13  C   UNL     1      63.291  28.558  50.681  1.00  0.00     0.006 C 
BRANCH  13  14
ATOM     14  C   UNL     1      62.768  29.955  50.317  1.00  0.00     0.053 C 
BRANCH  14  15
ATOM     15  C   UNL     1      63.875  30.808  49.784  1.00  0.00     0.041 C 
ATOM     16  O   UNL     1      65.075  30.436  49.895  1.00  0.00    -0.550 OA
ATOM     17  O   UNL     1      63.581  32.002  49.139  1.00  0.00    -0.550 OA
ENDBRANCH  14  15
ENDBRANCH  13  14
ENDBRANCH  12  13
ENDBRANCH  11  12
ENDBRANCH  10  11
ENDBRANCH   9  10
ENDBRANCH   8   9
ENDBRANCH   7   8
ENDBRANCH   6   7
ENDBRANCH   5   6
ENDBRANCH   4   5
ENDBRANCH   3   4
ENDBRANCH   2   3
ENDBRANCH   1   2
BRANCH   1  18
ATOM     18  C   UNL     1      59.379  27.811  49.536  1.00  0.00     0.000 C 
BRANCH  18  19
ATOM     19  C   UNL     1      59.332  28.999  50.511  1.00  0.00     0.000 C 
BRANCH  19  20
ATOM     20  C   UNL     1      59.414  28.531  51.977  1.00  0.00     0.000 C 
BRANCH  20  21
ATOM     21  C   UNL     1      58.231  29.015  52.839  1.00  0.00     0.000 C 
BRANCH  21  22
ATOM     22  C   UNL     1      57.060  28.017  52.932  1.00  0.00     0.000 C 
BRANCH  22  23
ATOM     23  C   UNL     1      55.819  28.362  52.086  1.00  0.00     0.000 C 
BRANCH  23  24
ATOM     24  C   UNL     1      55.827  27.805  50.647  1.00  0.00    -0.000 C 
BRANCH  24  25
ATOM     25  C   UNL     1      54.566  27.016  50.248  1.00  0.00    -0.000 C 
BRANCH  25  26
ATOM     26  C   UNL     1      54.887  25.620  49.693  1.00  0.00    -0.000 C 
BRANCH  26  27
ATOM     27  C   UNL     1      54.391  24.488  50.610  1.00  0.00    -0.000 C 
BRANCH  27  28
ATOM     28  C   UNL     1      53.361  24.966  51.646  1.00  0.00    -0.000 C 
BRANCH  28  29
ATOM     29  C   UNL     1      53.828  24.748  53.095  1.00  0.00    -0.000 C 
BRANCH  29  30
ATOM     30  C   UNL     1      54.725  23.502  53.275  1.00  0.00    -0.000 C 
BRANCH  30  31
ATOM     31  C   UNL     1      55.714  23.665  54.437  1.00  0.00    -0.003 C 
ATOM     32  C   UNL     1      56.070  25.133  54.659  1.00  0.00     0.004 C 
ENDBRANCH  30  31
ENDBRANCH  29  30
ENDBRANCH  28  29
ENDBRANCH  27  28
ENDBRANCH  26  27
ENDBRANCH  25  26
ENDBRANCH  24  25
ENDBRANCH  23  24
ENDBRANCH  22  23
ENDBRANCH  21  22
ENDBRANCH  20  21
ENDBRANCH  19  20
ENDBRANCH  18  19
ENDBRANCH   1  18
TORSDOF 28
ENDMDL
MODEL 3
REMARK VINA RESULT:    -3.102      2.247      5.029
REMARK INTER + INTRA:         -13.718
REMARK INTER:                  -7.458
REMARK INTRA:                  -6.261
REMARK UNBOUND:                -5.538
REMARK SMILES CCCCCCCCCCCCCCCCCCCCCCCCCCCCCC(=O)[O-]
REMARK SMILES IDX 16 1 17 2 18 3 19 4 20 5 21 6 22 7 23 8 24 9 25 10 26 11
REMARK SMILES IDX 27 12 28 13 29 14 30 15 31 16 32 17 15 18 14 19 13 20 12 21
REMARK SMILES IDX 11 22 10 23 9 24 8 25 7 26 6 27 5 28 4 29 3 30 2 31 1 32
REMARK H PARENT
REMARK Flexibility Score: inf
ROOT
ATOM      1  C   UNL     1      54.330  25.036  49.868  1.00  0.00     0.000 C 
ENDROOT
BRANCH   1   2
ATOM      2  C   UNL     1      55.779  25.560  49.878  1.00  0.00     0.000 C 
BRANCH   2   3
ATOM      3  C   UNL     1      56.458  25.529  51.266  1.00  0.00     0.000 C 
BRANCH   3   4
ATOM      4  C   UNL     1      56.799  26.910  51.859  1.00  0.00     0.000 C 
BRANCH   4   5
ATOM      5  C   UNL     1      57.018  27.989  50.785  1.00  0.00     0.000 C 
BRANCH   5   6
ATOM      6  C   UNL     1      58.427  28.606  50.848  1.00  0.00     0.000 C 
BRANCH   6   7
ATOM      7  C   UNL     1      59.229  28.514  49.535  1.00  0.00     0.000 C 
BRANCH   7   8
ATOM      8  C   UNL     1      60.290  27.397  49.495  1.00  0.00     0.000 C 
BRANCH   8   9
ATOM      9  C   UNL     1      59.744  25.967  49.690  1.00  0.00     0.000 C 
BRANCH   9  10
ATOM     10  C   UNL     1      60.607  25.053  50.585  1.00  0.00     0.000 C 
BRANCH  10  11
ATOM     11  C   UNL     1      60.073  24.858  52.017  1.00  0.00     0.000 C 
BRANCH  11  12
ATOM     12  C   UNL     1      60.217  26.086  52.939  1.00  0.00     0.000 C 
BRANCH  12  13
ATOM     13  C   UNL     1      61.590  26.779  52.887  1.00  0.00     0.006 C 
BRANCH  13  14
ATOM     14  C   UNL     1      62.110  27.182  54.273  1.00  0.00     0.053 C 
BRANCH  14  15
ATOM     15  C   UNL     1      63.551  26.812  54.424  1.00  0.00     0.041 C 
ATOM     16  O   UNL     1      63.881  25.811  55.116  1.00  0.00    -0.550 OA
ATOM     17  O   UNL     1      64.529  27.556  53.778  1.00  0.00    -0.550 OA
ENDBRANCH  14  15
ENDBRANCH  13  14
ENDBRANCH  12  13
ENDBRANCH  11  12
ENDBRANCH  10  11
ENDBRANCH   9  10
ENDBRANCH   8   9
ENDBRANCH   7   8
ENDBRANCH   6   7
ENDBRANCH   5   6
ENDBRANCH   4   5
ENDBRANCH   3   4
ENDBRANCH   2   3
ENDBRANCH   1   2
BRANCH   1  18
ATOM     18  C   UNL     1      53.291  26.139  49.570  1.00  0.00     0.000 C 
BRANCH  18  19
ATOM     19  C   UNL     1      53.109  27.105  50.752  1.00  0.00     0.000 C 
BRANCH  19  20
ATOM     20  C   UNL     1      53.455  28.554  50.356  1.00  0.00     0.000 C 
BRANCH  20  21
ATOM     21  C   UNL     1      53.758  29.460  51.566  1.00  0.00     0.000 C 
BRANCH  21  22
ATOM     22  C   UNL     1      53.766  28.729  52.924  1.00  0.00     0.000 C 
BRANCH  22  23
ATOM     23  C   UNL     1      54.820  29.214  53.939  1.00  0.00     0.000 C 
BRANCH  23  24
ATOM     24  C   UNL     1      55.455  30.586  53.625  1.00  0.00    -0.000 C 
BRANCH  24  25
ATOM     25  C   UNL     1      56.992  30.587  53.548  1.00  0.00    -0.000 C 
BRANCH  25  26
ATOM     26  C   UNL     1      57.637  29.546  54.477  1.00  0.00    -0.000 C 
BRANCH  26  27
ATOM     27  C   UNL     1      59.166  29.484  54.327  1.00  0.00    -0.000 C 
BRANCH  27  28
ATOM     28  C   UNL     1      59.761  30.760  53.708  1.00  0.00    -0.000 C 
BRANCH  28  29
ATOM     29  C   UNL     1      60.789  30.463  52.603  1.00  0.00    -0.000 C 
BRANCH  29  30
ATOM     30  C   UNL     1      62.254  30.539  53.087  1.00  0.00    -0.000 C 
BRANCH  30  31
ATOM     31  C   UNL     1      63.253  30.315  51.942  1.00  0.00    -0.003 C 
ATOM     32  C   UNL     1      62.533  30.141  50.607  1.00  0.00     0.004 C 
ENDBRANCH  30  31
ENDBRANCH  29  30
ENDBRANCH  28  29
ENDBRANCH  27  28
ENDBRANCH  26  27
ENDBRANCH  25  26
ENDBRANCH  24  25
ENDBRANCH  23  24
ENDBRANCH  22  23
ENDBRANCH  21  22
ENDBRANCH  20  21
ENDBRANCH  19  20
ENDBRANCH  18  19
ENDBRANCH   1  18
TORSDOF 28
ENDMDL
MODEL 4
REMARK VINA RESULT:    -3.030      7.869     11.317
REMARK INTER + INTRA:         -13.527
REMARK INTER:                  -7.189
REMARK INTRA:                  -6.338
REMARK UNBOUND:                -5.538
REMARK SMILES CCCCCCCCCCCCCCCCCCCCCCCCCCCCCC(=O)[O-]
REMARK SMILES IDX 16 1 17 2 18 3 19 4 20 5 21 6 22 7 23 8 24 9 25 10 26 11
REMARK SMILES IDX 27 12 28 13 29 14 30 15 31 16 32 17 15 18 14 19 13 20 12 21
REMARK SMILES IDX 11 22 10 23 9 24 8 25 7 26 6 27 5 28 4 29 3 30 2 31 1 32
REMARK H PARENT
REMARK Flexibility Score: inf
ROOT
ATOM      1  C   UNL     1      64.877  33.086  59.548  1.00  0.00     0.000 C 
ENDROOT
BRANCH   1   2
ATOM      2  C   UNL     1      64.359  31.960  58.634  1.00  0.00     0.000 C 
BRANCH   2   3
ATOM      3  C   UNL     1      62.823  31.935  58.461  1.00  0.00     0.000 C 
BRANCH   3   4
ATOM      4  C   UNL     1      62.219  30.546  58.174  1.00  0.00     0.000 C 
BRANCH   4   5
ATOM      5  C   UNL     1      61.142  30.135  59.193  1.00  0.00     0.000 C 
BRANCH   5   6
ATOM      6  C   UNL     1      61.020  31.134  60.357  1.00  0.00     0.000 C 
BRANCH   6   7
ATOM      7  C   UNL     1      61.321  30.542  61.748  1.00  0.00     0.000 C 
BRANCH   7   8
ATOM      8  C   UNL     1      62.285  29.339  61.750  1.00  0.00     0.000 C 
BRANCH   8   9
ATOM      9  C   UNL     1      63.781  29.698  61.628  1.00  0.00     0.000 C 
BRANCH   9  10
ATOM     10  C   UNL     1      64.577  28.847  60.617  1.00  0.00     0.000 C 
BRANCH  10  11
ATOM     11  C   UNL     1      63.864  27.567  60.144  1.00  0.00     0.000 C 
BRANCH  11  12
ATOM     12  C   UNL     1      64.277  26.279  60.885  1.00  0.00     0.000 C 
BRANCH  12  13
ATOM     13  C   UNL     1      63.127  25.296  61.168  1.00  0.00     0.006 C 
BRANCH  13  14
ATOM     14  C   UNL     1      62.256  25.721  62.358  1.00  0.00     0.053 C 
BRANCH  14  15
ATOM     15  C   UNL     1      60.805  25.580  62.024  1.00  0.00     0.041 C 
ATOM     16  O   UNL     1      60.140  24.610  62.476  1.00  0.00    -0.550 OA
ATOM     17  O   UNL     1      60.179  26.537  61.235  1.00  0.00    -0.550 OA
ENDBRANCH  14  15
ENDBRANCH  13  14
ENDBRANCH  12  13
ENDBRANCH  11  12
ENDBRANCH  10  11
ENDBRANCH   9  10
ENDBRANCH   8   9
ENDBRANCH   7   8
ENDBRANCH   6   7
ENDBRANCH   5   6
ENDBRANCH   4   5
ENDBRANCH   3   4
ENDBRANCH   2   3
ENDBRANCH   1   2
BRANCH   1  18
ATOM     18  C   UNL     1      64.023  33.272  60.821  1.00  0.00     0.000 C 
BRANCH  18  19
ATOM     19  C   UNL     1      63.458  34.697  60.941  1.00  0.00     0.000 C 
BRANCH  19  20
ATOM     20  C   UNL     1      61.920  34.706  60.831  1.00  0.00     0.000 C 
BRANCH  20  21
ATOM     21  C   UNL     1      61.407  35.335  59.520  1.00  0.00     0.000 C 
BRANCH  21  22
ATOM     22  C   UNL     1      62.517  35.853  58.585  1.00  0.00     0.000 C 
BRANCH  22  23
ATOM     23  C   UNL     1      62.443  35.367  57.124  1.00  0.00     0.000 C 
BRANCH  23  24
ATOM     24  C   UNL     1      63.798  34.999  56.483  1.00  0.00    -0.000 C 
BRANCH  24  25
ATOM     25  C   UNL     1      63.706  34.063  55.264  1.00  0.00    -0.000 C 
BRANCH  25  26
ATOM     26  C   UNL     1      62.339  33.370  55.146  1.00  0.00    -0.000 C 
BRANCH  26  27
ATOM     27  C   UNL     1      61.605  33.726  53.842  1.00  0.00    -0.000 C 
BRANCH  27  28
ATOM     28  C   UNL     1      60.459  34.729  54.054  1.00  0.00    -0.000 C 
BRANCH  28  29
ATOM     29  C   UNL     1      59.315  34.156  54.908  1.00  0.00    -0.000 C 
BRANCH  29  30
ATOM     30  C   UNL     1      58.902  35.073  56.081  1.00  0.00    -0.000 C 
BRANCH  30  31
ATOM     31  C   UNL     1      58.647  34.281  57.372  1.00  0.00    -0.003 C 
ATOM     32  C   UNL     1      59.413  32.961  57.371  1.00  0.00     0.004 C 
ENDBRANCH  30  31
ENDBRANCH  29  30
ENDBRANCH  28  29
ENDBRANCH  27  28
ENDBRANCH  26  27
ENDBRANCH  25  26
ENDBRANCH  24  25
ENDBRANCH  23  24
ENDBRANCH  22  23
ENDBRANCH  21  22
ENDBRANCH  20  21
ENDBRANCH  19  20
ENDBRANCH  18  19
ENDBRANCH   1  18
TORSDOF 28
ENDMDL
MODEL 5
REMARK VINA RESULT:    -3.019      2.619      7.293
REMARK INTER + INTRA:         -13.499
REMARK INTER:                  -8.817
REMARK INTRA:                  -4.682
REMARK UNBOUND:                -5.538
REMARK SMILES CCCCCCCCCCCCCCCCCCCCCCCCCCCCCC(=O)[O-]
REMARK SMILES IDX 16 1 17 2 18 3 19 4 20 5 21 6 22 7 23 8 24 9 25 10 26 11
REMARK SMILES IDX 27 12 28 13 29 14 30 15 31 16 32 17 15 18 14 19 13 20 12 21
REMARK SMILES IDX 11 22 10 23 9 24 8 25 7 26 6 27 5 28 4 29 3 30 2 31 1 32
REMARK H PARENT
REMARK Flexibility Score: inf
ROOT
ATOM      1  C   UNL     1      58.214  28.498  50.420  1.00  0.00     0.000 C 
ENDROOT
BRANCH   1   2
ATOM      2  C   UNL     1      58.512  28.983  51.851  1.00  0.00     0.000 C 
BRANCH   2   3
ATOM      3  C   UNL     1      57.797  28.177  52.960  1.00  0.00     0.000 C 
BRANCH   3   4
ATOM      4  C   UNL     1      58.495  26.865  53.369  1.00  0.00     0.000 C 
BRANCH   4   5
ATOM      5  C   UNL     1      57.604  25.625  53.183  1.00  0.00     0.000 C 
BRANCH   5   6
ATOM      6  C   UNL     1      56.140  25.887  53.576  1.00  0.00     0.000 C 
BRANCH   6   7
ATOM      7  C   UNL     1      55.106  25.501  52.500  1.00  0.00     0.000 C 
BRANCH   7   8
ATOM      8  C   UNL     1      55.681  25.297  51.085  1.00  0.00     0.000 C 
BRANCH   8   9
ATOM      9  C   UNL     1      55.373  26.428  50.083  1.00  0.00     0.000 C 
BRANCH   9  10
ATOM     10  C   UNL     1      53.907  26.910  50.069  1.00  0.00     0.000 C 
BRANCH  10  11
ATOM     11  C   UNL     1      53.714  28.406  50.380  1.00  0.00     0.000 C 
BRANCH  11  12
ATOM     12  C   UNL     1      54.704  28.991  51.407  1.00  0.00     0.000 C 
BRANCH  12  13
ATOM     13  C   UNL     1      54.159  30.168  52.236  1.00  0.00     0.006 C 
BRANCH  13  14
ATOM     14  C   UNL     1      54.990  30.449  53.495  1.00  0.00     0.053 C 
BRANCH  14  15
ATOM     15  C   UNL     1      55.424  31.880  53.531  1.00  0.00     0.041 C 
ATOM     16  O   UNL     1      56.635  32.173  53.718  1.00  0.00    -0.550 OA
ATOM     17  O   UNL     1      54.493  32.891  53.331  1.00  0.00    -0.550 OA
ENDBRANCH  14  15
ENDBRANCH  13  14
ENDBRANCH  12  13
ENDBRANCH  11  12
ENDBRANCH  10  11
ENDBRANCH   9  10
ENDBRANCH   8   9
ENDBRANCH   7   8
ENDBRANCH   6   7
ENDBRANCH   5   6
ENDBRANCH   4   5
ENDBRANCH   3   4
ENDBRANCH   2   3
ENDBRANCH   1   2
BRANCH   1  18
ATOM     18  C   UNL     1      59.465  28.480  49.515  1.00  0.00     0.000 C 
BRANCH  18  19
ATOM     19  C   UNL     1      60.154  27.106  49.499  1.00  0.00     0.000 C 
BRANCH  19  20
ATOM     20  C   UNL     1      59.162  25.972  49.827  1.00  0.00     0.000 C 
BRANCH  20  21
ATOM     21  C   UNL     1      59.829  24.753  50.495  1.00  0.00     0.000 C 
BRANCH  21  22
ATOM     22  C   UNL     1      61.368  24.735  50.396  1.00  0.00     0.000 C 
BRANCH  22  23
ATOM     23  C   UNL     1      62.127  25.027  51.705  1.00  0.00     0.000 C 
BRANCH  23  24
ATOM     24  C   UNL     1      63.333  25.981  51.570  1.00  0.00    -0.000 C 
BRANCH  24  25
ATOM     25  C   UNL     1      63.857  26.165  50.134  1.00  0.00    -0.000 C 
BRANCH  25  26
ATOM     26  C   UNL     1      63.734  27.614  49.636  1.00  0.00    -0.000 C 
BRANCH  26  27
ATOM     27  C   UNL     1      63.170  28.563  50.708  1.00  0.00    -0.000 C 
BRANCH  27  28
ATOM     28  C   UNL     1      64.111  29.737  51.025  1.00  0.00    -0.000 C 
BRANCH  28  29
ATOM     29  C   UNL     1      64.836  30.274  49.779  1.00  0.00    -0.000 C 
BRANCH  29  30
ATOM     30  C   UNL     1      64.476  31.737  49.438  1.00  0.00    -0.000 C 
BRANCH  30  31
ATOM     31  C   UNL     1      63.029  32.081  49.818  1.00  0.00    -0.003 C 
ATOM     32  C   UNL     1      62.493  33.231  48.970  1.00  0.00     0.004 C 
ENDBRANCH  30  31
ENDBRANCH  29  30
ENDBRANCH  28  29
ENDBRANCH  27  28
ENDBRANCH  26  27
ENDBRANCH  25  26
ENDBRANCH  24  25
ENDBRANCH  23  24
ENDBRANCH  22  23
ENDBRANCH  21  22
ENDBRANCH  20  21
ENDBRANCH  19  20
ENDBRANCH  18  19
ENDBRANCH   1  18
TORSDOF 28
ENDMDL
MODEL 6
REMARK VINA RESULT:    -3.016      4.157      6.943
REMARK INTER + INTRA:         -13.491
REMARK INTER:                  -7.487
REMARK INTRA:                  -6.004
REMARK UNBOUND:                -5.538
REMARK SMILES CCCCCCCCCCCCCCCCCCCCCCCCCCCCCC(=O)[O-]
REMARK SMILES IDX 16 1 17 2 18 3 19 4 20 5 21 6 22 7 23 8 24 9 25 10 26 11
REMARK SMILES IDX 27 12 28 13 29 14 30 15 31 16 32 17 15 18 14 19 13 20 12 21
REMARK SMILES IDX 11 22 10 23 9 24 8 25 7 26 6 27 5 28 4 29 3 30 2 31 1 32
REMARK H PARENT
REMARK Flexibility Score: inf
ROOT
ATOM      1  C   UNL     1      54.528  27.768  50.465  1.00  0.00     0.000 C 
ENDROOT
BRANCH   1   2
ATOM      2  C   UNL     1      56.027  27.413  50.471  1.00  0.00     0.000 C 
BRANCH   2   3
ATOM      3  C   UNL     1      56.950  28.550  50.967  1.00  0.00     0.000 C 
BRANCH   3   4
ATOM      4  C   UNL     1      58.358  28.570  50.341  1.00  0.00     0.000 C 
BRANCH   4   5
ATOM      5  C   UNL     1      59.479  28.729  51.382  1.00  0.00     0.000 C 
BRANCH   5   6
ATOM      6  C   UNL     1      58.936  28.883  52.814  1.00  0.00     0.000 C 
BRANCH   6   7
ATOM      7  C   UNL     1      59.662  28.031  53.873  1.00  0.00     0.000 C 
BRANCH   7   8
ATOM      8  C   UNL     1      60.750  27.091  53.320  1.00  0.00     0.000 C 
BRANCH   8   9
ATOM      9  C   UNL     1      60.861  25.726  54.030  1.00  0.00     0.000 C 
BRANCH   9  10
ATOM     10  C   UNL     1      62.285  25.137  54.097  1.00  0.00     0.000 C 
BRANCH  10  11
ATOM     11  C   UNL     1      62.349  23.598  54.121  1.00  0.00     0.000 C 
BRANCH  11  12
ATOM     12  C   UNL     1      62.466  22.929  52.737  1.00  0.00     0.000 C 
BRANCH  12  13
ATOM     13  C   UNL     1      62.030  21.453  52.691  1.00  0.00     0.006 C 
BRANCH  13  14
ATOM     14  C   UNL     1      60.529  21.264  52.945  1.00  0.00     0.053 C 
BRANCH  14  15
ATOM     15  C   UNL     1      59.938  20.331  51.937  1.00  0.00     0.041 C 
ATOM     16  O   UNL     1      58.927  19.636  52.229  1.00  0.00    -0.550 OA
ATOM     17  O   UNL     1      60.487  20.247  50.664  1.00  0.00    -0.550 OA
ENDBRANCH  14  15
ENDBRANCH  13  14
ENDBRANCH  12  13
ENDBRANCH  11  12
ENDBRANCH  10  11
ENDBRANCH   9  10
ENDBRANCH   8   9
ENDBRANCH   7   8
ENDBRANCH   6   7
ENDBRANCH   5   6
ENDBRANCH   4   5
ENDBRANCH   3   4
ENDBRANCH   2   3
ENDBRANCH   1   2
BRANCH   1  18
ATOM     18  C   UNL     1      53.633  26.603  49.990  1.00  0.00     0.000 C 
BRANCH  18  19
ATOM     19  C   UNL     1      54.453  25.374  49.561  1.00  0.00     0.000 C 
BRANCH  19  20
ATOM     20  C   UNL     1      54.042  24.117  50.354  1.00  0.00     0.000 C 
BRANCH  20  21
ATOM     21  C   UNL     1      53.633  24.421  51.809  1.00  0.00     0.000 C 
BRANCH  21  22
ATOM     22  C   UNL     1      54.734  24.141  52.852  1.00  0.00     0.000 C 
BRANCH  22  23
ATOM     23  C   UNL     1      55.306  25.380  53.568  1.00  0.00     0.000 C 
BRANCH  23  24
ATOM     24  C   UNL     1      56.834  25.563  53.447  1.00  0.00    -0.000 C 
BRANCH  24  25
ATOM     25  C   UNL     1      57.551  24.500  52.595  1.00  0.00    -0.000 C 
BRANCH  25  26
ATOM     26  C   UNL     1      58.161  25.079  51.309  1.00  0.00    -0.000 C 
BRANCH  26  27
ATOM     27  C   UNL     1      59.512  24.435  50.952  1.00  0.00    -0.000 C 
BRANCH  27  28
ATOM     28  C   UNL     1      60.308  25.248  49.917  1.00  0.00    -0.000 C 
BRANCH  28  29
ATOM     29  C   UNL     1      61.801  25.359  50.267  1.00  0.00    -0.000 C 
BRANCH  29  30
ATOM     30  C   UNL     1      62.390  26.766  50.022  1.00  0.00    -0.000 C 
BRANCH  30  31
ATOM     31  C   UNL     1      63.604  27.050  50.919  1.00  0.00    -0.003 C 
ATOM     32  C   UNL     1      64.633  25.926  50.827  1.00  0.00     0.004 C 
ENDBRANCH  30  31
ENDBRANCH  29  30
ENDBRANCH  28  29
ENDBRANCH  27  28
ENDBRANCH  26  27
ENDBRANCH  25  26
ENDBRANCH  24  25
ENDBRANCH  23  24
ENDBRANCH  22  23
ENDBRANCH  21  22
ENDBRANCH  20  21
ENDBRANCH  19  20
ENDBRANCH  18  19
ENDBRANCH   1  18
TORSDOF 28
ENDMDL
MODEL 7
REMARK VINA RESULT:    -3.013      2.143      7.023
REMARK INTER + INTRA:         -13.482
REMARK INTER:                  -8.280
REMARK INTRA:                  -5.203
REMARK UNBOUND:                -5.538
REMARK SMILES CCCCCCCCCCCCCCCCCCCCCCCCCCCCCC(=O)[O-]
REMARK SMILES IDX 16 1 17 2 18 3 19 4 20 5 21 6 22 7 23 8 24 9 25 10 26 11
REMARK SMILES IDX 27 12 28 13 29 14 30 15 31 16 32 17 15 18 14 19 13 20 12 21
REMARK SMILES IDX 11 22 10 23 9 24 8 25 7 26 6 27 5 28 4 29 3 30 2 31 1 32
REMARK H PARENT
REMARK Flexibility Score: inf
ROOT
ATOM      1  C   UNL     1      57.845  28.450  50.760  1.00  0.00     0.000 C 
ENDROOT
BRANCH   1   2
ATOM      2  C   UNL     1      57.894  27.433  51.916  1.00  0.00     0.000 C 
BRANCH   2   3
ATOM      3  C   UNL     1      56.933  26.234  51.751  1.00  0.00     0.000 C 
BRANCH   3   4
ATOM      4  C   UNL     1      56.799  25.696  50.313  1.00  0.00     0.000 C 
BRANCH   4   5
ATOM      5  C   UNL     1      55.337  25.525  49.866  1.00  0.00     0.000 C 
BRANCH   5   6
ATOM      6  C   UNL     1      54.351  26.284  50.772  1.00  0.00     0.000 C 
BRANCH   6   7
ATOM      7  C   UNL     1      53.740  27.550  50.141  1.00  0.00     0.000 C 
BRANCH   7   8
ATOM      8  C   UNL     1      54.288  28.882  50.688  1.00  0.00     0.000 C 
BRANCH   8   9
ATOM      9  C   UNL     1      53.308  29.682  51.570  1.00  0.00     0.000 C 
BRANCH   9  10
ATOM     10  C   UNL     1      53.793  29.951  53.010  1.00  0.00     0.000 C 
BRANCH  10  11
ATOM     11  C   UNL     1      55.231  29.485  53.307  1.00  0.00     0.000 C 
BRANCH  11  12
ATOM     12  C   UNL     1      56.266  30.619  53.451  1.00  0.00     0.000 C 
BRANCH  12  13
ATOM     13  C   UNL     1      57.549  30.234  54.209  1.00  0.00     0.006 C 
BRANCH  13  14
ATOM     14  C   UNL     1      58.824  30.750  53.528  1.00  0.00     0.053 C 
BRANCH  14  15
ATOM     15  C   UNL     1      59.092  32.168  53.921  1.00  0.00     0.041 C 
ATOM     16  O   UNL     1      59.684  32.947  53.126  1.00  0.00    -0.550 OA
ATOM     17  O   UNL     1      58.665  32.639  55.156  1.00  0.00    -0.550 OA
ENDBRANCH  14  15
ENDBRANCH  13  14
ENDBRANCH  12  13
ENDBRANCH  11  12
ENDBRANCH  10  11
ENDBRANCH   9  10
ENDBRANCH   8   9
ENDBRANCH   7   8
ENDBRANCH   6   7
ENDBRANCH   5   6
ENDBRANCH   4   5
ENDBRANCH   3   4
ENDBRANCH   2   3
ENDBRANCH   1   2
BRANCH   1  18
ATOM     18  C   UNL     1      59.201  28.609  50.038  1.00  0.00     0.000 C 
BRANCH  18  19
ATOM     19  C   UNL     1      60.256  27.614  50.550  1.00  0.00     0.000 C 
BRANCH  19  20
ATOM     20  C   UNL     1      60.380  26.393  49.617  1.00  0.00     0.000 C 
BRANCH  20  21
ATOM     21  C   UNL     1      60.594  25.067  50.374  1.00  0.00     0.000 C 
BRANCH  21  22
ATOM     22  C   UNL     1      62.072  24.692  50.597  1.00  0.00     0.000 C 
BRANCH  22  23
ATOM     23  C   UNL     1      62.807  25.489  51.692  1.00  0.00     0.000 C 
BRANCH  23  24
ATOM     24  C   UNL     1      63.965  26.380  51.194  1.00  0.00    -0.000 C 
BRANCH  24  25
ATOM     25  C   UNL     1      64.238  26.306  49.681  1.00  0.00    -0.000 C 
BRANCH  25  26
ATOM     26  C   UNL     1      63.759  27.557  48.927  1.00  0.00    -0.000 C 
BRANCH  26  27
ATOM     27  C   UNL     1      64.903  28.540  48.624  1.00  0.00    -0.000 C 
BRANCH  27  28
ATOM     28  C   UNL     1      64.672  29.933  49.233  1.00  0.00    -0.000 C 
BRANCH  28  29
ATOM     29  C   UNL     1      63.346  30.034  50.006  1.00  0.00    -0.000 C 
BRANCH  29  30
ATOM     30  C   UNL     1      63.531  30.275  51.521  1.00  0.00    -0.000 C 
BRANCH  30  31
ATOM     31  C   UNL     1      62.210  30.144  52.293  1.00  0.00    -0.003 C 
ATOM     32  C   UNL     1      62.257  28.974  53.273  1.00  0.00     0.004 C 
ENDBRANCH  30  31
ENDBRANCH  29  30
ENDBRANCH  28  29
ENDBRANCH  27  28
ENDBRANCH  26  27
ENDBRANCH  25  26
ENDBRANCH  24  25
ENDBRANCH  23  24
ENDBRANCH  22  23
ENDBRANCH  21  22
ENDBRANCH  20  21
ENDBRANCH  19  20
ENDBRANCH  18  19
ENDBRANCH   1  18
TORSDOF 28
ENDMDL
MODEL 8
REMARK VINA RESULT:    -2.999      3.143      6.825
REMARK INTER + INTRA:         -13.446
REMARK INTER:                  -7.593
REMARK INTRA:                  -5.853
REMARK UNBOUND:                -5.538
REMARK SMILES CCCCCCCCCCCCCCCCCCCCCCCCCCCCCC(=O)[O-]
REMARK SMILES IDX 16 1 17 2 18 3 19 4 20 5 21 6 22 7 23 8 24 9 25 10 26 11
REMARK SMILES IDX 27 12 28 13 29 14 30 15 31 16 32 17 15 18 14 19 13 20 12 21
REMARK SMILES IDX 11 22 10 23 9 24 8 25 7 26 6 27 5 28 4 29 3 30 2 31 1 32
REMARK H PARENT
REMARK Flexibility Score: inf
ROOT
ATOM      1  C   UNL     1      54.662  29.307  52.192  1.00  0.00     0.000 C 
ENDROOT
BRANCH   1   2
ATOM      2  C   UNL     1      54.509  28.936  50.705  1.00  0.00     0.000 C 
BRANCH   2   3
ATOM      3  C   UNL     1      53.095  28.450  50.311  1.00  0.00     0.000 C 
BRANCH   3   4
ATOM      4  C   UNL     1      53.040  27.047  49.674  1.00  0.00     0.000 C 
BRANCH   4   5
ATOM      5  C   UNL     1      53.841  25.996  50.460  1.00  0.00     0.000 C 
BRANCH   5   6
ATOM      6  C   UNL     1      55.027  25.434  49.655  1.00  0.00     0.000 C 
BRANCH   6   7
ATOM      7  C   UNL     1      56.336  25.287  50.455  1.00  0.00     0.000 C 
BRANCH   7   8
ATOM      8  C   UNL     1      56.160  25.195  51.983  1.00  0.00     0.000 C 
BRANCH   8   9
ATOM      9  C   UNL     1      57.471  25.187  52.795  1.00  0.00     0.000 C 
BRANCH   9  10
ATOM     10  C   UNL     1      57.292  25.188  54.328  1.00  0.00     0.000 C 
BRANCH  10  11
ATOM     11  C   UNL     1      57.947  26.376  55.056  1.00  0.00     0.000 C 
BRANCH  11  12
ATOM     12  C   UNL     1      57.094  27.005  56.177  1.00  0.00     0.000 C 
BRANCH  12  13
ATOM     13  C   UNL     1      57.342  28.505  56.417  1.00  0.00     0.006 C 
BRANCH  13  14
ATOM     14  C   UNL     1      56.045  29.322  56.479  1.00  0.00     0.053 C 
BRANCH  14  15
ATOM     15  C   UNL     1      56.129  30.362  57.551  1.00  0.00     0.041 C 
ATOM     16  O   UNL     1      56.754  31.437  57.348  1.00  0.00    -0.550 OA
ATOM     17  O   UNL     1      55.495  30.154  58.770  1.00  0.00    -0.550 OA
ENDBRANCH  14  15
ENDBRANCH  13  14
ENDBRANCH  12  13
ENDBRANCH  11  12
ENDBRANCH  10  11
ENDBRANCH   9  10
ENDBRANCH   8   9
ENDBRANCH   7   8
ENDBRANCH   6   7
ENDBRANCH   5   6
ENDBRANCH   4   5
ENDBRANCH   3   4
ENDBRANCH   2   3
ENDBRANCH   1   2
BRANCH   1  18
ATOM     18  C   UNL     1      55.911  28.678  52.846  1.00  0.00     0.000 C 
BRANCH  18  19
ATOM     19  C   UNL     1      57.110  29.640  52.861  1.00  0.00     0.000 C 
BRANCH  19  20
ATOM     20  C   UNL     1      58.358  28.999  52.221  1.00  0.00     0.000 C 
BRANCH  20  21
ATOM     21  C   UNL     1      58.069  28.323  50.866  1.00  0.00     0.000 C 
BRANCH  21  22
ATOM     22  C   UNL     1      59.093  28.647  49.761  1.00  0.00     0.000 C 
BRANCH  22  23
ATOM     23  C   UNL     1      60.202  27.599  49.548  1.00  0.00     0.000 C 
BRANCH  23  24
ATOM     24  C   UNL     1      59.738  26.128  49.605  1.00  0.00    -0.000 C 
BRANCH  24  25
ATOM     25  C   UNL     1      60.398  25.281  50.707  1.00  0.00    -0.000 C 
BRANCH  25  26
ATOM     26  C   UNL     1      61.902  25.563  50.856  1.00  0.00    -0.000 C 
BRANCH  26  27
ATOM     27  C   UNL     1      62.299  25.914  52.301  1.00  0.00    -0.000 C 
BRANCH  27  28
ATOM     28  C   UNL     1      61.195  26.668  53.059  1.00  0.00    -0.000 C 
BRANCH  28  29
ATOM     29  C   UNL     1      61.635  28.069  53.516  1.00  0.00    -0.000 C 
BRANCH  29  30
ATOM     30  C   UNL     1      62.513  28.808  52.482  1.00  0.00    -0.000 C 
BRANCH  30  31
ATOM     31  C   UNL     1      61.828  30.070  51.937  1.00  0.00    -0.003 C 
ATOM     32  C   UNL     1      62.407  30.472  50.583  1.00  0.00     0.004 C 
ENDBRANCH  30  31
ENDBRANCH  29  30
ENDBRANCH  28  29
ENDBRANCH  27  28
ENDBRANCH  26  27
ENDBRANCH  25  26
ENDBRANCH  24  25
ENDBRANCH  23  24
ENDBRANCH  22  23
ENDBRANCH  21  22
ENDBRANCH  20  21
ENDBRANCH  19  20
ENDBRANCH  18  19
ENDBRANCH   1  18
TORSDOF 28
ENDMDL
MODEL 9
REMARK VINA RESULT:    -2.907      3.719      7.541
REMARK INTER + INTRA:         -13.203
REMARK INTER:                  -7.258
REMARK INTRA:                  -5.945
REMARK UNBOUND:                -5.538
REMARK SMILES CCCCCCCCCCCCCCCCCCCCCCCCCCCCCC(=O)[O-]
REMARK SMILES IDX 16 1 17 2 18 3 19 4 20 5 21 6 22 7 23 8 24 9 25 10 26 11
REMARK SMILES IDX 27 12 28 13 29 14 30 15 31 16 32 17 15 18 14 19 13 20 12 21
REMARK SMILES IDX 11 22 10 23 9 24 8 25 7 26 6 27 5 28 4 29 3 30 2 31 1 32
REMARK H PARENT
REMARK Flexibility Score: inf
ROOT
ATOM      1  C   UNL     1      53.920  29.548  51.458  1.00  0.00     0.000 C 
ENDROOT
BRANCH   1   2
ATOM      2  C   UNL     1      54.477  30.149  52.762  1.00  0.00     0.000 C 
BRANCH   2   3
ATOM      3  C   UNL     1      55.636  29.343  53.391  1.00  0.00     0.000 C 
BRANCH   3   4
ATOM      4  C   UNL     1      56.941  30.134  53.609  1.00  0.00     0.000 C 
BRANCH   4   5
ATOM      5  C   UNL     1      58.178  29.428  53.028  1.00  0.00     0.000 C 
BRANCH   5   6
ATOM      6  C   UNL     1      58.334  27.988  53.548  1.00  0.00     0.000 C 
BRANCH   6   7
ATOM      7  C   UNL     1      59.791  27.502  53.672  1.00  0.00     0.000 C 
BRANCH   7   8
ATOM      8  C   UNL     1      60.042  26.062  53.185  1.00  0.00     0.000 C 
BRANCH   8   9
ATOM      9  C   UNL     1      60.157  25.003  54.300  1.00  0.00     0.000 C 
BRANCH   9  10
ATOM     10  C   UNL     1      60.033  23.539  53.829  1.00  0.00     0.000 C 
BRANCH  10  11
ATOM     11  C   UNL     1      58.601  23.089  53.482  1.00  0.00     0.000 C 
BRANCH  11  12
ATOM     12  C   UNL     1      57.497  23.683  54.380  1.00  0.00     0.000 C 
BRANCH  12  13
ATOM     13  C   UNL     1      56.515  24.626  53.662  1.00  0.00     0.006 C 
BRANCH  13  14
ATOM     14  C   UNL     1      55.174  23.955  53.333  1.00  0.00     0.053 C 
BRANCH  14  15
ATOM     15  C   UNL     1      54.078  24.971  53.277  1.00  0.00     0.041 C 
ATOM     16  O   UNL     1      54.234  26.105  53.806  1.00  0.00    -0.550 OA
ATOM     17  O   UNL     1      52.891  24.676  52.619  1.00  0.00    -0.550 OA
ENDBRANCH  14  15
ENDBRANCH  13  14
ENDBRANCH  12  13
ENDBRANCH  11  12
ENDBRANCH  10  11
ENDBRANCH   9  10
ENDBRANCH   8   9
ENDBRANCH   7   8
ENDBRANCH   6   7
ENDBRANCH   5   6
ENDBRANCH   4   5
ENDBRANCH   3   4
ENDBRANCH   2   3
ENDBRANCH   1   2
BRANCH   1  18
ATOM     18  C   UNL     1      54.926  28.622  50.740  1.00  0.00     0.000 C 
BRANCH  18  19
ATOM     19  C   UNL     1      54.295  27.282  50.326  1.00  0.00     0.000 C 
BRANCH  19  20
ATOM     20  C   UNL     1      55.362  26.181  50.165  1.00  0.00     0.000 C 
BRANCH  20  21
ATOM     21  C   UNL     1      56.749  26.595  50.696  1.00  0.00     0.000 C 
BRANCH  21  22
ATOM     22  C   UNL     1      57.888  25.621  50.330  1.00  0.00     0.000 C 
BRANCH  22  23
ATOM     23  C   UNL     1      59.188  26.273  49.822  1.00  0.00     0.000 C 
BRANCH  23  24
ATOM     24  C   UNL     1      59.190  27.817  49.809  1.00  0.00    -0.000 C 
BRANCH  24  25
ATOM     25  C   UNL     1      60.530  28.468  50.196  1.00  0.00    -0.000 C 
BRANCH  25  26
ATOM     26  C   UNL     1      61.733  27.540  49.965  1.00  0.00    -0.000 C 
BRANCH  26  27
ATOM     27  C   UNL     1      62.767  27.615  51.102  1.00  0.00    -0.000 C 
BRANCH  27  28
ATOM     28  C   UNL     1      63.228  26.230  51.585  1.00  0.00    -0.000 C 
BRANCH  28  29
ATOM     29  C   UNL     1      62.924  25.113  50.571  1.00  0.00    -0.000 C 
BRANCH  29  30
ATOM     30  C   UNL     1      63.375  23.712  51.042  1.00  0.00    -0.000 C 
BRANCH  30  31
ATOM     31  C   UNL     1      62.243  22.679  50.948  1.00  0.00    -0.003 C 
ATOM     32  C   UNL     1      61.003  23.276  50.290  1.00  0.00     0.004 C 
ENDBRANCH  30  31
ENDBRANCH  29  30
ENDBRANCH  28  29
ENDBRANCH  27  28
ENDBRANCH  26  27
ENDBRANCH  25  26
ENDBRANCH  24  25
ENDBRANCH  23  24
ENDBRANCH  22  23
ENDBRANCH  21  22
ENDBRANCH  20  21
ENDBRANCH  19  20
ENDBRANCH  18  19
ENDBRANCH   1  18
TORSDOF 28
ENDMDL
