MODEL 1
REMARK VINA RESULT:    -4.256      0.000      0.000
REMARK INTER + INTRA:          -5.392
REMARK INTER:                  -5.252
REMARK INTRA:                  -0.141
REMARK UNBOUND:                -0.141
REMARK SMILES CCCCCC(=O)[O-]
REMARK SMILES IDX 4 1 5 2 6 3 7 4 8 5 3 6 2 7 1 8
REMARK H PARENT
REMARK Flexibility Score: inf
ROOT
ATOM      1  C   UNL     1      -5.472 -32.084 -52.043  1.00  0.00     0.006 C 
ENDROOT
BRANCH   1   2
ATOM      2  C   UNL     1      -5.302 -30.691 -52.662  1.00  0.00     0.053 C 
BRANCH   2   3
ATOM      3  C   UNL     1      -5.052 -30.801 -54.134  1.00  0.00     0.041 C 
ATOM      4  O   UNL     1      -4.582 -31.862 -54.620  1.00  0.00    -0.550 OA
ATOM      5  O   UNL     1      -5.293 -29.712 -54.962  1.00  0.00    -0.550 OA
ENDBRANCH   2   3
ENDBRANCH   1   2
BRANCH   1   6
ATOM      6  C   UNL     1      -4.368 -32.425 -51.025  1.00  0.00     0.000 C 
BRANCH   6   7
ATOM      7  C   UNL     1      -3.148 -33.155 -51.615  1.00  0.00    -0.003 C 
ATOM      8  C   UNL     1      -2.258 -33.791 -50.549  1.00  0.00     0.004 C 
ENDBRANCH   6   7
ENDBRANCH   1   6
TORSDOF 4
ENDMDL
MODEL 2
REMARK VINA RESULT:    -4.225      1.721      2.687
REMARK INTER + INTRA:          -5.354
REMARK INTER:                  -5.244
REMARK INTRA:                  -0.109
REMARK UNBOUND:                -0.141
REMARK SMILES CCCCCC(=O)[O-]
REMARK SMILES IDX 4 1 5 2 6 3 7 4 8 5 3 6 2 7 1 8
REMARK H PARENT
REMARK Flexibility Score: inf
ROOT
ATOM      1  C   UNL     1      -4.834 -31.562 -52.129  1.00  0.00     0.006 C 
ENDROOT
BRANCH   1   2
ATOM      2  C   UNL     1      -5.251 -30.220 -52.745  1.00  0.00     0.053 C 
BRANCH   2   3
ATOM      3  C   UNL     1      -5.250 -30.309 -54.239  1.00  0.00     0.041 C 
ATOM      4  O   UNL     1      -4.875 -31.366 -54.811  1.00  0.00    -0.550 OA
ATOM      5  O   UNL     1      -5.616 -29.207 -55.000  1.00  0.00    -0.550 OA
ENDBRANCH   2   3
ENDBRANCH   1   2
BRANCH   1   6
ATOM      6  C   UNL     1      -5.699 -31.958 -50.918  1.00  0.00     0.000 C 
BRANCH   6   7
ATOM      7  C   UNL     1      -6.383 -30.782 -50.200  1.00  0.00    -0.003 C 
ATOM      8  C   UNL     1      -7.500 -31.226 -49.257  1.00  0.00     0.004 C 
ENDBRANCH   6   7
ENDBRANCH   1   6
TORSDOF 4
ENDMDL
MODEL 3
REMARK VINA RESULT:    -4.176      2.909      4.500
REMARK INTER + INTRA:          -5.293
REMARK INTER:                  -5.182
REMARK INTRA:                  -0.111
REMARK UNBOUND:                -0.141
REMARK SMILES CCCCCC(=O)[O-]
REMARK SMILES IDX 4 1 5 2 6 3 7 4 8 5 3 6 2 7 1 8
REMARK H PARENT
REMARK Flexibility Score: inf
ROOT
ATOM      1  C   UNL     1      -4.419 -32.466 -50.860  1.00  0.00     0.006 C 
ENDROOT
BRANCH   1   2
ATOM      2  C   UNL     1      -3.175 -32.865 -51.664  1.00  0.00     0.053 C 
BRANCH   2   3
ATOM      3  C   UNL     1      -1.960 -32.846 -50.790  1.00  0.00     0.041 C 
ATOM      4  O   UNL     1      -1.143 -31.891 -50.862  1.00  0.00    -0.550 OA
ATOM      5  O   UNL     1      -1.705 -33.907 -49.932  1.00  0.00    -0.550 OA
ENDBRANCH   2   3
ENDBRANCH   1   2
BRANCH   1   6
ATOM      6  C   UNL     1      -5.584 -32.002 -51.752  1.00  0.00     0.000 C 
BRANCH   6   7
ATOM      7  C   UNL     1      -5.237 -31.854 -53.244  1.00  0.00    -0.003 C 
ATOM      8  C   UNL     1      -5.413 -30.427 -53.761  1.00  0.00     0.004 C 
ENDBRANCH   6   7
ENDBRANCH   1   6
TORSDOF 4
ENDMDL
MODEL 4
REMARK VINA RESULT:    -4.129      2.435      3.593
REMARK INTER + INTRA:          -5.236
REMARK INTER:                  -5.193
REMARK INTRA:                  -0.043
REMARK UNBOUND:                -0.141
REMARK SMILES CCCCCC(=O)[O-]
REMARK SMILES IDX 4 1 5 2 6 3 7 4 8 5 3 6 2 7 1 8
REMARK H PARENT
REMARK Flexibility Score: inf
ROOT
ATOM      1  C   UNL     1      -5.599 -30.865 -51.448  1.00  0.00     0.006 C 
ENDROOT
BRANCH   1   2
ATOM      2  C   UNL     1      -5.239 -32.039 -52.368  1.00  0.00     0.053 C 
BRANCH   2   3
ATOM      3  C   UNL     1      -4.376 -31.571 -53.498  1.00  0.00     0.041 C 
ATOM      4  O   UNL     1      -4.874 -30.908 -54.443  1.00  0.00    -0.550 OA
ATOM      5  O   UNL     1      -3.030 -31.912 -53.530  1.00  0.00    -0.550 OA
ENDBRANCH   2   3
ENDBRANCH   1   2
BRANCH   1   6
ATOM      6  C   UNL     1      -6.372 -31.305 -50.192  1.00  0.00     0.000 C 
BRANCH   6   7
ATOM      7  C   UNL     1      -7.052 -30.161 -49.418  1.00  0.00    -0.003 C 
ATOM      8  C   UNL     1      -8.287 -30.615 -48.642  1.00  0.00     0.004 C 
ENDBRANCH   6   7
ENDBRANCH   1   6
TORSDOF 4
ENDMDL
MODEL 5
REMARK VINA RESULT:    -4.112      3.902      4.580
REMARK INTER + INTRA:          -5.215
REMARK INTER:                  -5.057
REMARK INTRA:                  -0.158
REMARK UNBOUND:                -0.141
REMARK SMILES CCCCCC(=O)[O-]
REMARK SMILES IDX 4 1 5 2 6 3 7 4 8 5 3 6 2 7 1 8
REMARK H PARENT
REMARK Flexibility Score: inf
ROOT
ATOM      1  C   UNL     1      -7.327 -30.001 -49.269  1.00  0.00     0.006 C 
ENDROOT
BRANCH   1   2
ATOM      2  C   UNL     1      -6.458 -28.865 -48.717  1.00  0.00     0.053 C 
BRANCH   2   3
ATOM      3  C   UNL     1      -6.209 -27.835 -49.774  1.00  0.00     0.041 C 
ATOM      4  O   UNL     1      -6.741 -26.698 -49.689  1.00  0.00    -0.550 OA
ATOM      5  O   UNL     1      -5.430 -28.150 -50.880  1.00  0.00    -0.550 OA
ENDBRANCH   2   3
ENDBRANCH   1   2
BRANCH   1   6
ATOM      6  C   UNL     1      -6.554 -31.321 -49.433  1.00  0.00     0.000 C 
BRANCH   6   7
ATOM      7  C   UNL     1      -6.052 -31.604 -50.861  1.00  0.00    -0.003 C 
ATOM      8  C   UNL     1      -4.701 -32.315 -50.890  1.00  0.00     0.004 C 
ENDBRANCH   6   7
ENDBRANCH   1   6
TORSDOF 4
ENDMDL
MODEL 6
REMARK VINA RESULT:    -4.044      9.078     10.362
REMARK INTER + INTRA:          -5.131
REMARK INTER:                  -4.985
REMARK INTRA:                  -0.146
REMARK UNBOUND:                -0.141
REMARK SMILES CCCCCC(=O)[O-]
REMARK SMILES IDX 4 1 5 2 6 3 7 4 8 5 3 6 2 7 1 8
REMARK H PARENT
REMARK Flexibility Score: inf
ROOT
ATOM      1  C   UNL     1      -5.891 -42.008 -48.225  1.00  0.00     0.006 C 
ENDROOT
BRANCH   1   2
ATOM      2  C   UNL     1      -5.221 -40.634 -48.346  1.00  0.00     0.053 C 
BRANCH   2   3
ATOM      3  C   UNL     1      -5.263 -40.155 -49.763  1.00  0.00     0.041 C 
ATOM      4  O   UNL     1      -4.474 -40.634 -50.618  1.00  0.00    -0.550 OA
ATOM      5  O   UNL     1      -6.141 -39.142 -50.128  1.00  0.00    -0.550 OA
ENDBRANCH   2   3
ENDBRANCH   1   2
BRANCH   1   6
ATOM      6  C   UNL     1      -7.114 -41.998 -47.290  1.00  0.00     0.000 C 
BRANCH   6   7
ATOM      7  C   UNL     1      -7.669 -40.599 -46.967  1.00  0.00    -0.003 C 
ATOM      8  C   UNL     1      -9.187 -40.511 -47.108  1.00  0.00     0.004 C 
ENDBRANCH   6   7
ENDBRANCH   1   6
TORSDOF 4
ENDMDL
MODEL 7
REMARK VINA RESULT:    -4.033      3.646      4.606
REMARK INTER + INTRA:          -5.117
REMARK INTER:                  -5.030
REMARK INTRA:                  -0.088
REMARK UNBOUND:                -0.141
REMARK SMILES CCCCCC(=O)[O-]
REMARK SMILES IDX 4 1 5 2 6 3 7 4 8 5 3 6 2 7 1 8
REMARK H PARENT
REMARK Flexibility Score: inf
ROOT
ATOM      1  C   UNL     1      -5.731 -30.819 -51.084  1.00  0.00     0.006 C 
ENDROOT
BRANCH   1   2
ATOM      2  C   UNL     1      -6.767 -31.237 -50.034  1.00  0.00     0.053 C 
BRANCH   2   3
ATOM      3  C   UNL     1      -7.406 -30.030 -49.421  1.00  0.00     0.041 C 
ATOM      4  O   UNL     1      -8.401 -30.158 -48.661  1.00  0.00    -0.550 OA
ATOM      5  O   UNL     1      -6.933 -28.762 -49.729  1.00  0.00    -0.550 OA
ENDBRANCH   2   3
ENDBRANCH   1   2
BRANCH   1   6
ATOM      6  C   UNL     1      -5.264 -31.991 -51.965  1.00  0.00     0.000 C 
BRANCH   6   7
ATOM      7  C   UNL     1      -5.317 -31.723 -53.480  1.00  0.00    -0.003 C 
ATOM      8  C   UNL     1      -5.426 -30.238 -53.820  1.00  0.00     0.004 C 
ENDBRANCH   6   7
ENDBRANCH   1   6
TORSDOF 4
ENDMDL
MODEL 8
REMARK VINA RESULT:    -4.015      3.193      4.426
REMARK INTER + INTRA:          -5.095
REMARK INTER:                  -4.991
REMARK INTRA:                  -0.104
REMARK UNBOUND:                -0.141
REMARK SMILES CCCCCC(=O)[O-]
REMARK SMILES IDX 4 1 5 2 6 3 7 4 8 5 3 6 2 7 1 8
REMARK H PARENT
REMARK Flexibility Score: inf
ROOT
ATOM      1  C   UNL     1      -3.481 -32.295 -52.426  1.00  0.00     0.006 C 
ENDROOT
BRANCH   1   2
ATOM      2  C   UNL     1      -2.385 -33.349 -52.230  1.00  0.00     0.053 C 
BRANCH   2   3
ATOM      3  C   UNL     1      -1.612 -33.073 -50.979  1.00  0.00     0.041 C 
ATOM      4  O   UNL     1      -1.628 -33.899 -50.029  1.00  0.00    -0.550 OA
ATOM      5  O   UNL     1      -0.913 -31.881 -50.843  1.00  0.00    -0.550 OA
ENDBRANCH   2   3
ENDBRANCH   1   2
BRANCH   1   6
ATOM      6  C   UNL     1      -4.584 -32.372 -51.355  1.00  0.00     0.000 C 
BRANCH   6   7
ATOM      7  C   UNL     1      -5.618 -31.233 -51.409  1.00  0.00    -0.003 C 
ATOM      8  C   UNL     1      -6.509 -31.175 -50.170  1.00  0.00     0.004 C 
ENDBRANCH   6   7
ENDBRANCH   1   6
TORSDOF 4
ENDMDL
MODEL 9
REMARK VINA RESULT:    -3.836      9.521     10.362
REMARK INTER + INTRA:          -4.874
REMARK INTER:                  -4.785
REMARK INTRA:                  -0.089
REMARK UNBOUND:                -0.141
REMARK SMILES CCCCCC(=O)[O-]
REMARK SMILES IDX 4 1 5 2 6 3 7 4 8 5 3 6 2 7 1 8
REMARK H PARENT
REMARK Flexibility Score: inf
ROOT
ATOM      1  C   UNL     1      -6.261 -40.766 -49.326  1.00  0.00     0.006 C 
ENDROOT
BRANCH   1   2
ATOM      2  C   UNL     1      -6.357 -41.832 -50.424  1.00  0.00     0.053 C 
BRANCH   2   3
ATOM      3  C   UNL     1      -6.857 -41.226 -51.698  1.00  0.00     0.041 C 
ATOM      4  O   UNL     1      -6.443 -40.097 -52.068  1.00  0.00    -0.550 OA
ATOM      5  O   UNL     1      -7.818 -41.888 -52.451  1.00  0.00    -0.550 OA
ENDBRANCH   2   3
ENDBRANCH   1   2
BRANCH   1   6
ATOM      6  C   UNL     1      -6.024 -41.366 -47.928  1.00  0.00     0.000 C 
BRANCH   6   7
ATOM      7  C   UNL     1      -7.288 -41.502 -47.060  1.00  0.00    -0.003 C 
ATOM      8  C   UNL     1      -8.184 -40.266 -47.110  1.00  0.00     0.004 C 
ENDBRANCH   6   7
ENDBRANCH   1   6
TORSDOF 4
ENDMDL
