MODEL 1
REMARK VINA RESULT:    -4.903      0.000      0.000
REMARK INTER + INTRA:          -8.062
REMARK INTER:                  -7.483
REMARK INTRA:                  -0.579
REMARK UNBOUND:                -0.579
REMARK SMILES O=C([O-])CCCCCCCCC(=O)[O-]
REMARK SMILES IDX 7 1 6 2 5 3 4 4 2 5 1 6 3 7 8 8 9 9 10 10 11 11 12 12 13 13
REMARK SMILES IDX 14 14
REMARK H PARENT
REMARK Flexibility Score: inf
ROOT
ATOM      1  C   UNL     1      63.686 -27.447  -1.549  1.00  0.00     0.000 C 
ENDROOT
BRANCH   1   2
ATOM      2  C   UNL     1      63.130 -28.880  -1.421  1.00  0.00     0.000 C 
BRANCH   2   3
ATOM      3  C   UNL     1      62.071 -29.077  -0.318  1.00  0.00     0.006 C 
BRANCH   3   4
ATOM      4  C   UNL     1      60.619 -29.069  -0.823  1.00  0.00     0.053 C 
BRANCH   4   5
ATOM      5  C   UNL     1      59.656 -29.512   0.234  1.00  0.00     0.041 C 
ATOM      6  O   UNL     1      59.616 -28.917   1.343  1.00  0.00    -0.550 OA
ATOM      7  O   UNL     1      58.827 -30.602   0.008  1.00  0.00    -0.550 OA
ENDBRANCH   4   5
ENDBRANCH   3   4
ENDBRANCH   2   3
ENDBRANCH   1   2
BRANCH   1   8
ATOM      8  C   UNL     1      63.613 -26.838  -2.961  1.00  0.00     0.000 C 
BRANCH   8   9
ATOM      9  C   UNL     1      62.622 -25.666  -3.056  1.00  0.00     0.000 C 
BRANCH   9  10
ATOM     10  C   UNL     1      61.153 -26.129  -3.068  1.00  0.00     0.006 C 
BRANCH  10  11
ATOM     11  C   UNL     1      60.127 -24.987  -3.143  1.00  0.00     0.053 C 
BRANCH  11  12
ATOM     12  C   UNL     1      59.891 -24.533  -4.551  1.00  0.00     0.041 C 
ATOM     13  O   UNL     1      59.440 -23.380  -4.778  1.00  0.00    -0.550 OA
ATOM     14  O   UNL     1      60.201 -25.372  -5.614  1.00  0.00    -0.550 OA
ENDBRANCH  11  12
ENDBRANCH  10  11
ENDBRANCH   9  10
ENDBRANCH   8   9
ENDBRANCH   1   8
TORSDOF 9
ENDMDL
MODEL 2
REMARK VINA RESULT:    -4.819      1.035      1.809
REMARK INTER + INTRA:          -7.934
REMARK INTER:                  -7.166
REMARK INTRA:                  -0.768
REMARK UNBOUND:                -0.579
REMARK SMILES O=C([O-])CCCCCCCCC(=O)[O-]
REMARK SMILES IDX 7 1 6 2 5 3 4 4 2 5 1 6 3 7 8 8 9 9 10 10 11 11 12 12 13 13
REMARK SMILES IDX 14 14
REMARK H PARENT
REMARK Flexibility Score: inf
ROOT
ATOM      1  C   UNL     1      62.981 -28.807  -1.570  1.00  0.00     0.000 C 
ENDROOT
BRANCH   1   2
ATOM      2  C   UNL     1      61.655 -28.854  -0.784  1.00  0.00     0.000 C 
BRANCH   2   3
ATOM      3  C   UNL     1      60.383 -28.651  -1.631  1.00  0.00     0.006 C 
BRANCH   3   4
ATOM      4  C   UNL     1      59.102 -28.433  -0.809  1.00  0.00     0.053 C 
BRANCH   4   5
ATOM      5  C   UNL     1      58.961 -29.444   0.287  1.00  0.00     0.041 C 
ATOM      6  O   UNL     1      58.698 -30.644   0.012  1.00  0.00    -0.550 OA
ATOM      7  O   UNL     1      59.086 -29.054   1.614  1.00  0.00    -0.550 OA
ENDBRANCH   4   5
ENDBRANCH   3   4
ENDBRANCH   2   3
ENDBRANCH   1   2
BRANCH   1   8
ATOM      8  C   UNL     1      63.676 -27.434  -1.605  1.00  0.00     0.000 C 
BRANCH   8   9
ATOM      9  C   UNL     1      63.469 -26.693  -2.937  1.00  0.00     0.000 C 
BRANCH   9  10
ATOM     10  C   UNL     1      62.361 -25.627  -2.859  1.00  0.00     0.006 C 
BRANCH  10  11
ATOM     11  C   UNL     1      61.187 -25.857  -3.824  1.00  0.00     0.053 C 
BRANCH  11  12
ATOM     12  C   UNL     1      60.012 -24.985  -3.498  1.00  0.00     0.041 C 
ATOM     13  O   UNL     1      59.306 -25.227  -2.484  1.00  0.00    -0.550 OA
ATOM     14  O   UNL     1      59.718 -23.887  -4.295  1.00  0.00    -0.550 OA
ENDBRANCH  11  12
ENDBRANCH  10  11
ENDBRANCH   9  10
ENDBRANCH   8   9
ENDBRANCH   1   8
TORSDOF 9
ENDMDL
MODEL 3
REMARK VINA RESULT:    -4.779      0.723      5.684
REMARK INTER + INTRA:          -7.873
REMARK INTER:                  -7.268
REMARK INTRA:                  -0.605
REMARK UNBOUND:                -0.579
REMARK SMILES O=C([O-])CCCCCCCCC(=O)[O-]
REMARK SMILES IDX 7 1 6 2 5 3 4 4 2 5 1 6 3 7 8 8 9 9 10 10 11 11 12 12 13 13
REMARK SMILES IDX 14 14
REMARK H PARENT
REMARK Flexibility Score: inf
ROOT
ATOM      1  C   UNL     1      63.540 -26.942  -2.035  1.00  0.00     0.000 C 
ENDROOT
BRANCH   1   2
ATOM      2  C   UNL     1      62.759 -25.877  -2.832  1.00  0.00     0.000 C 
BRANCH   2   3
ATOM      3  C   UNL     1      61.278 -26.213  -3.099  1.00  0.00     0.006 C 
BRANCH   3   4
ATOM      4  C   UNL     1      60.345 -24.992  -3.126  1.00  0.00     0.053 C 
BRANCH   4   5
ATOM      5  C   UNL     1      59.989 -24.590  -4.524  1.00  0.00     0.041 C 
ATOM      6  O   UNL     1      59.575 -23.425  -4.761  1.00  0.00    -0.550 OA
ATOM      7  O   UNL     1      60.081 -25.511  -5.558  1.00  0.00    -0.550 OA
ENDBRANCH   4   5
ENDBRANCH   3   4
ENDBRANCH   2   3
ENDBRANCH   1   2
BRANCH   1   8
ATOM      8  C   UNL     1      62.847 -28.312  -1.917  1.00  0.00     0.000 C 
BRANCH   8   9
ATOM      9  C   UNL     1      62.907 -28.890  -0.493  1.00  0.00     0.000 C 
BRANCH   9  10
ATOM     10  C   UNL     1      61.513 -29.084   0.130  1.00  0.00     0.006 C 
BRANCH  10  11
ATOM     11  C   UNL     1      60.354 -29.046  -0.879  1.00  0.00     0.053 C 
BRANCH  11  12
ATOM     12  C   UNL     1      59.100 -29.644  -0.318  1.00  0.00     0.041 C 
ATOM     13  O   UNL     1      59.157 -30.424   0.670  1.00  0.00    -0.550 OA
ATOM     14  O   UNL     1      57.866 -29.316  -0.865  1.00  0.00    -0.550 OA
ENDBRANCH  11  12
ENDBRANCH  10  11
ENDBRANCH   9  10
ENDBRANCH   8   9
ENDBRANCH   1   8
TORSDOF 9
ENDMDL
MODEL 4
REMARK VINA RESULT:    -4.730      1.465      5.029
REMARK INTER + INTRA:          -7.798
REMARK INTER:                  -7.011
REMARK INTRA:                  -0.787
REMARK UNBOUND:                -0.579
REMARK SMILES O=C([O-])CCCCCCCCC(=O)[O-]
REMARK SMILES IDX 7 1 6 2 5 3 4 4 2 5 1 6 3 7 8 8 9 9 10 10 11 11 12 12 13 13
REMARK SMILES IDX 14 14
REMARK H PARENT
REMARK Flexibility Score: inf
ROOT
ATOM      1  C   UNL     1      63.620 -27.728  -1.427  1.00  0.00     0.000 C 
ENDROOT
BRANCH   1   2
ATOM      2  C   UNL     1      63.402 -26.982  -2.760  1.00  0.00     0.000 C 
BRANCH   2   3
ATOM      3  C   UNL     1      62.377 -25.831  -2.707  1.00  0.00     0.006 C 
BRANCH   3   4
ATOM      4  C   UNL     1      61.385 -25.812  -3.880  1.00  0.00     0.053 C 
BRANCH   4   5
ATOM      5  C   UNL     1      59.966 -25.713  -3.412  1.00  0.00     0.041 C 
ATOM      6  O   UNL     1      59.698 -25.152  -2.317  1.00  0.00    -0.550 OA
ATOM      7  O   UNL     1      58.943 -26.271  -4.167  1.00  0.00    -0.550 OA
ENDBRANCH   4   5
ENDBRANCH   3   4
ENDBRANCH   2   3
ENDBRANCH   1   2
BRANCH   1   8
ATOM      8  C   UNL     1      62.871 -29.066  -1.294  1.00  0.00     0.000 C 
BRANCH   8   9
ATOM      9  C   UNL     1      61.545 -28.936  -0.526  1.00  0.00     0.000 C 
BRANCH   9  10
ATOM     10  C   UNL     1      60.330 -28.779  -1.457  1.00  0.00     0.006 C 
BRANCH  10  11
ATOM     11  C   UNL     1      59.054 -28.277  -0.762  1.00  0.00     0.053 C 
BRANCH  11  12
ATOM     12  C   UNL     1      58.061 -29.377  -0.546  1.00  0.00     0.041 C 
ATOM     13  O   UNL     1      58.421 -30.459  -0.010  1.00  0.00    -0.550 OA
ATOM     14  O   UNL     1      56.732 -29.196  -0.905  1.00  0.00    -0.550 OA
ENDBRANCH  11  12
ENDBRANCH  10  11
ENDBRANCH   9  10
ENDBRANCH   8   9
ENDBRANCH   1   8
TORSDOF 9
ENDMDL
MODEL 5
REMARK VINA RESULT:    -4.637      1.780      2.229
REMARK INTER + INTRA:          -7.656
REMARK INTER:                  -6.916
REMARK INTRA:                  -0.740
REMARK UNBOUND:                -0.579
REMARK SMILES O=C([O-])CCCCCCCCC(=O)[O-]
REMARK SMILES IDX 7 1 6 2 5 3 4 4 2 5 1 6 3 7 8 8 9 9 10 10 11 11 12 12 13 13
REMARK SMILES IDX 14 14
REMARK H PARENT
REMARK Flexibility Score: inf
ROOT
ATOM      1  C   UNL     1      63.441 -26.831  -2.990  1.00  0.00     0.000 C 
ENDROOT
BRANCH   1   2
ATOM      2  C   UNL     1      63.628 -27.443  -1.587  1.00  0.00     0.000 C 
BRANCH   2   3
ATOM      3  C   UNL     1      62.824 -28.732  -1.321  1.00  0.00     0.006 C 
BRANCH   3   4
ATOM      4  C   UNL     1      61.310 -28.592  -1.543  1.00  0.00     0.053 C 
BRANCH   4   5
ATOM      5  C   UNL     1      60.523 -29.109  -0.379  1.00  0.00     0.041 C 
ATOM      6  O   UNL     1      59.332 -29.488  -0.538  1.00  0.00    -0.550 OA
ATOM      7  O   UNL     1      61.091 -29.139   0.888  1.00  0.00    -0.550 OA
ENDBRANCH   4   5
ENDBRANCH   3   4
ENDBRANCH   2   3
ENDBRANCH   1   2
BRANCH   1   8
ATOM      8  C   UNL     1      62.594 -25.547  -3.038  1.00  0.00     0.000 C 
BRANCH   8   9
ATOM      9  C   UNL     1      61.376 -25.669  -3.970  1.00  0.00     0.000 C 
BRANCH   9  10
ATOM     10  C   UNL     1      60.136 -24.936  -3.428  1.00  0.00     0.006 C 
BRANCH  10  11
ATOM     11  C   UNL     1      59.379 -25.693  -2.326  1.00  0.00     0.053 C 
BRANCH  11  12
ATOM     12  C   UNL     1      58.253 -26.512  -2.877  1.00  0.00     0.041 C 
ATOM     13  O   UNL     1      57.065 -26.106  -2.776  1.00  0.00    -0.550 OA
ATOM     14  O   UNL     1      58.517 -27.708  -3.533  1.00  0.00    -0.550 OA
ENDBRANCH  11  12
ENDBRANCH  10  11
ENDBRANCH   9  10
ENDBRANCH   8   9
ENDBRANCH   1   8
TORSDOF 9
ENDMDL
MODEL 6
REMARK VINA RESULT:    -4.617      1.779      4.915
REMARK INTER + INTRA:          -7.625
REMARK INTER:                  -6.854
REMARK INTRA:                  -0.771
REMARK UNBOUND:                -0.579
REMARK SMILES O=C([O-])CCCCCCCCC(=O)[O-]
REMARK SMILES IDX 7 1 6 2 5 3 4 4 2 5 1 6 3 7 8 8 9 9 10 10 11 11 12 12 13 13
REMARK SMILES IDX 14 14
REMARK H PARENT
REMARK Flexibility Score: inf
ROOT
ATOM      1  C   UNL     1      62.607 -25.882  -2.775  1.00  0.00     0.000 C 
ENDROOT
BRANCH   1   2
ATOM      2  C   UNL     1      61.474 -25.696  -3.804  1.00  0.00     0.000 C 
BRANCH   2   3
ATOM      3  C   UNL     1      60.220 -24.971  -3.275  1.00  0.00     0.006 C 
BRANCH   3   4
ATOM      4  C   UNL     1      59.361 -25.808  -2.314  1.00  0.00     0.053 C 
BRANCH   4   5
ATOM      5  C   UNL     1      58.365 -26.654  -3.045  1.00  0.00     0.041 C 
ATOM      6  O   UNL     1      57.209 -26.212  -3.279  1.00  0.00    -0.550 OA
ATOM      7  O   UNL     1      58.701 -27.943  -3.439  1.00  0.00    -0.550 OA
ENDBRANCH   4   5
ENDBRANCH   3   4
ENDBRANCH   2   3
ENDBRANCH   1   2
BRANCH   1   8
ATOM      8  C   UNL     1      63.247 -27.282  -2.748  1.00  0.00     0.000 C 
BRANCH   8   9
ATOM      9  C   UNL     1      63.631 -27.736  -1.330  1.00  0.00     0.000 C 
BRANCH   9  10
ATOM     10  C   UNL     1      62.785 -28.924  -0.836  1.00  0.00     0.006 C 
BRANCH  10  11
ATOM     11  C   UNL     1      61.303 -28.862  -1.241  1.00  0.00     0.053 C 
BRANCH  11  12
ATOM     12  C   UNL     1      60.392 -28.968  -0.056  1.00  0.00     0.041 C 
ATOM     13  O   UNL     1      60.855 -29.277   1.074  1.00  0.00    -0.550 OA
ATOM     14  O   UNL     1      59.037 -28.693  -0.193  1.00  0.00    -0.550 OA
ENDBRANCH  11  12
ENDBRANCH  10  11
ENDBRANCH   9  10
ENDBRANCH   8   9
ENDBRANCH   1   8
TORSDOF 9
ENDMDL
MODEL 7
REMARK VINA RESULT:    -4.570      1.161      5.961
REMARK INTER + INTRA:          -7.554
REMARK INTER:                  -7.081
REMARK INTRA:                  -0.472
REMARK UNBOUND:                -0.579
REMARK SMILES O=C([O-])CCCCCCCCC(=O)[O-]
REMARK SMILES IDX 7 1 6 2 5 3 4 4 2 5 1 6 3 7 8 8 9 9 10 10 11 11 12 12 13 13
REMARK SMILES IDX 14 14
REMARK H PARENT
REMARK Flexibility Score: inf
ROOT
ATOM      1  C   UNL     1      62.841 -25.878  -2.750  1.00  0.00     0.000 C 
ENDROOT
BRANCH   1   2
ATOM      2  C   UNL     1      61.365 -25.588  -3.092  1.00  0.00     0.000 C 
BRANCH   2   3
ATOM      3  C   UNL     1      61.050 -25.478  -4.598  1.00  0.00     0.006 C 
BRANCH   3   4
ATOM      4  C   UNL     1      59.557 -25.591  -4.943  1.00  0.00     0.053 C 
BRANCH   4   5
ATOM      5  C   UNL     1      59.015 -24.315  -5.509  1.00  0.00     0.041 C 
ATOM      6  O   UNL     1      59.216 -23.223  -4.915  1.00  0.00    -0.550 OA
ATOM      7  O   UNL     1      58.259 -24.335  -6.673  1.00  0.00    -0.550 OA
ENDBRANCH   4   5
ENDBRANCH   3   4
ENDBRANCH   2   3
ENDBRANCH   1   2
BRANCH   1   8
ATOM      8  C   UNL     1      63.225 -27.368  -2.712  1.00  0.00     0.000 C 
BRANCH   8   9
ATOM      9  C   UNL     1      63.603 -27.852  -1.302  1.00  0.00     0.000 C 
BRANCH   9  10
ATOM     10  C   UNL     1      62.682 -28.975  -0.791  1.00  0.00     0.006 C 
BRANCH  10  11
ATOM     11  C   UNL     1      61.211 -28.836  -1.215  1.00  0.00     0.053 C 
BRANCH  11  12
ATOM     12  C   UNL     1      60.275 -28.970  -0.054  1.00  0.00     0.041 C 
ATOM     13  O   UNL     1      60.723 -29.236   1.093  1.00  0.00    -0.550 OA
ATOM     14  O   UNL     1      58.912 -28.770  -0.231  1.00  0.00    -0.550 OA
ENDBRANCH  11  12
ENDBRANCH  10  11
ENDBRANCH   9  10
ENDBRANCH   8   9
ENDBRANCH   1   8
TORSDOF 9
ENDMDL
MODEL 8
REMARK VINA RESULT:    -4.563      2.606      3.866
REMARK INTER + INTRA:          -7.543
REMARK INTER:                  -6.768
REMARK INTRA:                  -0.776
REMARK UNBOUND:                -0.579
REMARK SMILES O=C([O-])CCCCCCCCC(=O)[O-]
REMARK SMILES IDX 7 1 6 2 5 3 4 4 2 5 1 6 3 7 8 8 9 9 10 10 11 11 12 12 13 13
REMARK SMILES IDX 14 14
REMARK H PARENT
REMARK Flexibility Score: inf
ROOT
ATOM      1  C   UNL     1      61.434 -25.477  -3.152  1.00  0.00     0.000 C 
ENDROOT
BRANCH   1   2
ATOM      2  C   UNL     1      62.898 -25.915  -2.948  1.00  0.00     0.000 C 
BRANCH   2   3
ATOM      3  C   UNL     1      63.087 -27.365  -2.457  1.00  0.00     0.006 C 
BRANCH   3   4
ATOM      4  C   UNL     1      61.811 -28.017  -1.902  1.00  0.00     0.053 C 
BRANCH   4   5
ATOM      5  C   UNL     1      62.077 -28.782  -0.642  1.00  0.00     0.041 C 
ATOM      6  O   UNL     1      61.119 -29.177   0.073  1.00  0.00    -0.550 OA
ATOM      7  O   UNL     1      63.383 -29.028  -0.239  1.00  0.00    -0.550 OA
ENDBRANCH   4   5
ENDBRANCH   3   4
ENDBRANCH   2   3
ENDBRANCH   1   2
BRANCH   1   8
ATOM      8  C   UNL     1      60.948 -25.471  -4.612  1.00  0.00     0.000 C 
BRANCH   8   9
ATOM      9  C   UNL     1      59.459 -25.833  -4.748  1.00  0.00     0.000 C 
BRANCH   9  10
ATOM     10  C   UNL     1      58.824 -26.252  -3.409  1.00  0.00     0.006 C 
BRANCH  10  11
ATOM     11  C   UNL     1      58.452 -27.741  -3.319  1.00  0.00     0.053 C 
BRANCH  11  12
ATOM     12  C   UNL     1      57.768 -28.072  -2.028  1.00  0.00     0.041 C 
ATOM     13  O   UNL     1      56.763 -28.832  -2.021  1.00  0.00    -0.550 OA
ATOM     14  O   UNL     1      58.259 -27.570  -0.831  1.00  0.00    -0.550 OA
ENDBRANCH  11  12
ENDBRANCH  10  11
ENDBRANCH   9  10
ENDBRANCH   8   9
ENDBRANCH   1   8
TORSDOF 9
ENDMDL
MODEL 9
REMARK VINA RESULT:    -4.442      1.782      5.239
REMARK INTER + INTRA:          -7.358
REMARK INTER:                  -6.819
REMARK INTRA:                  -0.539
REMARK UNBOUND:                -0.579
REMARK SMILES O=C([O-])CCCCCCCCC(=O)[O-]
REMARK SMILES IDX 7 1 6 2 5 3 4 4 2 5 1 6 3 7 8 8 9 9 10 10 11 11 12 12 13 13
REMARK SMILES IDX 14 14
REMARK H PARENT
REMARK Flexibility Score: inf
ROOT
ATOM      1  C   UNL     1      62.549 -29.170  -0.888  1.00  0.00     0.000 C 
ENDROOT
BRANCH   1   2
ATOM      2  C   UNL     1      63.447 -27.968  -1.247  1.00  0.00     0.000 C 
BRANCH   2   3
ATOM      3  C   UNL     1      63.264 -27.416  -2.675  1.00  0.00     0.006 C 
BRANCH   3   4
ATOM      4  C   UNL     1      62.874 -25.931  -2.735  1.00  0.00     0.053 C 
BRANCH   4   5
ATOM      5  C   UNL     1      61.476 -25.739  -3.236  1.00  0.00     0.041 C 
ATOM      6  O   UNL     1      60.500 -25.843  -2.446  1.00  0.00    -0.550 OA
ATOM      7  O   UNL     1      61.247 -25.481  -4.581  1.00  0.00    -0.550 OA
ENDBRANCH   4   5
ENDBRANCH   3   4
ENDBRANCH   2   3
ENDBRANCH   1   2
BRANCH   1   8
ATOM      8  C   UNL     1      61.041 -28.868  -0.832  1.00  0.00     0.000 C 
BRANCH   8   9
ATOM      9  C   UNL     1      60.409 -29.232   0.522  1.00  0.00     0.000 C 
BRANCH   9  10
ATOM     10  C   UNL     1      59.094 -30.020   0.372  1.00  0.00     0.006 C 
BRANCH  10  11
ATOM     11  C   UNL     1      58.035 -29.331  -0.503  1.00  0.00     0.053 C 
BRANCH  11  12
ATOM     12  C   UNL     1      57.619 -28.005   0.055  1.00  0.00     0.041 C 
ATOM     13  O   UNL     1      57.641 -26.977  -0.673  1.00  0.00    -0.550 OA
ATOM     14  O   UNL     1      57.177 -27.909   1.368  1.00  0.00    -0.550 OA
ENDBRANCH  11  12
ENDBRANCH  10  11
ENDBRANCH   9  10
ENDBRANCH   8   9
ENDBRANCH   1   8
TORSDOF 9
ENDMDL
