MODEL 1
REMARK VINA RESULT:    -4.082      0.000      0.000
REMARK INTER + INTRA:          -5.635
REMARK INTER:                  -5.155
REMARK INTRA:                  -0.479
REMARK UNBOUND:                -0.479
REMARK SMILES O=C(C=Cc1ccc(O)cc1)c1ccc(O)cc1O
REMARK SMILES IDX 4 1 3 2 5 3 6 4 7 5 8 6 11 7 10 8 9 9 2 11 1 12 12 13 18 14
REMARK SMILES IDX 13 15 17 16 14 17 15 18 19 19 16 21
REMARK H PARENT 9 10 19 20 16 22
REMARK Flexibility Score: inf
ROOT
ATOM      1  C   UNL     1     -15.751  -1.733  -5.971  1.00  0.00     0.012 C 
ATOM      2  C   UNL     1     -16.723  -2.590  -5.626  1.00  0.00     0.053 C 
ENDROOT
BRANCH   1   3
ATOM      3  C   UNL     1     -15.953  -0.581  -6.884  1.00  0.00    -0.025 A 
ATOM      4  C   UNL     1     -16.130  -0.831  -8.255  1.00  0.00     0.012 A 
ATOM      5  C   UNL     1     -16.314   0.225  -9.153  1.00  0.00     0.047 A 
ATOM      6  C   UNL     1     -16.314   1.545  -8.696  1.00  0.00     0.115 A 
ATOM      7  C   UNL     1     -15.939   0.756  -6.432  1.00  0.00     0.012 A 
ATOM      8  C   UNL     1     -16.123   1.808  -7.335  1.00  0.00     0.047 A 
BRANCH   6   9
ATOM      9  O   UNL     1     -16.499   2.586  -9.603  1.00  0.00    -0.508 OA
ATOM     10  H   UNL     1     -17.226   3.280  -9.470  1.00  0.00     0.293 HD
ENDBRANCH   6   9
ENDBRANCH   1   3
BRANCH   2  11
ATOM     11  C   UNL     1     -16.480  -3.736  -4.724  1.00  0.00     0.189 C 
ATOM     12  O   UNL     1     -16.128  -3.539  -3.529  1.00  0.00    -0.289 OA
BRANCH  11  13
ATOM     13  C   UNL     1     -16.678  -5.121  -5.206  1.00  0.00     0.064 A 
ATOM     14  C   UNL     1     -15.688  -5.802  -5.956  1.00  0.00     0.130 A 
ATOM     15  C   UNL     1     -17.868  -5.796  -4.876  1.00  0.00     0.020 A 
ATOM     16  C   UNL     1     -15.892  -7.138  -6.325  1.00  0.00     0.093 A 
ATOM     17  C   UNL     1     -18.065  -7.123  -5.264  1.00  0.00     0.047 A 
ATOM     18  C   UNL     1     -17.075  -7.799  -5.985  1.00  0.00     0.119 A 
BRANCH  14  19
ATOM     19  O   UNL     1     -14.508  -5.180  -6.373  1.00  0.00    -0.507 OA
ATOM     20  H   UNL     1     -14.464  -4.211  -6.658  1.00  0.00     0.293 HD
ENDBRANCH  14  19
BRANCH  18  21
ATOM     21  O   UNL     1     -17.257  -9.125  -6.370  1.00  0.00    -0.508 OA
ATOM     22  H   UNL     1     -17.098  -9.426  -7.325  1.00  0.00     0.293 HD
ENDBRANCH  18  21
ENDBRANCH  11  13
ENDBRANCH   2  11
TORSDOF 6
ENDMDL
MODEL 2
REMARK VINA RESULT:    -3.978      5.906      8.906
REMARK INTER + INTRA:          -5.504
REMARK INTER:                  -4.963
REMARK INTRA:                  -0.541
REMARK UNBOUND:                -0.479
REMARK SMILES O=C(C=Cc1ccc(O)cc1)c1ccc(O)cc1O
REMARK SMILES IDX 4 1 3 2 5 3 6 4 7 5 8 6 11 7 10 8 9 9 2 11 1 12 12 13 18 14
REMARK SMILES IDX 13 15 17 16 14 17 15 18 19 19 16 21
REMARK H PARENT 9 10 19 20 16 22
REMARK Flexibility Score: inf
ROOT
ATOM      1  C   UNL     1     -12.538  -5.768  -6.378  1.00  0.00     0.012 C 
ATOM      2  C   UNL     1     -11.305  -6.152  -6.737  1.00  0.00     0.053 C 
ENDROOT
BRANCH   1   3
ATOM      3  C   UNL     1     -13.715  -6.671  -6.380  1.00  0.00    -0.025 A 
ATOM      4  C   UNL     1     -15.000  -6.104  -6.406  1.00  0.00     0.012 A 
ATOM      5  C   UNL     1     -16.137  -6.917  -6.399  1.00  0.00     0.047 A 
ATOM      6  C   UNL     1     -16.009  -8.307  -6.354  1.00  0.00     0.115 A 
ATOM      7  C   UNL     1     -13.593  -8.076  -6.319  1.00  0.00     0.012 A 
ATOM      8  C   UNL     1     -14.734  -8.884  -6.311  1.00  0.00     0.047 A 
BRANCH   6   9
ATOM      9  O   UNL     1     -17.152  -9.103  -6.348  1.00  0.00    -0.508 OA
ATOM     10  H   UNL     1     -17.874  -8.997  -7.051  1.00  0.00     0.293 HD
ENDBRANCH   6   9
ENDBRANCH   1   3
BRANCH   2  11
ATOM     11  C   UNL     1     -10.157  -5.219  -6.737  1.00  0.00     0.189 C 
ATOM     12  O   UNL     1     -10.217  -4.140  -6.085  1.00  0.00    -0.289 OA
BRANCH  11  13
ATOM     13  C   UNL     1      -8.920  -5.557  -7.473  1.00  0.00     0.064 A 
ATOM     14  C   UNL     1      -7.685  -4.920  -7.195  1.00  0.00     0.130 A 
ATOM     15  C   UNL     1      -8.960  -6.568  -8.451  1.00  0.00     0.020 A 
ATOM     16  C   UNL     1      -6.526  -5.327  -7.868  1.00  0.00     0.093 A 
ATOM     17  C   UNL     1      -7.799  -6.953  -9.125  1.00  0.00     0.047 A 
ATOM     18  C   UNL     1      -6.578  -6.338  -8.831  1.00  0.00     0.119 A 
BRANCH  14  19
ATOM     19  O   UNL     1      -7.578  -3.867  -6.283  1.00  0.00    -0.507 OA
ATOM     20  H   UNL     1      -7.300  -3.995  -5.319  1.00  0.00     0.293 HD
ENDBRANCH  14  19
BRANCH  18  21
ATOM     21  O   UNL     1      -5.413  -6.719  -9.492  1.00  0.00    -0.508 OA
ATOM     22  H   UNL     1      -5.435  -7.085 -10.436  1.00  0.00     0.293 HD
ENDBRANCH  18  21
ENDBRANCH  11  13
ENDBRANCH   2  11
TORSDOF 6
ENDMDL
MODEL 3
REMARK VINA RESULT:    -3.709      1.048      1.992
REMARK INTER + INTRA:          -5.164
REMARK INTER:                  -4.548
REMARK INTRA:                  -0.616
REMARK UNBOUND:                -0.479
REMARK SMILES O=C(C=Cc1ccc(O)cc1)c1ccc(O)cc1O
REMARK SMILES IDX 4 1 3 2 5 3 6 4 7 5 8 6 11 7 10 8 9 9 2 11 1 12 12 13 18 14
REMARK SMILES IDX 13 15 17 16 14 17 15 18 19 19 16 21
REMARK H PARENT 9 10 19 20 16 22
REMARK Flexibility Score: inf
ROOT
ATOM      1  C   UNL     1     -15.780  -1.915  -5.703  1.00  0.00     0.012 C 
ATOM      2  C   UNL     1     -16.733  -2.845  -5.545  1.00  0.00     0.053 C 
ENDROOT
BRANCH   1   3
ATOM      3  C   UNL     1     -15.934  -0.714  -6.560  1.00  0.00    -0.025 A 
ATOM      4  C   UNL     1     -15.802   0.554  -5.973  1.00  0.00     0.012 A 
ATOM      5  C   UNL     1     -15.949   1.713  -6.741  1.00  0.00     0.047 A 
ATOM      6  C   UNL     1     -16.241   1.622  -8.104  1.00  0.00     0.115 A 
ATOM      7  C   UNL     1     -16.244  -0.798  -7.934  1.00  0.00     0.012 A 
ATOM      8  C   UNL     1     -16.391   0.364  -8.698  1.00  0.00     0.047 A 
BRANCH   6   9
ATOM      9  O   UNL     1     -16.385   2.786  -8.856  1.00  0.00    -0.508 OA
ATOM     10  H   UNL     1     -17.015   3.527  -8.569  1.00  0.00     0.293 HD
ENDBRANCH   6   9
ENDBRANCH   1   3
BRANCH   2  11
ATOM     11  C   UNL     1     -16.537  -4.037  -4.693  1.00  0.00     0.189 C 
ATOM     12  O   UNL     1     -16.461  -3.916  -3.439  1.00  0.00    -0.289 OA
BRANCH  11  13
ATOM     13  C   UNL     1     -16.462  -5.385  -5.299  1.00  0.00     0.064 A 
ATOM     14  C   UNL     1     -17.506  -6.331  -5.153  1.00  0.00     0.130 A 
ATOM     15  C   UNL     1     -15.339  -5.723  -6.077  1.00  0.00     0.020 A 
ATOM     16  C   UNL     1     -17.421  -7.567  -5.808  1.00  0.00     0.093 A 
ATOM     17  C   UNL     1     -15.261  -6.964  -6.713  1.00  0.00     0.047 A 
ATOM     18  C   UNL     1     -16.304  -7.887  -6.584  1.00  0.00     0.119 A 
BRANCH  14  19
ATOM     19  O   UNL     1     -18.622  -6.092  -4.348  1.00  0.00    -0.507 OA
ATOM     20  H   UNL     1     -18.649  -6.306  -3.360  1.00  0.00     0.293 HD
ENDBRANCH  14  19
BRANCH  18  21
ATOM     21  O   UNL     1     -16.240  -9.125  -7.219  1.00  0.00    -0.508 OA
ATOM     22  H   UNL     1     -16.997  -9.795  -7.152  1.00  0.00     0.293 HD
ENDBRANCH  18  21
ENDBRANCH  11  13
ENDBRANCH   2  11
TORSDOF 6
ENDMDL
MODEL 4
REMARK VINA RESULT:    -3.429      6.542      9.803
REMARK INTER + INTRA:          -4.811
REMARK INTER:                  -4.337
REMARK INTRA:                  -0.474
REMARK UNBOUND:                -0.479
REMARK SMILES O=C(C=Cc1ccc(O)cc1)c1ccc(O)cc1O
REMARK SMILES IDX 4 1 3 2 5 3 6 4 7 5 8 6 11 7 10 8 9 9 2 11 1 12 12 13 18 14
REMARK SMILES IDX 13 15 17 16 14 17 15 18 19 19 16 21
REMARK H PARENT 9 10 19 20 16 22
REMARK Flexibility Score: inf
ROOT
ATOM      1  C   UNL     1     -13.779  -8.548   0.631  1.00  0.00     0.012 C 
ATOM      2  C   UNL     1     -14.568  -8.925  -0.385  1.00  0.00     0.053 C 
ENDROOT
BRANCH   1   3
ATOM      3  C   UNL     1     -12.302  -8.691   0.624  1.00  0.00    -0.025 A 
ATOM      4  C   UNL     1     -11.624  -8.618  -0.604  1.00  0.00     0.012 A 
ATOM      5  C   UNL     1     -10.234  -8.757  -0.659  1.00  0.00     0.047 A 
ATOM      6  C   UNL     1      -9.503  -8.984   0.510  1.00  0.00     0.115 A 
ATOM      7  C   UNL     1     -11.559  -8.934   1.798  1.00  0.00     0.012 A 
ATOM      8  C   UNL     1     -10.169  -9.074   1.738  1.00  0.00     0.047 A 
BRANCH   6   9
ATOM      9  O   UNL     1      -8.118  -9.120   0.440  1.00  0.00    -0.508 OA
ATOM     10  H   UNL     1      -7.557  -8.518  -0.152  1.00  0.00     0.293 HD
ENDBRANCH   6   9
ENDBRANCH   1   3
BRANCH   2  11
ATOM     11  C   UNL     1     -16.039  -8.780  -0.337  1.00  0.00     0.189 C 
ATOM     12  O   UNL     1     -16.675  -9.102   0.705  1.00  0.00    -0.289 OA
BRANCH  11  13
ATOM     13  C   UNL     1     -16.774  -8.226  -1.496  1.00  0.00     0.064 A 
ATOM     14  C   UNL     1     -16.921  -6.831  -1.692  1.00  0.00     0.130 A 
ATOM     15  C   UNL     1     -17.307  -9.109  -2.452  1.00  0.00     0.020 A 
ATOM     16  C   UNL     1     -17.560  -6.354  -2.843  1.00  0.00     0.093 A 
ATOM     17  C   UNL     1     -17.956  -8.620  -3.589  1.00  0.00     0.047 A 
ATOM     18  C   UNL     1     -18.079  -7.242  -3.790  1.00  0.00     0.119 A 
BRANCH  14  19
ATOM     19  O   UNL     1     -16.472  -5.894  -0.757  1.00  0.00    -0.507 OA
ATOM     20  H   UNL     1     -16.323  -4.919  -0.976  1.00  0.00     0.293 HD
ENDBRANCH  14  19
BRANCH  18  21
ATOM     21  O   UNL     1     -18.717  -6.743  -4.923  1.00  0.00    -0.508 OA
ATOM     22  H   UNL     1     -18.807  -5.747  -5.086  1.00  0.00     0.293 HD
ENDBRANCH  18  21
ENDBRANCH  11  13
ENDBRANCH   2  11
TORSDOF 6
ENDMDL
MODEL 5
REMARK VINA RESULT:    -3.358      4.503      6.589
REMARK INTER + INTRA:          -4.721
REMARK INTER:                  -4.134
REMARK INTRA:                  -0.586
REMARK UNBOUND:                -0.479
REMARK SMILES O=C(C=Cc1ccc(O)cc1)c1ccc(O)cc1O
REMARK SMILES IDX 4 1 3 2 5 3 6 4 7 5 8 6 11 7 10 8 9 9 2 11 1 12 12 13 18 14
REMARK SMILES IDX 13 15 17 16 14 17 15 18 19 19 16 21
REMARK H PARENT 9 10 19 20 16 22
REMARK Flexibility Score: inf
ROOT
ATOM      1  C   UNL     1     -11.751  -4.542  -6.333  1.00  0.00     0.012 C 
ATOM      2  C   UNL     1     -12.868  -5.278  -6.431  1.00  0.00     0.053 C 
ENDROOT
BRANCH   1   3
ATOM      3  C   UNL     1     -10.406  -5.031  -6.724  1.00  0.00    -0.025 A 
ATOM      4  C   UNL     1      -9.335  -4.122  -6.729  1.00  0.00     0.012 A 
ATOM      5  C   UNL     1      -8.052  -4.536  -7.100  1.00  0.00     0.047 A 
ATOM      6  C   UNL     1      -7.822  -5.861  -7.481  1.00  0.00     0.115 A 
ATOM      7  C   UNL     1     -10.169  -6.363  -7.123  1.00  0.00     0.012 A 
ATOM      8  C   UNL     1      -8.885  -6.772  -7.494  1.00  0.00     0.047 A 
BRANCH   6   9
ATOM      9  O   UNL     1      -6.539  -6.258  -7.847  1.00  0.00    -0.508 OA
ATOM     10  H   UNL     1      -5.721  -5.728  -7.569  1.00  0.00     0.293 HD
ENDBRANCH   6   9
ENDBRANCH   1   3
BRANCH   2  11
ATOM     11  C   UNL     1     -14.190  -4.762  -6.017  1.00  0.00     0.189 C 
ATOM     12  O   UNL     1     -14.356  -3.527  -5.817  1.00  0.00    -0.289 OA
BRANCH  11  13
ATOM     13  C   UNL     1     -15.338  -5.683  -5.867  1.00  0.00     0.064 A 
ATOM     14  C   UNL     1     -16.487  -5.332  -5.115  1.00  0.00     0.130 A 
ATOM     15  C   UNL     1     -15.306  -6.928  -6.521  1.00  0.00     0.020 A 
ATOM     16  C   UNL     1     -17.578  -6.209  -5.064  1.00  0.00     0.093 A 
ATOM     17  C   UNL     1     -16.396  -7.799  -6.449  1.00  0.00     0.047 A 
ATOM     18  C   UNL     1     -17.536  -7.439  -5.725  1.00  0.00     0.119 A 
BRANCH  14  19
ATOM     19  O   UNL     1     -16.568  -4.142  -4.389  1.00  0.00    -0.507 OA
ATOM     20  H   UNL     1     -15.757  -3.605  -4.111  1.00  0.00     0.293 HD
ENDBRANCH  14  19
BRANCH  18  21
ATOM     21  O   UNL     1     -18.632  -8.296  -5.652  1.00  0.00    -0.508 OA
ATOM     22  H   UNL     1     -19.350  -8.300  -6.367  1.00  0.00     0.293 HD
ENDBRANCH  18  21
ENDBRANCH  11  13
ENDBRANCH   2  11
TORSDOF 6
ENDMDL
MODEL 6
REMARK VINA RESULT:    -3.132      4.992      7.719
REMARK INTER + INTRA:          -4.436
REMARK INTER:                  -4.003
REMARK INTRA:                  -0.432
REMARK UNBOUND:                -0.479
REMARK SMILES O=C(C=Cc1ccc(O)cc1)c1ccc(O)cc1O
REMARK SMILES IDX 4 1 3 2 5 3 6 4 7 5 8 6 11 7 10 8 9 9 2 11 1 12 12 13 18 14
REMARK SMILES IDX 13 15 17 16 14 17 15 18 19 19 16 21
REMARK H PARENT 9 10 19 20 16 22
REMARK Flexibility Score: inf
ROOT
ATOM      1  C   UNL     1     -13.520  -4.995  -6.058  1.00  0.00     0.012 C 
ATOM      2  C   UNL     1     -12.403  -5.667  -6.371  1.00  0.00     0.053 C 
ENDROOT
BRANCH   1   3
ATOM      3  C   UNL     1     -14.869  -5.613  -6.017  1.00  0.00    -0.025 A 
ATOM      4  C   UNL     1     -15.899  -4.936  -5.344  1.00  0.00     0.012 A 
ATOM      5  C   UNL     1     -17.183  -5.486  -5.271  1.00  0.00     0.047 A 
ATOM      6  C   UNL     1     -17.453  -6.724  -5.860  1.00  0.00     0.115 A 
ATOM      7  C   UNL     1     -15.145  -6.869  -6.596  1.00  0.00     0.012 A 
ATOM      8  C   UNL     1     -16.430  -7.415  -6.520  1.00  0.00     0.047 A 
BRANCH   6   9
ATOM      9  O   UNL     1     -18.737  -7.258  -5.779  1.00  0.00    -0.508 OA
ATOM     10  H   UNL     1     -18.975  -8.132  -6.233  1.00  0.00     0.293 HD
ENDBRANCH   6   9
ENDBRANCH   1   3
BRANCH   2  11
ATOM     11  C   UNL     1     -11.077  -5.013  -6.416  1.00  0.00     0.189 C 
ATOM     12  O   UNL     1     -10.854  -3.982  -5.724  1.00  0.00    -0.289 OA
BRANCH  11  13
ATOM     13  C   UNL     1      -9.992  -5.581  -7.247  1.00  0.00     0.064 A 
ATOM     14  C   UNL     1      -9.787  -5.174  -8.589  1.00  0.00     0.130 A 
ATOM     15  C   UNL     1      -9.115  -6.521  -6.677  1.00  0.00     0.020 A 
ATOM     16  C   UNL     1      -8.701  -5.685  -9.311  1.00  0.00     0.093 A 
ATOM     17  C   UNL     1      -8.045  -7.034  -7.414  1.00  0.00     0.047 A 
ATOM     18  C   UNL     1      -7.832  -6.613  -8.731  1.00  0.00     0.119 A 
BRANCH  14  19
ATOM     19  O   UNL     1     -10.651  -4.292  -9.242  1.00  0.00    -0.507 OA
ATOM     20  H   UNL     1     -11.658  -4.351  -9.175  1.00  0.00     0.293 HD
ENDBRANCH  14  19
BRANCH  18  21
ATOM     21  O   UNL     1      -6.764  -7.112  -9.473  1.00  0.00    -0.508 OA
ATOM     22  H   UNL     1      -6.610  -6.833 -10.434  1.00  0.00     0.293 HD
ENDBRANCH  18  21
ENDBRANCH  11  13
ENDBRANCH   2  11
TORSDOF 6
ENDMDL
MODEL 7
REMARK VINA RESULT:    -3.119      3.663      5.744
REMARK INTER + INTRA:          -4.419
REMARK INTER:                  -3.861
REMARK INTRA:                  -0.558
REMARK UNBOUND:                -0.479
REMARK SMILES O=C(C=Cc1ccc(O)cc1)c1ccc(O)cc1O
REMARK SMILES IDX 4 1 3 2 5 3 6 4 7 5 8 6 11 7 10 8 9 9 2 11 1 12 12 13 18 14
REMARK SMILES IDX 13 15 17 16 14 17 15 18 19 19 16 21
REMARK H PARENT 9 10 19 20 16 22
REMARK Flexibility Score: inf
ROOT
ATOM      1  C   UNL     1     -14.092  -5.111  -5.784  1.00  0.00     0.012 C 
ATOM      2  C   UNL     1     -14.673  -3.915  -5.610  1.00  0.00     0.053 C 
ENDROOT
BRANCH   1   3
ATOM      3  C   UNL     1     -12.658  -5.290  -6.121  1.00  0.00    -0.025 A 
ATOM      4  C   UNL     1     -12.225  -6.546  -6.575  1.00  0.00     0.012 A 
ATOM      5  C   UNL     1     -10.881  -6.762  -6.895  1.00  0.00     0.047 A 
ATOM      6  C   UNL     1      -9.949  -5.730  -6.755  1.00  0.00     0.115 A 
ATOM      7  C   UNL     1     -11.710  -4.257  -5.969  1.00  0.00     0.012 A 
ATOM      8  C   UNL     1     -10.367  -4.478  -6.289  1.00  0.00     0.047 A 
BRANCH   6   9
ATOM      9  O   UNL     1      -8.614  -5.961  -7.078  1.00  0.00    -0.508 OA
ATOM     10  H   UNL     1      -7.886  -5.305  -6.818  1.00  0.00     0.293 HD
ENDBRANCH   6   9
ENDBRANCH   1   3
BRANCH   2  11
ATOM     11  C   UNL     1     -16.110  -3.776  -5.289  1.00  0.00     0.189 C 
ATOM     12  O   UNL     1     -16.739  -2.738  -5.633  1.00  0.00    -0.289 OA
BRANCH  11  13
ATOM     13  C   UNL     1     -16.828  -4.864  -4.590  1.00  0.00     0.064 A 
ATOM     14  C   UNL     1     -16.855  -4.957  -3.177  1.00  0.00     0.130 A 
ATOM     15  C   UNL     1     -17.539  -5.812  -5.349  1.00  0.00     0.020 A 
ATOM     16  C   UNL     1     -17.611  -5.962  -2.561  1.00  0.00     0.093 A 
ATOM     17  C   UNL     1     -18.276  -6.819  -4.722  1.00  0.00     0.047 A 
ATOM     18  C   UNL     1     -18.319  -6.893  -3.326  1.00  0.00     0.119 A 
BRANCH  14  19
ATOM     19  O   UNL     1     -16.126  -4.091  -2.358  1.00  0.00    -0.507 OA
ATOM     20  H   UNL     1     -16.558  -3.430  -1.726  1.00  0.00     0.293 HD
ENDBRANCH  14  19
BRANCH  18  21
ATOM     21  O   UNL     1     -19.057  -7.888  -2.689  1.00  0.00    -0.508 OA
ATOM     22  H   UNL     1     -19.038  -8.000  -1.683  1.00  0.00     0.293 HD
ENDBRANCH  18  21
ENDBRANCH  11  13
ENDBRANCH   2  11
TORSDOF 6
ENDMDL
MODEL 8
REMARK VINA RESULT:    -2.844      5.743      7.576
REMARK INTER + INTRA:          -4.071
REMARK INTER:                  -3.452
REMARK INTRA:                  -0.619
REMARK UNBOUND:                -0.479
REMARK SMILES O=C(C=Cc1ccc(O)cc1)c1ccc(O)cc1O
REMARK SMILES IDX 4 1 3 2 5 3 6 4 7 5 8 6 11 7 10 8 9 9 2 11 1 12 12 13 18 14
REMARK SMILES IDX 13 15 17 16 14 17 15 18 19 19 16 21
REMARK H PARENT 9 10 19 20 16 22
REMARK Flexibility Score: inf
ROOT
ATOM      1  C   UNL     1     -10.028  -5.165  -6.874  1.00  0.00     0.012 C 
ATOM      2  C   UNL     1     -11.170  -5.849  -7.030  1.00  0.00     0.053 C 
ENDROOT
BRANCH   1   3
ATOM      3  C   UNL     1      -8.770  -5.486  -7.592  1.00  0.00    -0.025 A 
ATOM      4  C   UNL     1      -8.841  -6.261  -8.761  1.00  0.00     0.012 A 
ATOM      5  C   UNL     1      -7.680  -6.596  -9.465  1.00  0.00     0.047 A 
ATOM      6  C   UNL     1      -6.431  -6.173  -9.004  1.00  0.00     0.115 A 
ATOM      7  C   UNL     1      -7.504  -5.075  -7.125  1.00  0.00     0.012 A 
ATOM      8  C   UNL     1      -6.346  -5.413  -7.831  1.00  0.00     0.047 A 
BRANCH   6   9
ATOM      9  O   UNL     1      -5.283  -6.514  -9.715  1.00  0.00    -0.508 OA
ATOM     10  H   UNL     1      -4.831  -7.412  -9.589  1.00  0.00     0.293 HD
ENDBRANCH   6   9
ENDBRANCH   1   3
BRANCH   2  11
ATOM     11  C   UNL     1     -12.402  -5.508  -6.286  1.00  0.00     0.189 C 
ATOM     12  O   UNL     1     -12.484  -4.414  -5.663  1.00  0.00    -0.289 OA
BRANCH  11  13
ATOM     13  C   UNL     1     -13.559  -6.430  -6.293  1.00  0.00     0.064 A 
ATOM     14  C   UNL     1     -14.894  -5.958  -6.259  1.00  0.00     0.130 A 
ATOM     15  C   UNL     1     -13.328  -7.816  -6.378  1.00  0.00     0.020 A 
ATOM     16  C   UNL     1     -15.956  -6.867  -6.343  1.00  0.00     0.093 A 
ATOM     17  C   UNL     1     -14.397  -8.713  -6.446  1.00  0.00     0.047 A 
ATOM     18  C   UNL     1     -15.713  -8.240  -6.434  1.00  0.00     0.119 A 
BRANCH  14  19
ATOM     19  O   UNL     1     -15.202  -4.603  -6.114  1.00  0.00    -0.507 OA
ATOM     20  H   UNL     1     -15.929  -4.140  -6.642  1.00  0.00     0.293 HD
ENDBRANCH  14  19
BRANCH  18  21
ATOM     21  O   UNL     1     -16.786  -9.125  -6.508  1.00  0.00    -0.508 OA
ATOM     22  H   UNL     1     -17.714  -8.860  -6.197  1.00  0.00     0.293 HD
ENDBRANCH  18  21
ENDBRANCH  11  13
ENDBRANCH   2  11
TORSDOF 6
ENDMDL
MODEL 9
REMARK VINA RESULT:    -2.516      5.844      7.639
REMARK INTER + INTRA:          -3.657
REMARK INTER:                  -3.530
REMARK INTRA:                  -0.127
REMARK UNBOUND:                -0.479
REMARK SMILES O=C(C=Cc1ccc(O)cc1)c1ccc(O)cc1O
REMARK SMILES IDX 4 1 3 2 5 3 6 4 7 5 8 6 11 7 10 8 9 9 2 11 1 12 12 13 18 14
REMARK SMILES IDX 13 15 17 16 14 17 15 18 19 19 16 21
REMARK H PARENT 9 10 19 20 16 22
REMARK Flexibility Score: inf
ROOT
ATOM      1  C   UNL     1     -10.086  -5.232  -7.080  1.00  0.00     0.012 C 
ATOM      2  C   UNL     1     -11.100  -6.100  -6.956  1.00  0.00     0.053 C 
ENDROOT
BRANCH   1   3
ATOM      3  C   UNL     1      -8.803  -5.554  -7.751  1.00  0.00    -0.025 A 
ATOM      4  C   UNL     1      -8.833  -6.303  -8.939  1.00  0.00     0.012 A 
ATOM      5  C   UNL     1      -7.648  -6.638  -9.600  1.00  0.00     0.047 A 
ATOM      6  C   UNL     1      -6.415  -6.239  -9.079  1.00  0.00     0.115 A 
ATOM      7  C   UNL     1      -7.553  -5.167  -7.223  1.00  0.00     0.012 A 
ATOM      8  C   UNL     1      -6.370  -5.505  -7.888  1.00  0.00     0.047 A 
BRANCH   6   9
ATOM      9  O   UNL     1      -5.242  -6.580  -9.749  1.00  0.00    -0.508 OA
ATOM     10  H   UNL     1      -5.237  -7.276 -10.486  1.00  0.00     0.293 HD
ENDBRANCH   6   9
ENDBRANCH   1   3
BRANCH   2  11
ATOM     11  C   UNL     1     -12.360  -5.748  -6.267  1.00  0.00     0.189 C 
ATOM     12  O   UNL     1     -12.458  -4.656  -5.643  1.00  0.00    -0.289 OA
BRANCH  11  13
ATOM     13  C   UNL     1     -13.526  -6.657  -6.330  1.00  0.00     0.064 A 
ATOM     14  C   UNL     1     -13.420  -8.034  -6.012  1.00  0.00     0.130 A 
ATOM     15  C   UNL     1     -14.784  -6.132  -6.676  1.00  0.00     0.020 A 
ATOM     16  C   UNL     1     -14.567  -8.838  -6.014  1.00  0.00     0.093 A 
ATOM     17  C   UNL     1     -15.917  -6.949  -6.689  1.00  0.00     0.047 A 
ATOM     18  C   UNL     1     -15.812  -8.302  -6.353  1.00  0.00     0.119 A 
BRANCH  14  19
ATOM     19  O   UNL     1     -12.196  -8.639  -5.718  1.00  0.00    -0.507 OA
ATOM     20  H   UNL     1     -11.372  -8.533  -6.295  1.00  0.00     0.293 HD
ENDBRANCH  14  19
BRANCH  18  21
ATOM     21  O   UNL     1     -16.937  -9.125  -6.355  1.00  0.00    -0.508 OA
ATOM     22  H   UNL     1     -17.364  -9.440  -5.493  1.00  0.00     0.293 HD
ENDBRANCH  18  21
ENDBRANCH  11  13
ENDBRANCH   2  11
TORSDOF 6
ENDMDL
