MODEL 1
REMARK VINA RESULT:    -4.374      0.000      0.000
REMARK INTER + INTRA:         -13.615
REMARK INTER:                  -9.488
REMARK INTRA:                  -4.127
REMARK UNBOUND:                -4.127
REMARK SMILES CCCCCCCCCCCCCCCCCCCCCC(=O)[O-]
REMARK SMILES IDX 12 1 11 2 10 3 9 4 8 5 7 6 6 7 5 8 4 9 3 10 2 11 1 12 13 13
REMARK SMILES IDX 14 14 15 15 16 16 17 17 18 18 19 19 20 20 21 21 22 22 23 23
REMARK SMILES IDX 24 24
REMARK H PARENT
REMARK Flexibility Score: inf
ROOT
ATOM      1  C   UNL     1      10.500  -7.239 -23.326  1.00  0.00     0.000 C 
ENDROOT
BRANCH   1   2
ATOM      2  C   UNL     1      11.333  -8.219 -22.482  1.00  0.00     0.000 C 
BRANCH   2   3
ATOM      3  C   UNL     1      11.167  -7.993 -20.973  1.00  0.00     0.000 C 
BRANCH   3   4
ATOM      4  C   UNL     1      10.689  -6.564 -20.680  1.00  0.00    -0.000 C 
BRANCH   4   5
ATOM      5  C   UNL     1      11.835  -5.616 -20.285  1.00  0.00    -0.000 C 
BRANCH   5   6
ATOM      6  C   UNL     1      11.699  -4.199 -20.880  1.00  0.00    -0.000 C 
BRANCH   6   7
ATOM      7  C   UNL     1      12.827  -3.875 -21.874  1.00  0.00    -0.000 C 
BRANCH   7   8
ATOM      8  C   UNL     1      12.455  -4.224 -23.323  1.00  0.00    -0.000 C 
BRANCH   8   9
ATOM      9  C   UNL     1      11.206  -3.467 -23.810  1.00  0.00    -0.000 C 
BRANCH   9  10
ATOM     10  C   UNL     1      10.779  -3.891 -25.224  1.00  0.00    -0.000 C 
BRANCH  10  11
ATOM     11  C   UNL     1      11.698  -4.970 -25.815  1.00  0.00    -0.003 C 
ATOM     12  C   UNL     1      12.056  -4.651 -27.265  1.00  0.00     0.004 C 
ENDBRANCH  10  11
ENDBRANCH   9  10
ENDBRANCH   8   9
ENDBRANCH   7   8
ENDBRANCH   6   7
ENDBRANCH   5   6
ENDBRANCH   4   5
ENDBRANCH   3   4
ENDBRANCH   2   3
ENDBRANCH   1   2
BRANCH   1  13
ATOM     13  C   UNL     1       9.608  -7.900 -24.397  1.00  0.00     0.000 C 
BRANCH  13  14
ATOM     14  C   UNL     1       8.807  -9.128 -23.919  1.00  0.00     0.000 C 
BRANCH  14  15
ATOM     15  C   UNL     1       7.434  -8.811 -23.299  1.00  0.00     0.000 C 
BRANCH  15  16
ATOM     16  C   UNL     1       7.432  -8.919 -21.765  1.00  0.00     0.000 C 
BRANCH  16  17
ATOM     17  C   UNL     1       7.310  -7.551 -21.076  1.00  0.00     0.000 C 
BRANCH  17  18
ATOM     18  C   UNL     1       6.835  -6.443 -22.031  1.00  0.00     0.000 C 
BRANCH  18  19
ATOM     19  C   UNL     1       7.768  -5.228 -21.969  1.00  0.00     0.000 C 
BRANCH  19  20
ATOM     20  C   UNL     1       7.623  -4.356 -23.225  1.00  0.00     0.006 C 
BRANCH  20  21
ATOM     21  C   UNL     1       7.189  -5.170 -24.451  1.00  0.00     0.053 C 
BRANCH  21  22
ATOM     22  C   UNL     1       6.708  -4.288 -25.562  1.00  0.00     0.041 C 
ATOM     23  O   UNL     1       5.674  -4.596 -26.212  1.00  0.00    -0.550 OA
ATOM     24  O   UNL     1       7.380  -3.106 -25.856  1.00  0.00    -0.550 OA
ENDBRANCH  21  22
ENDBRANCH  20  21
ENDBRANCH  19  20
ENDBRANCH  18  19
ENDBRANCH  17  18
ENDBRANCH  16  17
ENDBRANCH  15  16
ENDBRANCH  14  15
ENDBRANCH  13  14
ENDBRANCH   1  13
TORSDOF 20
ENDMDL
MODEL 2
REMARK VINA RESULT:    -4.350      2.764      6.000
REMARK INTER + INTRA:         -13.563
REMARK INTER:                  -9.350
REMARK INTRA:                  -4.213
REMARK UNBOUND:                -4.127
REMARK SMILES CCCCCCCCCCCCCCCCCCCCCC(=O)[O-]
REMARK SMILES IDX 12 1 11 2 10 3 9 4 8 5 7 6 6 7 5 8 4 9 3 10 2 11 1 12 13 13
REMARK SMILES IDX 14 14 15 15 16 16 17 17 18 18 19 19 20 20 21 21 22 22 23 23
REMARK SMILES IDX 24 24
REMARK H PARENT
REMARK Flexibility Score: inf
ROOT
ATOM      1  C   UNL     1       9.073  -5.029 -22.293  1.00  0.00     0.000 C 
ENDROOT
BRANCH   1   2
ATOM      2  C   UNL     1       7.538  -5.138 -22.263  1.00  0.00     0.000 C 
BRANCH   2   3
ATOM      3  C   UNL     1       7.034  -6.153 -21.229  1.00  0.00     0.000 C 
BRANCH   3   4
ATOM      4  C   UNL     1       6.590  -7.456 -21.908  1.00  0.00    -0.000 C 
BRANCH   4   5
ATOM      5  C   UNL     1       7.354  -8.690 -21.397  1.00  0.00    -0.000 C 
BRANCH   5   6
ATOM      6  C   UNL     1       8.822  -8.397 -21.022  1.00  0.00    -0.000 C 
BRANCH   6   7
ATOM      7  C   UNL     1       9.810  -9.267 -21.818  1.00  0.00    -0.000 C 
BRANCH   7   8
ATOM      8  C   UNL     1       9.533  -9.243 -23.329  1.00  0.00    -0.000 C 
BRANCH   8   9
ATOM      9  C   UNL     1       9.884  -7.888 -23.971  1.00  0.00    -0.000 C 
BRANCH   9  10
ATOM     10  C   UNL     1       9.247  -7.716 -25.359  1.00  0.00    -0.000 C 
BRANCH  10  11
ATOM     11  C   UNL     1       7.796  -7.218 -25.281  1.00  0.00    -0.003 C 
ATOM     12  C   UNL     1       6.815  -8.324 -25.665  1.00  0.00     0.004 C 
ENDBRANCH  10  11
ENDBRANCH   9  10
ENDBRANCH   8   9
ENDBRANCH   7   8
ENDBRANCH   6   7
ENDBRANCH   5   6
ENDBRANCH   4   5
ENDBRANCH   3   4
ENDBRANCH   2   3
ENDBRANCH   1   2
BRANCH   1  13
ATOM     13  C   UNL     1       9.625  -3.848 -23.117  1.00  0.00     0.000 C 
BRANCH  13  14
ATOM     14  C   UNL     1       9.358  -3.923 -24.634  1.00  0.00     0.000 C 
BRANCH  14  15
ATOM     15  C   UNL     1      10.547  -3.527 -25.527  1.00  0.00     0.000 C 
BRANCH  15  16
ATOM     16  C   UNL     1      11.469  -4.714 -25.853  1.00  0.00     0.000 C 
BRANCH  16  17
ATOM     17  C   UNL     1      12.752  -4.716 -25.008  1.00  0.00     0.000 C 
BRANCH  17  18
ATOM     18  C   UNL     1      12.884  -5.971 -24.128  1.00  0.00     0.000 C 
BRANCH  18  19
ATOM     19  C   UNL     1      12.991  -5.593 -22.646  1.00  0.00     0.000 C 
BRANCH  19  20
ATOM     20  C   UNL     1      12.795  -6.823 -21.747  1.00  0.00     0.006 C 
BRANCH  20  21
ATOM     21  C   UNL     1      11.977  -6.502 -20.491  1.00  0.00     0.053 C 
BRANCH  21  22
ATOM     22  C   UNL     1      12.365  -5.182 -19.896  1.00  0.00     0.041 C 
ATOM     23  O   UNL     1      11.525  -4.246 -19.828  1.00  0.00    -0.550 OA
ATOM     24  O   UNL     1      13.646  -4.997 -19.385  1.00  0.00    -0.550 OA
ENDBRANCH  21  22
ENDBRANCH  20  21
ENDBRANCH  19  20
ENDBRANCH  18  19
ENDBRANCH  17  18
ENDBRANCH  16  17
ENDBRANCH  15  16
ENDBRANCH  14  15
ENDBRANCH  13  14
ENDBRANCH   1  13
TORSDOF 20
ENDMDL
MODEL 3
REMARK VINA RESULT:    -4.328      7.673     10.904
REMARK INTER + INTRA:         -13.514
REMARK INTER:                  -9.660
REMARK INTRA:                  -3.854
REMARK UNBOUND:                -4.127
REMARK SMILES CCCCCCCCCCCCCCCCCCCCCC(=O)[O-]
REMARK SMILES IDX 12 1 11 2 10 3 9 4 8 5 7 6 6 7 5 8 4 9 3 10 2 11 1 12 13 13
REMARK SMILES IDX 14 14 15 15 16 16 17 17 18 18 19 19 20 20 21 21 22 22 23 23
REMARK SMILES IDX 24 24
REMARK H PARENT
REMARK Flexibility Score: inf
ROOT
ATOM      1  C   UNL     1      18.966  -6.304 -18.051  1.00  0.00     0.000 C 
ENDROOT
BRANCH   1   2
ATOM      2  C   UNL     1      18.454  -6.368 -16.602  1.00  0.00     0.000 C 
BRANCH   2   3
ATOM      3  C   UNL     1      17.108  -5.655 -16.416  1.00  0.00     0.000 C 
BRANCH   3   4
ATOM      4  C   UNL     1      17.219  -4.166 -16.773  1.00  0.00    -0.000 C 
BRANCH   4   5
ATOM      5  C   UNL     1      15.959  -3.619 -17.467  1.00  0.00    -0.000 C 
BRANCH   5   6
ATOM      6  C   UNL     1      16.263  -2.630 -18.611  1.00  0.00    -0.000 C 
BRANCH   6   7
ATOM      7  C   UNL     1      15.608  -3.055 -19.936  1.00  0.00    -0.000 C 
BRANCH   7   8
ATOM      8  C   UNL     1      15.077  -4.496 -19.897  1.00  0.00    -0.000 C 
BRANCH   8   9
ATOM      9  C   UNL     1      15.753  -5.402 -20.942  1.00  0.00    -0.000 C 
BRANCH   9  10
ATOM     10  C   UNL     1      14.834  -5.706 -22.135  1.00  0.00    -0.000 C 
BRANCH  10  11
ATOM     11  C   UNL     1      14.930  -4.639 -23.236  1.00  0.00    -0.003 C 
ATOM     12  C   UNL     1      16.378  -4.207 -23.457  1.00  0.00     0.004 C 
ENDBRANCH  10  11
ENDBRANCH   9  10
ENDBRANCH   8   9
ENDBRANCH   7   8
ENDBRANCH   6   7
ENDBRANCH   5   6
ENDBRANCH   4   5
ENDBRANCH   3   4
ENDBRANCH   2   3
ENDBRANCH   1   2
BRANCH   1  13
ATOM     13  C   UNL     1      20.463  -6.632 -18.226  1.00  0.00     0.000 C 
BRANCH  13  14
ATOM     14  C   UNL     1      21.374  -5.419 -18.509  1.00  0.00     0.000 C 
BRANCH  14  15
ATOM     15  C   UNL     1      21.263  -4.268 -17.493  1.00  0.00     0.000 C 
BRANCH  15  16
ATOM     16  C   UNL     1      20.647  -2.995 -18.098  1.00  0.00     0.000 C 
BRANCH  16  17
ATOM     17  C   UNL     1      20.990  -2.822 -19.586  1.00  0.00     0.000 C 
BRANCH  17  18
ATOM     18  C   UNL     1      19.758  -2.499 -20.448  1.00  0.00     0.000 C 
BRANCH  18  19
ATOM     19  C   UNL     1      19.040  -3.783 -20.882  1.00  0.00     0.000 C 
BRANCH  19  20
ATOM     20  C   UNL     1      19.885  -4.572 -21.894  1.00  0.00     0.006 C 
BRANCH  20  21
ATOM     21  C   UNL     1      19.323  -5.976 -22.152  1.00  0.00     0.053 C 
BRANCH  21  22
ATOM     22  C   UNL     1      20.365  -7.036 -21.958  1.00  0.00     0.041 C 
ATOM     23  O   UNL     1      20.039  -8.252 -21.963  1.00  0.00    -0.550 OA
ATOM     24  O   UNL     1      21.702  -6.681 -21.808  1.00  0.00    -0.550 OA
ENDBRANCH  21  22
ENDBRANCH  20  21
ENDBRANCH  19  20
ENDBRANCH  18  19
ENDBRANCH  17  18
ENDBRANCH  16  17
ENDBRANCH  15  16
ENDBRANCH  14  15
ENDBRANCH  13  14
ENDBRANCH   1  13
TORSDOF 20
ENDMDL
MODEL 4
REMARK VINA RESULT:    -4.317      8.287     11.368
REMARK INTER + INTRA:         -13.491
REMARK INTER:                  -9.382
REMARK INTRA:                  -4.108
REMARK UNBOUND:                -4.127
REMARK SMILES CCCCCCCCCCCCCCCCCCCCCC(=O)[O-]
REMARK SMILES IDX 12 1 11 2 10 3 9 4 8 5 7 6 6 7 5 8 4 9 3 10 2 11 1 12 13 13
REMARK SMILES IDX 14 14 15 15 16 16 17 17 18 18 19 19 20 20 21 21 22 22 23 23
REMARK SMILES IDX 24 24
REMARK H PARENT
REMARK Flexibility Score: inf
ROOT
ATOM      1  C   UNL     1      17.401  -2.657 -17.481  1.00  0.00     0.000 C 
ENDROOT
BRANCH   1   2
ATOM      2  C   UNL     1      17.491  -2.519 -19.011  1.00  0.00     0.000 C 
BRANCH   2   3
ATOM      3  C   UNL     1      18.919  -2.244 -19.500  1.00  0.00     0.000 C 
BRANCH   3   4
ATOM      4  C   UNL     1      19.947  -3.017 -18.662  1.00  0.00    -0.000 C 
BRANCH   4   5
ATOM      5  C   UNL     1      21.301  -3.180 -19.373  1.00  0.00    -0.000 C 
BRANCH   5   6
ATOM      6  C   UNL     1      21.398  -4.457 -20.234  1.00  0.00    -0.000 C 
BRANCH   6   7
ATOM      7  C   UNL     1      21.212  -4.163 -21.732  1.00  0.00    -0.000 C 
BRANCH   7   8
ATOM      8  C   UNL     1      19.799  -4.501 -22.229  1.00  0.00    -0.000 C 
BRANCH   8   9
ATOM      9  C   UNL     1      19.111  -5.573 -21.366  1.00  0.00    -0.000 C 
BRANCH   9  10
ATOM     10  C   UNL     1      17.579  -5.453 -21.394  1.00  0.00    -0.000 C 
BRANCH  10  11
ATOM     11  C   UNL     1      17.080  -4.576 -22.552  1.00  0.00    -0.003 C 
ATOM     12  C   UNL     1      15.851  -3.768 -22.140  1.00  0.00     0.004 C 
ENDBRANCH  10  11
ENDBRANCH   9  10
ENDBRANCH   8   9
ENDBRANCH   7   8
ENDBRANCH   6   7
ENDBRANCH   5   6
ENDBRANCH   4   5
ENDBRANCH   3   4
ENDBRANCH   2   3
ENDBRANCH   1   2
BRANCH   1  13
ATOM     13  C   UNL     1      16.223  -3.513 -16.974  1.00  0.00     0.000 C 
BRANCH  13  14
ATOM     14  C   UNL     1      15.402  -4.219 -18.073  1.00  0.00     0.000 C 
BRANCH  14  15
ATOM     15  C   UNL     1      15.823  -5.668 -18.374  1.00  0.00     0.000 C 
BRANCH  15  16
ATOM     16  C   UNL     1      16.776  -6.245 -17.314  1.00  0.00     0.000 C 
BRANCH  16  17
ATOM     17  C   UNL     1      18.221  -6.367 -17.822  1.00  0.00     0.000 C 
BRANCH  17  18
ATOM     18  C   UNL     1      19.256  -6.359 -16.684  1.00  0.00     0.000 C 
BRANCH  18  19
ATOM     19  C   UNL     1      20.684  -6.409 -17.240  1.00  0.00     0.000 C 
BRANCH  19  20
ATOM     20  C   UNL     1      21.042  -7.826 -17.713  1.00  0.00     0.006 C 
BRANCH  20  21
ATOM     21  C   UNL     1      21.937  -7.815 -18.959  1.00  0.00     0.053 C 
BRANCH  21  22
ATOM     22  C   UNL     1      21.184  -8.224 -20.188  1.00  0.00     0.041 C 
ATOM     23  O   UNL     1      20.037  -8.735 -20.088  1.00  0.00    -0.550 OA
ATOM     24  O   UNL     1      21.735  -8.007 -21.448  1.00  0.00    -0.550 OA
ENDBRANCH  21  22
ENDBRANCH  20  21
ENDBRANCH  19  20
ENDBRANCH  18  19
ENDBRANCH  17  18
ENDBRANCH  16  17
ENDBRANCH  15  16
ENDBRANCH  14  15
ENDBRANCH  13  14
ENDBRANCH   1  13
TORSDOF 20
ENDMDL
MODEL 5
REMARK VINA RESULT:    -4.298      2.028      5.393
REMARK INTER + INTRA:         -13.450
REMARK INTER:                  -9.878
REMARK INTRA:                  -3.572
REMARK UNBOUND:                -4.127
REMARK SMILES CCCCCCCCCCCCCCCCCCCCCC(=O)[O-]
REMARK SMILES IDX 12 1 11 2 10 3 9 4 8 5 7 6 6 7 5 8 4 9 3 10 2 11 1 12 13 13
REMARK SMILES IDX 14 14 15 15 16 16 17 17 18 18 19 19 20 20 21 21 22 22 23 23
REMARK SMILES IDX 24 24
REMARK H PARENT
REMARK Flexibility Score: inf
ROOT
ATOM      1  C   UNL     1      10.738  -6.751 -20.524  1.00  0.00     0.000 C 
ENDROOT
BRANCH   1   2
ATOM      2  C   UNL     1      10.111  -7.438 -21.749  1.00  0.00     0.000 C 
BRANCH   2   3
ATOM      3  C   UNL     1       8.974  -8.399 -21.375  1.00  0.00     0.000 C 
BRANCH   3   4
ATOM      4  C   UNL     1       7.739  -7.627 -20.888  1.00  0.00    -0.000 C 
BRANCH   4   5
ATOM      5  C   UNL     1       7.136  -6.716 -21.972  1.00  0.00    -0.000 C 
BRANCH   5   6
ATOM      6  C   UNL     1       7.331  -5.211 -21.693  1.00  0.00    -0.000 C 
BRANCH   6   7
ATOM      7  C   UNL     1       8.068  -4.498 -22.840  1.00  0.00    -0.000 C 
BRANCH   7   8
ATOM      8  C   UNL     1       7.255  -4.480 -24.143  1.00  0.00    -0.000 C 
BRANCH   8   9
ATOM      9  C   UNL     1       7.854  -5.396 -25.225  1.00  0.00    -0.000 C 
BRANCH   9  10
ATOM     10  C   UNL     1       6.884  -6.509 -25.652  1.00  0.00    -0.000 C 
BRANCH  10  11
ATOM     11  C   UNL     1       7.457  -7.913 -25.407  1.00  0.00    -0.003 C 
ATOM     12  C   UNL     1       8.984  -7.882 -25.362  1.00  0.00     0.004 C 
ENDBRANCH  10  11
ENDBRANCH   9  10
ENDBRANCH   8   9
ENDBRANCH   7   8
ENDBRANCH   6   7
ENDBRANCH   5   6
ENDBRANCH   4   5
ENDBRANCH   3   4
ENDBRANCH   2   3
ENDBRANCH   1   2
BRANCH   1  13
ATOM     13  C   UNL     1      10.977  -5.235 -20.681  1.00  0.00     0.000 C 
BRANCH  13  14
ATOM     14  C   UNL     1      12.040  -4.635 -19.738  1.00  0.00     0.000 C 
BRANCH  14  15
ATOM     15  C   UNL     1      13.491  -4.743 -20.237  1.00  0.00     0.000 C 
BRANCH  15  16
ATOM     16  C   UNL     1      13.812  -3.743 -21.361  1.00  0.00     0.000 C 
BRANCH  16  17
ATOM     17  C   UNL     1      14.625  -4.375 -22.501  1.00  0.00     0.000 C 
BRANCH  17  18
ATOM     18  C   UNL     1      13.826  -4.491 -23.810  1.00  0.00     0.000 C 
BRANCH  18  19
ATOM     19  C   UNL     1      12.938  -5.742 -23.801  1.00  0.00     0.000 C 
BRANCH  19  20
ATOM     20  C   UNL     1      11.517  -5.414 -24.283  1.00  0.00     0.006 C 
BRANCH  20  21
ATOM     21  C   UNL     1      11.507  -4.334 -25.372  1.00  0.00     0.053 C 
BRANCH  21  22
ATOM     22  C   UNL     1      11.791  -4.908 -26.727  1.00  0.00     0.041 C 
ATOM     23  O   UNL     1      11.474  -6.098 -26.989  1.00  0.00    -0.550 OA
ATOM     24  O   UNL     1      12.373  -4.116 -27.712  1.00  0.00    -0.550 OA
ENDBRANCH  21  22
ENDBRANCH  20  21
ENDBRANCH  19  20
ENDBRANCH  18  19
ENDBRANCH  17  18
ENDBRANCH  16  17
ENDBRANCH  15  16
ENDBRANCH  14  15
ENDBRANCH  13  14
ENDBRANCH   1  13
TORSDOF 20
ENDMDL
MODEL 6
REMARK VINA RESULT:    -4.293      1.415      5.268
REMARK INTER + INTRA:         -13.439
REMARK INTER:                  -9.401
REMARK INTRA:                  -4.038
REMARK UNBOUND:                -4.127
REMARK SMILES CCCCCCCCCCCCCCCCCCCCCC(=O)[O-]
REMARK SMILES IDX 12 1 11 2 10 3 9 4 8 5 7 6 6 7 5 8 4 9 3 10 2 11 1 12 13 13
REMARK SMILES IDX 14 14 15 15 16 16 17 17 18 18 19 19 20 20 21 21 22 22 23 23
REMARK SMILES IDX 24 24
REMARK H PARENT
REMARK Flexibility Score: inf
ROOT
ATOM      1  C   UNL     1      11.509  -4.777 -20.340  1.00  0.00     0.000 C 
ENDROOT
BRANCH   1   2
ATOM      2  C   UNL     1      11.375  -6.306 -20.221  1.00  0.00     0.000 C 
BRANCH   2   3
ATOM      3  C   UNL     1      10.291  -6.881 -21.143  1.00  0.00     0.000 C 
BRANCH   3   4
ATOM      4  C   UNL     1       9.379  -5.769 -21.680  1.00  0.00    -0.000 C 
BRANCH   4   5
ATOM      5  C   UNL     1       7.894  -6.172 -21.707  1.00  0.00    -0.000 C 
BRANCH   5   6
ATOM      6  C   UNL     1       7.576  -7.419 -20.855  1.00  0.00    -0.000 C 
BRANCH   6   7
ATOM      7  C   UNL     1       6.946  -8.547 -21.690  1.00  0.00    -0.000 C 
BRANCH   7   8
ATOM      8  C   UNL     1       7.991  -9.532 -22.235  1.00  0.00    -0.000 C 
BRANCH   8   9
ATOM      9  C   UNL     1       8.081  -9.505 -23.772  1.00  0.00    -0.000 C 
BRANCH   9  10
ATOM     10  C   UNL     1       9.387  -8.865 -24.269  1.00  0.00    -0.000 C 
BRANCH  10  11
ATOM     11  C   UNL     1       9.150  -7.523 -24.978  1.00  0.00    -0.003 C 
ATOM     12  C   UNL     1       7.676  -7.345 -25.337  1.00  0.00     0.004 C 
ENDBRANCH  10  11
ENDBRANCH   9  10
ENDBRANCH   8   9
ENDBRANCH   7   8
ENDBRANCH   6   7
ENDBRANCH   5   6
ENDBRANCH   4   5
ENDBRANCH   3   4
ENDBRANCH   2   3
ENDBRANCH   1   2
BRANCH   1  13
ATOM     13  C   UNL     1      12.957  -4.248 -20.315  1.00  0.00     0.000 C 
BRANCH  13  14
ATOM     14  C   UNL     1      13.999  -5.152 -21.006  1.00  0.00     0.000 C 
BRANCH  14  15
ATOM     15  C   UNL     1      14.852  -4.459 -22.083  1.00  0.00     0.000 C 
BRANCH  15  16
ATOM     16  C   UNL     1      14.454  -4.864 -23.512  1.00  0.00     0.000 C 
BRANCH  16  17
ATOM     17  C   UNL     1      13.180  -5.723 -23.551  1.00  0.00     0.000 C 
BRANCH  17  18
ATOM     18  C   UNL     1      12.052  -5.079 -24.374  1.00  0.00     0.000 C 
BRANCH  18  19
ATOM     19  C   UNL     1      11.796  -3.637 -23.920  1.00  0.00     0.000 C 
BRANCH  19  20
ATOM     20  C   UNL     1      10.291  -3.339 -23.853  1.00  0.00     0.006 C 
BRANCH  20  21
ATOM     21  C   UNL     1       9.554  -3.776 -25.126  1.00  0.00     0.053 C 
BRANCH  21  22
ATOM     22  C   UNL     1       8.067  -3.681 -24.967  1.00  0.00     0.041 C 
ATOM     23  O   UNL     1       7.552  -3.661 -23.818  1.00  0.00    -0.550 OA
ATOM     24  O   UNL     1       7.251  -3.578 -26.090  1.00  0.00    -0.550 OA
ENDBRANCH  21  22
ENDBRANCH  20  21
ENDBRANCH  19  20
ENDBRANCH  18  19
ENDBRANCH  17  18
ENDBRANCH  16  17
ENDBRANCH  15  16
ENDBRANCH  14  15
ENDBRANCH  13  14
ENDBRANCH   1  13
TORSDOF 20
ENDMDL
MODEL 7
REMARK VINA RESULT:    -4.282      4.061      6.904
REMARK INTER + INTRA:         -13.416
REMARK INTER:                  -9.356
REMARK INTRA:                  -4.060
REMARK UNBOUND:                -4.127
REMARK SMILES CCCCCCCCCCCCCCCCCCCCCC(=O)[O-]
REMARK SMILES IDX 12 1 11 2 10 3 9 4 8 5 7 6 6 7 5 8 4 9 3 10 2 11 1 12 13 13
REMARK SMILES IDX 14 14 15 15 16 16 17 17 18 18 19 19 20 20 21 21 22 22 23 23
REMARK SMILES IDX 24 24
REMARK H PARENT
REMARK Flexibility Score: inf
ROOT
ATOM      1  C   UNL     1      11.488  -4.855 -20.417  1.00  0.00     0.000 C 
ENDROOT
BRANCH   1   2
ATOM      2  C   UNL     1      10.863  -6.259 -20.488  1.00  0.00     0.000 C 
BRANCH   2   3
ATOM      3  C   UNL     1      10.830  -6.823 -21.915  1.00  0.00     0.000 C 
BRANCH   3   4
ATOM      4  C   UNL     1       9.390  -7.127 -22.353  1.00  0.00    -0.000 C 
BRANCH   4   5
ATOM      5  C   UNL     1       8.350  -6.799 -21.268  1.00  0.00    -0.000 C 
BRANCH   5   6
ATOM      6  C   UNL     1       7.361  -5.687 -21.675  1.00  0.00    -0.000 C 
BRANCH   6   7
ATOM      7  C   UNL     1       7.353  -5.445 -23.195  1.00  0.00    -0.000 C 
BRANCH   7   8
ATOM      8  C   UNL     1       7.883  -4.053 -23.574  1.00  0.00    -0.000 C 
BRANCH   8   9
ATOM      9  C   UNL     1       8.471  -4.014 -24.996  1.00  0.00    -0.000 C 
BRANCH   9  10
ATOM     10  C   UNL     1      10.005  -3.942 -24.993  1.00  0.00    -0.000 C 
BRANCH  10  11
ATOM     11  C   UNL     1      10.656  -5.278 -25.381  1.00  0.00    -0.003 C 
ATOM     12  C   UNL     1      11.700  -5.081 -26.479  1.00  0.00     0.004 C 
ENDBRANCH  10  11
ENDBRANCH   9  10
ENDBRANCH   8   9
ENDBRANCH   7   8
ENDBRANCH   6   7
ENDBRANCH   5   6
ENDBRANCH   4   5
ENDBRANCH   3   4
ENDBRANCH   2   3
ENDBRANCH   1   2
BRANCH   1  13
ATOM     13  C   UNL     1      11.679  -4.160 -21.780  1.00  0.00     0.000 C 
BRANCH  13  14
ATOM     14  C   UNL     1      13.124  -3.720 -22.098  1.00  0.00     0.000 C 
BRANCH  14  15
ATOM     15  C   UNL     1      13.714  -4.303 -23.394  1.00  0.00     0.000 C 
BRANCH  15  16
ATOM     16  C   UNL     1      13.991  -5.813 -23.297  1.00  0.00     0.000 C 
BRANCH  16  17
ATOM     17  C   UNL     1      14.983  -6.162 -22.176  1.00  0.00     0.000 C 
BRANCH  17  18
ATOM     18  C   UNL     1      14.422  -7.194 -21.184  1.00  0.00     0.000 C 
BRANCH  18  19
ATOM     19  C   UNL     1      14.662  -6.750 -19.736  1.00  0.00     0.000 C 
BRANCH  19  20
ATOM     20  C   UNL     1      15.361  -5.383 -19.687  1.00  0.00     0.006 C 
BRANCH  20  21
ATOM     21  C   UNL     1      14.747  -4.453 -18.633  1.00  0.00     0.053 C 
BRANCH  21  22
ATOM     22  C   UNL     1      15.789  -3.612 -17.960  1.00  0.00     0.041 C 
ATOM     23  O   UNL     1      16.473  -2.795 -18.630  1.00  0.00    -0.550 OA
ATOM     24  O   UNL     1      15.978  -3.704 -16.584  1.00  0.00    -0.550 OA
ENDBRANCH  21  22
ENDBRANCH  20  21
ENDBRANCH  19  20
ENDBRANCH  18  19
ENDBRANCH  17  18
ENDBRANCH  16  17
ENDBRANCH  15  16
ENDBRANCH  14  15
ENDBRANCH  13  14
ENDBRANCH   1  13
TORSDOF 20
ENDMDL
MODEL 8
REMARK VINA RESULT:    -4.233      6.890      9.730
REMARK INTER + INTRA:         -13.309
REMARK INTER:                  -9.259
REMARK INTRA:                  -4.050
REMARK UNBOUND:                -4.127
REMARK SMILES CCCCCCCCCCCCCCCCCCCCCC(=O)[O-]
REMARK SMILES IDX 12 1 11 2 10 3 9 4 8 5 7 6 6 7 5 8 4 9 3 10 2 11 1 12 13 13
REMARK SMILES IDX 14 14 15 15 16 16 17 17 18 18 19 19 20 20 21 21 22 22 23 23
REMARK SMILES IDX 24 24
REMARK H PARENT
REMARK Flexibility Score: inf
ROOT
ATOM      1  C   UNL     1      18.727  -6.400 -18.743  1.00  0.00     0.000 C 
ENDROOT
BRANCH   1   2
ATOM      2  C   UNL     1      20.076  -6.813 -18.130  1.00  0.00     0.000 C 
BRANCH   2   3
ATOM      3  C   UNL     1      21.210  -5.838 -18.479  1.00  0.00     0.000 C 
BRANCH   3   4
ATOM      4  C   UNL     1      21.365  -4.764 -17.393  1.00  0.00    -0.000 C 
BRANCH   4   5
ATOM      5  C   UNL     1      20.743  -3.414 -17.792  1.00  0.00    -0.000 C 
BRANCH   5   6
ATOM      6  C   UNL     1      21.248  -2.876 -19.147  1.00  0.00    -0.000 C 
BRANCH   6   7
ATOM      7  C   UNL     1      20.116  -2.255 -19.984  1.00  0.00    -0.000 C 
BRANCH   7   8
ATOM      8  C   UNL     1      19.759  -3.102 -21.214  1.00  0.00    -0.000 C 
BRANCH   8   9
ATOM      9  C   UNL     1      20.927  -3.992 -21.677  1.00  0.00    -0.000 C 
BRANCH   9  10
ATOM     10  C   UNL     1      20.456  -5.380 -22.139  1.00  0.00    -0.000 C 
BRANCH  10  11
ATOM     11  C   UNL     1      18.946  -5.426 -22.416  1.00  0.00    -0.003 C 
ATOM     12  C   UNL     1      18.433  -6.864 -22.421  1.00  0.00     0.004 C 
ENDBRANCH  10  11
ENDBRANCH   9  10
ENDBRANCH   8   9
ENDBRANCH   7   8
ENDBRANCH   6   7
ENDBRANCH   5   6
ENDBRANCH   4   5
ENDBRANCH   3   4
ENDBRANCH   2   3
ENDBRANCH   1   2
BRANCH   1  13
ATOM     13  C   UNL     1      17.558  -6.312 -17.740  1.00  0.00     0.000 C 
BRANCH  13  14
ATOM     14  C   UNL     1      17.707  -5.231 -16.650  1.00  0.00     0.000 C 
BRANCH  14  15
ATOM     15  C   UNL     1      16.383  -4.650 -16.122  1.00  0.00     0.000 C 
BRANCH  15  16
ATOM     16  C   UNL     1      16.163  -3.187 -16.543  1.00  0.00     0.000 C 
BRANCH  16  17
ATOM     17  C   UNL     1      17.127  -2.739 -17.652  1.00  0.00     0.000 C 
BRANCH  17  18
ATOM     18  C   UNL     1      16.412  -2.446 -18.981  1.00  0.00     0.000 C 
BRANCH  18  19
ATOM     19  C   UNL     1      16.596  -3.605 -19.970  1.00  0.00     0.000 C 
BRANCH  19  20
ATOM     20  C   UNL     1      15.294  -4.404 -20.131  1.00  0.00     0.006 C 
BRANCH  20  21
ATOM     21  C   UNL     1      15.144  -4.993 -21.539  1.00  0.00     0.053 C 
BRANCH  21  22
ATOM     22  C   UNL     1      13.933  -4.455 -22.240  1.00  0.00     0.041 C 
ATOM     23  O   UNL     1      12.967  -3.997 -21.575  1.00  0.00    -0.550 OA
ATOM     24  O   UNL     1      13.888  -4.427 -23.631  1.00  0.00    -0.550 OA
ENDBRANCH  21  22
ENDBRANCH  20  21
ENDBRANCH  19  20
ENDBRANCH  18  19
ENDBRANCH  17  18
ENDBRANCH  16  17
ENDBRANCH  15  16
ENDBRANCH  14  15
ENDBRANCH  13  14
ENDBRANCH   1  13
TORSDOF 20
ENDMDL
MODEL 9
REMARK VINA RESULT:    -4.215      7.505     10.926
REMARK INTER + INTRA:         -13.269
REMARK INTER:                  -8.822
REMARK INTRA:                  -4.447
REMARK UNBOUND:                -4.127
REMARK SMILES CCCCCCCCCCCCCCCCCCCCCC(=O)[O-]
REMARK SMILES IDX 12 1 11 2 10 3 9 4 8 5 7 6 6 7 5 8 4 9 3 10 2 11 1 12 13 13
REMARK SMILES IDX 14 14 15 15 16 16 17 17 18 18 19 19 20 20 21 21 22 22 23 23
REMARK SMILES IDX 24 24
REMARK H PARENT
REMARK Flexibility Score: inf
ROOT
ATOM      1  C   UNL     1      17.804  -5.170 -16.411  1.00  0.00     0.000 C 
ENDROOT
BRANCH   1   2
ATOM      2  C   UNL     1      18.336  -6.219 -17.402  1.00  0.00     0.000 C 
BRANCH   2   3
ATOM      3  C   UNL     1      17.345  -6.525 -18.533  1.00  0.00     0.000 C 
BRANCH   3   4
ATOM      4  C   UNL     1      17.980  -6.264 -19.907  1.00  0.00    -0.000 C 
BRANCH   4   5
ATOM      5  C   UNL     1      17.395  -7.156 -21.017  1.00  0.00    -0.000 C 
BRANCH   5   6
ATOM      6  C   UNL     1      17.401  -6.493 -22.410  1.00  0.00    -0.000 C 
BRANCH   6   7
ATOM      7  C   UNL     1      18.068  -5.107 -22.391  1.00  0.00    -0.000 C 
BRANCH   7   8
ATOM      8  C   UNL     1      17.062  -3.965 -22.601  1.00  0.00    -0.000 C 
BRANCH   8   9
ATOM      9  C   UNL     1      15.813  -4.415 -23.379  1.00  0.00    -0.000 C 
BRANCH   9  10
ATOM     10  C   UNL     1      14.543  -4.388 -22.514  1.00  0.00    -0.000 C 
BRANCH  10  11
ATOM     11  C   UNL     1      14.744  -3.617 -21.201  1.00  0.00    -0.003 C 
ATOM     12  C   UNL     1      14.588  -4.539 -19.993  1.00  0.00     0.004 C 
ENDBRANCH  10  11
ENDBRANCH   9  10
ENDBRANCH   8   9
ENDBRANCH   7   8
ENDBRANCH   6   7
ENDBRANCH   5   6
ENDBRANCH   4   5
ENDBRANCH   3   4
ENDBRANCH   2   3
ENDBRANCH   1   2
BRANCH   1  13
ATOM     13  C   UNL     1      16.371  -4.674 -16.697  1.00  0.00     0.000 C 
BRANCH  13  14
ATOM     14  C   UNL     1      16.239  -3.159 -16.956  1.00  0.00     0.000 C 
BRANCH  14  15
ATOM     15  C   UNL     1      17.517  -2.470 -17.466  1.00  0.00     0.000 C 
BRANCH  15  16
ATOM     16  C   UNL     1      17.594  -2.416 -19.002  1.00  0.00     0.000 C 
BRANCH  16  17
ATOM     17  C   UNL     1      18.986  -2.783 -19.537  1.00  0.00     0.000 C 
BRANCH  17  18
ATOM     18  C   UNL     1      20.017  -3.004 -18.417  1.00  0.00     0.000 C 
BRANCH  18  19
ATOM     19  C   UNL     1      21.289  -3.663 -18.964  1.00  0.00     0.000 C 
BRANCH  19  20
ATOM     20  C   UNL     1      21.072  -4.179 -20.394  1.00  0.00     0.006 C 
BRANCH  20  21
ATOM     21  C   UNL     1      22.080  -5.270 -20.779  1.00  0.00     0.053 C 
BRANCH  21  22
ATOM     22  C   UNL     1      21.456  -6.632 -20.769  1.00  0.00     0.041 C 
ATOM     23  O   UNL     1      21.375  -7.284 -19.695  1.00  0.00    -0.550 OA
ATOM     24  O   UNL     1      20.930  -7.167 -21.941  1.00  0.00    -0.550 OA
ENDBRANCH  21  22
ENDBRANCH  20  21
ENDBRANCH  19  20
ENDBRANCH  18  19
ENDBRANCH  17  18
ENDBRANCH  16  17
ENDBRANCH  15  16
ENDBRANCH  14  15
ENDBRANCH  13  14
ENDBRANCH   1  13
TORSDOF 20
ENDMDL
