MODEL 1
REMARK VINA RESULT:    -6.032      0.000      0.000
REMARK INTER + INTRA:         -10.934
REMARK INTER:                  -9.382
REMARK INTRA:                  -1.552
REMARK UNBOUND:                -1.552
REMARK SMILES C[C@@]12C[C@@]3(O)O[C@@H](O1)[C@]1(COC(=O)c4ccccc4)[C@H]3C[C@@]12O[C@H]1O[C@H](CO)[C@@H](O)[C@H](O)[C@H]1O
REMARK SMILES IDX 1 1 2 2 3 3 4 4 20 5 21 6 22 7 9 8 7 9 8 10 6 11 23 12 24 13
REMARK SMILES IDX 33 14 25 15 31 16 26 17 29 18 34 19 32 21 27 23 28 24 30 26
REMARK SMILES IDX 5 28 10 30 11 31 12 32 13 33 14 34 15 35 19 36 16 37 18 38
REMARK SMILES IDX 17 39
REMARK H PARENT 34 20 32 22 28 25 30 27 5 29
REMARK Flexibility Score: inf
ROOT
ATOM      1  C   UNL     1      37.605 -62.782  -6.573  1.00  0.00     0.046 C 
ATOM      2  C   UNL     1      37.282 -63.923  -5.608  1.00  0.00     0.104 C 
ATOM      3  C   UNL     1      38.515 -64.883  -5.428  1.00  0.00     0.104 C 
ATOM      4  C   UNL     1      37.951 -66.021  -4.510  1.00  0.00     0.175 C 
ATOM      5  C   UNL     1      36.582 -66.540  -5.059  1.00  0.00     0.070 C 
ATOM      6  C   UNL     1      36.349 -66.157  -6.533  1.00  0.00     0.050 C 
ATOM      7  C   UNL     1      35.995 -64.747  -5.994  1.00  0.00     0.115 C 
ATOM      8  C   UNL     1      35.712 -65.361  -4.623  1.00  0.00     0.096 C 
ATOM      9  C   UNL     1      36.531 -64.567  -3.617  1.00  0.00     0.267 C 
ATOM     10  O   UNL     1      37.007 -63.428  -4.315  1.00  0.00    -0.342 OA
ATOM     11  O   UNL     1      37.629 -65.400  -3.282  1.00  0.00    -0.320 OA
ENDROOT
BRANCH   7  12
ATOM     12  O   UNL     1      34.957 -63.923  -6.533  1.00  0.00    -0.339 OA
BRANCH  12  13
ATOM     13  C   UNL     1      34.318 -64.377  -7.722  1.00  0.00     0.282 C 
ATOM     14  C   UNL     1      34.065 -63.217  -8.716  1.00  0.00     0.202 C 
ATOM     15  O   UNL     1      33.101 -65.027  -7.391  1.00  0.00    -0.341 OA
ATOM     16  C   UNL     1      32.963 -62.261  -8.187  1.00  0.00     0.179 C 
ATOM     17  C   UNL     1      32.163 -64.161  -6.773  1.00  0.00     0.178 C 
ATOM     18  C   UNL     1      31.722 -63.055  -7.753  1.00  0.00     0.177 C 
BRANCH  14  19
ATOM     19  O   UNL     1      35.259 -62.531  -9.005  1.00  0.00    -0.385 OA
ATOM     20  H   UNL     1      35.845 -62.599  -8.211  1.00  0.00     0.211 HD
ENDBRANCH  14  19
BRANCH  16  21
ATOM     21  O   UNL     1      32.620 -61.287  -9.143  1.00  0.00    -0.387 OA
ATOM     22  H   UNL     1      31.758 -60.884  -8.867  1.00  0.00     0.211 HD
ENDBRANCH  16  21
BRANCH  17  23
ATOM     23  C   UNL     1      30.971 -65.016  -6.317  1.00  0.00     0.191 C 
BRANCH  23  24
ATOM     24  O   UNL     1      30.277 -64.415  -5.256  1.00  0.00    -0.394 OA
ATOM     25  H   UNL     1      30.221 -63.445  -5.467  1.00  0.00     0.210 HD
ENDBRANCH  23  24
ENDBRANCH  17  23
BRANCH  18  26
ATOM     26  O   UNL     1      30.823 -62.185  -7.116  1.00  0.00    -0.387 OA
ATOM     27  H   UNL     1      31.099 -61.259  -7.347  1.00  0.00     0.211 HD
ENDBRANCH  18  26
ENDBRANCH  12  13
ENDBRANCH   7  12
BRANCH   4  28
ATOM     28  O   UNL     1      38.876 -67.054  -4.314  1.00  0.00    -0.365 OA
ATOM     29  H   UNL     1      39.443 -66.789  -3.546  1.00  0.00     0.214 HD
ENDBRANCH   4  28
BRANCH   8  30
ATOM     30  C   UNL     1      34.246 -65.688  -4.243  1.00  0.00     0.249 C 
BRANCH  30  31
ATOM     31  O   UNL     1      34.181 -66.759  -3.303  1.00  0.00    -0.461 OA
BRANCH  31  32
ATOM     32  C   UNL     1      33.366 -67.887  -3.445  1.00  0.00     0.338 C 
ATOM     33  O   UNL     1      32.651 -68.280  -2.484  1.00  0.00    -0.246 OA
BRANCH  32  34
ATOM     34  C   UNL     1      33.362 -68.625  -4.724  1.00  0.00     0.060 A 
ATOM     35  C   UNL     1      32.306 -68.452  -5.636  1.00  0.00     0.015 A 
ATOM     36  C   UNL     1      34.405 -69.515  -5.046  1.00  0.00     0.015 A 
ATOM     37  C   UNL     1      32.296 -69.149  -6.849  1.00  0.00     0.001 A 
ATOM     38  C   UNL     1      34.390 -70.210  -6.260  1.00  0.00     0.001 A 
ATOM     39  C   UNL     1      33.339 -70.027  -7.162  1.00  0.00     0.000 A 
ENDBRANCH  32  34
ENDBRANCH  31  32
ENDBRANCH  30  31
ENDBRANCH   8  30
TORSDOF 12
ENDMDL
MODEL 2
REMARK VINA RESULT:    -6.004      0.592      1.148
REMARK INTER + INTRA:         -10.891
REMARK INTER:                  -9.499
REMARK INTRA:                  -1.391
REMARK UNBOUND:                -1.552
REMARK SMILES C[C@@]12C[C@@]3(O)O[C@@H](O1)[C@]1(COC(=O)c4ccccc4)[C@H]3C[C@@]12O[C@H]1O[C@H](CO)[C@@H](O)[C@H](O)[C@H]1O
REMARK SMILES IDX 1 1 2 2 3 3 4 4 20 5 21 6 22 7 9 8 7 9 8 10 6 11 23 12 24 13
REMARK SMILES IDX 33 14 25 15 31 16 26 17 29 18 34 19 32 21 27 23 28 24 30 26
REMARK SMILES IDX 5 28 10 30 11 31 12 32 13 33 14 34 15 35 19 36 16 37 18 38
REMARK SMILES IDX 17 39
REMARK H PARENT 34 20 32 22 28 25 30 27 5 29
REMARK Flexibility Score: inf
ROOT
ATOM      1  C   UNL     1      37.456 -62.670  -6.234  1.00  0.00     0.046 C 
ATOM      2  C   UNL     1      37.158 -63.888  -5.358  1.00  0.00     0.104 C 
ATOM      3  C   UNL     1      38.436 -64.786  -5.178  1.00  0.00     0.104 C 
ATOM      4  C   UNL     1      37.901 -66.011  -4.360  1.00  0.00     0.175 C 
ATOM      5  C   UNL     1      36.591 -66.569  -5.005  1.00  0.00     0.070 C 
ATOM      6  C   UNL     1      36.402 -66.106  -6.462  1.00  0.00     0.050 C 
ATOM      7  C   UNL     1      35.941 -64.756  -5.856  1.00  0.00     0.115 C 
ATOM      8  C   UNL     1      35.633 -65.471  -4.540  1.00  0.00     0.096 C 
ATOM      9  C   UNL     1      36.358 -64.699  -3.448  1.00  0.00     0.267 C 
ATOM     10  O   UNL     1      36.796 -63.492  -4.052  1.00  0.00    -0.342 OA
ATOM     11  O   UNL     1      37.488 -65.488  -3.113  1.00  0.00    -0.320 OA
ENDROOT
BRANCH   7  12
ATOM     12  O   UNL     1      34.881 -63.959  -6.392  1.00  0.00    -0.339 OA
BRANCH  12  13
ATOM     13  C   UNL     1      34.229 -64.446  -7.561  1.00  0.00     0.282 C 
ATOM     14  C   UNL     1      34.011 -63.325  -8.607  1.00  0.00     0.202 C 
ATOM     15  O   UNL     1      32.993 -65.044  -7.203  1.00  0.00    -0.341 OA
ATOM     16  C   UNL     1      32.939 -62.314  -8.122  1.00  0.00     0.179 C 
ATOM     17  C   UNL     1      32.081 -64.123  -6.626  1.00  0.00     0.178 C 
ATOM     18  C   UNL     1      31.674 -63.050  -7.655  1.00  0.00     0.177 C 
BRANCH  14  19
ATOM     19  O   UNL     1      35.225 -62.689  -8.925  1.00  0.00    -0.385 OA
ATOM     20  H   UNL     1      35.650 -62.409  -8.075  1.00  0.00     0.211 HD
ENDBRANCH  14  19
BRANCH  16  21
ATOM     21  O   UNL     1      32.624 -61.374  -9.122  1.00  0.00    -0.387 OA
ATOM     22  H   UNL     1      32.587 -60.481  -8.696  1.00  0.00     0.211 HD
ENDBRANCH  16  21
BRANCH  17  23
ATOM     23  C   UNL     1      30.864 -64.921  -6.134  1.00  0.00     0.191 C 
BRANCH  23  24
ATOM     24  O   UNL     1      30.000 -64.127  -5.364  1.00  0.00    -0.394 OA
ATOM     25  H   UNL     1      30.015 -64.501  -4.443  1.00  0.00     0.210 HD
ENDBRANCH  23  24
ENDBRANCH  17  23
BRANCH  18  26
ATOM     26  O   UNL     1      30.802 -62.125  -7.060  1.00  0.00    -0.387 OA
ATOM     27  H   UNL     1      31.356 -61.509  -6.512  1.00  0.00     0.211 HD
ENDBRANCH  18  26
ENDBRANCH  12  13
ENDBRANCH   7  12
BRANCH   4  28
ATOM     28  O   UNL     1      38.875 -67.000  -4.183  1.00  0.00    -0.365 OA
ATOM     29  H   UNL     1      39.242 -67.205  -5.081  1.00  0.00     0.214 HD
ENDBRANCH   4  28
BRANCH   8  30
ATOM     30  C   UNL     1      34.174 -65.904  -4.252  1.00  0.00     0.249 C 
BRANCH  30  31
ATOM     31  O   UNL     1      34.113 -66.838  -3.176  1.00  0.00    -0.461 OA
BRANCH  31  32
ATOM     32  C   UNL     1      33.507 -68.097  -3.255  1.00  0.00     0.338 C 
ATOM     33  O   UNL     1      32.471 -68.347  -2.584  1.00  0.00    -0.246 OA
BRANCH  32  34
ATOM     34  C   UNL     1      34.103 -69.137  -4.118  1.00  0.00     0.060 A 
ATOM     35  C   UNL     1      35.056 -70.029  -3.594  1.00  0.00     0.015 A 
ATOM     36  C   UNL     1      33.736 -69.247  -5.473  1.00  0.00     0.015 A 
ATOM     37  C   UNL     1      35.624 -71.015  -4.406  1.00  0.00     0.001 A 
ATOM     38  C   UNL     1      34.308 -70.235  -6.282  1.00  0.00     0.001 A 
ATOM     39  C   UNL     1      35.250 -71.119  -5.750  1.00  0.00     0.000 A 
ENDBRANCH  32  34
ENDBRANCH  31  32
ENDBRANCH  30  31
ENDBRANCH   8  30
TORSDOF 12
ENDMDL
MODEL 3
REMARK VINA RESULT:    -6.002      2.192      5.092
REMARK INTER + INTRA:         -10.887
REMARK INTER:                  -9.101
REMARK INTRA:                  -1.786
REMARK UNBOUND:                -1.552
REMARK SMILES C[C@@]12C[C@@]3(O)O[C@@H](O1)[C@]1(COC(=O)c4ccccc4)[C@H]3C[C@@]12O[C@H]1O[C@H](CO)[C@@H](O)[C@H](O)[C@H]1O
REMARK SMILES IDX 1 1 2 2 3 3 4 4 20 5 21 6 22 7 9 8 7 9 8 10 6 11 23 12 24 13
REMARK SMILES IDX 33 14 25 15 31 16 26 17 29 18 34 19 32 21 27 23 28 24 30 26
REMARK SMILES IDX 5 28 10 30 11 31 12 32 13 33 14 34 15 35 19 36 16 37 18 38
REMARK SMILES IDX 17 39
REMARK H PARENT 34 20 32 22 28 25 30 27 5 29
REMARK Flexibility Score: inf
ROOT
ATOM      1  C   UNL     1      31.876 -63.345  -7.263  1.00  0.00     0.046 C 
ATOM      2  C   UNL     1      32.013 -64.781  -6.758  1.00  0.00     0.104 C 
ATOM      3  C   UNL     1      30.895 -65.125  -5.706  1.00  0.00     0.104 C 
ATOM      4  C   UNL     1      31.274 -66.572  -5.240  1.00  0.00     0.175 C 
ATOM      5  C   UNL     1      32.792 -66.651  -4.877  1.00  0.00     0.070 C 
ATOM      6  C   UNL     1      33.418 -65.263  -4.634  1.00  0.00     0.050 C 
ATOM      7  C   UNL     1      33.438 -65.126  -6.179  1.00  0.00     0.115 C 
ATOM      8  C   UNL     1      33.357 -66.648  -6.297  1.00  0.00     0.096 C 
ATOM      9  C   UNL     1      32.191 -66.948  -7.227  1.00  0.00     0.267 C 
ATOM     10  O   UNL     1      31.829 -65.706  -7.809  1.00  0.00    -0.342 OA
ATOM     11  O   UNL     1      31.140 -67.391  -6.385  1.00  0.00    -0.320 OA
ENDROOT
BRANCH   7  12
ATOM     12  O   UNL     1      34.495 -64.500  -6.912  1.00  0.00    -0.339 OA
BRANCH  12  13
ATOM     13  C   UNL     1      35.224 -63.472  -6.250  1.00  0.00     0.282 C 
ATOM     14  C   UNL     1      35.806 -62.444  -7.253  1.00  0.00     0.202 C 
ATOM     15  O   UNL     1      36.258 -64.048  -5.467  1.00  0.00    -0.341 OA
ATOM     16  C   UNL     1      36.954 -63.071  -8.087  1.00  0.00     0.179 C 
ATOM     17  C   UNL     1      37.219 -64.743  -6.247  1.00  0.00     0.178 C 
ATOM     18  C   UNL     1      37.973 -63.765  -7.170  1.00  0.00     0.177 C 
BRANCH  14  19
ATOM     19  O   UNL     1      34.795 -61.910  -8.071  1.00  0.00    -0.385 OA
ATOM     20  H   UNL     1      33.999 -61.752  -7.503  1.00  0.00     0.211 HD
ENDBRANCH  14  19
BRANCH  16  21
ATOM     21  O   UNL     1      37.589 -62.111  -8.897  1.00  0.00    -0.387 OA
ATOM     22  H   UNL     1      36.950 -61.843  -9.605  1.00  0.00     0.211 HD
ENDBRANCH  16  21
BRANCH  17  23
ATOM     23  C   UNL     1      38.176 -65.454  -5.279  1.00  0.00     0.191 C 
BRANCH  23  24
ATOM     24  O   UNL     1      38.772 -66.577  -5.871  1.00  0.00    -0.394 OA
ATOM     25  H   UNL     1      39.445 -66.234  -6.518  1.00  0.00     0.210 HD
ENDBRANCH  23  24
ENDBRANCH  17  23
BRANCH  18  26
ATOM     26  O   UNL     1      38.893 -64.470  -7.961  1.00  0.00    -0.387 OA
ATOM     27  H   UNL     1      38.545 -64.463  -8.892  1.00  0.00     0.211 HD
ENDBRANCH  18  26
ENDBRANCH  12  13
ENDBRANCH   7  12
BRANCH   4  28
ATOM     28  O   UNL     1      30.450 -67.030  -4.205  1.00  0.00    -0.365 OA
ATOM     29  H   UNL     1      29.589 -66.547  -4.289  1.00  0.00     0.214 HD
ENDBRANCH   4  28
BRANCH   8  30
ATOM     30  C   UNL     1      34.665 -67.447  -6.522  1.00  0.00     0.249 C 
BRANCH  30  31
ATOM     31  O   UNL     1      34.399 -68.730  -7.087  1.00  0.00    -0.461 OA
BRANCH  31  32
ATOM     32  C   UNL     1      34.265 -69.909  -6.345  1.00  0.00     0.338 C 
ATOM     33  O   UNL     1      35.273 -70.628  -6.108  1.00  0.00    -0.246 OA
BRANCH  32  34
ATOM     34  C   UNL     1      32.931 -70.313  -5.857  1.00  0.00     0.060 A 
ATOM     35  C   UNL     1      32.644 -70.283  -4.480  1.00  0.00     0.015 A 
ATOM     36  C   UNL     1      31.935 -70.742  -6.755  1.00  0.00     0.015 A 
ATOM     37  C   UNL     1      31.384 -70.665  -4.012  1.00  0.00     0.001 A 
ATOM     38  C   UNL     1      30.676 -71.124  -6.280  1.00  0.00     0.001 A 
ATOM     39  C   UNL     1      30.399 -71.085  -4.912  1.00  0.00     0.000 A 
ENDBRANCH  32  34
ENDBRANCH  31  32
ENDBRANCH  30  31
ENDBRANCH   8  30
TORSDOF 12
ENDMDL
MODEL 4
REMARK VINA RESULT:    -5.835     12.084     14.752
REMARK INTER + INTRA:         -10.627
REMARK INTER:                  -9.372
REMARK INTRA:                  -1.255
REMARK UNBOUND:                -1.552
REMARK SMILES C[C@@]12C[C@@]3(O)O[C@@H](O1)[C@]1(COC(=O)c4ccccc4)[C@H]3C[C@@]12O[C@H]1O[C@H](CO)[C@@H](O)[C@H](O)[C@H]1O
REMARK SMILES IDX 1 1 2 2 3 3 4 4 20 5 21 6 22 7 9 8 7 9 8 10 6 11 23 12 24 13
REMARK SMILES IDX 33 14 25 15 31 16 26 17 29 18 34 19 32 21 27 23 28 24 30 26
REMARK SMILES IDX 5 28 10 30 11 31 12 32 13 33 14 34 15 35 19 36 16 37 18 38
REMARK SMILES IDX 17 39
REMARK H PARENT 34 20 32 22 28 25 30 27 5 29
REMARK Flexibility Score: inf
ROOT
ATOM      1  C   UNL     1      32.726 -54.643 -15.635  1.00  0.00     0.046 C 
ATOM      2  C   UNL     1      32.910 -53.694 -14.451  1.00  0.00     0.104 C 
ATOM      3  C   UNL     1      34.392 -53.178 -14.359  1.00  0.00     0.104 C 
ATOM      4  C   UNL     1      34.394 -52.327 -13.043  1.00  0.00     0.175 C 
ATOM      5  C   UNL     1      33.730 -53.124 -11.874  1.00  0.00     0.070 C 
ATOM      6  C   UNL     1      33.653 -54.638 -12.155  1.00  0.00     0.050 C 
ATOM      7  C   UNL     1      32.448 -54.293 -13.069  1.00  0.00     0.115 C 
ATOM      8  C   UNL     1      32.272 -52.977 -12.311  1.00  0.00     0.096 C 
ATOM      9  C   UNL     1      32.244 -51.875 -13.359  1.00  0.00     0.267 C 
ATOM     10  O   UNL     1      32.123 -52.532 -14.610  1.00  0.00    -0.342 OA
ATOM     11  O   UNL     1      33.513 -51.248 -13.283  1.00  0.00    -0.320 OA
ENDROOT
BRANCH   7  12
ATOM     12  O   UNL     1      31.276 -55.105 -13.186  1.00  0.00    -0.339 OA
BRANCH  12  13
ATOM     13  C   UNL     1      31.281 -56.355 -12.504  1.00  0.00     0.282 C 
ATOM     14  C   UNL     1      30.811 -57.511 -13.421  1.00  0.00     0.202 C 
ATOM     15  O   UNL     1      30.463 -56.270 -11.346  1.00  0.00    -0.341 OA
ATOM     16  C   UNL     1      29.295 -57.396 -13.728  1.00  0.00     0.179 C 
ATOM     17  C   UNL     1      29.101 -56.018 -11.651  1.00  0.00     0.178 C 
ATOM     18  C   UNL     1      28.494 -57.201 -12.431  1.00  0.00     0.177 C 
BRANCH  14  19
ATOM     19  O   UNL     1      31.581 -57.566 -14.597  1.00  0.00    -0.385 OA
ATOM     20  H   UNL     1      31.491 -58.478 -14.973  1.00  0.00     0.211 HD
ENDBRANCH  14  19
BRANCH  16  21
ATOM     21  O   UNL     1      28.824 -58.517 -14.437  1.00  0.00    -0.387 OA
ATOM     22  H   UNL     1      29.581 -58.883 -14.960  1.00  0.00     0.211 HD
ENDBRANCH  16  21
BRANCH  17  23
ATOM     23  C   UNL     1      28.364 -55.782 -10.323  1.00  0.00     0.191 C 
BRANCH  23  24
ATOM     24  O   UNL     1      27.153 -55.101 -10.517  1.00  0.00    -0.394 OA
ATOM     25  H   UNL     1      27.389 -54.176 -10.795  1.00  0.00     0.210 HD
ENDBRANCH  23  24
ENDBRANCH  17  23
BRANCH  18  26
ATOM     26  O   UNL     1      27.158 -56.923 -12.758  1.00  0.00    -0.387 OA
ATOM     27  H   UNL     1      26.769 -56.419 -11.995  1.00  0.00     0.211 HD
ENDBRANCH  18  26
ENDBRANCH  12  13
ENDBRANCH   7  12
BRANCH   4  28
ATOM     28  O   UNL     1      35.672 -51.859 -12.714  1.00  0.00    -0.365 OA
ATOM     29  H   UNL     1      35.547 -51.104 -12.084  1.00  0.00     0.214 HD
ENDBRANCH   4  28
BRANCH   8  30
ATOM     30  C   UNL     1      31.217 -52.906 -11.179  1.00  0.00     0.249 C 
BRANCH  30  31
ATOM     31  O   UNL     1      30.757 -51.570 -10.982  1.00  0.00    -0.461 OA
BRANCH  31  32
ATOM     32  C   UNL     1      29.409 -51.198 -10.922  1.00  0.00     0.338 C 
ATOM     33  O   UNL     1      28.792 -50.875 -11.972  1.00  0.00    -0.246 OA
BRANCH  32  34
ATOM     34  C   UNL     1      28.721 -51.169  -9.616  1.00  0.00     0.060 A 
ATOM     35  C   UNL     1      29.457 -50.973  -8.434  1.00  0.00     0.015 A 
ATOM     36  C   UNL     1      27.326 -51.346  -9.532  1.00  0.00     0.015 A 
ATOM     37  C   UNL     1      28.812 -50.946  -7.194  1.00  0.00     0.001 A 
ATOM     38  C   UNL     1      26.686 -51.319  -8.288  1.00  0.00     0.001 A 
ATOM     39  C   UNL     1      27.426 -51.118  -7.121  1.00  0.00     0.000 A 
ENDBRANCH  32  34
ENDBRANCH  31  32
ENDBRANCH  30  31
ENDBRANCH   8  30
TORSDOF 12
ENDMDL
MODEL 5
REMARK VINA RESULT:    -5.689      2.363      6.194
REMARK INTER + INTRA:         -10.400
REMARK INTER:                  -9.029
REMARK INTRA:                  -1.371
REMARK UNBOUND:                -1.552
REMARK SMILES C[C@@]12C[C@@]3(O)O[C@@H](O1)[C@]1(COC(=O)c4ccccc4)[C@H]3C[C@@]12O[C@H]1O[C@H](CO)[C@@H](O)[C@H](O)[C@H]1O
REMARK SMILES IDX 1 1 2 2 3 3 4 4 20 5 21 6 22 7 9 8 7 9 8 10 6 11 23 12 24 13
REMARK SMILES IDX 33 14 25 15 31 16 26 17 29 18 34 19 32 21 27 23 28 24 30 26
REMARK SMILES IDX 5 28 10 30 11 31 12 32 13 33 14 34 15 35 19 36 16 37 18 38
REMARK SMILES IDX 17 39
REMARK H PARENT 34 20 32 22 28 25 30 27 5 29
REMARK Flexibility Score: inf
ROOT
ATOM      1  C   UNL     1      37.146 -67.061  -5.128  1.00  0.00     0.046 C 
ATOM      2  C   UNL     1      36.634 -65.675  -5.520  1.00  0.00     0.104 C 
ATOM      3  C   UNL     1      37.085 -64.585  -4.480  1.00  0.00     0.104 C 
ATOM      4  C   UNL     1      36.378 -63.284  -4.994  1.00  0.00     0.175 C 
ATOM      5  C   UNL     1      34.868 -63.562  -5.289  1.00  0.00     0.070 C 
ATOM      6  C   UNL     1      34.355 -64.845  -4.607  1.00  0.00     0.050 C 
ATOM      7  C   UNL     1      35.076 -65.606  -5.750  1.00  0.00     0.115 C 
ATOM      8  C   UNL     1      35.039 -64.333  -6.597  1.00  0.00     0.096 C 
ATOM      9  C   UNL     1      36.465 -64.083  -7.064  1.00  0.00     0.267 C 
ATOM     10  O   UNL     1      37.188 -65.262  -6.752  1.00  0.00    -0.342 OA
ATOM     11  O   UNL     1      36.944 -63.016  -6.262  1.00  0.00    -0.320 OA
ENDROOT
BRANCH   7  12
ATOM     12  O   UNL     1      34.561 -66.784  -6.375  1.00  0.00    -0.339 OA
BRANCH  12  13
ATOM     13  C   UNL     1      33.925 -67.741  -5.533  1.00  0.00     0.282 C 
ATOM     14  C   UNL     1      33.888 -69.145  -6.186  1.00  0.00     0.202 C 
ATOM     15  O   UNL     1      32.613 -67.301  -5.217  1.00  0.00    -0.341 OA
ATOM     16  C   UNL     1      32.906 -69.174  -7.387  1.00  0.00     0.179 C 
ATOM     17  C   UNL     1      31.776 -67.195  -6.358  1.00  0.00     0.178 C 
ATOM     18  C   UNL     1      31.546 -68.584  -6.988  1.00  0.00     0.177 C 
BRANCH  14  19
ATOM     19  O   UNL     1      35.179 -69.565  -6.554  1.00  0.00    -0.385 OA
ATOM     20  H   UNL     1      35.190 -69.676  -7.538  1.00  0.00     0.211 HD
ENDBRANCH  14  19
BRANCH  16  21
ATOM     21  O   UNL     1      32.751 -70.476  -7.898  1.00  0.00    -0.387 OA
ATOM     22  H   UNL     1      31.955 -70.477  -8.487  1.00  0.00     0.211 HD
ENDBRANCH  16  21
BRANCH  17  23
ATOM     23  C   UNL     1      30.454 -66.555  -5.908  1.00  0.00     0.191 C 
BRANCH  23  24
ATOM     24  O   UNL     1      30.670 -65.346  -5.229  1.00  0.00    -0.394 OA
ATOM     25  H   UNL     1      30.288 -64.628  -5.799  1.00  0.00     0.210 HD
ENDBRANCH  23  24
ENDBRANCH  17  23
BRANCH  18  26
ATOM     26  O   UNL     1      30.747 -68.459  -8.136  1.00  0.00    -0.387 OA
ATOM     27  H   UNL     1      30.481 -67.505  -8.206  1.00  0.00     0.211 HD
ENDBRANCH  18  26
ENDBRANCH  12  13
ENDBRANCH   7  12
BRANCH   4  28
ATOM     28  O   UNL     1      36.565 -62.199  -4.130  1.00  0.00    -0.365 OA
ATOM     29  H   UNL     1      36.637 -62.572  -3.214  1.00  0.00     0.214 HD
ENDBRANCH   4  28
BRANCH   8  30
ATOM     30  C   UNL     1      33.911 -64.172  -7.646  1.00  0.00     0.249 C 
BRANCH  30  31
ATOM     31  O   UNL     1      34.343 -63.384  -8.755  1.00  0.00    -0.461 OA
BRANCH  31  32
ATOM     32  C   UNL     1      34.032 -62.032  -8.933  1.00  0.00     0.338 C 
ATOM     33  O   UNL     1      33.036 -61.695  -9.627  1.00  0.00    -0.246 OA
BRANCH  32  34
ATOM     34  C   UNL     1      34.891 -61.001  -8.316  1.00  0.00     0.060 A 
ATOM     35  C   UNL     1      35.953 -60.437  -9.046  1.00  0.00     0.015 A 
ATOM     36  C   UNL     1      34.668 -60.575  -6.993  1.00  0.00     0.015 A 
ATOM     37  C   UNL     1      36.770 -59.462  -8.467  1.00  0.00     0.001 A 
ATOM     38  C   UNL     1      35.490 -59.599  -6.418  1.00  0.00     0.001 A 
ATOM     39  C   UNL     1      36.538 -59.041  -7.154  1.00  0.00     0.000 A 
ENDBRANCH  32  34
ENDBRANCH  31  32
ENDBRANCH  30  31
ENDBRANCH   8  30
TORSDOF 12
ENDMDL
MODEL 6
REMARK VINA RESULT:    -5.674      1.797      3.182
REMARK INTER + INTRA:         -10.377
REMARK INTER:                  -8.656
REMARK INTRA:                  -1.721
REMARK UNBOUND:                -1.552
REMARK SMILES C[C@@]12C[C@@]3(O)O[C@@H](O1)[C@]1(COC(=O)c4ccccc4)[C@H]3C[C@@]12O[C@H]1O[C@H](CO)[C@@H](O)[C@H](O)[C@H]1O
REMARK SMILES IDX 1 1 2 2 3 3 4 4 20 5 21 6 22 7 9 8 7 9 8 10 6 11 23 12 24 13
REMARK SMILES IDX 33 14 25 15 31 16 26 17 29 18 34 19 32 21 27 23 28 24 30 26
REMARK SMILES IDX 5 28 10 30 11 31 12 32 13 33 14 34 15 35 19 36 16 37 18 38
REMARK SMILES IDX 17 39
REMARK H PARENT 34 20 32 22 28 25 30 27 5 29
REMARK Flexibility Score: inf
ROOT
ATOM      1  C   UNL     1      37.636 -65.011  -4.805  1.00  0.00     0.046 C 
ATOM      2  C   UNL     1      36.393 -65.897  -4.879  1.00  0.00     0.104 C 
ATOM      3  C   UNL     1      36.764 -67.415  -4.702  1.00  0.00     0.104 C 
ATOM      4  C   UNL     1      35.394 -68.146  -4.917  1.00  0.00     0.175 C 
ATOM      5  C   UNL     1      34.689 -67.619  -6.208  1.00  0.00     0.070 C 
ATOM      6  C   UNL     1      35.657 -66.887  -7.158  1.00  0.00     0.050 C 
ATOM      7  C   UNL     1      35.530 -65.689  -6.181  1.00  0.00     0.115 C 
ATOM      8  C   UNL     1      34.214 -66.272  -5.665  1.00  0.00     0.096 C 
ATOM      9  C   UNL     1      34.341 -66.348  -4.150  1.00  0.00     0.267 C 
ATOM     10  O   UNL     1      35.504 -65.608  -3.820  1.00  0.00    -0.342 OA
ATOM     11  O   UNL     1      34.561 -67.718  -3.858  1.00  0.00    -0.320 OA
ENDROOT
BRANCH   7  12
ATOM     12  O   UNL     1      35.483 -64.321  -6.596  1.00  0.00    -0.339 OA
BRANCH  12  13
ATOM     13  C   UNL     1      35.571 -64.063  -7.993  1.00  0.00     0.282 C 
ATOM     14  C   UNL     1      36.774 -63.149  -8.334  1.00  0.00     0.202 C 
ATOM     15  O   UNL     1      34.358 -63.483  -8.449  1.00  0.00    -0.341 OA
ATOM     16  C   UNL     1      36.536 -61.703  -7.824  1.00  0.00     0.179 C 
ATOM     17  C   UNL     1      34.091 -62.223  -7.854  1.00  0.00     0.178 C 
ATOM     18  C   UNL     1      35.158 -61.192  -8.272  1.00  0.00     0.177 C 
BRANCH  14  19
ATOM     19  O   UNL     1      37.974 -63.688  -7.836  1.00  0.00    -0.385 OA
ATOM     20  H   UNL     1      38.162 -63.252  -6.967  1.00  0.00     0.211 HD
ENDBRANCH  14  19
BRANCH  16  21
ATOM     21  O   UNL     1      37.552 -60.828  -8.253  1.00  0.00    -0.387 OA
ATOM     22  H   UNL     1      37.203 -60.314  -9.024  1.00  0.00     0.211 HD
ENDBRANCH  16  21
BRANCH  17  23
ATOM     23  C   UNL     1      32.685 -61.789  -8.297  1.00  0.00     0.191 C 
BRANCH  23  24
ATOM     24  O   UNL     1      32.720 -61.076  -9.505  1.00  0.00    -0.394 OA
ATOM     25  H   UNL     1      33.477 -61.446 -10.031  1.00  0.00     0.210 HD
ENDBRANCH  23  24
ENDBRANCH  17  23
BRANCH  18  26
ATOM     26  O   UNL     1      34.902 -59.961  -7.647  1.00  0.00    -0.387 OA
ATOM     27  H   UNL     1      35.366 -59.976  -6.769  1.00  0.00     0.211 HD
ENDBRANCH  18  26
ENDBRANCH  12  13
ENDBRANCH   7  12
BRANCH   4  28
ATOM     28  O   UNL     1      35.528 -69.539  -4.909  1.00  0.00    -0.365 OA
ATOM     29  H   UNL     1      34.649 -69.913  -5.176  1.00  0.00     0.214 HD
ENDBRANCH   4  28
BRANCH   8  30
ATOM     30  C   UNL     1      32.883 -65.726  -6.238  1.00  0.00     0.249 C 
BRANCH  30  31
ATOM     31  O   UNL     1      31.814 -65.884  -5.307  1.00  0.00    -0.461 OA
BRANCH  31  32
ATOM     32  C   UNL     1      30.850 -66.897  -5.373  1.00  0.00     0.338 C 
ATOM     33  O   UNL     1      29.689 -66.699  -4.928  1.00  0.00    -0.246 OA
BRANCH  32  34
ATOM     34  C   UNL     1      31.211 -68.206  -5.954  1.00  0.00     0.060 A 
ATOM     35  C   UNL     1      31.664 -69.246  -5.123  1.00  0.00     0.015 A 
ATOM     36  C   UNL     1      31.117 -68.430  -7.341  1.00  0.00     0.015 A 
ATOM     37  C   UNL     1      32.008 -70.488  -5.666  1.00  0.00     0.001 A 
ATOM     38  C   UNL     1      31.464 -69.674  -7.879  1.00  0.00     0.001 A 
ATOM     39  C   UNL     1      31.907 -70.702  -7.044  1.00  0.00     0.000 A 
ENDBRANCH  32  34
ENDBRANCH  31  32
ENDBRANCH  30  31
ENDBRANCH   8  30
TORSDOF 12
ENDMDL
MODEL 7
REMARK VINA RESULT:    -5.627      2.089      3.633
REMARK INTER + INTRA:         -10.303
REMARK INTER:                  -8.848
REMARK INTRA:                  -1.455
REMARK UNBOUND:                -1.552
REMARK SMILES C[C@@]12C[C@@]3(O)O[C@@H](O1)[C@]1(COC(=O)c4ccccc4)[C@H]3C[C@@]12O[C@H]1O[C@H](CO)[C@@H](O)[C@H](O)[C@H]1O
REMARK SMILES IDX 1 1 2 2 3 3 4 4 20 5 21 6 22 7 9 8 7 9 8 10 6 11 23 12 24 13
REMARK SMILES IDX 33 14 25 15 31 16 26 17 29 18 34 19 32 21 27 23 28 24 30 26
REMARK SMILES IDX 5 28 10 30 11 31 12 32 13 33 14 34 15 35 19 36 16 37 18 38
REMARK SMILES IDX 17 39
REMARK H PARENT 34 20 32 22 28 25 30 27 5 29
REMARK Flexibility Score: inf
ROOT
ATOM      1  C   UNL     1      34.859 -62.326  -5.224  1.00  0.00     0.046 C 
ATOM      2  C   UNL     1      35.754 -63.329  -5.953  1.00  0.00     0.104 C 
ATOM      3  C   UNL     1      36.897 -62.598  -6.748  1.00  0.00     0.104 C 
ATOM      4  C   UNL     1      37.617 -63.771  -7.498  1.00  0.00     0.175 C 
ATOM      5  C   UNL     1      36.573 -64.685  -8.217  1.00  0.00     0.070 C 
ATOM      6  C   UNL     1      35.205 -63.998  -8.395  1.00  0.00     0.050 C 
ATOM      7  C   UNL     1      34.973 -64.321  -6.896  1.00  0.00     0.115 C 
ATOM      8  C   UNL     1      36.037 -65.415  -6.986  1.00  0.00     0.096 C 
ATOM      9  C   UNL     1      37.026 -65.150  -5.861  1.00  0.00     0.267 C 
ATOM     10  O   UNL     1      36.421 -64.169  -5.035  1.00  0.00    -0.342 OA
ATOM     11  O   UNL     1      38.170 -64.591  -6.487  1.00  0.00    -0.320 OA
ENDROOT
BRANCH   7  12
ATOM     12  O   UNL     1      33.714 -64.721  -6.350  1.00  0.00    -0.339 OA
BRANCH  12  13
ATOM     13  C   UNL     1      32.640 -64.912  -7.266  1.00  0.00     0.282 C 
ATOM     14  C   UNL     1      31.442 -63.983  -6.948  1.00  0.00     0.202 C 
ATOM     15  O   UNL     1      32.236 -66.273  -7.251  1.00  0.00    -0.341 OA
ATOM     16  C   UNL     1      30.736 -64.417  -5.636  1.00  0.00     0.179 C 
ATOM     17  C   UNL     1      31.728 -66.684  -5.992  1.00  0.00     0.178 C 
ATOM     18  C   UNL     1      30.430 -65.922  -5.659  1.00  0.00     0.177 C 
BRANCH  14  19
ATOM     19  O   UNL     1      31.846 -62.636  -6.905  1.00  0.00    -0.385 OA
ATOM     20  H   UNL     1      32.303 -62.432  -7.759  1.00  0.00     0.211 HD
ENDBRANCH  14  19
BRANCH  16  21
ATOM     21  O   UNL     1      29.561 -63.675  -5.411  1.00  0.00    -0.387 OA
ATOM     22  H   UNL     1      29.607 -63.305  -4.494  1.00  0.00     0.211 HD
ENDBRANCH  16  21
BRANCH  17  23
ATOM     23  C   UNL     1      31.490 -68.200  -6.059  1.00  0.00     0.191 C 
BRANCH  23  24
ATOM     24  O   UNL     1      31.862 -68.837  -4.866  1.00  0.00    -0.394 OA
ATOM     25  H   UNL     1      31.156 -69.508  -4.670  1.00  0.00     0.210 HD
ENDBRANCH  23  24
ENDBRANCH  17  23
BRANCH  18  26
ATOM     26  O   UNL     1      29.959 -66.311  -4.395  1.00  0.00    -0.387 OA
ATOM     27  H   UNL     1      29.093 -65.846  -4.249  1.00  0.00     0.211 HD
ENDBRANCH  18  26
ENDBRANCH  12  13
ENDBRANCH   7  12
BRANCH   4  28
ATOM     28  O   UNL     1      38.617 -63.314  -8.365  1.00  0.00    -0.365 OA
ATOM     29  H   UNL     1      38.159 -62.949  -9.164  1.00  0.00     0.214 HD
ENDBRANCH   4  28
BRANCH   8  30
ATOM     30  C   UNL     1      35.580 -66.880  -7.197  1.00  0.00     0.249 C 
BRANCH  30  31
ATOM     31  O   UNL     1      35.971 -67.708  -6.103  1.00  0.00    -0.461 OA
BRANCH  31  32
ATOM     32  C   UNL     1      35.302 -68.874  -5.715  1.00  0.00     0.338 C 
ATOM     33  O   UNL     1      34.515 -69.451  -6.513  1.00  0.00    -0.246 OA
BRANCH  32  34
ATOM     34  C   UNL     1      35.512 -69.415  -4.356  1.00  0.00     0.060 A 
ATOM     35  C   UNL     1      36.374 -68.758  -3.460  1.00  0.00     0.015 A 
ATOM     36  C   UNL     1      34.864 -70.594  -3.942  1.00  0.00     0.015 A 
ATOM     37  C   UNL     1      36.577 -69.265  -2.173  1.00  0.00     0.001 A 
ATOM     38  C   UNL     1      35.072 -71.098  -2.653  1.00  0.00     0.001 A 
ATOM     39  C   UNL     1      35.925 -70.435  -1.769  1.00  0.00     0.000 A 
ENDBRANCH  32  34
ENDBRANCH  31  32
ENDBRANCH  30  31
ENDBRANCH   8  30
TORSDOF 12
ENDMDL
MODEL 8
REMARK VINA RESULT:    -5.582      1.630      2.742
REMARK INTER + INTRA:         -10.233
REMARK INTER:                  -8.639
REMARK INTRA:                  -1.594
REMARK UNBOUND:                -1.552
REMARK SMILES C[C@@]12C[C@@]3(O)O[C@@H](O1)[C@]1(COC(=O)c4ccccc4)[C@H]3C[C@@]12O[C@H]1O[C@H](CO)[C@@H](O)[C@H](O)[C@H]1O
REMARK SMILES IDX 1 1 2 2 3 3 4 4 20 5 21 6 22 7 9 8 7 9 8 10 6 11 23 12 24 13
REMARK SMILES IDX 33 14 25 15 31 16 26 17 29 18 34 19 32 21 27 23 28 24 30 26
REMARK SMILES IDX 5 28 10 30 11 31 12 32 13 33 14 34 15 35 19 36 16 37 18 38
REMARK SMILES IDX 17 39
REMARK H PARENT 34 20 32 22 28 25 30 27 5 29
REMARK Flexibility Score: inf
ROOT
ATOM      1  C   UNL     1      35.592 -60.673  -5.702  1.00  0.00     0.046 C 
ATOM      2  C   UNL     1      36.630 -61.773  -5.927  1.00  0.00     0.104 C 
ATOM      3  C   UNL     1      37.987 -61.178  -6.453  1.00  0.00     0.104 C 
ATOM      4  C   UNL     1      38.858 -62.453  -6.720  1.00  0.00     0.175 C 
ATOM      5  C   UNL     1      38.049 -63.506  -7.546  1.00  0.00     0.070 C 
ATOM      6  C   UNL     1      36.826 -62.892  -8.256  1.00  0.00     0.050 C 
ATOM      7  C   UNL     1      36.138 -62.939  -6.867  1.00  0.00     0.115 C 
ATOM      8  C   UNL     1      37.138 -64.008  -6.426  1.00  0.00     0.096 C 
ATOM      9  C   UNL     1      37.746 -63.519  -5.120  1.00  0.00     0.267 C 
ATOM     10  O   UNL     1      36.954 -62.416  -4.712  1.00  0.00    -0.342 OA
ATOM     11  O   UNL     1      39.045 -63.061  -5.457  1.00  0.00    -0.320 OA
ENDROOT
BRANCH   7  12
ATOM     12  O   UNL     1      34.758 -63.258  -6.669  1.00  0.00    -0.339 OA
BRANCH  12  13
ATOM     13  C   UNL     1      34.019 -63.681  -7.811  1.00  0.00     0.282 C 
ATOM     14  C   UNL     1      32.939 -62.646  -8.211  1.00  0.00     0.202 C 
ATOM     15  O   UNL     1      33.430 -64.947  -7.556  1.00  0.00    -0.341 OA
ATOM     16  C   UNL     1      31.791 -62.609  -7.168  1.00  0.00     0.179 C 
ATOM     17  C   UNL     1      32.488 -64.914  -6.495  1.00  0.00     0.178 C 
ATOM     18  C   UNL     1      31.283 -64.028  -6.871  1.00  0.00     0.177 C 
BRANCH  14  19
ATOM     19  O   UNL     1      33.507 -61.376  -8.411  1.00  0.00    -0.385 OA
ATOM     20  H   UNL     1      33.469 -60.890  -7.549  1.00  0.00     0.211 HD
ENDBRANCH  14  19
BRANCH  16  21
ATOM     21  O   UNL     1      30.734 -61.782  -7.590  1.00  0.00    -0.387 OA
ATOM     22  H   UNL     1      29.886 -62.263  -7.417  1.00  0.00     0.211 HD
ENDBRANCH  16  21
BRANCH  17  23
ATOM     23  C   UNL     1      32.056 -66.361  -6.212  1.00  0.00     0.191 C 
BRANCH  23  24
ATOM     24  O   UNL     1      31.825 -66.574  -4.845  1.00  0.00    -0.394 OA
ATOM     25  H   UNL     1      31.487 -67.504  -4.755  1.00  0.00     0.210 HD
ENDBRANCH  23  24
ENDBRANCH  17  23
BRANCH  18  26
ATOM     26  O   UNL     1      30.378 -63.974  -5.800  1.00  0.00    -0.387 OA
ATOM     27  H   UNL     1      30.784 -64.482  -5.048  1.00  0.00     0.211 HD
ENDBRANCH  18  26
ENDBRANCH  12  13
ENDBRANCH   7  12
BRANCH   4  28
ATOM     28  O   UNL     1      40.090 -62.143  -7.307  1.00  0.00    -0.365 OA
ATOM     29  H   UNL     1      40.501 -61.431  -6.752  1.00  0.00     0.214 HD
ENDBRANCH   4  28
BRANCH   8  30
ATOM     30  C   UNL     1      36.714 -65.496  -6.497  1.00  0.00     0.249 C 
BRANCH  30  31
ATOM     31  O   UNL     1      36.685 -66.089  -5.199  1.00  0.00    -0.461 OA
BRANCH  31  32
ATOM     32  C   UNL     1      35.584 -66.765  -4.663  1.00  0.00     0.338 C 
ATOM     33  O   UNL     1      34.712 -66.138  -4.004  1.00  0.00    -0.246 OA
BRANCH  32  34
ATOM     34  C   UNL     1      35.460 -68.224  -4.859  1.00  0.00     0.060 A 
ATOM     35  C   UNL     1      34.872 -68.731  -6.032  1.00  0.00     0.015 A 
ATOM     36  C   UNL     1      35.917 -69.124  -3.878  1.00  0.00     0.015 A 
ATOM     37  C   UNL     1      34.751 -70.111  -6.223  1.00  0.00     0.001 A 
ATOM     38  C   UNL     1      35.793 -70.504  -4.075  1.00  0.00     0.001 A 
ATOM     39  C   UNL     1      35.212 -70.998  -5.245  1.00  0.00     0.000 A 
ENDBRANCH  32  34
ENDBRANCH  31  32
ENDBRANCH  30  31
ENDBRANCH   8  30
TORSDOF 12
ENDMDL
MODEL 9
REMARK VINA RESULT:    -5.559      2.060      3.517
REMARK INTER + INTRA:         -10.198
REMARK INTER:                  -8.908
REMARK INTRA:                  -1.289
REMARK UNBOUND:                -1.552
REMARK SMILES C[C@@]12C[C@@]3(O)O[C@@H](O1)[C@]1(COC(=O)c4ccccc4)[C@H]3C[C@@]12O[C@H]1O[C@H](CO)[C@@H](O)[C@H](O)[C@H]1O
REMARK SMILES IDX 1 1 2 2 3 3 4 4 20 5 21 6 22 7 9 8 7 9 8 10 6 11 23 12 24 13
REMARK SMILES IDX 33 14 25 15 31 16 26 17 29 18 34 19 32 21 27 23 28 24 30 26
REMARK SMILES IDX 5 28 10 30 11 31 12 32 13 33 14 34 15 35 19 36 16 37 18 38
REMARK SMILES IDX 17 39
REMARK H PARENT 34 20 32 22 28 25 30 27 5 29
REMARK Flexibility Score: inf
ROOT
ATOM      1  C   UNL     1      37.273 -66.518  -3.583  1.00  0.00     0.046 C 
ATOM      2  C   UNL     1      36.221 -67.533  -3.136  1.00  0.00     0.104 C 
ATOM      3  C   UNL     1      36.886 -68.892  -2.707  1.00  0.00     0.104 C 
ATOM      4  C   UNL     1      35.655 -69.811  -2.398  1.00  0.00     0.175 C 
ATOM      5  C   UNL     1      34.613 -69.740  -3.561  1.00  0.00     0.070 C 
ATOM      6  C   UNL     1      35.214 -69.180  -4.865  1.00  0.00     0.050 C 
ATOM      7  C   UNL     1      35.082 -67.787  -4.196  1.00  0.00     0.115 C 
ATOM      8  C   UNL     1      34.030 -68.362  -3.248  1.00  0.00     0.096 C 
ATOM      9  C   UNL     1      34.481 -68.012  -1.837  1.00  0.00     0.267 C 
ATOM     10  O   UNL     1      35.537 -67.077  -1.988  1.00  0.00    -0.342 OA
ATOM     11  O   UNL     1      34.999 -69.216  -1.296  1.00  0.00    -0.320 OA
ENDROOT
BRANCH   7  12
ATOM     12  O   UNL     1      34.706 -66.597  -4.894  1.00  0.00    -0.339 OA
BRANCH  12  13
ATOM     13  C   UNL     1      34.327 -66.739  -6.260  1.00  0.00     0.282 C 
ATOM     14  C   UNL     1      35.086 -65.744  -7.172  1.00  0.00     0.202 C 
ATOM     15  O   UNL     1      32.924 -66.563  -6.385  1.00  0.00    -0.341 OA
ATOM     16  C   UNL     1      34.608 -64.288  -6.926  1.00  0.00     0.179 C 
ATOM     17  C   UNL     1      32.495 -65.263  -6.012  1.00  0.00     0.178 C 
ATOM     18  C   UNL     1      33.075 -64.207  -6.974  1.00  0.00     0.177 C 
BRANCH  14  19
ATOM     19  O   UNL     1      36.477 -65.872  -7.012  1.00  0.00    -0.385 OA
ATOM     20  H   UNL     1      36.638 -66.594  -6.352  1.00  0.00     0.211 HD
ENDBRANCH  14  19
BRANCH  16  21
ATOM     21  O   UNL     1      35.181 -63.392  -7.848  1.00  0.00    -0.387 OA
ATOM     22  H   UNL     1      35.735 -63.919  -8.477  1.00  0.00     0.211 HD
ENDBRANCH  16  21
BRANCH  17  23
ATOM     23  C   UNL     1      30.958 -65.257  -6.031  1.00  0.00     0.191 C 
BRANCH  23  24
ATOM     24  O   UNL     1      30.432 -64.382  -5.069  1.00  0.00    -0.394 OA
ATOM     25  H   UNL     1      30.672 -64.759  -4.181  1.00  0.00     0.210 HD
ENDBRANCH  23  24
ENDBRANCH  17  23
BRANCH  18  26
ATOM     26  O   UNL     1      32.673 -62.923  -6.572  1.00  0.00    -0.387 OA
ATOM     27  H   UNL     1      33.288 -62.638  -5.846  1.00  0.00     0.211 HD
ENDBRANCH  18  26
ENDBRANCH  12  13
ENDBRANCH   7  12
BRANCH   4  28
ATOM     28  O   UNL     1      36.034 -71.125  -2.097  1.00  0.00    -0.365 OA
ATOM     29  H   UNL     1      35.692 -71.320  -1.188  1.00  0.00     0.214 HD
ENDBRANCH   4  28
BRANCH   8  30
ATOM     30  C   UNL     1      32.532 -68.153  -3.584  1.00  0.00     0.249 C 
BRANCH  30  31
ATOM     31  O   UNL     1      31.791 -69.362  -3.425  1.00  0.00    -0.461 OA
BRANCH  31  32
ATOM     32  C   UNL     1      30.973 -69.924  -4.412  1.00  0.00     0.338 C 
ATOM     33  O   UNL     1      29.856 -70.420  -4.105  1.00  0.00    -0.246 OA
BRANCH  32  34
ATOM     34  C   UNL     1      31.437 -69.948  -5.814  1.00  0.00     0.060 A 
ATOM     35  C   UNL     1      32.468 -70.822  -6.201  1.00  0.00     0.015 A 
ATOM     36  C   UNL     1      30.864 -69.095  -6.777  1.00  0.00     0.015 A 
ATOM     37  C   UNL     1      32.912 -70.849  -7.527  1.00  0.00     0.001 A 
ATOM     38  C   UNL     1      31.314 -69.125  -8.102  1.00  0.00     0.001 A 
ATOM     39  C   UNL     1      32.335 -70.001  -8.478  1.00  0.00     0.000 A 
ENDBRANCH  32  34
ENDBRANCH  31  32
ENDBRANCH  30  31
ENDBRANCH   8  30
TORSDOF 12
ENDMDL
