MODEL 1
REMARK VINA RESULT:    -2.126      0.000      0.000
REMARK INTER + INTRA:          -2.516
REMARK INTER:                  -2.499
REMARK INTRA:                  -0.016
REMARK UNBOUND:                -0.016
REMARK SMILES CCCCC(=O)[O-]
REMARK SMILES IDX 4 1 5 2 6 3 7 4 3 5 2 6 1 7
REMARK H PARENT
REMARK Flexibility Score: inf
ROOT
ATOM      1  C   UNL     1       0.375  13.857  -5.365  1.00  0.00     0.053 C 
ENDROOT
BRANCH   1   2
ATOM      2  C   UNL     1       0.271  13.084  -6.643  1.00  0.00     0.041 C 
ATOM      3  O   UNL     1      -0.750  13.197  -7.372  1.00  0.00    -0.550 OA
ATOM      4  O   UNL     1       1.316  12.261  -7.045  1.00  0.00    -0.550 OA
ENDBRANCH   1   2
BRANCH   1   5
ATOM      5  C   UNL     1      -0.481  13.240  -4.248  1.00  0.00     0.006 C 
BRANCH   5   6
ATOM      6  C   UNL     1      -0.586  14.110  -2.982  1.00  0.00    -0.003 C 
ATOM      7  C   UNL     1      -1.733  13.689  -2.065  1.00  0.00     0.004 C 
ENDBRANCH   5   6
ENDBRANCH   1   5
TORSDOF 3
ENDMDL
MODEL 2
REMARK VINA RESULT:    -2.103      0.214      1.227
REMARK INTER + INTRA:          -2.488
REMARK INTER:                  -2.472
REMARK INTRA:                  -0.016
REMARK UNBOUND:                -0.016
REMARK SMILES CCCCC(=O)[O-]
REMARK SMILES IDX 4 1 5 2 6 3 7 4 3 5 2 6 1 7
REMARK H PARENT
REMARK Flexibility Score: inf
ROOT
ATOM      1  C   UNL     1       0.405  13.951  -5.390  1.00  0.00     0.053 C 
ENDROOT
BRANCH   1   2
ATOM      2  C   UNL     1       0.384  13.233  -6.703  1.00  0.00     0.041 C 
ATOM      3  O   UNL     1       1.430  12.691  -7.147  1.00  0.00    -0.550 OA
ATOM      4  O   UNL     1      -0.801  13.135  -7.423  1.00  0.00    -0.550 OA
ENDBRANCH   1   2
BRANCH   1   5
ATOM      5  C   UNL     1      -0.466  13.250  -4.337  1.00  0.00     0.006 C 
BRANCH   5   6
ATOM      6  C   UNL     1      -0.616  14.034  -3.020  1.00  0.00    -0.003 C 
ATOM      7  C   UNL     1      -1.752  13.510  -2.143  1.00  0.00     0.004 C 
ENDBRANCH   5   6
ENDBRANCH   1   5
TORSDOF 3
ENDMDL
MODEL 3
REMARK VINA RESULT:    -2.066      4.286      5.442
REMARK INTER + INTRA:          -2.445
REMARK INTER:                  -2.395
REMARK INTRA:                  -0.050
REMARK UNBOUND:                -0.016
REMARK SMILES CCCCC(=O)[O-]
REMARK SMILES IDX 4 1 5 2 6 3 7 4 3 5 2 6 1 7
REMARK H PARENT
REMARK Flexibility Score: inf
ROOT
ATOM      1  C   UNL     1      -0.851  11.053  -8.958  1.00  0.00     0.053 C 
ENDROOT
BRANCH   1   2
ATOM      2  C   UNL     1      -1.072  12.512  -8.705  1.00  0.00     0.041 C 
ATOM      3  O   UNL     1      -1.605  13.236  -9.586  1.00  0.00    -0.550 OA
ATOM      4  O   UNL     1      -0.716  13.067  -7.482  1.00  0.00    -0.550 OA
ENDBRANCH   1   2
BRANCH   1   5
ATOM      5  C   UNL     1      -2.006  10.195  -8.419  1.00  0.00     0.006 C 
BRANCH   5   6
ATOM      6  C   UNL     1      -3.117   9.915  -9.448  1.00  0.00    -0.003 C 
ATOM      7  C   UNL     1      -4.297   9.148  -8.854  1.00  0.00     0.004 C 
ENDBRANCH   5   6
ENDBRANCH   1   5
TORSDOF 3
ENDMDL
MODEL 4
REMARK VINA RESULT:    -2.006      1.529      2.300
REMARK INTER + INTRA:          -2.375
REMARK INTER:                  -2.343
REMARK INTRA:                  -0.032
REMARK UNBOUND:                -0.016
REMARK SMILES CCCCC(=O)[O-]
REMARK SMILES IDX 4 1 5 2 6 3 7 4 3 5 2 6 1 7
REMARK H PARENT
REMARK Flexibility Score: inf
ROOT
ATOM      1  C   UNL     1      -0.222  13.024  -6.777  1.00  0.00     0.053 C 
ENDROOT
BRANCH   1   2
ATOM      2  C   UNL     1      -0.173  13.151  -8.268  1.00  0.00     0.041 C 
ATOM      3  O   UNL     1       0.892  13.503  -8.840  1.00  0.00    -0.550 OA
ATOM      4  O   UNL     1      -1.295  12.849  -9.029  1.00  0.00    -0.550 OA
ENDBRANCH   1   2
BRANCH   1   5
ATOM      5  C   UNL     1       0.867  13.865  -6.092  1.00  0.00     0.006 C 
BRANCH   5   6
ATOM      6  C   UNL     1       0.609  14.130  -4.597  1.00  0.00    -0.003 C 
ATOM      7  C   UNL     1      -0.544  13.299  -4.037  1.00  0.00     0.004 C 
ENDBRANCH   5   6
ENDBRANCH   1   5
TORSDOF 3
ENDMDL
MODEL 5
REMARK VINA RESULT:    -1.945      4.420      6.130
REMARK INTER + INTRA:          -2.302
REMARK INTER:                  -2.224
REMARK INTRA:                  -0.078
REMARK UNBOUND:                -0.016
REMARK SMILES CCCCC(=O)[O-]
REMARK SMILES IDX 4 1 5 2 6 3 7 4 3 5 2 6 1 7
REMARK H PARENT
REMARK Flexibility Score: inf
ROOT
ATOM      1  C   UNL     1      -0.285  13.723 -10.025  1.00  0.00     0.053 C 
ENDROOT
BRANCH   1   2
ATOM      2  C   UNL     1      -0.442  12.701  -8.943  1.00  0.00     0.041 C 
ATOM      3  O   UNL     1      -0.121  11.501  -9.152  1.00  0.00    -0.550 OA
ATOM      4  O   UNL     1      -0.914  13.079  -7.692  1.00  0.00    -0.550 OA
ENDBRANCH   1   2
BRANCH   1   5
ATOM      5  C   UNL     1      -1.139  13.391 -11.259  1.00  0.00     0.006 C 
BRANCH   5   6
ATOM      6  C   UNL     1      -2.637  13.203 -10.954  1.00  0.00    -0.003 C 
ATOM      7  C   UNL     1      -3.536  13.632 -12.113  1.00  0.00     0.004 C 
ENDBRANCH   5   6
ENDBRANCH   1   5
TORSDOF 3
ENDMDL
MODEL 6
REMARK VINA RESULT:    -1.935      8.030      9.046
REMARK INTER + INTRA:          -2.291
REMARK INTER:                  -2.188
REMARK INTRA:                  -0.103
REMARK UNBOUND:                -0.016
REMARK SMILES CCCCC(=O)[O-]
REMARK SMILES IDX 4 1 5 2 6 3 7 4 3 5 2 6 1 7
REMARK H PARENT
REMARK Flexibility Score: inf
ROOT
ATOM      1  C   UNL     1       0.610   4.991  -6.944  1.00  0.00     0.053 C 
ENDROOT
BRANCH   1   2
ATOM      2  C   UNL     1       0.332   6.162  -6.053  1.00  0.00     0.041 C 
ATOM      3  O   UNL     1       1.200   6.552  -5.229  1.00  0.00    -0.550 OA
ATOM      4  O   UNL     1      -0.876   6.841  -6.153  1.00  0.00    -0.550 OA
ENDBRANCH   1   2
BRANCH   1   5
ATOM      5  C   UNL     1      -0.414   3.863  -6.748  1.00  0.00     0.006 C 
BRANCH   5   6
ATOM      6  C   UNL     1      -1.233   3.530  -8.008  1.00  0.00    -0.003 C 
ATOM      7  C   UNL     1      -2.497   4.380  -8.136  1.00  0.00     0.004 C 
ENDBRANCH   5   6
ENDBRANCH   1   5
TORSDOF 3
ENDMDL
MODEL 7
REMARK VINA RESULT:    -1.925      4.603      6.124
REMARK INTER + INTRA:          -2.279
REMARK INTER:                  -2.168
REMARK INTRA:                  -0.112
REMARK UNBOUND:                -0.016
REMARK SMILES CCCCC(=O)[O-]
REMARK SMILES IDX 4 1 5 2 6 3 7 4 3 5 2 6 1 7
REMARK H PARENT
REMARK Flexibility Score: inf
ROOT
ATOM      1  C   UNL     1      -1.998  11.828 -10.143  1.00  0.00     0.053 C 
ENDROOT
BRANCH   1   2
ATOM      2  C   UNL     1      -1.480  11.738  -8.741  1.00  0.00     0.041 C 
ATOM      3  O   UNL     1      -1.115  12.778  -8.131  1.00  0.00    -0.550 OA
ATOM      4  O   UNL     1      -1.428  10.508  -8.096  1.00  0.00    -0.550 OA
ENDBRANCH   1   2
BRANCH   1   5
ATOM      5  C   UNL     1      -2.078  13.281 -10.634  1.00  0.00     0.006 C 
BRANCH   5   6
ATOM      6  C   UNL     1      -1.065  13.627 -11.741  1.00  0.00    -0.003 C 
ATOM      7  C   UNL     1       0.309  14.007 -11.190  1.00  0.00     0.004 C 
ENDBRANCH   5   6
ENDBRANCH   1   5
TORSDOF 3
ENDMDL
MODEL 8
REMARK VINA RESULT:    -1.845      1.869      2.245
REMARK INTER + INTRA:          -2.185
REMARK INTER:                  -2.081
REMARK INTRA:                  -0.104
REMARK UNBOUND:                -0.016
REMARK SMILES CCCCC(=O)[O-]
REMARK SMILES IDX 4 1 5 2 6 3 7 4 3 5 2 6 1 7
REMARK H PARENT
REMARK Flexibility Score: inf
ROOT
ATOM      1  C   UNL     1      -0.268  13.334  -5.798  1.00  0.00     0.053 C 
ENDROOT
BRANCH   1   2
ATOM      2  C   UNL     1      -0.070  12.837  -7.197  1.00  0.00     0.041 C 
ATOM      3  O   UNL     1      -0.940  13.062  -8.079  1.00  0.00    -0.550 OA
ATOM      4  O   UNL     1       1.090  12.152  -7.534  1.00  0.00    -0.550 OA
ENDBRANCH   1   2
BRANCH   1   5
ATOM      5  C   UNL     1       0.959  14.100  -5.281  1.00  0.00     0.006 C 
BRANCH   5   6
ATOM      6  C   UNL     1       1.545  13.541  -3.972  1.00  0.00    -0.003 C 
ATOM      7  C   UNL     1       2.370  12.272  -4.185  1.00  0.00     0.004 C 
ENDBRANCH   5   6
ENDBRANCH   1   5
TORSDOF 3
ENDMDL
