MODEL 1
REMARK VINA RESULT:    -5.277      0.000      0.000
REMARK INTER + INTRA:          -5.932
REMARK INTER:                  -5.739
REMARK INTRA:                  -0.192
REMARK UNBOUND:                -0.192
REMARK SMILES C=C(C)[C@@H]1CC=C(C)[C@@H](O)C1
REMARK SMILES IDX 8 1 7 2 6 3 5 4 4 5 11 6 9 7 10 8 2 10 1 11 3 12
REMARK H PARENT 10 9
REMARK Flexibility Score: inf
ROOT
ATOM      1  C   UNL     1      -3.243  17.341  45.295  1.00  0.00     0.042 C 
ATOM      2  C   UNL     1      -2.907  18.209  46.477  1.00  0.00    -0.049 C 
ATOM      3  C   UNL     1      -2.393  19.436  46.282  1.00  0.00    -0.025 C 
ATOM      4  C   UNL     1      -2.059  20.314  47.459  1.00  0.00     0.035 C 
ATOM      5  C   UNL     1      -3.136  20.250  48.581  1.00  0.00     0.021 C 
ATOM      6  C   UNL     1      -3.931  18.910  48.627  1.00  0.00     0.044 C 
ATOM      7  C   UNL     1      -3.218  17.762  47.887  1.00  0.00     0.140 C 
ENDROOT
BRANCH   7   8
ATOM      8  O   UNL     1      -2.023  17.422  48.542  1.00  0.00    -0.389 OA
ATOM      9  H   UNL     1      -1.555  18.274  48.744  1.00  0.00     0.211 HD
ENDBRANCH   7   8
BRANCH   5  10
ATOM     10  C   UNL     1      -4.083  21.444  48.509  1.00  0.00    -0.077 C 
ATOM     11  C   UNL     1      -5.147  21.431  47.690  1.00  0.00     0.008 C 
ATOM     12  C   UNL     1      -3.833  22.666  49.354  1.00  0.00     0.039 C 
ENDBRANCH   5  10
TORSDOF 2
ENDMDL
MODEL 2
REMARK VINA RESULT:    -4.903      1.623      2.370
REMARK INTER + INTRA:          -5.525
REMARK INTER:                  -5.381
REMARK INTRA:                  -0.145
REMARK UNBOUND:                -0.192
REMARK SMILES C=C(C)[C@@H]1CC=C(C)[C@@H](O)C1
REMARK SMILES IDX 8 1 7 2 6 3 5 4 4 5 11 6 9 7 10 8 2 10 1 11 3 12
REMARK H PARENT 10 9
REMARK Flexibility Score: inf
ROOT
ATOM      1  C   UNL     1      -0.680  18.386  47.577  1.00  0.00     0.042 C 
ATOM      2  C   UNL     1      -2.077  18.927  47.431  1.00  0.00    -0.049 C 
ATOM      3  C   UNL     1      -2.890  18.978  48.500  1.00  0.00    -0.025 C 
ATOM      4  C   UNL     1      -4.288  19.524  48.363  1.00  0.00     0.035 C 
ATOM      5  C   UNL     1      -4.354  20.788  47.457  1.00  0.00     0.021 C 
ATOM      6  C   UNL     1      -3.226  20.862  46.383  1.00  0.00     0.044 C 
ATOM      7  C   UNL     1      -2.557  19.500  46.117  1.00  0.00     0.140 C 
ENDROOT
BRANCH   7   8
ATOM      8  O   UNL     1      -3.471  18.611  45.528  1.00  0.00    -0.389 OA
ATOM      9  H   UNL     1      -3.101  18.367  44.639  1.00  0.00     0.211 HD
ENDBRANCH   7   8
BRANCH   5  10
ATOM     10  C   UNL     1      -4.399  22.064  48.290  1.00  0.00    -0.077 C 
ATOM     11  C   UNL     1      -5.483  22.858  48.277  1.00  0.00     0.008 C 
ATOM     12  C   UNL     1      -3.220  22.461  49.140  1.00  0.00     0.039 C 
ENDBRANCH   5  10
TORSDOF 2
ENDMDL
MODEL 3
REMARK VINA RESULT:    -4.874      2.460      4.111
REMARK INTER + INTRA:          -5.494
REMARK INTER:                  -5.301
REMARK INTRA:                  -0.193
REMARK UNBOUND:                -0.192
REMARK SMILES C=C(C)[C@@H]1CC=C(C)[C@@H](O)C1
REMARK SMILES IDX 8 1 7 2 6 3 5 4 4 5 11 6 9 7 10 8 2 10 1 11 3 12
REMARK H PARENT 10 9
REMARK Flexibility Score: inf
ROOT
ATOM      1  C   UNL     1      -4.279  19.569  48.256  1.00  0.00     0.042 C 
ATOM      2  C   UNL     1      -4.206  21.070  48.170  1.00  0.00    -0.049 C 
ATOM      3  C   UNL     1      -5.305  21.776  47.853  1.00  0.00    -0.025 C 
ATOM      4  C   UNL     1      -5.243  23.278  47.769  1.00  0.00     0.035 C 
ATOM      5  C   UNL     1      -4.393  23.909  48.911  1.00  0.00     0.021 C 
ATOM      6  C   UNL     1      -3.283  22.970  49.473  1.00  0.00     0.044 C 
ATOM      7  C   UNL     1      -2.936  21.810  48.520  1.00  0.00     0.140 C 
ENDROOT
BRANCH   7   8
ATOM      8  O   UNL     1      -2.344  22.301  47.344  1.00  0.00    -0.389 OA
ATOM      9  H   UNL     1      -2.270  23.285  47.450  1.00  0.00     0.211 HD
ENDBRANCH   7   8
BRANCH   5  10
ATOM     10  C   UNL     1      -5.280  24.438  50.033  1.00  0.00    -0.077 C 
ATOM     11  C   UNL     1      -4.906  24.326  51.318  1.00  0.00     0.008 C 
ATOM     12  C   UNL     1      -6.600  25.092  49.717  1.00  0.00     0.039 C 
ENDBRANCH   5  10
TORSDOF 2
ENDMDL
MODEL 4
REMARK VINA RESULT:    -4.765      1.689      4.204
REMARK INTER + INTRA:          -5.375
REMARK INTER:                  -5.309
REMARK INTRA:                  -0.066
REMARK UNBOUND:                -0.192
REMARK SMILES C=C(C)[C@@H]1CC=C(C)[C@@H](O)C1
REMARK SMILES IDX 8 1 7 2 6 3 5 4 4 5 11 6 9 7 10 8 2 10 1 11 3 12
REMARK H PARENT 10 9
REMARK Flexibility Score: inf
ROOT
ATOM      1  C   UNL     1      -5.384  22.127  47.688  1.00  0.00     0.042 C 
ATOM      2  C   UNL     1      -4.322  21.150  48.116  1.00  0.00    -0.049 C 
ATOM      3  C   UNL     1      -4.623  19.846  48.243  1.00  0.00    -0.025 C 
ATOM      4  C   UNL     1      -3.565  18.861  48.665  1.00  0.00     0.035 C 
ATOM      5  C   UNL     1      -2.190  19.129  47.988  1.00  0.00     0.021 C 
ATOM      6  C   UNL     1      -1.956  20.617  47.585  1.00  0.00     0.044 C 
ATOM      7  C   UNL     1      -2.892  21.594  48.323  1.00  0.00     0.140 C 
ENDROOT
BRANCH   7   8
ATOM      8  O   UNL     1      -2.603  21.608  49.697  1.00  0.00    -0.389 OA
ATOM      9  H   UNL     1      -1.908  22.303  49.837  1.00  0.00     0.211 HD
ENDBRANCH   7   8
BRANCH   5  10
ATOM     10  C   UNL     1      -1.968  18.201  46.798  1.00  0.00    -0.077 C 
ATOM     11  C   UNL     1      -0.730  17.942  46.347  1.00  0.00     0.008 C 
ATOM     12  C   UNL     1      -3.142  17.562  46.102  1.00  0.00     0.039 C 
ENDBRANCH   5  10
TORSDOF 2
ENDMDL
MODEL 5
REMARK VINA RESULT:    -4.728      4.867      7.431
REMARK INTER + INTRA:          -5.335
REMARK INTER:                  -5.124
REMARK INTRA:                  -0.211
REMARK UNBOUND:                -0.192
REMARK SMILES C=C(C)[C@@H]1CC=C(C)[C@@H](O)C1
REMARK SMILES IDX 8 1 7 2 6 3 5 4 4 5 11 6 9 7 10 8 2 10 1 11 3 12
REMARK H PARENT 10 9
REMARK Flexibility Score: inf
ROOT
ATOM      1  C   UNL     1      -4.010  28.059  50.130  1.00  0.00     0.042 C 
ATOM      2  C   UNL     1      -4.949  26.979  49.665  1.00  0.00    -0.049 C 
ATOM      3  C   UNL     1      -4.906  26.559  48.389  1.00  0.00    -0.025 C 
ATOM      4  C   UNL     1      -5.838  25.474  47.917  1.00  0.00     0.035 C 
ATOM      5  C   UNL     1      -5.999  24.326  48.956  1.00  0.00     0.021 C 
ATOM      6  C   UNL     1      -5.771  24.766  50.434  1.00  0.00     0.044 C 
ATOM      7  C   UNL     1      -5.885  26.290  50.632  1.00  0.00     0.140 C 
ENDROOT
BRANCH   7   8
ATOM      8  O   UNL     1      -7.200  26.720  50.393  1.00  0.00    -0.389 OA
ATOM      9  H   UNL     1      -7.448  27.317  51.148  1.00  0.00     0.211 HD
ENDBRANCH   7   8
BRANCH   5  10
ATOM     10  C   UNL     1      -5.121  23.131  48.600  1.00  0.00    -0.077 C 
ATOM     11  C   UNL     1      -5.492  22.263  47.644  1.00  0.00     0.008 C 
ATOM     12  C   UNL     1      -3.821  22.899  49.326  1.00  0.00     0.039 C 
ENDBRANCH   5  10
TORSDOF 2
ENDMDL
MODEL 6
REMARK VINA RESULT:    -4.475      1.824      2.915
REMARK INTER + INTRA:          -5.060
REMARK INTER:                  -4.854
REMARK INTRA:                  -0.205
REMARK UNBOUND:                -0.192
REMARK SMILES C=C(C)[C@@H]1CC=C(C)[C@@H](O)C1
REMARK SMILES IDX 8 1 7 2 6 3 5 4 4 5 11 6 9 7 10 8 2 10 1 11 3 12
REMARK H PARENT 10 9
REMARK Flexibility Score: inf
ROOT
ATOM      1  C   UNL     1      -2.197  18.092  47.614  1.00  0.00     0.042 C 
ATOM      2  C   UNL     1      -2.917  19.410  47.510  1.00  0.00    -0.049 C 
ATOM      3  C   UNL     1      -3.911  19.699  48.368  1.00  0.00    -0.025 C 
ATOM      4  C   UNL     1      -4.633  21.017  48.275  1.00  0.00     0.035 C 
ATOM      5  C   UNL     1      -3.673  22.210  47.995  1.00  0.00     0.021 C 
ATOM      6  C   UNL     1      -2.372  21.815  47.232  1.00  0.00     0.044 C 
ATOM      7  C   UNL     1      -2.485  20.458  46.511  1.00  0.00     0.140 C 
ENDROOT
BRANCH   7   8
ATOM      8  O   UNL     1      -3.429  20.530  45.474  1.00  0.00    -0.389 OA
ATOM      9  H   UNL     1      -3.289  21.402  45.019  1.00  0.00     0.211 HD
ENDBRANCH   7   8
BRANCH   5  10
ATOM     10  C   UNL     1      -3.345  22.969  49.276  1.00  0.00    -0.077 C 
ATOM     11  C   UNL     1      -2.100  22.969  49.778  1.00  0.00     0.008 C 
ATOM     12  C   UNL     1      -4.422  23.731  50.006  1.00  0.00     0.039 C 
ENDBRANCH   5  10
TORSDOF 2
ENDMDL
MODEL 7
REMARK VINA RESULT:    -4.381      1.904      2.786
REMARK INTER + INTRA:          -4.958
REMARK INTER:                  -4.768
REMARK INTRA:                  -0.190
REMARK UNBOUND:                -0.192
REMARK SMILES C=C(C)[C@@H]1CC=C(C)[C@@H](O)C1
REMARK SMILES IDX 8 1 7 2 6 3 5 4 4 5 11 6 9 7 10 8 2 10 1 11 3 12
REMARK H PARENT 10 9
REMARK Flexibility Score: inf
ROOT
ATOM      1  C   UNL     1      -1.193  20.358  46.625  1.00  0.00     0.042 C 
ATOM      2  C   UNL     1      -2.169  20.862  47.654  1.00  0.00    -0.049 C 
ATOM      3  C   UNL     1      -2.003  22.083  48.191  1.00  0.00    -0.025 C 
ATOM      4  C   UNL     1      -2.978  22.598  49.217  1.00  0.00     0.035 C 
ATOM      5  C   UNL     1      -4.456  22.256  48.868  1.00  0.00     0.021 C 
ATOM      6  C   UNL     1      -4.625  20.973  47.998  1.00  0.00     0.044 C 
ATOM      7  C   UNL     1      -3.388  20.054  48.034  1.00  0.00     0.140 C 
ENDROOT
BRANCH   7   8
ATOM      8  O   UNL     1      -3.210  19.520  49.320  1.00  0.00    -0.389 OA
ATOM      9  H   UNL     1      -4.036  19.725  49.832  1.00  0.00     0.211 HD
ENDBRANCH   7   8
BRANCH   5  10
ATOM     10  C   UNL     1      -5.163  23.446  48.228  1.00  0.00    -0.077 C 
ATOM     11  C   UNL     1      -5.047  23.692  46.913  1.00  0.00     0.008 C 
ATOM     12  C   UNL     1      -6.002  24.374  49.069  1.00  0.00     0.039 C 
ENDBRANCH   5  10
TORSDOF 2
ENDMDL
MODEL 8
REMARK VINA RESULT:    -4.244      4.734      7.511
REMARK INTER + INTRA:          -4.808
REMARK INTER:                  -4.626
REMARK INTRA:                  -0.182
REMARK UNBOUND:                -0.192
REMARK SMILES C=C(C)[C@@H]1CC=C(C)[C@@H](O)C1
REMARK SMILES IDX 8 1 7 2 6 3 5 4 4 5 11 6 9 7 10 8 2 10 1 11 3 12
REMARK H PARENT 10 9
REMARK Flexibility Score: inf
ROOT
ATOM      1  C   UNL     1      -3.727  28.250  50.737  1.00  0.00     0.042 C 
ATOM      2  C   UNL     1      -4.299  26.875  50.951  1.00  0.00    -0.049 C 
ATOM      3  C   UNL     1      -5.323  26.450  50.191  1.00  0.00    -0.025 C 
ATOM      4  C   UNL     1      -5.898  25.073  50.395  1.00  0.00     0.035 C 
ATOM      5  C   UNL     1      -4.802  23.995  50.639  1.00  0.00     0.021 C 
ATOM      6  C   UNL     1      -3.491  24.550  51.274  1.00  0.00     0.044 C 
ATOM      7  C   UNL     1      -3.683  25.921  51.949  1.00  0.00     0.140 C 
ENDROOT
BRANCH   7   8
ATOM      8  O   UNL     1      -4.529  25.806  53.065  1.00  0.00    -0.389 OA
ATOM      9  H   UNL     1      -4.387  26.619  53.617  1.00  0.00     0.211 HD
ENDBRANCH   7   8
BRANCH   5  10
ATOM     10  C   UNL     1      -4.502  23.212  49.365  1.00  0.00    -0.077 C 
ATOM     11  C   UNL     1      -3.328  22.580  49.204  1.00  0.00     0.008 C 
ATOM     12  C   UNL     1      -5.521  23.141  48.257  1.00  0.00     0.039 C 
ENDBRANCH   5  10
TORSDOF 2
ENDMDL
