MODEL 1
REMARK VINA RESULT:    -1.117      0.000      0.000
REMARK INTER + INTRA:          -1.417
REMARK INTER:                  -1.313
REMARK INTRA:                  -0.104
REMARK UNBOUND:                -0.104
REMARK SMILES CCCCC(=O)[O-]
REMARK SMILES IDX 4 1 5 2 6 3 7 4 3 5 2 6 1 7
REMARK H PARENT
REMARK Flexibility Score: inf
ROOT
ATOM      1  C   UNL     1      -6.096   7.150  33.116  1.00  0.00     0.053 C 
ENDROOT
BRANCH   1   2
ATOM      2  C   UNL     1      -6.104   7.865  31.799  1.00  0.00     0.041 C 
ATOM      3  O   UNL     1      -6.125   7.212  30.723  1.00  0.00    -0.550 OA
ATOM      4  O   UNL     1      -6.119   9.253  31.762  1.00  0.00    -0.550 OA
ENDBRANCH   1   2
BRANCH   1   5
ATOM      5  C   UNL     1      -5.151   5.941  33.100  1.00  0.00     0.006 C 
BRANCH   5   6
ATOM      6  C   UNL     1      -3.674   6.359  33.080  1.00  0.00    -0.003 C 
ATOM      7  C   UNL     1      -2.992   5.910  31.791  1.00  0.00     0.004 C 
ENDBRANCH   5   6
ENDBRANCH   1   5
TORSDOF 3
ENDMDL
MODEL 2
REMARK VINA RESULT:    -1.091      1.472      2.008
REMARK INTER + INTRA:          -1.387
REMARK INTER:                  -2.308
REMARK INTRA:                   0.921
REMARK UNBOUND:                -0.104
REMARK SMILES CCCCC(=O)[O-]
REMARK SMILES IDX 4 1 5 2 6 3 7 4 3 5 2 6 1 7
REMARK H PARENT
REMARK Flexibility Score: inf
ROOT
ATOM      1  C   UNL     1      -6.082   8.881  31.742  1.00  0.00     0.053 C 
ENDROOT
BRANCH   1   2
ATOM      2  C   UNL     1      -6.058   7.740  30.771  1.00  0.00     0.041 C 
ATOM      3  O   UNL     1      -5.951   7.959  29.537  1.00  0.00    -0.550 OA
ATOM      4  O   UNL     1      -6.124   6.432  31.235  1.00  0.00    -0.550 OA
ENDBRANCH   1   2
BRANCH   1   5
ATOM      5  C   UNL     1      -5.536   8.469  33.116  1.00  0.00     0.006 C 
BRANCH   5   6
ATOM      6  C   UNL     1      -4.057   8.065  33.055  1.00  0.00    -0.003 C 
ATOM      7  C   UNL     1      -3.905   6.556  32.881  1.00  0.00     0.004 C 
ENDBRANCH   5   6
ENDBRANCH   1   5
TORSDOF 3
ENDMDL
MODEL 3
REMARK VINA RESULT:    -0.111      2.034      3.008
REMARK INTER + INTRA:          -0.235
REMARK INTER:                  -0.611
REMARK INTRA:                   0.376
REMARK UNBOUND:                -0.104
REMARK SMILES CCCCC(=O)[O-]
REMARK SMILES IDX 4 1 5 2 6 3 7 4 3 5 2 6 1 7
REMARK H PARENT
REMARK Flexibility Score: inf
ROOT
ATOM      1  C   UNL     1      -5.037   6.433  32.815  1.00  0.00     0.053 C 
ENDROOT
BRANCH   1   2
ATOM      2  C   UNL     1      -3.610   6.830  32.590  1.00  0.00     0.041 C 
ATOM      3  O   UNL     1      -2.849   6.100  31.902  1.00  0.00    -0.550 OA
ATOM      4  O   UNL     1      -3.129   8.023  33.115  1.00  0.00    -0.550 OA
ENDBRANCH   1   2
BRANCH   1   5
ATOM      5  C   UNL     1      -5.939   7.655  33.031  1.00  0.00     0.006 C 
BRANCH   5   6
ATOM      6  C   UNL     1      -6.123   8.475  31.747  1.00  0.00    -0.003 C 
ATOM      7  C   UNL     1      -5.737   7.662  30.515  1.00  0.00     0.004 C 
ENDBRANCH   5   6
ENDBRANCH   1   5
TORSDOF 3
ENDMDL
