MODEL 1
REMARK VINA RESULT:    -4.302      0.000      0.000
REMARK INTER + INTRA:          -4.267
REMARK INTER:                  -5.308
REMARK INTRA:                   1.041
REMARK UNBOUND:                 1.041
REMARK SMILES C=C1[C@@H]2CC[C@H]3[C@@H]2C(C)(C)CCC[C@@]13C
REMARK SMILES IDX 14 1 6 2 7 3 3 4 2 5 1 6 4 7 5 8 15 9 8 10 9 11 10 12 11 13
REMARK SMILES IDX 13 15 12 16
REMARK H PARENT
REMARK Flexibility Score: 80.00
ROOT
ATOM      1  C   UNL     1     -43.118 -48.974  27.403  1.00  0.00    -0.008 C 
ATOM      2  C   UNL     1     -41.826 -48.857  26.504  1.00  0.00     0.003 C 
ATOM      3  C   UNL     1     -40.908 -47.875  27.266  1.00  0.00     0.006 C 
ATOM      4  C   UNL     1     -41.983 -46.804  27.399  1.00  0.00     0.019 C 
ATOM      5  C   UNL     1     -43.122 -47.583  27.995  1.00  0.00    -0.068 C 
ATOM      6  C   UNL     1     -44.040 -47.073  28.827  1.00  0.00     0.009 C 
ATOM      7  C   UNL     1     -42.337 -46.564  25.913  1.00  0.00     0.008 C 
ATOM      8  C   UNL     1     -42.132 -47.961  25.273  1.00  0.00     0.005 C 
ATOM      9  C   UNL     1     -44.427 -49.211  26.603  1.00  0.00     0.016 C 
ENDROOT
BRANCH   3  10
ATOM     10  C   UNL     1     -40.134 -48.337  28.559  1.00  0.00    -0.032 C 
ATOM     11  C   UNL     1     -38.934 -49.219  28.121  1.00  0.00     0.011 C 
ATOM     12  C   UNL     1     -39.536 -47.091  29.258  1.00  0.00     0.011 C 
BRANCH  10  13
ATOM     13  C   UNL     1     -40.983 -49.092  29.621  1.00  0.00     0.007 CG0
ATOM     14  G   UNL     1     -41.658 -50.365  29.105  1.00  0.00     0.000 G0
ENDBRANCH  10  13
ENDBRANCH   3  10
BRANCH   1  15
ATOM     15  C   UNL     1     -43.033 -50.094  28.482  1.00  0.00     0.011 C 
BRANCH  15  16
ATOM     16  C   UNL     1     -41.663 -50.362  29.099  1.00  0.00     0.001 CG0
ATOM     17  G   UNL     1     -40.983 -49.095  29.620  1.00  0.00     0.000 G0
ENDBRANCH  15  16
ENDBRANCH   1  15
TORSDOF 0
ENDMDL
MODEL 2
REMARK VINA RESULT:    -4.237      1.218      3.607
REMARK INTER + INTRA:          -4.187
REMARK INTER:                  -5.197
REMARK INTRA:                   1.010
REMARK UNBOUND:                 1.041
REMARK SMILES C=C1[C@@H]2CC[C@H]3[C@@H]2C(C)(C)CCC[C@@]13C
REMARK SMILES IDX 14 1 6 2 7 3 3 4 2 5 1 6 4 7 5 8 15 9 8 10 9 11 10 12 11 13
REMARK SMILES IDX 13 15 12 16
REMARK H PARENT
REMARK Flexibility Score: 80.00
ROOT
ATOM      1  C   UNL     1     -40.949 -48.421  28.947  1.00  0.00    -0.008 C 
ATOM      2  C   UNL     1     -42.108 -47.451  28.491  1.00  0.00     0.003 C 
ATOM      3  C   UNL     1     -42.827 -48.210  27.354  1.00  0.00     0.006 C 
ATOM      4  C   UNL     1     -41.546 -48.473  26.572  1.00  0.00     0.019 C 
ATOM      5  C   UNL     1     -40.667 -49.092  27.622  1.00  0.00    -0.068 C 
ATOM      6  C   UNL     1     -39.720 -50.008  27.378  1.00  0.00     0.009 C 
ATOM      7  C   UNL     1     -41.035 -47.028  26.361  1.00  0.00     0.008 C 
ATOM      8  C   UNL     1     -41.511 -46.296  27.642  1.00  0.00     0.005 C 
ATOM      9  C   UNL     1     -39.675 -47.692  29.453  1.00  0.00     0.016 C 
ENDROOT
BRANCH   3  10
ATOM     10  C   UNL     1     -43.781 -49.423  27.674  1.00  0.00    -0.032 C 
ATOM     11  C   UNL     1     -45.124 -48.859  28.211  1.00  0.00     0.011 C 
ATOM     12  C   UNL     1     -44.109 -50.165  26.355  1.00  0.00     0.011 C 
BRANCH  10  13
ATOM     13  C   UNL     1     -43.220 -50.481  28.665  1.00  0.00     0.007 CG0
ATOM     14  G   UNL     1     -42.813 -49.919  30.029  1.00  0.00     0.000 G0
ENDBRANCH  10  13
ENDBRANCH   3  10
BRANCH   1  15
ATOM     15  C   UNL     1     -41.372 -49.426  30.060  1.00  0.00     0.011 C 
BRANCH  15  16
ATOM     16  C   UNL     1     -42.812 -49.930  30.030  1.00  0.00     0.001 CG0
ATOM     17  G   UNL     1     -43.226 -50.478  28.663  1.00  0.00     0.000 G0
ENDBRANCH  15  16
ENDBRANCH   1  15
TORSDOF 0
ENDMDL
MODEL 3
REMARK VINA RESULT:    -4.230      2.410      4.585
REMARK INTER + INTRA:          -4.178
REMARK INTER:                  -5.182
REMARK INTRA:                   1.004
REMARK UNBOUND:                 1.041
REMARK SMILES C=C1[C@@H]2CC[C@H]3[C@@H]2C(C)(C)CCC[C@@]13C
REMARK SMILES IDX 14 1 6 2 7 3 3 4 2 5 1 6 4 7 5 8 15 9 8 10 9 11 10 12 11 13
REMARK SMILES IDX 13 15 12 16
REMARK H PARENT
REMARK Flexibility Score: 80.00
ROOT
ATOM      1  C   UNL     1     -42.288 -46.892  26.619  1.00  0.00    -0.008 C 
ATOM      2  C   UNL     1     -41.776 -48.333  26.230  1.00  0.00     0.003 C 
ATOM      3  C   UNL     1     -43.004 -49.250  26.426  1.00  0.00     0.006 C 
ATOM      4  C   UNL     1     -43.272 -48.768  27.847  1.00  0.00     0.019 C 
ATOM      5  C   UNL     1     -43.310 -47.277  27.664  1.00  0.00    -0.068 C 
ATOM      6  C   UNL     1     -44.055 -46.439  28.397  1.00  0.00     0.009 C 
ATOM      7  C   UNL     1     -41.921 -49.099  28.524  1.00  0.00     0.008 C 
ATOM      8  C   UNL     1     -40.896 -48.896  27.379  1.00  0.00     0.005 C 
ATOM      9  C   UNL     1     -41.200 -45.982  27.252  1.00  0.00     0.016 C 
ENDROOT
BRANCH   3  10
ATOM     10  C   UNL     1     -44.188 -49.240  25.387  1.00  0.00    -0.032 C 
ATOM     11  C   UNL     1     -43.741 -50.035  24.130  1.00  0.00     0.011 C 
ATOM     12  C   UNL     1     -45.391 -50.007  25.991  1.00  0.00     0.011 C 
BRANCH  10  13
ATOM     13  C   UNL     1     -44.707 -47.836  24.966  1.00  0.00     0.007 CG0
ATOM     14  G   UNL     1     -43.637 -46.915  24.377  1.00  0.00     0.000 G0
ENDBRANCH  10  13
ENDBRANCH   3  10
BRANCH   1  15
ATOM     15  C   UNL     1     -42.905 -46.102  25.427  1.00  0.00     0.011 C 
BRANCH  15  16
ATOM     16  C   UNL     1     -43.656 -46.910  24.372  1.00  0.00     0.001 CG0
ATOM     17  G   UNL     1     -44.712 -47.842  24.972  1.00  0.00     0.000 G0
ENDBRANCH  15  16
ENDBRANCH   1  15
TORSDOF 0
ENDMDL
MODEL 4
REMARK VINA RESULT:    -4.225      1.855      3.560
REMARK INTER + INTRA:          -4.172
REMARK INTER:                  -5.206
REMARK INTRA:                   1.034
REMARK UNBOUND:                 1.041
REMARK SMILES C=C1[C@@H]2CC[C@H]3[C@@H]2C(C)(C)CCC[C@@]13C
REMARK SMILES IDX 14 1 6 2 7 3 3 4 2 5 1 6 4 7 5 8 15 9 8 10 9 11 10 12 11 13
REMARK SMILES IDX 13 15 12 16
REMARK H PARENT
REMARK Flexibility Score: 80.00
ROOT
ATOM      1  C   UNL     1     -44.414 -47.991  27.020  1.00  0.00    -0.008 C 
ATOM      2  C   UNL     1     -43.762 -47.526  28.381  1.00  0.00     0.003 C 
ATOM      3  C   UNL     1     -42.490 -48.391  28.521  1.00  0.00     0.006 C 
ATOM      4  C   UNL     1     -43.230 -49.706  28.307  1.00  0.00     0.019 C 
ATOM      5  C   UNL     1     -43.973 -49.437  27.029  1.00  0.00    -0.068 C 
ATOM      6  C   UNL     1     -44.277 -50.368  26.115  1.00  0.00     0.009 C 
ATOM      7  C   UNL     1     -44.272 -49.639  29.449  1.00  0.00     0.008 C 
ATOM      8  C   UNL     1     -44.566 -48.122  29.569  1.00  0.00     0.005 C 
ATOM      9  C   UNL     1     -45.964 -47.910  27.000  1.00  0.00     0.016 C 
ENDROOT
BRANCH   3  10
ATOM     10  C   UNL     1     -41.213 -48.090  27.647  1.00  0.00    -0.032 C 
ATOM     11  C   UNL     1     -40.503 -46.842  28.236  1.00  0.00     0.011 C 
ATOM     12  C   UNL     1     -40.221 -49.271  27.786  1.00  0.00     0.011 C 
BRANCH  10  13
ATOM     13  C   UNL     1     -41.467 -47.884  26.128  1.00  0.00     0.007 CG0
ATOM     14  G   UNL     1     -42.450 -46.759  25.795  1.00  0.00     0.000 G0
ENDBRANCH  10  13
ENDBRANCH   3  10
BRANCH   1  15
ATOM     15  C   UNL     1     -43.900 -47.206  25.777  1.00  0.00     0.011 C 
BRANCH  15  16
ATOM     16  C   UNL     1     -42.441 -46.758  25.793  1.00  0.00     0.001 CG0
ATOM     17  G   UNL     1     -41.471 -47.890  26.140  1.00  0.00     0.000 G0
ENDBRANCH  15  16
ENDBRANCH   1  15
TORSDOF 0
ENDMDL
MODEL 5
REMARK VINA RESULT:    -4.195      1.088      3.172
REMARK INTER + INTRA:          -4.135
REMARK INTER:                  -5.140
REMARK INTRA:                   1.005
REMARK UNBOUND:                 1.041
REMARK SMILES C=C1[C@@H]2CC[C@H]3[C@@H]2C(C)(C)CCC[C@@]13C
REMARK SMILES IDX 14 1 6 2 7 3 3 4 2 5 1 6 4 7 5 8 15 9 8 10 9 11 10 12 11 13
REMARK SMILES IDX 13 15 12 16
REMARK H PARENT
REMARK Flexibility Score: 80.00
ROOT
ATOM      1  C   UNL     1     -42.285 -47.374  27.081  1.00  0.00    -0.008 C 
ATOM      2  C   UNL     1     -42.902 -47.503  28.528  1.00  0.00     0.003 C 
ATOM      3  C   UNL     1     -43.019 -49.025  28.769  1.00  0.00     0.006 C 
ATOM      4  C   UNL     1     -43.772 -49.282  27.469  1.00  0.00     0.019 C 
ATOM      5  C   UNL     1     -42.877 -48.618  26.460  1.00  0.00    -0.068 C 
ATOM      6  C   UNL     1     -42.732 -49.022  25.190  1.00  0.00     0.009 C 
ATOM      7  C   UNL     1     -44.995 -48.354  27.656  1.00  0.00     0.008 C 
ATOM      8  C   UNL     1     -44.419 -47.172  28.475  1.00  0.00     0.005 C 
ATOM      9  C   UNL     1     -42.757 -46.117  26.301  1.00  0.00     0.016 C 
ENDROOT
BRANCH   3  10
ATOM     10  C   UNL     1     -41.740 -49.889  29.088  1.00  0.00    -0.032 C 
ATOM     11  C   UNL     1     -41.340 -49.641  30.567  1.00  0.00     0.011 C 
ATOM     12  C   UNL     1     -42.108 -51.389  28.974  1.00  0.00     0.011 C 
BRANCH  10  13
ATOM     13  C   UNL     1     -40.515 -49.648  28.162  1.00  0.00     0.007 CG0
ATOM     14  G   UNL     1     -40.018 -48.201  28.130  1.00  0.00     0.000 G0
ENDBRANCH  10  13
ENDBRANCH   3  10
BRANCH   1  15
ATOM     15  C   UNL     1     -40.728 -47.366  27.061  1.00  0.00     0.011 C 
BRANCH  15  16
ATOM     16  C   UNL     1     -40.015 -48.200  28.122  1.00  0.00     0.001 CG0
ATOM     17  G   UNL     1     -40.507 -49.648  28.175  1.00  0.00     0.000 G0
ENDBRANCH  15  16
ENDBRANCH   1  15
TORSDOF 0
ENDMDL
MODEL 6
REMARK VINA RESULT:    -4.155      9.052     11.591
REMARK INTER + INTRA:          -4.087
REMARK INTER:                  -5.103
REMARK INTRA:                   1.016
REMARK UNBOUND:                 1.041
REMARK SMILES C=C1[C@@H]2CC[C@H]3[C@@H]2C(C)(C)CCC[C@@]13C
REMARK SMILES IDX 14 1 6 2 7 3 3 4 2 5 1 6 4 7 5 8 15 9 8 10 9 11 10 12 11 13
REMARK SMILES IDX 13 15 12 16
REMARK H PARENT
REMARK Flexibility Score: 80.00
ROOT
ATOM      1  C   UNL     1     -49.900 -47.775  22.780  1.00  0.00    -0.008 C 
ATOM      2  C   UNL     1     -50.638 -47.342  21.454  1.00  0.00     0.003 C 
ATOM      3  C   UNL     1     -51.832 -48.315  21.336  1.00  0.00     0.006 C 
ATOM      4  C   UNL     1     -50.971 -49.562  21.494  1.00  0.00     0.019 C 
ATOM      5  C   UNL     1     -50.211 -49.254  22.753  1.00  0.00    -0.068 C 
ATOM      6  C   UNL     1     -49.793 -50.172  23.633  1.00  0.00     0.009 C 
ATOM      7  C   UNL     1     -49.981 -49.379  20.320  1.00  0.00     0.008 C 
ATOM      8  C   UNL     1     -49.828 -47.840  20.226  1.00  0.00     0.005 C 
ATOM      9  C   UNL     1     -48.363 -47.556  22.751  1.00  0.00     0.016 C 
ENDROOT
BRANCH   3  10
ATOM     10  C   UNL     1     -53.099 -48.147  22.258  1.00  0.00    -0.032 C 
ATOM     11  C   UNL     1     -53.945 -46.964  21.716  1.00  0.00     0.011 C 
ATOM     12  C   UNL     1     -53.981 -49.415  22.134  1.00  0.00     0.011 C 
BRANCH  10  13
ATOM     13  C   UNL     1     -52.811 -47.939  23.772  1.00  0.00     0.007 CG0
ATOM     14  G   UNL     1     -51.928 -46.730  24.089  1.00  0.00     0.000 G0
ENDBRANCH  10  13
ENDBRANCH   3  10
BRANCH   1  15
ATOM     15  C   UNL     1     -50.438 -47.064  24.058  1.00  0.00     0.011 C 
BRANCH  15  16
ATOM     16  C   UNL     1     -51.928 -46.737  24.096  1.00  0.00     0.001 CG0
ATOM     17  G   UNL     1     -52.814 -47.941  23.769  1.00  0.00     0.000 G0
ENDBRANCH  15  16
ENDBRANCH   1  15
TORSDOF 0
ENDMDL
MODEL 7
REMARK VINA RESULT:    -4.110      1.580      2.291
REMARK INTER + INTRA:          -4.031
REMARK INTER:                  -5.058
REMARK INTRA:                   1.028
REMARK UNBOUND:                 1.041
REMARK SMILES C=C1[C@@H]2CC[C@H]3[C@@H]2C(C)(C)CCC[C@@]13C
REMARK SMILES IDX 14 1 6 2 7 3 3 4 2 5 1 6 4 7 5 8 15 9 8 10 9 11 10 12 11 13
REMARK SMILES IDX 13 15 12 16
REMARK H PARENT
REMARK Flexibility Score: 80.00
ROOT
ATOM      1  C   UNL     1     -44.338 -48.349  27.169  1.00  0.00    -0.008 C 
ATOM      2  C   UNL     1     -43.329 -49.479  26.727  1.00  0.00     0.003 C 
ATOM      3  C   UNL     1     -42.129 -49.330  27.689  1.00  0.00     0.006 C 
ATOM      4  C   UNL     1     -41.955 -47.842  27.413  1.00  0.00     0.019 C 
ATOM      5  C   UNL     1     -43.343 -47.319  27.654  1.00  0.00    -0.068 C 
ATOM      6  C   UNL     1     -43.626 -46.095  28.118  1.00  0.00     0.009 C 
ATOM      7  C   UNL     1     -41.743 -47.855  25.881  1.00  0.00     0.008 C 
ATOM      8  C   UNL     1     -42.614 -49.050  25.417  1.00  0.00     0.005 C 
ATOM      9  C   UNL     1     -45.182 -47.763  26.005  1.00  0.00     0.016 C 
ENDROOT
BRANCH   3  10
ATOM     10  C   UNL     1     -42.234 -49.817  29.185  1.00  0.00    -0.032 C 
ATOM     11  C   UNL     1     -42.129 -51.365  29.202  1.00  0.00     0.011 C 
ATOM     12  C   UNL     1     -41.012 -49.281  29.972  1.00  0.00     0.011 C 
BRANCH  10  13
ATOM     13  C   UNL     1     -43.506 -49.365  29.955  1.00  0.00     0.007 CG0
ATOM     14  G   UNL     1     -44.825 -49.802  29.313  1.00  0.00     0.000 G0
ENDBRANCH  10  13
ENDBRANCH   3  10
BRANCH   1  15
ATOM     15  C   UNL     1     -45.337 -48.798  28.276  1.00  0.00     0.011 C 
BRANCH  15  16
ATOM     16  C   UNL     1     -44.825 -49.794  29.313  1.00  0.00     0.001 CG0
ATOM     17  G   UNL     1     -43.505 -49.363  29.956  1.00  0.00     0.000 G0
ENDBRANCH  15  16
ENDBRANCH   1  15
TORSDOF 0
ENDMDL
MODEL 8
REMARK VINA RESULT:    -4.103      1.956      3.009
REMARK INTER + INTRA:          -4.021
REMARK INTER:                  -5.038
REMARK INTRA:                   1.016
REMARK UNBOUND:                 1.041
REMARK SMILES C=C1[C@@H]2CC[C@H]3[C@@H]2C(C)(C)CCC[C@@]13C
REMARK SMILES IDX 14 1 6 2 7 3 3 4 2 5 1 6 4 7 5 8 15 9 8 10 9 11 10 12 11 13
REMARK SMILES IDX 13 15 12 16
REMARK H PARENT
REMARK Flexibility Score: 80.00
ROOT
ATOM      1  C   UNL     1     -43.344 -47.908  25.983  1.00  0.00    -0.008 C 
ATOM      2  C   UNL     1     -42.018 -48.398  26.687  1.00  0.00     0.003 C 
ATOM      3  C   UNL     1     -42.372 -48.452  28.190  1.00  0.00     0.006 C 
ATOM      4  C   UNL     1     -42.908 -47.026  28.226  1.00  0.00     0.019 C 
ATOM      5  C   UNL     1     -43.894 -47.040  27.092  1.00  0.00    -0.068 C 
ATOM      6  C   UNL     1     -45.014 -46.307  27.049  1.00  0.00     0.009 C 
ATOM      7  C   UNL     1     -41.671 -46.240  27.731  1.00  0.00     0.008 C 
ATOM      8  C   UNL     1     -41.000 -47.227  26.743  1.00  0.00     0.005 C 
ATOM      9  C   UNL     1     -43.106 -47.053  24.710  1.00  0.00     0.016 C 
ENDROOT
BRANCH   3  10
ATOM     10  C   UNL     1     -43.269 -49.614  28.763  1.00  0.00    -0.032 C 
ATOM     11  C   UNL     1     -42.398 -50.895  28.872  1.00  0.00     0.011 C 
ATOM     12  C   UNL     1     -43.701 -49.249  30.205  1.00  0.00     0.011 C 
BRANCH  10  13
ATOM     13  C   UNL     1     -44.565 -49.924  27.964  1.00  0.00     0.007 CG0
ATOM     14  G   UNL     1     -44.334 -50.286  26.495  1.00  0.00     0.000 G0
ENDBRANCH  10  13
ENDBRANCH   3  10
BRANCH   1  15
ATOM     15  C   UNL     1     -44.307 -49.065  25.583  1.00  0.00     0.011 C 
BRANCH  15  16
ATOM     16  C   UNL     1     -44.345 -50.285  26.498  1.00  0.00     0.001 CG0
ATOM     17  G   UNL     1     -44.565 -49.924  27.969  1.00  0.00     0.000 G0
ENDBRANCH  15  16
ENDBRANCH   1  15
TORSDOF 0
ENDMDL
MODEL 9
REMARK VINA RESULT:    -4.062      1.850      3.397
REMARK INTER + INTRA:          -3.971
REMARK INTER:                  -4.993
REMARK INTRA:                   1.022
REMARK UNBOUND:                 1.041
REMARK SMILES C=C1[C@@H]2CC[C@H]3[C@@H]2C(C)(C)CCC[C@@]13C
REMARK SMILES IDX 14 1 6 2 7 3 3 4 2 5 1 6 4 7 5 8 15 9 8 10 9 11 10 12 11 13
REMARK SMILES IDX 13 15 12 16
REMARK H PARENT
REMARK Flexibility Score: 80.00
ROOT
ATOM      1  C   UNL     1     -44.813 -47.592  26.011  1.00  0.00    -0.008 C 
ATOM      2  C   UNL     1     -44.769 -49.114  26.425  1.00  0.00     0.003 C 
ATOM      3  C   UNL     1     -43.275 -49.401  26.698  1.00  0.00     0.006 C 
ATOM      4  C   UNL     1     -42.811 -48.842  25.358  1.00  0.00     0.019 C 
ATOM      5  C   UNL     1     -43.458 -47.486  25.350  1.00  0.00    -0.068 C 
ATOM      6  C   UNL     1     -42.945 -46.402  24.752  1.00  0.00     0.009 C 
ATOM      7  C   UNL     1     -43.621 -49.727  24.381  1.00  0.00     0.008 C 
ATOM      8  C   UNL     1     -44.934 -49.999  25.159  1.00  0.00     0.005 C 
ATOM      9  C   UNL     1     -45.929 -47.245  24.988  1.00  0.00     0.016 C 
ENDROOT
BRANCH   3  10
ATOM     10  C   UNL     1     -42.585 -48.881  28.016  1.00  0.00    -0.032 C 
ATOM     11  C   UNL     1     -43.029 -49.792  29.192  1.00  0.00     0.011 C 
ATOM     12  C   UNL     1     -41.052 -49.050  27.879  1.00  0.00     0.011 C 
BRANCH  10  13
ATOM     13  C   UNL     1     -42.849 -47.391  28.374  1.00  0.00     0.007 CG0
ATOM     14  G   UNL     1     -44.327 -47.031  28.540  1.00  0.00     0.000 G0
ENDBRANCH  10  13
ENDBRANCH   3  10
BRANCH   1  15
ATOM     15  C   UNL     1     -44.980 -46.618  27.215  1.00  0.00     0.011 C 
BRANCH  15  16
ATOM     16  C   UNL     1     -44.328 -47.026  28.534  1.00  0.00     0.001 CG0
ATOM     17  G   UNL     1     -42.850 -47.390  28.383  1.00  0.00     0.000 G0
ENDBRANCH  15  16
ENDBRANCH   1  15
TORSDOF 0
ENDMDL
