MODEL 1
REMARK VINA RESULT:    -4.006      0.000      0.000
REMARK INTER + INTRA:          -6.185
REMARK INTER:                  -6.113
REMARK INTRA:                  -0.071
REMARK UNBOUND:                -0.071
REMARK SMILES CC1=CCC[C@H](C)C(=O)C[C@H](C(C)C)C(=O)C1
REMARK SMILES IDX 8 1 9 2 6 3 7 4 5 5 4 6 3 7 2 8 1 9 10 11 11 12 15 13 16 14
REMARK SMILES IDX 17 15 12 17 13 18 14 19
REMARK H PARENT
REMARK Flexibility Score: 70.00
ROOT
ATOM      1  C   UNL     1      -6.982   0.393  -8.998  1.00  0.00     0.136 C 
ATOM      2  O   UNL     1      -8.057   0.371  -8.415  1.00  0.00    -0.299 OA
ENDROOT
BRANCH   1   3
ATOM      3  C   UNL     1      -6.255   1.720  -9.142  1.00  0.00     0.053 C 
ATOM      4  C   UNL     1      -7.269   2.813  -9.506  1.00  0.00     0.016 C 
BRANCH   3   5
ATOM      5  C   UNL     1      -5.453   2.121  -7.875  1.00  0.00     0.015 C 
BRANCH   5   6
ATOM      6  C   UNL     1      -3.927   1.894  -7.938  1.00  0.00     0.028 C 
BRANCH   6   7
ATOM      7  C   UNL     1      -3.270   2.063  -9.287  1.00  0.00    -0.028 C 
ATOM      8  C   UNL     1      -2.938   1.069 -10.141  1.00  0.00    -0.070 CG0
ATOM      9  C   UNL     1      -2.064   1.433 -11.317  1.00  0.00     0.039 C 
ATOM     10  G   UNL     1      -3.346  -0.382  -9.937  1.00  0.00     0.000 G0
ENDBRANCH   6   7
ENDBRANCH   5   6
ENDBRANCH   3   5
ENDBRANCH   1   3
BRANCH   1  11
ATOM     11  C   UNL     1      -6.344  -0.915  -9.422  1.00  0.00     0.087 C 
BRANCH  11  12
ATOM     12  C   UNL     1      -5.821  -0.931 -10.882  1.00  0.00     0.066 C 
BRANCH  12  13
ATOM     13  C   UNL     1      -4.306  -0.833 -11.046  1.00  0.00     0.140 C 
ATOM     14  O   UNL     1      -3.828  -1.150 -12.126  1.00  0.00    -0.299 OA
BRANCH  13  15
ATOM     15  C   UNL     1      -3.355  -0.379  -9.957  1.00  0.00     0.106 CG0
ATOM     16  G   UNL     1      -2.941   1.071 -10.158  1.00  0.00     0.000 G0
ENDBRANCH  13  15
ENDBRANCH  12  13
BRANCH  12  17
ATOM     17  C   UNL     1      -6.416  -2.147 -11.663  1.00  0.00    -0.006 C 
ATOM     18  C   UNL     1      -7.840  -1.890 -12.192  1.00  0.00     0.008 C 
ATOM     19  C   UNL     1      -6.392  -3.438 -10.830  1.00  0.00     0.008 C 
ENDBRANCH  12  17
ENDBRANCH  11  12
ENDBRANCH   1  11
TORSDOF 1
ENDMDL
MODEL 2
REMARK VINA RESULT:    -3.940      6.094      9.063
REMARK INTER + INTRA:          -6.085
REMARK INTER:                  -6.080
REMARK INTRA:                  -0.005
REMARK UNBOUND:                -0.071
REMARK SMILES CC1=CCC[C@H](C)C(=O)C[C@H](C(C)C)C(=O)C1
REMARK SMILES IDX 8 1 9 2 6 3 7 4 5 5 4 6 3 7 2 8 1 9 10 11 11 12 15 13 16 14
REMARK SMILES IDX 17 15 12 17 13 18 14 19
REMARK H PARENT
REMARK Flexibility Score: 70.00
ROOT
ATOM      1  C   UNL     1     -10.213  -4.406 -15.375  1.00  0.00     0.136 C 
ATOM      2  O   UNL     1     -10.273  -4.618 -16.578  1.00  0.00    -0.299 OA
ENDROOT
BRANCH   1   3
ATOM      3  C   UNL     1     -11.234  -5.070 -14.465  1.00  0.00     0.053 C 
ATOM      4  C   UNL     1     -12.642  -4.613 -14.867  1.00  0.00     0.016 C 
BRANCH   3   5
ATOM      5  C   UNL     1     -11.142  -6.619 -14.467  1.00  0.00     0.015 C 
BRANCH   5   6
ATOM      6  C   UNL     1      -9.846  -7.224 -13.885  1.00  0.00     0.028 C 
BRANCH   6   7
ATOM      7  C   UNL     1      -8.974  -8.005 -14.839  1.00  0.00    -0.028 C 
ATOM      8  C   UNL     1      -7.664  -7.778 -15.087  1.00  0.00    -0.070 CG0
ATOM      9  C   UNL     1      -7.047  -8.506 -16.257  1.00  0.00     0.039 C 
ATOM     10  G   UNL     1      -6.819  -6.793 -14.294  1.00  0.00     0.000 G0
ENDBRANCH   6   7
ENDBRANCH   5   6
ENDBRANCH   3   5
ENDBRANCH   1   3
BRANCH   1  11
ATOM     11  C   UNL     1      -9.045  -3.615 -14.821  1.00  0.00     0.087 C 
BRANCH  11  12
ATOM     12  C   UNL     1      -8.064  -4.444 -13.950  1.00  0.00     0.066 C 
BRANCH  12  13
ATOM     13  C   UNL     1      -7.113  -5.363 -14.713  1.00  0.00     0.140 C 
ATOM     14  O   UNL     1      -6.576  -4.920 -15.717  1.00  0.00    -0.299 OA
BRANCH  13  15
ATOM     15  C   UNL     1      -6.798  -6.791 -14.313  1.00  0.00     0.106 CG0
ATOM     16  G   UNL     1      -7.653  -7.780 -15.090  1.00  0.00     0.000 G0
ENDBRANCH  13  15
ENDBRANCH  12  13
BRANCH  12  17
ATOM     17  C   UNL     1      -7.304  -3.516 -12.949  1.00  0.00    -0.006 C 
ATOM     18  C   UNL     1      -6.920  -4.224 -11.637  1.00  0.00     0.008 C 
ATOM     19  C   UNL     1      -8.088  -2.231 -12.640  1.00  0.00     0.008 C 
ENDBRANCH  12  17
ENDBRANCH  11  12
ENDBRANCH   1  11
TORSDOF 1
ENDMDL
MODEL 3
REMARK VINA RESULT:    -3.829      1.589      2.174
REMARK INTER + INTRA:          -5.914
REMARK INTER:                  -5.976
REMARK INTRA:                   0.061
REMARK UNBOUND:                -0.071
REMARK SMILES CC1=CCC[C@H](C)C(=O)C[C@H](C(C)C)C(=O)C1
REMARK SMILES IDX 8 1 9 2 6 3 7 4 5 5 4 6 3 7 2 8 1 9 10 11 11 12 15 13 16 14
REMARK SMILES IDX 17 15 12 17 13 18 14 19
REMARK H PARENT
REMARK Flexibility Score: 70.00
ROOT
ATOM      1  C   UNL     1      -6.550   1.148  -9.454  1.00  0.00     0.136 C 
ATOM      2  O   UNL     1      -6.163   1.536  -8.361  1.00  0.00    -0.299 OA
ENDROOT
BRANCH   1   3
ATOM      3  C   UNL     1      -6.278   2.011 -10.676  1.00  0.00     0.053 C 
ATOM      4  C   UNL     1      -7.167   3.261 -10.617  1.00  0.00     0.016 C 
BRANCH   3   5
ATOM      5  C   UNL     1      -4.786   2.410 -10.825  1.00  0.00     0.015 C 
BRANCH   5   6
ATOM      6  C   UNL     1      -3.841   1.313 -11.361  1.00  0.00     0.028 C 
BRANCH   6   7
ATOM      7  C   UNL     1      -2.920   0.661 -10.358  1.00  0.00    -0.028 C 
ATOM      8  C   UNL     1      -2.938  -0.640  -9.989  1.00  0.00    -0.070 CG0
ATOM      9  C   UNL     1      -2.106  -1.030  -8.791  1.00  0.00     0.039 C 
ATOM     10  G   UNL     1      -3.791  -1.695 -10.678  1.00  0.00     0.000 G0
ENDBRANCH   6   7
ENDBRANCH   5   6
ENDBRANCH   3   5
ENDBRANCH   1   3
BRANCH   1  11
ATOM     11  C   UNL     1      -7.150  -0.239  -9.576  1.00  0.00     0.087 C 
BRANCH  11  12
ATOM     12  C   UNL     1      -6.415  -1.172 -10.574  1.00  0.00     0.066 C 
BRANCH  12  13
ATOM     13  C   UNL     1      -5.153  -1.848 -10.044  1.00  0.00     0.140 C 
ATOM     14  O   UNL     1      -5.254  -2.533  -9.036  1.00  0.00    -0.299 OA
BRANCH  13  15
ATOM     15  C   UNL     1      -3.782  -1.719 -10.677  1.00  0.00     0.106 CG0
ATOM     16  G   UNL     1      -2.957  -0.642  -9.987  1.00  0.00     0.000 G0
ENDBRANCH  13  15
ENDBRANCH  12  13
BRANCH  12  17
ATOM     17  C   UNL     1      -7.412  -2.201 -11.197  1.00  0.00    -0.006 C 
ATOM     18  C   UNL     1      -6.849  -3.634 -11.252  1.00  0.00     0.008 C 
ATOM     19  C   UNL     1      -7.890  -1.772 -12.593  1.00  0.00     0.008 C 
ENDBRANCH  12  17
ENDBRANCH  11  12
ENDBRANCH   1  11
TORSDOF 1
ENDMDL
MODEL 4
REMARK VINA RESULT:    -3.698      1.848      4.416
REMARK INTER + INTRA:          -5.715
REMARK INTER:                  -5.394
REMARK INTRA:                  -0.321
REMARK UNBOUND:                -0.071
REMARK SMILES CC1=CCC[C@H](C)C(=O)C[C@H](C(C)C)C(=O)C1
REMARK SMILES IDX 8 1 9 2 6 3 7 4 5 5 4 6 3 7 2 8 1 9 10 11 11 12 15 13 16 14
REMARK SMILES IDX 17 15 12 17 13 18 14 19
REMARK H PARENT
REMARK Flexibility Score: 70.00
ROOT
ATOM      1  C   UNL     1      -5.064   2.020  -8.550  1.00  0.00     0.136 C 
ATOM      2  O   UNL     1      -4.937   2.167  -7.343  1.00  0.00    -0.299 OA
ENDROOT
BRANCH   1   3
ATOM      3  C   UNL     1      -6.465   1.979  -9.139  1.00  0.00     0.053 C 
ATOM      4  C   UNL     1      -6.414   2.464 -10.594  1.00  0.00     0.016 C 
BRANCH   3   5
ATOM      5  C   UNL     1      -7.125   0.578  -9.054  1.00  0.00     0.015 C 
BRANCH   5   6
ATOM      6  C   UNL     1      -6.532  -0.510  -9.976  1.00  0.00     0.028 C 
BRANCH   6   7
ATOM      7  C   UNL     1      -5.623  -1.527  -9.328  1.00  0.00    -0.028 C 
ATOM      8  C   UNL     1      -4.334  -1.767  -9.657  1.00  0.00    -0.070 CG0
ATOM      9  C   UNL     1      -3.686  -2.994  -9.062  1.00  0.00     0.039 C 
ATOM     10  G   UNL     1      -3.543  -0.906 -10.631  1.00  0.00     0.000 G0
ENDBRANCH   6   7
ENDBRANCH   5   6
ENDBRANCH   3   5
ENDBRANCH   1   3
BRANCH   1  11
ATOM     11  C   UNL     1      -3.829   2.032  -9.430  1.00  0.00     0.087 C 
BRANCH  11  12
ATOM     12  C   UNL     1      -2.709   1.058  -8.980  1.00  0.00     0.066 C 
BRANCH  12  13
ATOM     13  C   UNL     1      -2.446  -0.127  -9.908  1.00  0.00     0.140 C 
ATOM     14  O   UNL     1      -1.285  -0.465 -10.083  1.00  0.00    -0.299 OA
BRANCH  13  15
ATOM     15  C   UNL     1      -3.528  -0.902 -10.633  1.00  0.00     0.106 CG0
ATOM     16  G   UNL     1      -4.335  -1.755  -9.666  1.00  0.00     0.000 G0
ENDBRANCH  13  15
ENDBRANCH  12  13
BRANCH  12  17
ATOM     17  C   UNL     1      -1.400   1.844  -8.649  1.00  0.00    -0.006 C 
ATOM     18  C   UNL     1      -1.033   1.810  -7.154  1.00  0.00     0.008 C 
ATOM     19  C   UNL     1      -1.458   3.298  -9.142  1.00  0.00     0.008 C 
ENDBRANCH  12  17
ENDBRANCH  11  12
ENDBRANCH   1  11
TORSDOF 1
ENDMDL
MODEL 5
REMARK VINA RESULT:    -3.671      1.550      1.869
REMARK INTER + INTRA:          -5.674
REMARK INTER:                  -5.717
REMARK INTRA:                   0.043
REMARK UNBOUND:                -0.071
REMARK SMILES CC1=CCC[C@H](C)C(=O)C[C@H](C(C)C)C(=O)C1
REMARK SMILES IDX 8 1 9 2 6 3 7 4 5 5 4 6 3 7 2 8 1 9 10 11 11 12 15 13 16 14
REMARK SMILES IDX 17 15 12 17 13 18 14 19
REMARK H PARENT
REMARK Flexibility Score: 70.00
ROOT
ATOM      1  C   UNL     1      -6.908   0.400  -9.831  1.00  0.00     0.136 C 
ATOM      2  O   UNL     1      -7.132   0.406  -8.628  1.00  0.00    -0.299 OA
ENDROOT
BRANCH   1   3
ATOM      3  C   UNL     1      -6.652   1.724 -10.533  1.00  0.00     0.053 C 
ATOM      4  C   UNL     1      -7.051   2.875  -9.601  1.00  0.00     0.016 C 
BRANCH   3   5
ATOM      5  C   UNL     1      -5.186   1.891 -11.010  1.00  0.00     0.015 C 
BRANCH   5   6
ATOM      6  C   UNL     1      -4.130   2.090  -9.900  1.00  0.00     0.028 C 
BRANCH   6   7
ATOM      7  C   UNL     1      -2.893   1.227  -9.979  1.00  0.00    -0.028 C 
ATOM      8  C   UNL     1      -2.708   0.042  -9.355  1.00  0.00    -0.070 CG0
ATOM      9  C   UNL     1      -1.310  -0.531  -9.361  1.00  0.00     0.039 C 
ATOM     10  G   UNL     1      -3.810  -0.693  -8.608  1.00  0.00     0.000 G0
ENDBRANCH   6   7
ENDBRANCH   5   6
ENDBRANCH   3   5
ENDBRANCH   1   3
BRANCH   1  11
ATOM     11  C   UNL     1      -6.748  -0.927 -10.546  1.00  0.00     0.087 C 
BRANCH  11  12
ATOM     12  C   UNL     1      -5.276  -1.375 -10.745  1.00  0.00     0.066 C 
BRANCH  12  13
ATOM     13  C   UNL     1      -4.508  -1.717  -9.469  1.00  0.00     0.140 C 
ATOM     14  O   UNL     1      -4.468  -2.889  -9.126  1.00  0.00    -0.299 OA
BRANCH  13  15
ATOM     15  C   UNL     1      -3.802  -0.699  -8.597  1.00  0.00     0.106 CG0
ATOM     16  G   UNL     1      -2.702   0.017  -9.366  1.00  0.00     0.000 G0
ENDBRANCH  13  15
ENDBRANCH  12  13
BRANCH  12  17
ATOM     17  C   UNL     1      -5.191  -2.521 -11.803  1.00  0.00    -0.006 C 
ATOM     18  C   UNL     1      -4.717  -2.036 -13.186  1.00  0.00     0.008 C 
ATOM     19  C   UNL     1      -6.520  -3.280 -11.942  1.00  0.00     0.008 C 
ENDBRANCH  12  17
ENDBRANCH  11  12
ENDBRANCH   1  11
TORSDOF 1
ENDMDL
MODEL 6
REMARK VINA RESULT:    -3.626      2.562      4.438
REMARK INTER + INTRA:          -5.605
REMARK INTER:                  -5.078
REMARK INTRA:                  -0.527
REMARK UNBOUND:                -0.071
REMARK SMILES CC1=CCC[C@H](C)C(=O)C[C@H](C(C)C)C(=O)C1
REMARK SMILES IDX 8 1 9 2 6 3 7 4 5 5 4 6 3 7 2 8 1 9 10 11 11 12 15 13 16 14
REMARK SMILES IDX 17 15 12 17 13 18 14 19
REMARK H PARENT
REMARK Flexibility Score: 70.00
ROOT
ATOM      1  C   UNL     1      -6.204  -3.802 -12.642  1.00  0.00     0.136 C 
ATOM      2  O   UNL     1      -6.715  -4.827 -12.214  1.00  0.00    -0.299 OA
ENDROOT
BRANCH   1   3
ATOM      3  C   UNL     1      -7.107  -2.648 -13.044  1.00  0.00     0.053 C 
ATOM      4  C   UNL     1      -8.158  -3.153 -14.041  1.00  0.00     0.016 C 
BRANCH   3   5
ATOM      5  C   UNL     1      -7.791  -1.955 -11.836  1.00  0.00     0.015 C 
BRANCH   5   6
ATOM      6  C   UNL     1      -6.860  -1.532 -10.679  1.00  0.00     0.028 C 
BRANCH   6   7
ATOM      7  C   UNL     1      -6.164  -0.200 -10.819  1.00  0.00    -0.028 C 
ATOM      8  C   UNL     1      -4.827   0.004 -10.822  1.00  0.00    -0.070 CG0
ATOM      9  C   UNL     1      -4.346   1.432 -10.718  1.00  0.00     0.039 C 
ATOM     10  G   UNL     1      -3.808  -1.125 -10.860  1.00  0.00     0.000 G0
ENDBRANCH   6   7
ENDBRANCH   5   6
ENDBRANCH   3   5
ENDBRANCH   1   3
BRANCH   1  11
ATOM     11  C   UNL     1      -4.694  -3.662 -12.618  1.00  0.00     0.087 C 
BRANCH  11  12
ATOM     12  C   UNL     1      -4.163  -2.332 -13.213  1.00  0.00     0.066 C 
BRANCH  12  13
ATOM     13  C   UNL     1      -3.355  -1.453 -12.260  1.00  0.00     0.140 C 
ATOM     14  O   UNL     1      -2.295  -1.000 -12.665  1.00  0.00    -0.299 OA
BRANCH  13  15
ATOM     15  C   UNL     1      -3.776  -1.115 -10.844  1.00  0.00     0.106 CG0
ATOM     16  G   UNL     1      -4.817  -0.006 -10.830  1.00  0.00     0.000 G0
ENDBRANCH  13  15
ENDBRANCH  12  13
BRANCH  12  17
ATOM     17  C   UNL     1      -3.401  -2.598 -14.551  1.00  0.00    -0.006 C 
ATOM     18  C   UNL     1      -4.240  -2.274 -15.802  1.00  0.00     0.008 C 
ATOM     19  C   UNL     1      -2.866  -4.036 -14.637  1.00  0.00     0.008 C 
ENDBRANCH  12  17
ENDBRANCH  11  12
ENDBRANCH   1  11
TORSDOF 1
ENDMDL
MODEL 7
REMARK VINA RESULT:    -3.478      2.081      3.805
REMARK INTER + INTRA:          -5.379
REMARK INTER:                  -5.407
REMARK INTRA:                   0.028
REMARK UNBOUND:                -0.071
REMARK SMILES CC1=CCC[C@H](C)C(=O)C[C@H](C(C)C)C(=O)C1
REMARK SMILES IDX 8 1 9 2 6 3 7 4 5 5 4 6 3 7 2 8 1 9 10 11 11 12 15 13 16 14
REMARK SMILES IDX 17 15 12 17 13 18 14 19
REMARK H PARENT
REMARK Flexibility Score: 70.00
ROOT
ATOM      1  C   UNL     1      -2.932  -0.032 -10.431  1.00  0.00     0.136 C 
ATOM      2  O   UNL     1      -2.290  -0.674  -9.613  1.00  0.00    -0.299 OA
ENDROOT
BRANCH   1   3
ATOM      3  C   UNL     1      -3.187   1.443 -10.165  1.00  0.00     0.053 C 
ATOM      4  C   UNL     1      -1.856   2.136  -9.850  1.00  0.00     0.016 C 
BRANCH   3   5
ATOM      5  C   UNL     1      -3.912   2.161 -11.334  1.00  0.00     0.015 C 
BRANCH   5   6
ATOM      6  C   UNL     1      -5.435   2.361 -11.170  1.00  0.00     0.028 C 
BRANCH   6   7
ATOM      7  C   UNL     1      -6.052   1.848  -9.891  1.00  0.00    -0.028 C 
ATOM      8  C   UNL     1      -6.662   0.652  -9.725  1.00  0.00    -0.070 CG0
ATOM      9  C   UNL     1      -7.432   0.442  -8.443  1.00  0.00     0.039 C 
ATOM     10  G   UNL     1      -6.660  -0.443 -10.781  1.00  0.00     0.000 G0
ENDBRANCH   6   7
ENDBRANCH   5   6
ENDBRANCH   3   5
ENDBRANCH   1   3
BRANCH   1  11
ATOM     11  C   UNL     1      -3.321  -0.684 -11.743  1.00  0.00     0.087 C 
BRANCH  11  12
ATOM     12  C   UNL     1      -4.464  -1.727 -11.627  1.00  0.00     0.066 C 
BRANCH  12  13
ATOM     13  C   UNL     1      -5.535  -1.426 -10.580  1.00  0.00     0.140 C 
ATOM     14  O   UNL     1      -5.476  -2.025  -9.516  1.00  0.00    -0.299 OA
BRANCH  13  15
ATOM     15  C   UNL     1      -6.671  -0.442 -10.777  1.00  0.00     0.106 CG0
ATOM     16  G   UNL     1      -6.647   0.645  -9.713  1.00  0.00     0.000 G0
ENDBRANCH  13  15
ENDBRANCH  12  13
BRANCH  12  17
ATOM     17  C   UNL     1      -5.085  -2.017 -13.031  1.00  0.00    -0.006 C 
ATOM     18  C   UNL     1      -6.240  -3.035 -12.985  1.00  0.00     0.008 C 
ATOM     19  C   UNL     1      -4.027  -2.471 -14.049  1.00  0.00     0.008 C 
ENDBRANCH  12  17
ENDBRANCH  11  12
ENDBRANCH   1  11
TORSDOF 1
ENDMDL
MODEL 8
REMARK VINA RESULT:    -3.362      2.392      4.713
REMARK INTER + INTRA:          -5.202
REMARK INTER:                  -4.814
REMARK INTRA:                  -0.388
REMARK UNBOUND:                -0.071
REMARK SMILES CC1=CCC[C@H](C)C(=O)C[C@H](C(C)C)C(=O)C1
REMARK SMILES IDX 8 1 9 2 6 3 7 4 5 5 4 6 3 7 2 8 1 9 10 11 11 12 15 13 16 14
REMARK SMILES IDX 17 15 12 17 13 18 14 19
REMARK H PARENT
REMARK Flexibility Score: 70.00
ROOT
ATOM      1  C   UNL     1      -3.506  -0.729  -9.447  1.00  0.00     0.136 C 
ATOM      2  O   UNL     1      -2.772  -1.186  -8.583  1.00  0.00    -0.299 OA
ENDROOT
BRANCH   1   3
ATOM      3  C   UNL     1      -2.880  -0.133 -10.697  1.00  0.00     0.053 C 
ATOM      4  C   UNL     1      -1.783   0.858 -10.288  1.00  0.00     0.016 C 
BRANCH   3   5
ATOM      5  C   UNL     1      -2.314  -1.201 -11.670  1.00  0.00     0.015 C 
BRANCH   5   6
ATOM      6  C   UNL     1      -3.044  -2.562 -11.682  1.00  0.00     0.028 C 
BRANCH   6   7
ATOM      7  C   UNL     1      -3.968  -2.827 -12.846  1.00  0.00    -0.028 C 
ATOM      8  C   UNL     1      -5.291  -3.094 -12.768  1.00  0.00    -0.070 CG0
ATOM      9  C   UNL     1      -5.974  -3.577 -14.025  1.00  0.00     0.039 C 
ATOM     10  G   UNL     1      -6.092  -2.991 -11.478  1.00  0.00     0.000 G0
ENDBRANCH   6   7
ENDBRANCH   5   6
ENDBRANCH   3   5
ENDBRANCH   1   3
BRANCH   1  11
ATOM     11  C   UNL     1      -5.006  -0.906  -9.313  1.00  0.00     0.087 C 
BRANCH  11  12
ATOM     12  C   UNL     1      -5.817  -0.482 -10.565  1.00  0.00     0.066 C 
BRANCH  12  13
ATOM     13  C   UNL     1      -6.618  -1.591 -11.244  1.00  0.00     0.140 C 
ATOM     14  O   UNL     1      -7.750  -1.325 -11.623  1.00  0.00    -0.299 OA
BRANCH  13  15
ATOM     15  C   UNL     1      -6.108  -3.000 -11.470  1.00  0.00     0.106 CG0
ATOM     16  G   UNL     1      -5.291  -3.091 -12.749  1.00  0.00     0.000 G0
ENDBRANCH  13  15
ENDBRANCH  12  13
BRANCH  12  17
ATOM     17  C   UNL     1      -6.701   0.767 -10.247  1.00  0.00    -0.006 C 
ATOM     18  C   UNL     1      -5.992   2.102 -10.542  1.00  0.00     0.008 C 
ATOM     19  C   UNL     1      -7.218   0.757  -8.800  1.00  0.00     0.008 C 
ENDBRANCH  12  17
ENDBRANCH  11  12
ENDBRANCH   1  11
TORSDOF 1
ENDMDL
MODEL 9
REMARK VINA RESULT:    -3.225      2.254      3.181
REMARK INTER + INTRA:          -4.994
REMARK INTER:                  -4.914
REMARK INTRA:                  -0.080
REMARK UNBOUND:                -0.071
REMARK SMILES CC1=CCC[C@H](C)C(=O)C[C@H](C(C)C)C(=O)C1
REMARK SMILES IDX 8 1 9 2 6 3 7 4 5 5 4 6 3 7 2 8 1 9 10 11 11 12 15 13 16 14
REMARK SMILES IDX 17 15 12 17 13 18 14 19
REMARK H PARENT
REMARK Flexibility Score: 70.00
ROOT
ATOM      1  C   UNL     1      -6.230   0.090 -10.471  1.00  0.00     0.136 C 
ATOM      2  O   UNL     1      -6.973   1.060 -10.534  1.00  0.00    -0.299 OA
ENDROOT
BRANCH   1   3
ATOM      3  C   UNL     1      -4.727   0.320 -10.471  1.00  0.00     0.053 C 
ATOM      4  C   UNL     1      -4.436   1.752 -10.936  1.00  0.00     0.016 C 
BRANCH   3   5
ATOM      5  C   UNL     1      -4.065   0.048  -9.095  1.00  0.00     0.015 C 
BRANCH   5   6
ATOM      6  C   UNL     1      -2.822  -0.867  -9.108  1.00  0.00     0.028 C 
BRANCH   6   7
ATOM      7  C   UNL     1      -2.628  -1.731 -10.331  1.00  0.00    -0.028 C 
ATOM      8  C   UNL     1      -3.176  -2.950 -10.539  1.00  0.00    -0.070 CG0
ATOM      9  C   UNL     1      -2.654  -3.751 -11.709  1.00  0.00     0.039 C 
ATOM     10  G   UNL     1      -4.229  -3.563  -9.628  1.00  0.00     0.000 G0
ENDBRANCH   6   7
ENDBRANCH   5   6
ENDBRANCH   3   5
ENDBRANCH   1   3
BRANCH   1  11
ATOM     11  C   UNL     1      -6.827  -1.285 -10.246  1.00  0.00     0.087 C 
BRANCH  11  12
ATOM     12  C   UNL     1      -6.177  -2.413 -11.090  1.00  0.00     0.066 C 
BRANCH  12  13
ATOM     13  C   UNL     1      -5.593  -3.582 -10.299  1.00  0.00     0.140 C 
ATOM     14  O   UNL     1      -6.273  -4.592 -10.192  1.00  0.00    -0.299 OA
BRANCH  13  15
ATOM     15  C   UNL     1      -4.234  -3.568  -9.631  1.00  0.00     0.106 CG0
ATOM     16  G   UNL     1      -3.181  -2.949 -10.538  1.00  0.00     0.000 G0
ENDBRANCH  13  15
ENDBRANCH  12  13
BRANCH  12  17
ATOM     17  C   UNL     1      -7.159  -2.894 -12.207  1.00  0.00    -0.006 C 
ATOM     18  C   UNL     1      -6.463  -3.147 -13.557  1.00  0.00     0.008 C 
ATOM     19  C   UNL     1      -8.337  -1.927 -12.398  1.00  0.00     0.008 C 
ENDBRANCH  12  17
ENDBRANCH  11  12
ENDBRANCH   1  11
TORSDOF 1
ENDMDL
