MODEL 1
REMARK VINA RESULT:    -2.521      0.000      0.000
REMARK INTER + INTRA:          -2.764
REMARK INTER:                  -2.668
REMARK INTRA:                  -0.096
REMARK UNBOUND:                -0.096
REMARK SMILES C=C(C)[C@H]1CC=C(C)C(=O)C1
REMARK SMILES IDX 8 1 7 2 6 3 5 4 4 5 11 6 9 7 10 8 2 9 1 10 3 11
REMARK H PARENT
REMARK Flexibility Score: inf
ROOT
ATOM      1  C   UNL     1      32.114  62.315  10.289  1.00  0.00     0.048 C 
ATOM      2  C   UNL     1      31.663  60.884  10.369  1.00  0.00    -0.012 C 
ATOM      3  C   UNL     1      32.125  59.986   9.482  1.00  0.00    -0.019 C 
ATOM      4  C   UNL     1      31.692  58.544   9.506  1.00  0.00     0.036 C 
ATOM      5  C   UNL     1      31.405  58.075  10.946  1.00  0.00     0.025 C 
ATOM      6  C   UNL     1      30.376  59.004  11.616  1.00  0.00     0.089 C 
ATOM      7  C   UNL     1      30.806  60.441  11.497  1.00  0.00     0.158 C 
ATOM      8  O   UNL     1      30.400  61.274  12.350  1.00  0.00    -0.295 OA
ENDROOT
BRANCH   5   9
ATOM      9  C   UNL     1      30.956  56.619  10.983  1.00  0.00    -0.077 C 
ATOM     10  C   UNL     1      30.631  55.959   9.859  1.00  0.00     0.008 C 
ATOM     11  C   UNL     1      30.869  55.889  12.299  1.00  0.00     0.039 C 
ENDBRANCH   5   9
TORSDOF 1
ENDMDL
MODEL 2
REMARK VINA RESULT:    -2.487      2.784      3.722
REMARK INTER + INTRA:          -2.728
REMARK INTER:                  -2.639
REMARK INTRA:                  -0.089
REMARK UNBOUND:                -0.096
REMARK SMILES C=C(C)[C@H]1CC=C(C)C(=O)C1
REMARK SMILES IDX 8 1 7 2 6 3 5 4 4 5 11 6 9 7 10 8 2 9 1 10 3 11
REMARK H PARENT
REMARK Flexibility Score: inf
ROOT
ATOM      1  C   UNL     1      31.718  58.687  14.897  1.00  0.00     0.048 C 
ATOM      2  C   UNL     1      31.302  58.037  13.607  1.00  0.00    -0.012 C 
ATOM      3  C   UNL     1      30.847  58.793  12.593  1.00  0.00    -0.019 C 
ATOM      4  C   UNL     1      30.400  58.192  11.287  1.00  0.00     0.036 C 
ATOM      5  C   UNL     1      31.213  56.926  10.952  1.00  0.00     0.025 C 
ATOM      6  C   UNL     1      31.134  55.919  12.114  1.00  0.00     0.089 C 
ATOM      7  C   UNL     1      31.509  56.581  13.413  1.00  0.00     0.158 C 
ATOM      8  O   UNL     1      31.968  55.875  14.350  1.00  0.00    -0.295 OA
ENDROOT
BRANCH   5   9
ATOM      9  C   UNL     1      30.764  56.302   9.637  1.00  0.00    -0.077 C 
ATOM     10  C   UNL     1      31.631  56.087   8.633  1.00  0.00     0.008 C 
ATOM     11  C   UNL     1      29.322  55.911   9.439  1.00  0.00     0.039 C 
ENDBRANCH   5   9
TORSDOF 1
ENDMDL
MODEL 3
REMARK VINA RESULT:    -2.395      1.637      2.689
REMARK INTER + INTRA:          -2.631
REMARK INTER:                  -2.538
REMARK INTRA:                  -0.093
REMARK UNBOUND:                -0.096
REMARK SMILES C=C(C)[C@H]1CC=C(C)C(=O)C1
REMARK SMILES IDX 8 1 7 2 6 3 5 4 4 5 11 6 9 7 10 8 2 9 1 10 3 11
REMARK H PARENT
REMARK Flexibility Score: inf
ROOT
ATOM      1  C   UNL     1      32.078  58.902   8.537  1.00  0.00     0.048 C 
ATOM      2  C   UNL     1      31.521  58.221   9.755  1.00  0.00    -0.012 C 
ATOM      3  C   UNL     1      31.545  56.879   9.842  1.00  0.00    -0.019 C 
ATOM      4  C   UNL     1      30.984  56.146  11.032  1.00  0.00     0.036 C 
ATOM      5  C   UNL     1      31.156  56.970  12.323  1.00  0.00     0.025 C 
ATOM      6  C   UNL     1      30.533  58.367  12.153  1.00  0.00     0.089 C 
ATOM      7  C   UNL     1      31.058  59.032  10.909  1.00  0.00     0.158 C 
ATOM      8  O   UNL     1      31.068  60.290  10.843  1.00  0.00    -0.295 OA
ENDROOT
BRANCH   5   9
ATOM      9  C   UNL     1      30.584  56.243  13.533  1.00  0.00    -0.077 C 
ATOM     10  C   UNL     1      29.283  55.914  13.600  1.00  0.00     0.008 C 
ATOM     11  C   UNL     1      31.479  55.877  14.689  1.00  0.00     0.039 C 
ENDBRANCH   5   9
TORSDOF 1
ENDMDL
MODEL 4
REMARK VINA RESULT:    -2.369      1.553      2.259
REMARK INTER + INTRA:          -2.603
REMARK INTER:                  -2.505
REMARK INTRA:                  -0.098
REMARK UNBOUND:                -0.096
REMARK SMILES C=C(C)[C@H]1CC=C(C)C(=O)C1
REMARK SMILES IDX 8 1 7 2 6 3 5 4 4 5 11 6 9 7 10 8 2 9 1 10 3 11
REMARK H PARENT
REMARK Flexibility Score: inf
ROOT
ATOM      1  C   UNL     1      30.765  62.435  11.678  1.00  0.00     0.048 C 
ATOM      2  C   UNL     1      31.106  61.059  11.179  1.00  0.00    -0.012 C 
ATOM      3  C   UNL     1      30.704  59.978  11.869  1.00  0.00    -0.019 C 
ATOM      4  C   UNL     1      31.033  58.578  11.424  1.00  0.00     0.036 C 
ATOM      5  C   UNL     1      31.099  58.486   9.887  1.00  0.00     0.025 C 
ATOM      6  C   UNL     1      32.092  59.523   9.331  1.00  0.00     0.089 C 
ATOM      7  C   UNL     1      31.777  60.894   9.865  1.00  0.00     0.158 C 
ATOM      8  O   UNL     1      32.124  61.906   9.199  1.00  0.00    -0.295 OA
ENDROOT
BRANCH   5   9
ATOM      9  C   UNL     1      31.441  57.076   9.423  1.00  0.00    -0.077 C 
ATOM     10  C   UNL     1      32.124  56.860   8.286  1.00  0.00     0.008 C 
ATOM     11  C   UNL     1      31.014  55.885  10.243  1.00  0.00     0.039 C 
ENDBRANCH   5   9
TORSDOF 1
ENDMDL
MODEL 5
REMARK VINA RESULT:    -2.345      2.061      3.081
REMARK INTER + INTRA:          -2.578
REMARK INTER:                  -2.484
REMARK INTRA:                  -0.095
REMARK UNBOUND:                -0.096
REMARK SMILES C=C(C)[C@H]1CC=C(C)C(=O)C1
REMARK SMILES IDX 8 1 7 2 6 3 5 4 4 5 11 6 9 7 10 8 2 9 1 10 3 11
REMARK H PARENT
REMARK Flexibility Score: inf
ROOT
ATOM      1  C   UNL     1      31.136  59.941  14.258  1.00  0.00     0.048 C 
ATOM      2  C   UNL     1      30.980  59.134  13.000  1.00  0.00    -0.012 C 
ATOM      3  C   UNL     1      30.824  59.758  11.819  1.00  0.00    -0.019 C 
ATOM      4  C   UNL     1      30.646  58.998  10.532  1.00  0.00     0.036 C 
ATOM      5  C   UNL     1      31.421  57.666  10.563  1.00  0.00     0.025 C 
ATOM      6  C   UNL     1      31.007  56.836  11.791  1.00  0.00     0.089 C 
ATOM      7  C   UNL     1      31.121  57.658  13.047  1.00  0.00     0.158 C 
ATOM      8  O   UNL     1      31.304  57.073  14.148  1.00  0.00    -0.295 OA
ENDROOT
BRANCH   5   9
ATOM      9  C   UNL     1      31.241  56.882   9.269  1.00  0.00    -0.077 C 
ATOM     10  C   UNL     1      30.302  55.928   9.154  1.00  0.00     0.008 C 
ATOM     11  C   UNL     1      32.125  57.169   8.082  1.00  0.00     0.039 C 
ENDBRANCH   5   9
TORSDOF 1
ENDMDL
MODEL 6
REMARK VINA RESULT:    -2.342      2.000      4.146
REMARK INTER + INTRA:          -2.575
REMARK INTER:                  -2.478
REMARK INTRA:                  -0.097
REMARK UNBOUND:                -0.096
REMARK SMILES C=C(C)[C@H]1CC=C(C)C(=O)C1
REMARK SMILES IDX 8 1 7 2 6 3 5 4 4 5 11 6 9 7 10 8 2 9 1 10 3 11
REMARK H PARENT
REMARK Flexibility Score: inf
ROOT
ATOM      1  C   UNL     1      29.911  56.934  15.911  1.00  0.00     0.048 C 
ATOM      2  C   UNL     1      30.429  57.029  14.504  1.00  0.00    -0.012 C 
ATOM      3  C   UNL     1      30.830  55.919  13.861  1.00  0.00    -0.019 C 
ATOM      4  C   UNL     1      31.373  55.961  12.457  1.00  0.00     0.036 C 
ATOM      5  C   UNL     1      30.708  57.084  11.638  1.00  0.00     0.025 C 
ATOM      6  C   UNL     1      30.860  58.435  12.362  1.00  0.00     0.089 C 
ATOM      7  C   UNL     1      30.382  58.327  13.785  1.00  0.00     0.158 C 
ATOM      8  O   UNL     1      29.974  59.364  14.374  1.00  0.00    -0.295 OA
ENDROOT
BRANCH   5   9
ATOM      9  C   UNL     1      31.256  57.144  10.218  1.00  0.00    -0.077 C 
ATOM     10  C   UNL     1      31.757  58.282   9.709  1.00  0.00     0.008 C 
ATOM     11  C   UNL     1      31.245  55.910   9.352  1.00  0.00     0.039 C 
ENDBRANCH   5   9
TORSDOF 1
ENDMDL
MODEL 7
REMARK VINA RESULT:    -2.218      2.364      4.531
REMARK INTER + INTRA:          -2.444
REMARK INTER:                  -2.355
REMARK INTRA:                  -0.090
REMARK UNBOUND:                -0.096
REMARK SMILES C=C(C)[C@H]1CC=C(C)C(=O)C1
REMARK SMILES IDX 8 1 7 2 6 3 5 4 4 5 11 6 9 7 10 8 2 9 1 10 3 11
REMARK H PARENT
REMARK Flexibility Score: inf
ROOT
ATOM      1  C   UNL     1      27.960  55.917  13.646  1.00  0.00     0.048 C 
ATOM      2  C   UNL     1      28.949  56.231  12.558  1.00  0.00    -0.012 C 
ATOM      3  C   UNL     1      28.520  56.426  11.299  1.00  0.00    -0.019 C 
ATOM      4  C   UNL     1      29.470  56.725  10.170  1.00  0.00     0.036 C 
ATOM      5  C   UNL     1      30.684  57.534  10.665  1.00  0.00     0.025 C 
ATOM      6  C   UNL     1      31.376  56.799  11.829  1.00  0.00     0.089 C 
ATOM      7  C   UNL     1      30.378  56.446  12.898  1.00  0.00     0.158 C 
ATOM      8  O   UNL     1      30.776  56.299  14.084  1.00  0.00    -0.295 OA
ENDROOT
BRANCH   5   9
ATOM      9  C   UNL     1      31.658  57.835   9.533  1.00  0.00    -0.077 C 
ATOM     10  C   UNL     1      32.125  59.077   9.324  1.00  0.00     0.008 C 
ATOM     11  C   UNL     1      32.119  56.729   8.618  1.00  0.00     0.039 C 
ENDBRANCH   5   9
TORSDOF 1
ENDMDL
MODEL 8
REMARK VINA RESULT:    -2.171      1.371      2.291
REMARK INTER + INTRA:          -2.394
REMARK INTER:                  -2.297
REMARK INTRA:                  -0.096
REMARK UNBOUND:                -0.096
REMARK SMILES C=C(C)[C@H]1CC=C(C)C(=O)C1
REMARK SMILES IDX 8 1 7 2 6 3 5 4 4 5 11 6 9 7 10 8 2 9 1 10 3 11
REMARK H PARENT
REMARK Flexibility Score: inf
ROOT
ATOM      1  C   UNL     1      30.340  62.397  11.307  1.00  0.00     0.048 C 
ATOM      2  C   UNL     1      30.669  60.931  11.267  1.00  0.00    -0.012 C 
ATOM      3  C   UNL     1      30.326  60.140  12.299  1.00  0.00    -0.019 C 
ATOM      4  C   UNL     1      30.647  58.668  12.318  1.00  0.00     0.036 C 
ATOM      5  C   UNL     1      30.619  58.076  10.896  1.00  0.00     0.025 C 
ATOM      6  C   UNL     1      31.562  58.865   9.969  1.00  0.00     0.089 C 
ATOM      7  C   UNL     1      31.261  60.338  10.042  1.00  0.00     0.158 C 
ATOM      8  O   UNL     1      31.551  61.072   9.060  1.00  0.00    -0.295 OA
ENDROOT
BRANCH   5   9
ATOM      9  C   UNL     1      30.952  56.589  10.901  1.00  0.00    -0.077 C 
ATOM     10  C   UNL     1      30.948  55.875  12.039  1.00  0.00     0.008 C 
ATOM     11  C   UNL     1      31.296  55.887   9.612  1.00  0.00     0.039 C 
ENDBRANCH   5   9
TORSDOF 1
ENDMDL
