MODEL 1
REMARK VINA RESULT:    -4.972      0.000      0.000
REMARK INTER + INTRA:          -5.491
REMARK INTER:                  -5.263
REMARK INTRA:                  -0.229
REMARK UNBOUND:                -0.229
REMARK SMILES O=c1cc(-c2ccccc2)oc2ccccc12
REMARK SMILES IDX 4 1 3 2 2 3 1 4 17 5 16 6 15 7 14 8 13 9 12 10 11 11 5 12
REMARK SMILES IDX 8 13 7 14 9 15 6 16 10 17
REMARK H PARENT
REMARK Flexibility Score: inf
ROOT
ATOM      1  C   UNL     1     121.349 127.782 128.715  1.00  0.00     0.138 A 
ATOM      2  C   UNL     1     120.014 128.100 128.391  1.00  0.00     0.100 A 
ATOM      3  C   UNL     1     119.069 127.077 128.285  1.00  0.00     0.193 A 
ATOM      4  O   UNL     1     117.875 127.362 127.994  1.00  0.00    -0.289 OA
ATOM      5  C   UNL     1     119.461 125.750 128.502  1.00  0.00     0.065 A 
ATOM      6  C   UNL     1     118.560 124.673 128.411  1.00  0.00     0.016 A 
ATOM      7  C   UNL     1     119.005 123.367 128.639  1.00  0.00     0.001 A 
ATOM      8  C   UNL     1     120.345 123.125 128.957  1.00  0.00     0.004 A 
ATOM      9  C   UNL     1     121.246 124.189 129.050  1.00  0.00     0.048 A 
ATOM     10  C   UNL     1     120.813 125.500 128.824  1.00  0.00     0.138 A 
ATOM     11  O   UNL     1     121.678 126.505 128.914  1.00  0.00    -0.456 OA
ENDROOT
BRANCH   1  12
ATOM     12  C   UNL     1     122.423 128.816 128.848  1.00  0.00     0.017 A 
ATOM     13  C   UNL     1     124.402 130.800 129.179  1.00  0.00     0.000 A 
ATOM     14  C   UNL     1     124.489 129.897 128.120  1.00  0.00     0.001 A 
ATOM     15  C   UNL     1     123.336 130.721 130.075  1.00  0.00     0.001 A 
ATOM     16  C   UNL     1     123.511 128.911 127.952  1.00  0.00     0.012 A 
ATOM     17  C   UNL     1     122.354 129.739 129.913  1.00  0.00     0.012 A 
ENDBRANCH   1  12
TORSDOF 1
ENDMDL
MODEL 2
REMARK VINA RESULT:    -4.919     12.951     14.603
REMARK INTER + INTRA:          -5.436
REMARK INTER:                  -5.177
REMARK INTRA:                  -0.259
REMARK UNBOUND:                -0.229
REMARK SMILES O=c1cc(-c2ccccc2)oc2ccccc12
REMARK SMILES IDX 4 1 3 2 2 3 1 4 17 5 16 6 15 7 14 8 13 9 12 10 11 11 5 12
REMARK SMILES IDX 8 13 7 14 9 15 6 16 10 17
REMARK H PARENT
REMARK Flexibility Score: inf
ROOT
ATOM      1  C   UNL     1     125.872 121.264 139.575  1.00  0.00     0.138 A 
ATOM      2  C   UNL     1     127.047 120.540 139.285  1.00  0.00     0.100 A 
ATOM      3  C   UNL     1     127.789 119.985 140.329  1.00  0.00     0.193 A 
ATOM      4  O   UNL     1     128.840 119.338 140.069  1.00  0.00    -0.289 OA
ATOM      5  C   UNL     1     127.356 120.155 141.651  1.00  0.00     0.065 A 
ATOM      6  C   UNL     1     128.057 119.622 142.749  1.00  0.00     0.016 A 
ATOM      7  C   UNL     1     127.579 119.822 144.048  1.00  0.00     0.001 A 
ATOM      8  C   UNL     1     126.406 120.551 144.261  1.00  0.00     0.004 A 
ATOM      9  C   UNL     1     125.703 121.083 143.177  1.00  0.00     0.048 A 
ATOM     10  C   UNL     1     126.171 120.890 141.872  1.00  0.00     0.138 A 
ATOM     11  O   UNL     1     125.497 121.401 140.847  1.00  0.00    -0.456 OA
ENDROOT
BRANCH   1  12
ATOM     12  C   UNL     1     125.019 121.890 138.517  1.00  0.00     0.017 A 
ATOM     13  C   UNL     1     123.447 123.007 136.457  1.00  0.00     0.000 A 
ATOM     14  C   UNL     1     123.389 123.538 137.746  1.00  0.00     0.001 A 
ATOM     15  C   UNL     1     124.281 121.923 136.189  1.00  0.00     0.001 A 
ATOM     16  C   UNL     1     124.167 122.988 138.770  1.00  0.00     0.012 A 
ATOM     17  C   UNL     1     125.061 121.368 137.207  1.00  0.00     0.012 A 
ENDBRANCH   1  12
TORSDOF 1
ENDMDL
MODEL 3
REMARK VINA RESULT:    -4.855     15.152     16.767
REMARK INTER + INTRA:          -5.367
REMARK INTER:                  -5.101
REMARK INTRA:                  -0.266
REMARK UNBOUND:                -0.229
REMARK SMILES O=c1cc(-c2ccccc2)oc2ccccc12
REMARK SMILES IDX 4 1 3 2 2 3 1 4 17 5 16 6 15 7 14 8 13 9 12 10 11 11 5 12
REMARK SMILES IDX 8 13 7 14 9 15 6 16 10 17
REMARK H PARENT
REMARK Flexibility Score: inf
ROOT
ATOM      1  C   UNL     1     126.548 120.186 142.886  1.00  0.00     0.138 A 
ATOM      2  C   UNL     1     127.629 119.562 142.228  1.00  0.00     0.100 A 
ATOM      3  C   UNL     1     127.782 119.724 140.850  1.00  0.00     0.193 A 
ATOM      4  O   UNL     1     128.748 119.166 140.262  1.00  0.00    -0.289 OA
ATOM      5  C   UNL     1     126.860 120.504 140.139  1.00  0.00     0.065 A 
ATOM      6  C   UNL     1     126.957 120.708 138.751  1.00  0.00     0.016 A 
ATOM      7  C   UNL     1     126.009 121.497 138.091  1.00  0.00     0.001 A 
ATOM      8  C   UNL     1     124.963 122.085 138.807  1.00  0.00     0.004 A 
ATOM      9  C   UNL     1     124.860 121.889 140.187  1.00  0.00     0.048 A 
ATOM     10  C   UNL     1     125.802 121.102 140.858  1.00  0.00     0.138 A 
ATOM     11  O   UNL     1     125.695 120.919 142.170  1.00  0.00    -0.456 OA
ENDROOT
BRANCH   1  12
ATOM     12  C   UNL     1     126.310 120.064 144.358  1.00  0.00     0.017 A 
ATOM     13  C   UNL     1     125.782 119.892 147.125  1.00  0.00     0.000 A 
ATOM     14  C   UNL     1     126.885 119.232 146.582  1.00  0.00     0.001 A 
ATOM     15  C   UNL     1     124.941 120.636 146.299  1.00  0.00     0.001 A 
ATOM     16  C   UNL     1     127.151 119.314 145.211  1.00  0.00     0.012 A 
ATOM     17  C   UNL     1     125.200 120.723 144.928  1.00  0.00     0.012 A 
ENDBRANCH   1  12
TORSDOF 1
ENDMDL
MODEL 4
REMARK VINA RESULT:    -4.834     11.470     15.417
REMARK INTER + INTRA:          -5.346
REMARK INTER:                  -5.084
REMARK INTRA:                  -0.261
REMARK UNBOUND:                -0.229
REMARK SMILES O=c1cc(-c2ccccc2)oc2ccccc12
REMARK SMILES IDX 4 1 3 2 2 3 1 4 17 5 16 6 15 7 14 8 13 9 12 10 11 11 5 12
REMARK SMILES IDX 8 13 7 14 9 15 6 16 10 17
REMARK H PARENT
REMARK Flexibility Score: inf
ROOT
ATOM      1  C   UNL     1     129.577 136.405 134.715  1.00  0.00     0.138 A 
ATOM      2  C   UNL     1     128.575 137.249 135.237  1.00  0.00     0.100 A 
ATOM      3  C   UNL     1     128.897 138.157 136.248  1.00  0.00     0.193 A 
ATOM      4  O   UNL     1     128.000 138.911 136.715  1.00  0.00    -0.289 OA
ATOM      5  C   UNL     1     130.211 138.216 136.730  1.00  0.00     0.065 A 
ATOM      6  C   UNL     1     130.602 139.107 137.746  1.00  0.00     0.016 A 
ATOM      7  C   UNL     1     131.928 139.125 138.189  1.00  0.00     0.001 A 
ATOM      8  C   UNL     1     132.870 138.258 137.626  1.00  0.00     0.004 A 
ATOM      9  C   UNL     1     132.490 137.371 136.615  1.00  0.00     0.048 A 
ATOM     10  C   UNL     1     131.166 137.344 136.163  1.00  0.00     0.138 A 
ATOM     11  O   UNL     1     130.814 136.495 135.203  1.00  0.00    -0.456 OA
ENDROOT
BRANCH   1  12
ATOM     12  C   UNL     1     129.317 135.406 133.632  1.00  0.00     0.017 A 
ATOM     13  C   UNL     1     128.910 133.472 131.617  1.00  0.00     0.000 A 
ATOM     14  C   UNL     1     128.009 134.527 131.765  1.00  0.00     0.001 A 
ATOM     15  C   UNL     1     130.011 133.373 132.467  1.00  0.00     0.001 A 
ATOM     16  C   UNL     1     128.207 135.488 132.762  1.00  0.00     0.012 A 
ATOM     17  C   UNL     1     130.215 134.330 133.465  1.00  0.00     0.012 A 
ENDBRANCH   1  12
TORSDOF 1
ENDMDL
MODEL 5
REMARK VINA RESULT:    -4.747     13.925     15.491
REMARK INTER + INTRA:          -5.254
REMARK INTER:                  -4.993
REMARK INTRA:                  -0.261
REMARK UNBOUND:                -0.229
REMARK SMILES O=c1cc(-c2ccccc2)oc2ccccc12
REMARK SMILES IDX 4 1 3 2 2 3 1 4 17 5 16 6 15 7 14 8 13 9 12 10 11 11 5 12
REMARK SMILES IDX 8 13 7 14 9 15 6 16 10 17
REMARK H PARENT
REMARK Flexibility Score: inf
ROOT
ATOM      1  C   UNL     1     125.882 121.106 140.692  1.00  0.00     0.138 A 
ATOM      2  C   UNL     1     127.084 120.368 140.718  1.00  0.00     0.100 A 
ATOM      3  C   UNL     1     127.573 119.892 141.937  1.00  0.00     0.193 A 
ATOM      4  O   UNL     1     128.647 119.232 141.960  1.00  0.00    -0.289 OA
ATOM      5  C   UNL     1     126.863 120.156 143.116  1.00  0.00     0.065 A 
ATOM      6  C   UNL     1     127.300 119.706 144.375  1.00  0.00     0.016 A 
ATOM      7  C   UNL     1     126.552 119.996 145.520  1.00  0.00     0.001 A 
ATOM      8  C   UNL     1     125.369 120.734 145.420  1.00  0.00     0.004 A 
ATOM      9  C   UNL     1     124.927 121.184 144.172  1.00  0.00     0.048 A 
ATOM     10  C   UNL     1     125.667 120.900 143.019  1.00  0.00     0.138 A 
ATOM     11  O   UNL     1     125.239 121.332 141.838  1.00  0.00    -0.456 OA
ENDROOT
BRANCH   1  12
ATOM     12  C   UNL     1     125.289 121.651 139.431  1.00  0.00     0.017 A 
ATOM     13  C   UNL     1     124.223 122.614 137.002  1.00  0.00     0.000 A 
ATOM     14  C   UNL     1     123.836 123.191 138.212  1.00  0.00     0.001 A 
ATOM     15  C   UNL     1     125.136 121.561 136.994  1.00  0.00     0.001 A 
ATOM     16  C   UNL     1     124.361 122.717 139.418  1.00  0.00     0.012 A 
ATOM     17  C   UNL     1     125.666 121.082 138.196  1.00  0.00     0.012 A 
ENDBRANCH   1  12
TORSDOF 1
ENDMDL
MODEL 6
REMARK VINA RESULT:    -4.634     18.103     19.266
REMARK INTER + INTRA:          -5.134
REMARK INTER:                  -4.881
REMARK INTRA:                  -0.253
REMARK UNBOUND:                -0.229
REMARK SMILES O=c1cc(-c2ccccc2)oc2ccccc12
REMARK SMILES IDX 4 1 3 2 2 3 1 4 17 5 16 6 15 7 14 8 13 9 12 10 11 11 5 12
REMARK SMILES IDX 8 13 7 14 9 15 6 16 10 17
REMARK H PARENT
REMARK Flexibility Score: inf
ROOT
ATOM      1  C   UNL     1     122.442 121.153 146.165  1.00  0.00     0.138 A 
ATOM      2  C   UNL     1     123.089 122.313 146.640  1.00  0.00     0.100 A 
ATOM      3  C   UNL     1     124.484 122.367 146.653  1.00  0.00     0.193 A 
ATOM      4  O   UNL     1     125.062 123.404 147.078  1.00  0.00    -0.289 OA
ATOM      5  C   UNL     1     125.222 121.267 146.194  1.00  0.00     0.065 A 
ATOM      6  C   UNL     1     126.629 121.257 146.181  1.00  0.00     0.016 A 
ATOM      7  C   UNL     1     127.316 120.133 145.711  1.00  0.00     0.001 A 
ATOM      8  C   UNL     1     126.609 119.016 145.255  1.00  0.00     0.004 A 
ATOM      9  C   UNL     1     125.211 119.019 145.264  1.00  0.00     0.048 A 
ATOM     10  C   UNL     1     124.513 120.138 145.732  1.00  0.00     0.138 A 
ATOM     11  O   UNL     1     123.184 120.131 145.738  1.00  0.00    -0.456 OA
ENDROOT
BRANCH   1  12
ATOM     12  C   UNL     1     120.954 121.012 146.117  1.00  0.00     0.017 A 
ATOM     13  C   UNL     1     118.155 120.695 145.943  1.00  0.00     0.000 A 
ATOM     14  C   UNL     1     118.712 121.416 147.000  1.00  0.00     0.001 A 
ATOM     15  C   UNL     1     118.983 120.130 144.974  1.00  0.00     0.001 A 
ATOM     16  C   UNL     1     120.098 121.576 147.091  1.00  0.00     0.012 A 
ATOM     17  C   UNL     1     120.369 120.286 145.058  1.00  0.00     0.012 A 
ENDBRANCH   1  12
TORSDOF 1
ENDMDL
MODEL 7
REMARK VINA RESULT:    -4.622     15.307     16.612
REMARK INTER + INTRA:          -5.121
REMARK INTER:                  -4.855
REMARK INTRA:                  -0.266
REMARK UNBOUND:                -0.229
REMARK SMILES O=c1cc(-c2ccccc2)oc2ccccc12
REMARK SMILES IDX 4 1 3 2 2 3 1 4 17 5 16 6 15 7 14 8 13 9 12 10 11 11 5 12
REMARK SMILES IDX 8 13 7 14 9 15 6 16 10 17
REMARK H PARENT
REMARK Flexibility Score: inf
ROOT
ATOM      1  C   UNL     1     125.079 121.247 142.506  1.00  0.00     0.138 A 
ATOM      2  C   UNL     1     124.109 121.875 143.315  1.00  0.00     0.100 A 
ATOM      3  C   UNL     1     124.092 121.626 144.688  1.00  0.00     0.193 A 
ATOM      4  O   UNL     1     123.224 122.187 145.411  1.00  0.00    -0.289 OA
ATOM      5  C   UNL     1     125.040 120.756 145.244  1.00  0.00     0.065 A 
ATOM      6  C   UNL     1     125.079 120.462 146.620  1.00  0.00     0.016 A 
ATOM      7  C   UNL     1     126.047 119.588 147.122  1.00  0.00     0.001 A 
ATOM      8  C   UNL     1     126.979 119.000 146.261  1.00  0.00     0.004 A 
ATOM      9  C   UNL     1     126.948 119.287 144.893  1.00  0.00     0.048 A 
ATOM     10  C   UNL     1     125.984 120.161 144.379  1.00  0.00     0.138 A 
ATOM     11  O   UNL     1     125.962 120.427 143.077  1.00  0.00    -0.456 OA
ENDROOT
BRANCH   1  12
ATOM     12  C   UNL     1     125.167 121.458 141.027  1.00  0.00     0.017 A 
ATOM     13  C   UNL     1     125.406 121.789 138.235  1.00  0.00     0.000 A 
ATOM     14  C   UNL     1     124.467 122.535 138.949  1.00  0.00     0.001 A 
ATOM     15  C   UNL     1     126.225 120.880 138.902  1.00  0.00     0.001 A 
ATOM     16  C   UNL     1     124.345 122.374 140.333  1.00  0.00     0.012 A 
ATOM     17  C   UNL     1     126.110 120.714 140.285  1.00  0.00     0.012 A 
ENDBRANCH   1  12
TORSDOF 1
ENDMDL
MODEL 8
REMARK VINA RESULT:    -4.584     18.716     20.879
REMARK INTER + INTRA:          -5.081
REMARK INTER:                  -4.860
REMARK INTRA:                  -0.221
REMARK UNBOUND:                -0.229
REMARK SMILES O=c1cc(-c2ccccc2)oc2ccccc12
REMARK SMILES IDX 4 1 3 2 2 3 1 4 17 5 16 6 15 7 14 8 13 9 12 10 11 11 5 12
REMARK SMILES IDX 8 13 7 14 9 15 6 16 10 17
REMARK H PARENT
REMARK Flexibility Score: inf
ROOT
ATOM      1  C   UNL     1     136.922 136.298 137.752  1.00  0.00     0.138 A 
ATOM      2  C   UNL     1     136.308 135.366 136.889  1.00  0.00     0.100 A 
ATOM      3  C   UNL     1     136.297 135.606 135.513  1.00  0.00     0.193 A 
ATOM      4  O   UNL     1     135.747 134.773 134.742  1.00  0.00    -0.289 OA
ATOM      5  C   UNL     1     136.896 136.769 135.010  1.00  0.00     0.065 A 
ATOM      6  C   UNL     1     136.919 137.070 133.636  1.00  0.00     0.016 A 
ATOM      7  C   UNL     1     137.532 138.244 133.187  1.00  0.00     0.001 A 
ATOM      8  C   UNL     1     138.121 139.123 134.101  1.00  0.00     0.004 A 
ATOM      9  C   UNL     1     138.102 138.831 135.467  1.00  0.00     0.048 A 
ATOM     10  C   UNL     1     137.493 137.659 135.928  1.00  0.00     0.138 A 
ATOM     11  O   UNL     1     137.479 137.390 137.230  1.00  0.00    -0.456 OA
ENDROOT
BRANCH   1  12
ATOM     12  C   UNL     1     136.978 136.119 139.236  1.00  0.00     0.017 A 
ATOM     13  C   UNL     1     136.992 135.817 142.042  1.00  0.00     0.000 A 
ATOM     14  C   UNL     1     138.111 135.450 141.294  1.00  0.00     0.001 A 
ATOM     15  C   UNL     1     135.866 136.332 141.401  1.00  0.00     0.001 A 
ATOM     16  C   UNL     1     138.109 135.598 139.904  1.00  0.00     0.012 A 
ATOM     17  C   UNL     1     135.856 136.483 140.012  1.00  0.00     0.012 A 
ENDBRANCH   1  12
TORSDOF 1
ENDMDL
