MODEL 1
REMARK VINA RESULT:    -4.463      0.000      0.000
REMARK INTER + INTRA:          -4.593
REMARK INTER:                  -4.593
REMARK INTRA:                   0.000
REMARK UNBOUND:                 0.000
REMARK SMILES Oc1ccc2[nH]ccc2c1
REMARK SMILES IDX 3 1 4 2 5 3 9 4 8 5 7 6 6 7 10 8 2 9 1 11
REMARK H PARENT 6 10 1 12
REMARK Flexibility Score: inf
ROOT
ATOM      1  C   UNL     1      38.574 187.485  31.106  1.00  0.00     0.048 A 
ATOM      2  C   UNL     1      39.262 187.824  32.285  1.00  0.00     0.030 A 
ATOM      3  C   UNL     1      40.426 187.120  32.584  1.00  0.00     0.046 A 
ATOM      4  C   UNL     1      40.898 186.128  31.766  1.00  0.00     0.003 A 
ATOM      5  C   UNL     1      42.052 185.637  32.337  1.00  0.00     0.028 A 
ATOM      6  C   UNL     1      42.225 186.377  33.502  1.00  0.00     0.083 A 
ATOM      7  N   UNL     1      41.228 187.282  33.649  1.00  0.00    -0.361 N 
ATOM      8  C   UNL     1      40.241 185.767  30.592  1.00  0.00     0.056 A 
ATOM      9  C   UNL     1      39.059 186.461  30.259  1.00  0.00     0.116 A 
ATOM     10  H   UNL     1      41.112 187.963  34.431  1.00  0.00     0.166 HD
ENDROOT
BRANCH   9  11
ATOM     11  O   UNL     1      38.357 186.145  29.098  1.00  0.00    -0.508 OA
ATOM     12  H   UNL     1      37.353 186.268  29.038  1.00  0.00     0.293 HD
ENDBRANCH   9  11
TORSDOF 1
ENDMDL
MODEL 2
REMARK VINA RESULT:    -4.366      2.041      2.823
REMARK INTER + INTRA:          -4.494
REMARK INTER:                  -4.494
REMARK INTRA:                   0.000
REMARK UNBOUND:                 0.000
REMARK SMILES Oc1ccc2[nH]ccc2c1
REMARK SMILES IDX 3 1 4 2 5 3 9 4 8 5 7 6 6 7 10 8 2 9 1 11
REMARK H PARENT 6 10 1 12
REMARK Flexibility Score: inf
ROOT
ATOM      1  C   UNL     1      41.331 186.731  32.092  1.00  0.00     0.048 A 
ATOM      2  C   UNL     1      42.021 186.675  33.316  1.00  0.00     0.030 A 
ATOM      3  C   UNL     1      42.523 185.442  33.725  1.00  0.00     0.046 A 
ATOM      4  C   UNL     1      42.359 184.311  32.969  1.00  0.00     0.003 A 
ATOM      5  C   UNL     1      42.964 183.273  33.642  1.00  0.00     0.028 A 
ATOM      6  C   UNL     1      43.478 183.843  34.803  1.00  0.00     0.083 A 
ATOM      7  N   UNL     1      43.206 185.168  34.848  1.00  0.00    -0.361 N 
ATOM      8  C   UNL     1      41.680 184.332  31.752  1.00  0.00     0.056 A 
ATOM      9  C   UNL     1      41.159 185.565  31.309  1.00  0.00     0.116 A 
ATOM     10  H   UNL     1      43.474 185.837  35.604  1.00  0.00     0.166 HD
ENDROOT
BRANCH   9  11
ATOM     11  O   UNL     1      40.471 185.648  30.100  1.00  0.00    -0.508 OA
ATOM     12  H   UNL     1      40.904 186.045  29.273  1.00  0.00     0.293 HD
ENDBRANCH   9  11
TORSDOF 1
ENDMDL
MODEL 3
REMARK VINA RESULT:    -4.160      2.725      3.715
REMARK INTER + INTRA:          -4.282
REMARK INTER:                  -4.282
REMARK INTRA:                   0.000
REMARK UNBOUND:                 0.000
REMARK SMILES Oc1ccc2[nH]ccc2c1
REMARK SMILES IDX 3 1 4 2 5 3 9 4 8 5 7 6 6 7 10 8 2 9 1 11
REMARK H PARENT 6 10 1 12
REMARK Flexibility Score: inf
ROOT
ATOM      1  C   UNL     1      40.990 185.978  31.645  1.00  0.00     0.048 A 
ATOM      2  C   UNL     1      41.261 184.597  31.657  1.00  0.00     0.030 A 
ATOM      3  C   UNL     1      42.090 184.106  32.662  1.00  0.00     0.046 A 
ATOM      4  C   UNL     1      42.632 184.928  33.615  1.00  0.00     0.003 A 
ATOM      5  C   UNL     1      43.393 184.143  34.452  1.00  0.00     0.028 A 
ATOM      6  C   UNL     1      43.272 182.851  33.949  1.00  0.00     0.083 A 
ATOM      7  N   UNL     1      42.475 182.834  32.856  1.00  0.00    -0.361 N 
ATOM      8  C   UNL     1      42.383 186.299  33.632  1.00  0.00     0.056 A 
ATOM      9  C   UNL     1      41.546 186.829  32.628  1.00  0.00     0.116 A 
ATOM     10  H   UNL     1      42.215 182.001  32.284  1.00  0.00     0.166 HD
ENDROOT
BRANCH   9  11
ATOM     11  O   UNL     1      41.261 188.192  32.593  1.00  0.00    -0.508 OA
ATOM     12  H   UNL     1      40.344 188.546  32.842  1.00  0.00     0.293 HD
ENDBRANCH   9  11
TORSDOF 1
ENDMDL
MODEL 4
REMARK VINA RESULT:    -4.092      0.852      2.348
REMARK INTER + INTRA:          -4.211
REMARK INTER:                  -4.211
REMARK INTRA:                   0.000
REMARK UNBOUND:                 0.000
REMARK SMILES Oc1ccc2[nH]ccc2c1
REMARK SMILES IDX 3 1 4 2 5 3 9 4 8 5 7 6 6 7 10 8 2 9 1 11
REMARK H PARENT 6 10 1 12
REMARK Flexibility Score: inf
ROOT
ATOM      1  C   UNL     1      40.314 185.955  30.541  1.00  0.00     0.048 A 
ATOM      2  C   UNL     1      41.004 186.344  31.703  1.00  0.00     0.030 A 
ATOM      3  C   UNL     1      40.390 187.268  32.546  1.00  0.00     0.046 A 
ATOM      4  C   UNL     1      39.154 187.790  32.264  1.00  0.00     0.003 A 
ATOM      5  C   UNL     1      38.834 188.662  33.280  1.00  0.00     0.028 A 
ATOM      6  C   UNL     1      39.920 188.624  34.149  1.00  0.00     0.083 A 
ATOM      7  N   UNL     1      40.868 187.771  33.695  1.00  0.00    -0.361 N 
ATOM      8  C   UNL     1      38.445 187.425  31.121  1.00  0.00     0.056 A 
ATOM      9  C   UNL     1      39.039 186.491  30.247  1.00  0.00     0.116 A 
ATOM     10  H   UNL     1      41.782 187.551  34.150  1.00  0.00     0.166 HD
ENDROOT
BRANCH   9  11
ATOM     11  O   UNL     1      38.378 186.088  29.089  1.00  0.00    -0.508 OA
ATOM     12  H   UNL     1      37.451 185.679  29.125  1.00  0.00     0.293 HD
ENDBRANCH   9  11
TORSDOF 1
ENDMDL
MODEL 5
REMARK VINA RESULT:    -4.091      2.609      4.073
REMARK INTER + INTRA:          -4.211
REMARK INTER:                  -4.211
REMARK INTRA:                   0.000
REMARK UNBOUND:                 0.000
REMARK SMILES Oc1ccc2[nH]ccc2c1
REMARK SMILES IDX 3 1 4 2 5 3 9 4 8 5 7 6 6 7 10 8 2 9 1 11
REMARK H PARENT 6 10 1 12
REMARK Flexibility Score: inf
ROOT
ATOM      1  C   UNL     1      41.928 185.389  32.130  1.00  0.00     0.048 A 
ATOM      2  C   UNL     1      41.152 185.169  30.978  1.00  0.00     0.030 A 
ATOM      3  C   UNL     1      40.055 186.000  30.764  1.00  0.00     0.046 A 
ATOM      4  C   UNL     1      39.729 187.003  31.639  1.00  0.00     0.003 A 
ATOM      5  C   UNL     1      38.607 187.632  31.146  1.00  0.00     0.028 A 
ATOM      6  C   UNL     1      38.302 186.960  29.967  1.00  0.00     0.083 A 
ATOM      7  N   UNL     1      39.189 185.963  29.738  1.00  0.00    -0.361 N 
ATOM      8  C   UNL     1      40.477 187.247  32.789  1.00  0.00     0.056 A 
ATOM      9  C   UNL     1      41.596 186.424  33.035  1.00  0.00     0.116 A 
ATOM     10  H   UNL     1      39.195 185.305  28.929  1.00  0.00     0.166 HD
ENDROOT
BRANCH   9  11
ATOM     11  O   UNL     1      42.381 186.620  34.169  1.00  0.00    -0.508 OA
ATOM     12  H   UNL     1      42.851 185.846  34.625  1.00  0.00     0.293 HD
ENDBRANCH   9  11
TORSDOF 1
ENDMDL
MODEL 6
REMARK VINA RESULT:    -4.080      3.086      4.518
REMARK INTER + INTRA:          -4.199
REMARK INTER:                  -4.199
REMARK INTRA:                   0.000
REMARK UNBOUND:                 0.000
REMARK SMILES Oc1ccc2[nH]ccc2c1
REMARK SMILES IDX 3 1 4 2 5 3 9 4 8 5 7 6 6 7 10 8 2 9 1 11
REMARK H PARENT 6 10 1 12
REMARK Flexibility Score: inf
ROOT
ATOM      1  C   UNL     1      43.274 183.920  34.802  1.00  0.00     0.048 A 
ATOM      2  C   UNL     1      42.764 185.219  34.977  1.00  0.00     0.030 A 
ATOM      3  C   UNL     1      42.267 185.879  33.855  1.00  0.00     0.046 A 
ATOM      4  C   UNL     1      42.268 185.295  32.616  1.00  0.00     0.003 A 
ATOM      5  C   UNL     1      41.716 186.197  31.734  1.00  0.00     0.028 A 
ATOM      6  C   UNL     1      41.401 187.312  32.505  1.00  0.00     0.083 A 
ATOM      7  N   UNL     1      41.739 187.113  33.800  1.00  0.00    -0.361 N 
ATOM      8  C   UNL     1      42.766 184.010  32.409  1.00  0.00     0.056 A 
ATOM      9  C   UNL     1      43.276 183.313  33.524  1.00  0.00     0.116 A 
ATOM     10  H   UNL     1      41.614 187.783  34.590  1.00  0.00     0.166 HD
ENDROOT
BRANCH   9  11
ATOM     11  O   UNL     1      43.787 182.026  33.380  1.00  0.00    -0.508 OA
ATOM     12  H   UNL     1      44.491 181.812  32.682  1.00  0.00     0.293 HD
ENDBRANCH   9  11
TORSDOF 1
ENDMDL
MODEL 7
REMARK VINA RESULT:    -3.978      1.817      1.913
REMARK INTER + INTRA:          -4.095
REMARK INTER:                  -4.095
REMARK INTRA:                   0.000
REMARK UNBOUND:                 0.000
REMARK SMILES Oc1ccc2[nH]ccc2c1
REMARK SMILES IDX 3 1 4 2 5 3 9 4 8 5 7 6 6 7 10 8 2 9 1 11
REMARK H PARENT 6 10 1 12
REMARK Flexibility Score: inf
ROOT
ATOM      1  C   UNL     1      38.389 186.251  31.530  1.00  0.00     0.048 A 
ATOM      2  C   UNL     1      38.652 185.474  32.673  1.00  0.00     0.030 A 
ATOM      3  C   UNL     1      39.901 184.865  32.772  1.00  0.00     0.046 A 
ATOM      4  C   UNL     1      40.852 185.009  31.796  1.00  0.00     0.003 A 
ATOM      5  C   UNL     1      41.960 184.292  32.191  1.00  0.00     0.028 A 
ATOM      6  C   UNL     1      41.614 183.735  33.419  1.00  0.00     0.083 A 
ATOM      7  N   UNL     1      40.355 184.088  33.768  1.00  0.00    -0.361 N 
ATOM      8  C   UNL     1      40.623 185.771  30.652  1.00  0.00     0.056 A 
ATOM      9  C   UNL     1      39.369 186.402  30.521  1.00  0.00     0.116 A 
ATOM     10  H   UNL     1      39.846 183.811  34.636  1.00  0.00     0.166 HD
ENDROOT
BRANCH   9  11
ATOM     11  O   UNL     1      39.081 187.177  29.400  1.00  0.00    -0.508 OA
ATOM     12  H   UNL     1      39.027 188.188  29.457  1.00  0.00     0.293 HD
ENDBRANCH   9  11
TORSDOF 1
ENDMDL
MODEL 8
REMARK VINA RESULT:    -3.950      2.477      3.788
REMARK INTER + INTRA:          -4.066
REMARK INTER:                  -4.066
REMARK INTRA:                   0.000
REMARK UNBOUND:                 0.000
REMARK SMILES Oc1ccc2[nH]ccc2c1
REMARK SMILES IDX 3 1 4 2 5 3 9 4 8 5 7 6 6 7 10 8 2 9 1 11
REMARK H PARENT 6 10 1 12
REMARK Flexibility Score: inf
ROOT
ATOM      1  C   UNL     1      42.751 185.286  33.615  1.00  0.00     0.048 A 
ATOM      2  C   UNL     1      41.965 186.445  33.478  1.00  0.00     0.030 A 
ATOM      3  C   UNL     1      41.025 186.475  32.451  1.00  0.00     0.046 A 
ATOM      4  C   UNL     1      40.860 185.419  31.594  1.00  0.00     0.003 A 
ATOM      5  C   UNL     1      39.865 185.761  30.705  1.00  0.00     0.028 A 
ATOM      6  C   UNL     1      39.468 187.041  31.079  1.00  0.00     0.083 A 
ATOM      7  N   UNL     1      40.180 187.473  32.145  1.00  0.00    -0.361 N 
ATOM      8  C   UNL     1      41.623 184.258  31.702  1.00  0.00     0.056 A 
ATOM      9  C   UNL     1      42.583 184.194  32.732  1.00  0.00     0.116 A 
ATOM     10  H   UNL     1      40.087 188.393  32.629  1.00  0.00     0.166 HD
ENDROOT
BRANCH   9  11
ATOM     11  O   UNL     1      43.376 183.059  32.891  1.00  0.00    -0.508 OA
ATOM     12  H   UNL     1      44.304 183.003  32.486  1.00  0.00     0.293 HD
ENDBRANCH   9  11
TORSDOF 1
ENDMDL
MODEL 9
REMARK VINA RESULT:    -3.927      3.104      4.548
REMARK INTER + INTRA:          -4.042
REMARK INTER:                  -4.042
REMARK INTRA:                   0.000
REMARK UNBOUND:                 0.000
REMARK SMILES Oc1ccc2[nH]ccc2c1
REMARK SMILES IDX 3 1 4 2 5 3 9 4 8 5 7 6 6 7 10 8 2 9 1 11
REMARK H PARENT 6 10 1 12
REMARK Flexibility Score: inf
ROOT
ATOM      1  C   UNL     1      42.720 183.587  33.029  1.00  0.00     0.048 A 
ATOM      2  C   UNL     1      41.732 183.812  32.053  1.00  0.00     0.030 A 
ATOM      3  C   UNL     1      41.165 185.083  31.983  1.00  0.00     0.046 A 
ATOM      4  C   UNL     1      41.547 186.090  32.830  1.00  0.00     0.003 A 
ATOM      5  C   UNL     1      40.806 187.205  32.504  1.00  0.00     0.028 A 
ATOM      6  C   UNL     1      39.992 186.805  31.449  1.00  0.00     0.083 A 
ATOM      7  N   UNL     1      40.215 185.508  31.135  1.00  0.00    -0.361 N 
ATOM      8  C   UNL     1      42.522 185.899  33.807  1.00  0.00     0.056 A 
ATOM      9  C   UNL     1      43.117 184.624  33.904  1.00  0.00     0.116 A 
ATOM     10  H   UNL     1      39.743 184.956  30.385  1.00  0.00     0.166 HD
ENDROOT
BRANCH   9  11
ATOM     11  O   UNL     1      44.097 184.374  34.862  1.00  0.00    -0.508 OA
ATOM     12  H   UNL     1      44.203 184.967  35.677  1.00  0.00     0.293 HD
ENDBRANCH   9  11
TORSDOF 1
ENDMDL
