MODEL 1
REMARK VINA RESULT:    -4.853      0.000      0.000
REMARK INTER + INTRA:          -4.853
REMARK INTER:                  -4.853
REMARK INTRA:                   0.000
REMARK UNBOUND:                 0.000
REMARK SMILES C=C1CCC[C@]2(C)CC(=O)C(=C(C)C)C[C@H]12
REMARK SMILES IDX 13 1 12 2 11 3 15 4 16 5 2 6 1 7 3 8 4 9 5 10 6 11 8 12 9 13
REMARK SMILES IDX 10 14 7 15 14 16
REMARK H PARENT
REMARK Flexibility Score: inf
ROOT
ATOM      1  C   UNL     1      16.981  59.442  23.521  1.00  0.00     0.039 C 
ATOM      2  C   UNL     1      16.336  60.796  23.703  1.00  0.00    -0.070 C 
ATOM      3  C   UNL     1      15.831  61.493  22.644  1.00  0.00    -0.006 C 
ATOM      4  C   UNL     1      15.099  62.813  22.802  1.00  0.00     0.047 C 
ATOM      5  C   UNL     1      13.759  62.890  22.004  1.00  0.00     0.025 C 
ATOM      6  C   UNL     1      12.575  62.952  22.957  1.00  0.00    -0.073 C 
ATOM      7  C   UNL     1      12.119  64.134  23.402  1.00  0.00     0.008 C 
ATOM      8  C   UNL     1      12.019  61.666  23.515  1.00  0.00     0.031 C 
ATOM      9  C   UNL     1      11.722  60.690  22.380  1.00  0.00     0.005 C 
ATOM     10  C   UNL     1      12.967  60.456  21.517  1.00  0.00     0.008 C 
ATOM     11  C   UNL     1      13.559  61.772  20.912  1.00  0.00    -0.018 C 
ATOM     12  C   UNL     1      14.921  61.455  20.236  1.00  0.00     0.088 C 
ATOM     13  C   UNL     1      15.952  61.027  21.238  1.00  0.00     0.159 C 
ATOM     14  O   UNL     1      16.938  60.345  20.851  1.00  0.00    -0.295 OA
ATOM     15  C   UNL     1      12.603  62.299  19.813  1.00  0.00     0.012 C 
ATOM     16  C   UNL     1      16.230  61.325  25.114  1.00  0.00     0.039 C 
ENDROOT
TORSDOF 0
ENDMDL
MODEL 2
REMARK VINA RESULT:    -4.849      1.989      4.700
REMARK INTER + INTRA:          -4.849
REMARK INTER:                  -4.849
REMARK INTRA:                   0.000
REMARK UNBOUND:                 0.000
REMARK SMILES C=C1CCC[C@]2(C)CC(=O)C(=C(C)C)C[C@H]12
REMARK SMILES IDX 13 1 12 2 11 3 15 4 16 5 2 6 1 7 3 8 4 9 5 10 6 11 8 12 9 13
REMARK SMILES IDX 10 14 7 15 14 16
REMARK H PARENT
REMARK Flexibility Score: inf
ROOT
ATOM      1  C   UNL     1      11.412  61.117  23.705  1.00  0.00     0.039 C 
ATOM      2  C   UNL     1      12.208  61.505  22.481  1.00  0.00    -0.070 C 
ATOM      3  C   UNL     1      13.296  62.324  22.569  1.00  0.00    -0.006 C 
ATOM      4  C   UNL     1      14.170  62.663  21.376  1.00  0.00     0.047 C 
ATOM      5  C   UNL     1      15.699  62.525  21.655  1.00  0.00     0.025 C 
ATOM      6  C   UNL     1      16.288  61.382  20.842  1.00  0.00    -0.073 C 
ATOM      7  C   UNL     1      16.761  61.600  19.603  1.00  0.00     0.008 C 
ATOM      8  C   UNL     1      16.194  59.978  21.382  1.00  0.00     0.031 C 
ATOM      9  C   UNL     1      16.732  59.930  22.808  1.00  0.00     0.005 C 
ATOM     10  C   UNL     1      16.008  60.944  23.703  1.00  0.00     0.008 C 
ATOM     11  C   UNL     1      16.100  62.414  23.175  1.00  0.00    -0.018 C 
ATOM     12  C   UNL     1      15.170  63.321  24.026  1.00  0.00     0.088 C 
ATOM     13  C   UNL     1      13.725  62.964  23.840  1.00  0.00     0.159 C 
ATOM     14  O   UNL     1      12.894  63.283  24.732  1.00  0.00    -0.295 OA
ATOM     15  C   UNL     1      17.549  62.928  23.359  1.00  0.00     0.012 C 
ATOM     16  C   UNL     1      11.779  60.907  21.161  1.00  0.00     0.039 C 
ENDROOT
TORSDOF 0
ENDMDL
MODEL 3
REMARK VINA RESULT:    -4.684      2.211      3.889
REMARK INTER + INTRA:          -4.684
REMARK INTER:                  -4.684
REMARK INTRA:                   0.000
REMARK UNBOUND:                 0.000
REMARK SMILES C=C1CCC[C@]2(C)CC(=O)C(=C(C)C)C[C@H]12
REMARK SMILES IDX 13 1 12 2 11 3 15 4 16 5 2 6 1 7 3 8 4 9 5 10 6 11 8 12 9 13
REMARK SMILES IDX 10 14 7 15 14 16
REMARK H PARENT
REMARK Flexibility Score: inf
ROOT
ATOM      1  C   UNL     1      15.926  63.692  25.654  1.00  0.00     0.039 C 
ATOM      2  C   UNL     1      15.617  62.290  25.181  1.00  0.00    -0.070 C 
ATOM      3  C   UNL     1      14.640  62.048  24.260  1.00  0.00    -0.006 C 
ATOM      4  C   UNL     1      14.363  60.666  23.698  1.00  0.00     0.047 C 
ATOM      5  C   UNL     1      14.224  60.635  22.144  1.00  0.00     0.025 C 
ATOM      6  C   UNL     1      15.377  59.861  21.522  1.00  0.00    -0.073 C 
ATOM      7  C   UNL     1      15.286  58.535  21.334  1.00  0.00     0.008 C 
ATOM      8  C   UNL     1      16.678  60.577  21.261  1.00  0.00     0.031 C 
ATOM      9  C   UNL     1      16.422  61.854  20.468  1.00  0.00     0.005 C 
ATOM     10  C   UNL     1      15.403  62.750  21.182  1.00  0.00     0.008 C 
ATOM     11  C   UNL     1      14.035  62.038  21.454  1.00  0.00    -0.018 C 
ATOM     12  C   UNL     1      13.158  62.948  22.356  1.00  0.00     0.088 C 
ATOM     13  C   UNL     1      13.753  63.114  23.724  1.00  0.00     0.159 C 
ATOM     14  O   UNL     1      13.428  64.114  24.418  1.00  0.00    -0.295 OA
ATOM     15  C   UNL     1      13.287  61.851  20.111  1.00  0.00     0.012 C 
ATOM     16  C   UNL     1      16.470  61.173  25.734  1.00  0.00     0.039 C 
ENDROOT
TORSDOF 0
ENDMDL
MODEL 4
REMARK VINA RESULT:    -4.682     12.448     15.154
REMARK INTER + INTRA:          -4.682
REMARK INTER:                  -4.682
REMARK INTRA:                   0.000
REMARK UNBOUND:                 0.000
REMARK SMILES C=C1CCC[C@]2(C)CC(=O)C(=C(C)C)C[C@H]12
REMARK SMILES IDX 13 1 12 2 11 3 15 4 16 5 2 6 1 7 3 8 4 9 5 10 6 11 8 12 9 13
REMARK SMILES IDX 10 14 7 15 14 16
REMARK H PARENT
REMARK Flexibility Score: inf
ROOT
ATOM      1  C   UNL     1      16.480  51.196  30.949  1.00  0.00     0.039 C 
ATOM      2  C   UNL     1      16.413  52.606  31.487  1.00  0.00    -0.070 C 
ATOM      3  C   UNL     1      15.813  52.886  32.680  1.00  0.00    -0.006 C 
ATOM      4  C   UNL     1      15.805  54.275  33.292  1.00  0.00     0.047 C 
ATOM      5  C   UNL     1      16.197  54.300  34.803  1.00  0.00     0.025 C 
ATOM      6  C   UNL     1      17.526  55.014  34.996  1.00  0.00    -0.073 C 
ATOM      7  C   UNL     1      17.565  56.342  35.193  1.00  0.00     0.008 C 
ATOM      8  C   UNL     1      18.805  54.237  34.811  1.00  0.00     0.031 C 
ATOM      9  C   UNL     1      18.771  52.966  35.654  1.00  0.00     0.005 C 
ATOM     10  C   UNL     1      17.530  52.125  35.330  1.00  0.00     0.008 C 
ATOM     11  C   UNL     1      16.185  52.902  35.526  1.00  0.00    -0.018 C 
ATOM     12  C   UNL     1      15.015  52.040  34.978  1.00  0.00     0.088 C 
ATOM     13  C   UNL     1      15.109  51.859  33.491  1.00  0.00     0.159 C 
ATOM     14  O   UNL     1      14.524  50.880  32.955  1.00  0.00    -0.295 OA
ATOM     15  C   UNL     1      15.940  53.113  37.041  1.00  0.00     0.012 C 
ATOM     16  C   UNL     1      17.082  53.687  30.672  1.00  0.00     0.039 C 
ENDROOT
TORSDOF 0
ENDMDL
MODEL 5
REMARK VINA RESULT:    -4.655     12.800     15.300
REMARK INTER + INTRA:          -4.655
REMARK INTER:                  -4.655
REMARK INTRA:                   0.000
REMARK UNBOUND:                 0.000
REMARK SMILES C=C1CCC[C@]2(C)CC(=O)C(=C(C)C)C[C@H]12
REMARK SMILES IDX 13 1 12 2 11 3 15 4 16 5 2 6 1 7 3 8 4 9 5 10 6 11 8 12 9 13
REMARK SMILES IDX 10 14 7 15 14 16
REMARK H PARENT
REMARK Flexibility Score: inf
ROOT
ATOM      1  C   UNL     1      18.168  55.496  32.542  1.00  0.00     0.039 C 
ATOM      2  C   UNL     1      17.449  54.167  32.558  1.00  0.00    -0.070 C 
ATOM      3  C   UNL     1      17.301  53.451  33.711  1.00  0.00    -0.006 C 
ATOM      4  C   UNL     1      16.511  52.157  33.780  1.00  0.00     0.047 C 
ATOM      5  C   UNL     1      15.513  52.092  34.979  1.00  0.00     0.025 C 
ATOM      6  C   UNL     1      14.077  52.094  34.476  1.00  0.00    -0.073 C 
ATOM      7  C   UNL     1      13.455  50.939  34.185  1.00  0.00     0.008 C 
ATOM      8  C   UNL     1      13.415  53.411  34.164  1.00  0.00     0.031 C 
ATOM      9  C   UNL     1      13.549  54.358  35.352  1.00  0.00     0.005 C 
ATOM     10  C   UNL     1      15.019  54.530  35.754  1.00  0.00     0.008 C 
ATOM     11  C   UNL     1      15.731  53.179  36.098  1.00  0.00    -0.018 C 
ATOM     12  C   UNL     1      17.251  53.437  36.285  1.00  0.00     0.088 C 
ATOM     13  C   UNL     1      17.902  53.868  35.004  1.00  0.00     0.159 C 
ATOM     14  O   UNL     1      18.986  54.510  35.053  1.00  0.00    -0.295 OA
ATOM     15  C   UNL     1      15.178  52.645  37.442  1.00  0.00     0.012 C 
ATOM     16  C   UNL     1      16.858  53.687  31.254  1.00  0.00     0.039 C 
ENDROOT
TORSDOF 0
ENDMDL
MODEL 6
REMARK VINA RESULT:    -4.640      1.914      3.489
REMARK INTER + INTRA:          -4.640
REMARK INTER:                  -4.640
REMARK INTRA:                   0.000
REMARK UNBOUND:                 0.000
REMARK SMILES C=C1CCC[C@]2(C)CC(=O)C(=C(C)C)C[C@H]12
REMARK SMILES IDX 13 1 12 2 11 3 15 4 16 5 2 6 1 7 3 8 4 9 5 10 6 11 8 12 9 13
REMARK SMILES IDX 10 14 7 15 14 16
REMARK H PARENT
REMARK Flexibility Score: inf
ROOT
ATOM      1  C   UNL     1      13.808  62.480  26.322  1.00  0.00     0.039 C 
ATOM      2  C   UNL     1      13.193  62.827  24.986  1.00  0.00    -0.070 C 
ATOM      3  C   UNL     1      13.966  63.105  23.897  1.00  0.00    -0.006 C 
ATOM      4  C   UNL     1      13.383  63.371  22.521  1.00  0.00     0.047 C 
ATOM      5  C   UNL     1      14.089  62.580  21.375  1.00  0.00     0.025 C 
ATOM      6  C   UNL     1      13.141  61.550  20.778  1.00  0.00    -0.073 C 
ATOM      7  C   UNL     1      12.335  61.877  19.754  1.00  0.00     0.008 C 
ATOM      8  C   UNL     1      13.009  60.206  21.448  1.00  0.00     0.031 C 
ATOM      9  C   UNL     1      14.388  59.586  21.652  1.00  0.00     0.005 C 
ATOM     10  C   UNL     1      15.306  60.534  22.432  1.00  0.00     0.008 C 
ATOM     11  C   UNL     1      15.474  61.934  21.754  1.00  0.00    -0.018 C 
ATOM     12  C   UNL     1      16.243  62.879  22.717  1.00  0.00     0.088 C 
ATOM     13  C   UNL     1      15.449  63.175  23.955  1.00  0.00     0.159 C 
ATOM     14  O   UNL     1      16.052  63.551  24.996  1.00  0.00    -0.295 OA
ATOM     15  C   UNL     1      16.330  61.775  20.473  1.00  0.00     0.012 C 
ATOM     16  C   UNL     1      11.685  62.807  24.895  1.00  0.00     0.039 C 
ENDROOT
TORSDOF 0
ENDMDL
MODEL 7
REMARK VINA RESULT:    -4.602     13.076     15.139
REMARK INTER + INTRA:          -4.602
REMARK INTER:                  -4.602
REMARK INTRA:                   0.000
REMARK UNBOUND:                 0.000
REMARK SMILES C=C1CCC[C@]2(C)CC(=O)C(=C(C)C)C[C@H]12
REMARK SMILES IDX 13 1 12 2 11 3 15 4 16 5 2 6 1 7 3 8 4 9 5 10 6 11 8 12 9 13
REMARK SMILES IDX 10 14 7 15 14 16
REMARK H PARENT
REMARK Flexibility Score: inf
ROOT
ATOM      1  C   UNL     1      14.878  57.574  35.839  1.00  0.00     0.039 C 
ATOM      2  C   UNL     1      14.836  56.574  34.707  1.00  0.00    -0.070 C 
ATOM      3  C   UNL     1      15.916  55.799  34.401  1.00  0.00    -0.006 C 
ATOM      4  C   UNL     1      15.880  54.724  33.330  1.00  0.00     0.047 C 
ATOM      5  C   UNL     1      16.488  53.360  33.785  1.00  0.00     0.025 C 
ATOM      6  C   UNL     1      15.406  52.295  33.864  1.00  0.00    -0.073 C 
ATOM      7  C   UNL     1      15.104  51.547  32.790  1.00  0.00     0.008 C 
ATOM      8  C   UNL     1      14.572  52.193  35.117  1.00  0.00     0.031 C 
ATOM      9  C   UNL     1      15.479  52.105  36.341  1.00  0.00     0.005 C 
ATOM     10  C   UNL     1      16.454  53.287  36.389  1.00  0.00     0.008 C 
ATOM     11  C   UNL     1      17.343  53.411  35.107  1.00  0.00    -0.018 C 
ATOM     12  C   UNL     1      18.138  54.744  35.164  1.00  0.00     0.088 C 
ATOM     13  C   UNL     1      17.228  55.935  35.084  1.00  0.00     0.159 C 
ATOM     14  O   UNL     1      17.629  57.044  35.530  1.00  0.00    -0.295 OA
ATOM     15  C   UNL     1      18.373  52.254  35.093  1.00  0.00     0.012 C 
ATOM     16  C   UNL     1      13.530  56.433  33.960  1.00  0.00     0.039 C 
ENDROOT
TORSDOF 0
ENDMDL
MODEL 8
REMARK VINA RESULT:    -4.559      1.877      4.338
REMARK INTER + INTRA:          -4.559
REMARK INTER:                  -4.559
REMARK INTRA:                   0.000
REMARK UNBOUND:                 0.000
REMARK SMILES C=C1CCC[C@]2(C)CC(=O)C(=C(C)C)C[C@H]12
REMARK SMILES IDX 13 1 12 2 11 3 15 4 16 5 2 6 1 7 3 8 4 9 5 10 6 11 8 12 9 13
REMARK SMILES IDX 10 14 7 15 14 16
REMARK H PARENT
REMARK Flexibility Score: inf
ROOT
ATOM      1  C   UNL     1      11.966  64.774  23.245  1.00  0.00     0.039 C 
ATOM      2  C   UNL     1      12.296  63.324  23.513  1.00  0.00    -0.070 C 
ATOM      3  C   UNL     1      12.757  62.504  22.525  1.00  0.00    -0.006 C 
ATOM      4  C   UNL     1      13.182  61.069  22.778  1.00  0.00     0.047 C 
ATOM      5  C   UNL     1      14.554  60.695  22.134  1.00  0.00     0.025 C 
ATOM      6  C   UNL     1      15.592  60.427  23.213  1.00  0.00    -0.073 C 
ATOM      7  C   UNL     1      15.746  59.192  23.719  1.00  0.00     0.008 C 
ATOM      8  C   UNL     1      16.338  61.591  23.814  1.00  0.00     0.031 C 
ATOM      9  C   UNL     1      16.948  62.447  22.709  1.00  0.00     0.005 C 
ATOM     10  C   UNL     1      15.877  62.900  21.710  1.00  0.00     0.008 C 
ATOM     11  C   UNL     1      15.094  61.711  21.058  1.00  0.00    -0.018 C 
ATOM     12  C   UNL     1      13.906  62.275  20.231  1.00  0.00     0.088 C 
ATOM     13  C   UNL     1      12.884  62.937  21.109  1.00  0.00     0.159 C 
ATOM     14  O   UNL     1      12.106  63.791  20.607  1.00  0.00    -0.295 OA
ATOM     15  C   UNL     1      16.032  60.965  20.078  1.00  0.00     0.012 C 
ATOM     16  C   UNL     1      12.142  62.833  24.934  1.00  0.00     0.039 C 
ENDROOT
TORSDOF 0
ENDMDL
MODEL 9
REMARK VINA RESULT:    -4.413      2.167      4.386
REMARK INTER + INTRA:          -4.413
REMARK INTER:                  -4.413
REMARK INTRA:                   0.000
REMARK UNBOUND:                 0.000
REMARK SMILES C=C1CCC[C@]2(C)CC(=O)C(=C(C)C)C[C@H]12
REMARK SMILES IDX 13 1 12 2 11 3 15 4 16 5 2 6 1 7 3 8 4 9 5 10 6 11 8 12 9 13
REMARK SMILES IDX 10 14 7 15 14 16
REMARK H PARENT
REMARK Flexibility Score: inf
ROOT
ATOM      1  C   UNL     1      13.403  62.336  25.272  1.00  0.00     0.039 C 
ATOM      2  C   UNL     1      13.554  61.064  24.471  1.00  0.00    -0.070 C 
ATOM      3  C   UNL     1      13.754  61.092  23.122  1.00  0.00    -0.006 C 
ATOM      4  C   UNL     1      13.998  59.839  22.301  1.00  0.00     0.047 C 
ATOM      5  C   UNL     1      15.202  59.956  21.315  1.00  0.00     0.025 C 
ATOM      6  C   UNL     1      16.326  59.021  21.735  1.00  0.00    -0.073 C 
ATOM      7  C   UNL     1      16.367  57.757  21.283  1.00  0.00     0.008 C 
ATOM      8  C   UNL     1      17.306  59.484  22.783  1.00  0.00     0.031 C 
ATOM      9  C   UNL     1      17.879  60.845  22.397  1.00  0.00     0.005 C 
ATOM     10  C   UNL     1      16.759  61.865  22.162  1.00  0.00     0.008 C 
ATOM     11  C   UNL     1      15.732  61.418  21.068  1.00  0.00    -0.018 C 
ATOM     12  C   UNL     1      14.538  62.411  21.054  1.00  0.00     0.088 C 
ATOM     13  C   UNL     1      13.750  62.349  22.330  1.00  0.00     0.159 C 
ATOM     14  O   UNL     1      13.042  63.337  22.662  1.00  0.00    -0.295 OA
ATOM     15  C   UNL     1      16.413  61.487  19.678  1.00  0.00     0.012 C 
ATOM     16  C   UNL     1      13.523  59.761  25.235  1.00  0.00     0.039 C 
ENDROOT
TORSDOF 0
ENDMDL
