MODEL 1
REMARK VINA RESULT:    -4.288      0.000      0.000
REMARK INTER + INTRA:          -4.288
REMARK INTER:                  -4.288
REMARK INTRA:                   0.000
REMARK UNBOUND:                 0.000
REMARK SMILES CC1=CC(=O)[C@@H]2C[C@H]1C2(C)C
REMARK SMILES IDX 1 1 2 2 3 3 4 4 5 5 6 6 7 7 8 8 9 9 10 10 11 11
REMARK H PARENT
REMARK Flexibility Score: inf
ROOT
ATOM      1  C   UNL     1      21.398 -11.670   7.620  1.00  0.00     0.040 C 
ATOM      2  C   UNL     1      22.796 -11.560   7.101  1.00  0.00    -0.066 C 
ATOM      3  C   UNL     1      23.827 -12.221   7.697  1.00  0.00     0.047 C 
ATOM      4  C   UNL     1      25.175 -12.054   7.063  1.00  0.00     0.159 C 
ATOM      5  O   UNL     1      26.199 -12.645   7.495  1.00  0.00    -0.295 OA
ATOM      6  C   UNL     1      25.220 -11.118   5.855  1.00  0.00     0.067 C 
ATOM      7  C   UNL     1      24.401  -9.887   6.301  1.00  0.00     0.021 C 
ATOM      8  C   UNL     1      23.143 -10.680   5.881  1.00  0.00     0.022 C 
ATOM      9  C   UNL     1      24.046 -11.484   4.902  1.00  0.00    -0.019 C 
ATOM     10  C   UNL     1      24.174 -10.799   3.518  1.00  0.00     0.012 C 
ATOM     11  C   UNL     1      23.722 -12.989   4.672  1.00  0.00     0.012 C 
ENDROOT
TORSDOF 0
ENDMDL
MODEL 2
REMARK VINA RESULT:    -4.124      1.681      3.068
REMARK INTER + INTRA:          -4.124
REMARK INTER:                  -4.124
REMARK INTRA:                   0.000
REMARK UNBOUND:                 0.000
REMARK SMILES CC1=CC(=O)[C@@H]2C[C@H]1C2(C)C
REMARK SMILES IDX 1 1 2 2 3 3 4 4 5 5 6 6 7 7 8 8 9 9 10 10 11 11
REMARK H PARENT
REMARK Flexibility Score: inf
ROOT
ATOM      1  C   UNL     1      21.681 -11.577   7.508  1.00  0.00     0.040 C 
ATOM      2  C   UNL     1      22.962 -11.553   6.737  1.00  0.00    -0.066 C 
ATOM      3  C   UNL     1      23.004 -11.125   5.445  1.00  0.00     0.047 C 
ATOM      4  C   UNL     1      24.353 -11.120   4.792  1.00  0.00     0.159 C 
ATOM      5  O   UNL     1      24.529 -10.709   3.615  1.00  0.00    -0.295 OA
ATOM      6  C   UNL     1      25.500 -11.647   5.654  1.00  0.00     0.067 C 
ATOM      7  C   UNL     1      24.935 -12.938   6.286  1.00  0.00     0.021 C 
ATOM      8  C   UNL     1      24.293 -12.030   7.358  1.00  0.00     0.022 C 
ATOM      9  C   UNL     1      25.408 -10.985   7.059  1.00  0.00    -0.019 C 
ATOM     10  C   UNL     1      26.681 -11.222   7.908  1.00  0.00     0.012 C 
ATOM     11  C   UNL     1      25.041  -9.476   7.142  1.00  0.00     0.012 C 
ENDROOT
TORSDOF 0
ENDMDL
MODEL 3
REMARK VINA RESULT:    -4.043      1.613      3.094
REMARK INTER + INTRA:          -4.043
REMARK INTER:                  -4.043
REMARK INTRA:                   0.000
REMARK UNBOUND:                 0.000
REMARK SMILES CC1=CC(=O)[C@@H]2C[C@H]1C2(C)C
REMARK SMILES IDX 1 1 2 2 3 3 4 4 5 5 6 6 7 7 8 8 9 9 10 10 11 11
REMARK H PARENT
REMARK Flexibility Score: inf
ROOT
ATOM      1  C   UNL     1      24.120 -10.875   3.112  1.00  0.00     0.040 C 
ATOM      2  C   UNL     1      24.089 -10.971   4.604  1.00  0.00    -0.066 C 
ATOM      3  C   UNL     1      22.993 -11.441   5.261  1.00  0.00     0.047 C 
ATOM      4  C   UNL     1      23.098 -11.518   6.754  1.00  0.00     0.159 C 
ATOM      5  O   UNL     1      22.168 -11.972   7.472  1.00  0.00    -0.295 OA
ATOM      6  C   UNL     1      24.413 -11.009   7.346  1.00  0.00     0.067 C 
ATOM      7  C   UNL     1      24.669  -9.678   6.605  1.00  0.00     0.021 C 
ATOM      8  C   UNL     1      25.286 -10.527   5.471  1.00  0.00     0.022 C 
ATOM      9  C   UNL     1      25.591 -11.622   6.535  1.00  0.00    -0.019 C 
ATOM     10  C   UNL     1      26.959 -11.408   7.228  1.00  0.00     0.012 C 
ATOM     11  C   UNL     1      25.492 -13.113   6.102  1.00  0.00     0.012 C 
ENDROOT
TORSDOF 0
ENDMDL
MODEL 4
REMARK VINA RESULT:    -4.002      1.654      2.700
REMARK INTER + INTRA:          -4.002
REMARK INTER:                  -4.002
REMARK INTRA:                   0.000
REMARK UNBOUND:                 0.000
REMARK SMILES CC1=CC(=O)[C@@H]2C[C@H]1C2(C)C
REMARK SMILES IDX 1 1 2 2 3 3 4 4 5 5 6 6 7 7 8 8 9 9 10 10 11 11
REMARK H PARENT
REMARK Flexibility Score: inf
ROOT
ATOM      1  C   UNL     1      25.896 -13.125   8.619  1.00  0.00     0.040 C 
ATOM      2  C   UNL     1      25.236 -12.060   7.801  1.00  0.00    -0.066 C 
ATOM      3  C   UNL     1      25.630 -10.759   7.882  1.00  0.00     0.047 C 
ATOM      4  C   UNL     1      24.912  -9.793   6.989  1.00  0.00     0.159 C 
ATOM      5  O   UNL     1      25.210  -8.571   6.942  1.00  0.00    -0.295 OA
ATOM      6  C   UNL     1      23.793 -10.395   6.139  1.00  0.00     0.067 C 
ATOM      7  C   UNL     1      23.009 -11.289   7.125  1.00  0.00     0.021 C 
ATOM      8  C   UNL     1      24.068 -12.378   6.844  1.00  0.00     0.022 C 
ATOM      9  C   UNL     1      24.324 -11.694   5.469  1.00  0.00    -0.019 C 
ATOM     10  C   UNL     1      23.375 -12.219   4.363  1.00  0.00     0.012 C 
ATOM     11  C   UNL     1      25.774 -11.695   4.907  1.00  0.00     0.012 C 
ENDROOT
TORSDOF 0
ENDMDL
MODEL 5
REMARK VINA RESULT:    -3.876      1.418      3.156
REMARK INTER + INTRA:          -3.876
REMARK INTER:                  -3.876
REMARK INTRA:                   0.000
REMARK UNBOUND:                 0.000
REMARK SMILES CC1=CC(=O)[C@@H]2C[C@H]1C2(C)C
REMARK SMILES IDX 1 1 2 2 3 3 4 4 5 5 6 6 7 7 8 8 9 9 10 10 11 11
REMARK H PARENT
REMARK Flexibility Score: inf
ROOT
ATOM      1  C   UNL     1      26.024  -9.029   6.910  1.00  0.00     0.040 C 
ATOM      2  C   UNL     1      25.214 -10.142   6.325  1.00  0.00    -0.066 C 
ATOM      3  C   UNL     1      25.783 -11.090   5.530  1.00  0.00     0.047 C 
ATOM      4  C   UNL     1      24.872 -12.171   5.032  1.00  0.00     0.159 C 
ATOM      5  O   UNL     1      25.285 -13.125   4.322  1.00  0.00    -0.295 OA
ATOM      6  C   UNL     1      23.406 -12.034   5.446  1.00  0.00     0.067 C 
ATOM      7  C   UNL     1      23.078 -10.547   5.190  1.00  0.00     0.021 C 
ATOM      8  C   UNL     1      23.696 -10.261   6.578  1.00  0.00     0.022 C 
ATOM      9  C   UNL     1      23.349 -11.727   6.970  1.00  0.00    -0.019 C 
ATOM     10  C   UNL     1      21.918 -11.861   7.546  1.00  0.00     0.012 C 
ATOM     11  C   UNL     1      24.327 -12.485   7.913  1.00  0.00     0.012 C 
ENDROOT
TORSDOF 0
ENDMDL
MODEL 6
REMARK VINA RESULT:    -3.784      1.760      3.379
REMARK INTER + INTRA:          -3.784
REMARK INTER:                  -3.784
REMARK INTRA:                   0.000
REMARK UNBOUND:                 0.000
REMARK SMILES CC1=CC(=O)[C@@H]2C[C@H]1C2(C)C
REMARK SMILES IDX 1 1 2 2 3 3 4 4 5 5 6 6 7 7 8 8 9 9 10 10 11 11
REMARK H PARENT
REMARK Flexibility Score: inf
ROOT
ATOM      1  C   UNL     1      26.760 -13.125   5.175  1.00  0.00     0.040 C 
ATOM      2  C   UNL     1      25.639 -12.342   5.782  1.00  0.00    -0.066 C 
ATOM      3  C   UNL     1      24.631 -12.957   6.459  1.00  0.00     0.047 C 
ATOM      4  C   UNL     1      23.584 -12.060   7.047  1.00  0.00     0.159 C 
ATOM      5  O   UNL     1      22.623 -12.504   7.729  1.00  0.00    -0.295 OA
ATOM      6  C   UNL     1      23.764 -10.569   6.762  1.00  0.00     0.067 C 
ATOM      7  C   UNL     1      24.096 -10.510   5.255  1.00  0.00     0.021 C 
ATOM      8  C   UNL     1      25.559 -10.806   5.654  1.00  0.00     0.022 C 
ATOM      9  C   UNL     1      25.244 -10.185   7.046  1.00  0.00    -0.019 C 
ATOM     10  C   UNL     1      25.463  -8.652   7.073  1.00  0.00     0.012 C 
ATOM     11  C   UNL     1      25.939 -10.798   8.297  1.00  0.00     0.012 C 
ENDROOT
TORSDOF 0
ENDMDL
MODEL 7
REMARK VINA RESULT:    -3.774      1.650      2.097
REMARK INTER + INTRA:          -3.774
REMARK INTER:                  -3.774
REMARK INTRA:                   0.000
REMARK UNBOUND:                 0.000
REMARK SMILES CC1=CC(=O)[C@@H]2C[C@H]1C2(C)C
REMARK SMILES IDX 1 1 2 2 3 3 4 4 5 5 6 6 7 7 8 8 9 9 10 10 11 11
REMARK H PARENT
REMARK Flexibility Score: inf
ROOT
ATOM      1  C   UNL     1      22.507 -11.274   6.600  1.00  0.00     0.040 C 
ATOM      2  C   UNL     1      23.938 -11.244   7.034  1.00  0.00    -0.066 C 
ATOM      3  C   UNL     1      24.449 -12.198   7.860  1.00  0.00     0.047 C 
ATOM      4  C   UNL     1      25.904 -12.075   8.197  1.00  0.00     0.159 C 
ATOM      5  O   UNL     1      26.502 -12.916   8.917  1.00  0.00    -0.295 OA
ATOM      6  C   UNL     1      26.612 -10.857   7.603  1.00  0.00     0.067 C 
ATOM      7  C   UNL     1      25.639  -9.687   7.870  1.00  0.00     0.021 C 
ATOM      8  C   UNL     1      24.899 -10.123   6.585  1.00  0.00     0.022 C 
ATOM      9  C   UNL     1      26.237 -10.751   6.097  1.00  0.00    -0.019 C 
ATOM     10  C   UNL     1      27.125  -9.734   5.337  1.00  0.00     0.012 C 
ATOM     11  C   UNL     1      26.170 -12.061   5.259  1.00  0.00     0.012 C 
ENDROOT
TORSDOF 0
ENDMDL
MODEL 8
REMARK VINA RESULT:    -3.698      1.013      3.316
REMARK INTER + INTRA:          -3.698
REMARK INTER:                  -3.698
REMARK INTRA:                   0.000
REMARK UNBOUND:                 0.000
REMARK SMILES CC1=CC(=O)[C@@H]2C[C@H]1C2(C)C
REMARK SMILES IDX 1 1 2 2 3 3 4 4 5 5 6 6 7 7 8 8 9 9 10 10 11 11
REMARK H PARENT
REMARK Flexibility Score: inf
ROOT
ATOM      1  C   UNL     1      24.460 -10.500   2.477  1.00  0.00     0.040 C 
ATOM      2  C   UNL     1      24.662 -11.176   3.796  1.00  0.00    -0.066 C 
ATOM      3  C   UNL     1      25.908 -11.370   4.309  1.00  0.00     0.047 C 
ATOM      4  C   UNL     1      25.976 -12.031   5.653  1.00  0.00     0.159 C 
ATOM      5  O   UNL     1      27.066 -12.229   6.250  1.00  0.00    -0.295 OA
ATOM      6  C   UNL     1      24.630 -12.447   6.246  1.00  0.00     0.067 C 
ATOM      7  C   UNL     1      23.892 -13.125   5.071  1.00  0.00     0.021 C 
ATOM      8  C   UNL     1      23.474 -11.704   4.628  1.00  0.00     0.022 C 
ATOM      9  C   UNL     1      23.639 -11.256   6.109  1.00  0.00    -0.019 C 
ATOM     10  C   UNL     1      22.347 -11.466   6.937  1.00  0.00     0.012 C 
ATOM     11  C   UNL     1      24.168  -9.820   6.387  1.00  0.00     0.012 C 
ENDROOT
TORSDOF 0
ENDMDL
MODEL 9
REMARK VINA RESULT:    -3.617      1.215      2.523
REMARK INTER + INTRA:          -3.617
REMARK INTER:                  -3.617
REMARK INTRA:                   0.000
REMARK UNBOUND:                 0.000
REMARK SMILES CC1=CC(=O)[C@@H]2C[C@H]1C2(C)C
REMARK SMILES IDX 1 1 2 2 3 3 4 4 5 5 6 6 7 7 8 8 9 9 10 10 11 11
REMARK H PARENT
REMARK Flexibility Score: inf
ROOT
ATOM      1  C   UNL     1      25.497  -8.500   7.020  1.00  0.00     0.040 C 
ATOM      2  C   UNL     1      25.372  -9.986   6.901  1.00  0.00    -0.066 C 
ATOM      3  C   UNL     1      25.572 -10.802   7.973  1.00  0.00     0.047 C 
ATOM      4  C   UNL     1      25.386 -12.270   7.732  1.00  0.00     0.159 C 
ATOM      5  O   UNL     1      25.504 -13.123   8.650  1.00  0.00    -0.295 OA
ATOM      6  C   UNL     1      25.044 -12.659   6.293  1.00  0.00     0.067 C 
ATOM      7  C   UNL     1      26.031 -11.838   5.435  1.00  0.00     0.021 C 
ATOM      8  C   UNL     1      25.030 -10.667   5.559  1.00  0.00     0.022 C 
ATOM      9  C   UNL     1      23.910 -11.724   5.784  1.00  0.00    -0.019 C 
ATOM     10  C   UNL     1      23.289 -12.219   4.454  1.00  0.00     0.012 C 
ATOM     11  C   UNL     1      22.751 -11.369   6.760  1.00  0.00     0.012 C 
ENDROOT
TORSDOF 0
ENDMDL
