MODEL 1
REMARK VINA RESULT:    21.333      0.000      0.000
REMARK INTER + INTRA:          25.406
REMARK INTER:                  25.698
REMARK INTRA:                  -0.293
REMARK UNBOUND:                -0.293
REMARK SMILES Oc1cc(O)c2cc(O)c(-c3ccc(O)c(O)c3)[o+]c2c1.[Cl-]
REMARK SMILES IDX 10 1 19 2 20 3 21 4 2 5 3 6 4 7 6 8 7 9 8 10 11 11 12 12
REMARK SMILES IDX 13 13 14 14 18 15 16 16 15 17 17 19 9 21 1 23 5 25
REMARK H PARENT 15 18 17 20 9 22 1 24 5 26
REMARK Flexibility Score: inf
ROOT
ATOM      1  C   UNL     1      -4.830 -13.080  22.962  1.00  0.00     0.402 A 
ATOM      2  O   UNL     1      -3.642 -13.523  22.552  1.00  0.00    -0.202 OA
ATOM      3  C   UNL     1      -2.498 -12.911  22.841  1.00  0.00     0.368 A 
ATOM      4  C   UNL     1      -1.292 -13.438  22.368  1.00  0.00     0.162 A 
ATOM      5  C   UNL     1      -0.080 -12.800  22.662  1.00  0.00     0.128 A 
ATOM      6  C   UNL     1      -0.076 -11.632  23.433  1.00  0.00     0.093 A 
ATOM      7  C   UNL     1      -1.278 -11.092  23.915  1.00  0.00     0.136 A 
ATOM      8  C   UNL     1      -2.495 -11.733  23.619  1.00  0.00     0.125 A 
ATOM      9  C   UNL     1      -3.723 -11.244  24.080  1.00  0.00     0.078 A 
ATOM     10  C   UNL     1      -4.904 -11.922  23.763  1.00  0.00     0.223 A 
ENDROOT
BRANCH   1  11
ATOM     11  C   UNL     1      -6.036 -13.843  22.568  1.00  0.00     0.087 A 
ATOM     12  C   UNL     1      -6.261 -15.113  23.124  1.00  0.00     0.022 A 
ATOM     13  C   UNL     1      -7.383 -15.859  22.753  1.00  0.00     0.051 A 
ATOM     14  C   UNL     1      -8.285 -15.357  21.811  1.00  0.00     0.157 A 
ATOM     15  C   UNL     1      -6.934 -13.349  21.606  1.00  0.00     0.068 A 
ATOM     16  C   UNL     1      -8.059 -14.099  21.230  1.00  0.00     0.158 A 
BRANCH  14  17
ATOM     17  O   UNL     1      -9.396 -16.125  21.461  1.00  0.00    -0.504 OA
ATOM     18  H   UNL     1     -10.221 -16.175  22.047  1.00  0.00     0.293 HD
ENDBRANCH  14  17
BRANCH  16  19
ATOM     19  O   UNL     1      -8.948 -13.598  20.280  1.00  0.00    -0.504 OA
ATOM     20  H   UNL     1      -9.448 -14.211  19.646  1.00  0.00     0.293 HD
ENDBRANCH  16  19
ENDBRANCH   1  11
BRANCH  10  21
ATOM     21  O   UNL     1      -6.125 -11.470  24.262  1.00  0.00    -0.500 OA
ATOM     22  H   UNL     1      -6.282 -11.350  25.256  1.00  0.00     0.294 HD
ENDBRANCH  10  21
BRANCH   5  23
ATOM     23  O   UNL     1       1.125 -13.318  22.195  1.00  0.00    -0.507 OA
ATOM     24  H   UNL     1       1.950 -12.736  22.098  1.00  0.00     0.293 HD
ENDBRANCH   5  23
BRANCH   7  25
ATOM     25  O   UNL     1      -1.259  -9.928  24.684  1.00  0.00    -0.507 OA
ATOM     26  H   UNL     1      -1.448  -9.946  25.679  1.00  0.00     0.293 HD
ENDBRANCH   7  25
TORSDOF 6
ENDMDL
MODEL 2
REMARK VINA RESULT:    22.248      0.724      1.431
REMARK INTER + INTRA:          26.507
REMARK INTER:                  26.794
REMARK INTRA:                  -0.287
REMARK UNBOUND:                -0.293
REMARK SMILES Oc1cc(O)c2cc(O)c(-c3ccc(O)c(O)c3)[o+]c2c1.[Cl-]
REMARK SMILES IDX 10 1 19 2 20 3 21 4 2 5 3 6 4 7 6 8 7 9 8 10 11 11 12 12
REMARK SMILES IDX 13 13 14 14 18 15 16 16 15 17 17 19 9 21 1 23 5 25
REMARK H PARENT 15 18 17 20 9 22 1 24 5 26
REMARK Flexibility Score: inf
ROOT
ATOM      1  C   UNL     1      -5.040 -13.100  22.947  1.00  0.00     0.402 A 
ATOM      2  O   UNL     1      -3.841 -13.568  22.604  1.00  0.00    -0.202 OA
ATOM      3  C   UNL     1      -2.705 -12.941  22.897  1.00  0.00     0.368 A 
ATOM      4  C   UNL     1      -1.486 -13.497  22.497  1.00  0.00     0.162 A 
ATOM      5  C   UNL     1      -0.282 -12.845  22.795  1.00  0.00     0.128 A 
ATOM      6  C   UNL     1      -0.300 -11.634  23.497  1.00  0.00     0.093 A 
ATOM      7  C   UNL     1      -1.516 -11.066  23.906  1.00  0.00     0.136 A 
ATOM      8  C   UNL     1      -2.725 -11.721  23.605  1.00  0.00     0.125 A 
ATOM      9  C   UNL     1      -3.966 -11.205  23.995  1.00  0.00     0.078 A 
ATOM     10  C   UNL     1      -5.138 -11.898  23.677  1.00  0.00     0.223 A 
ENDROOT
BRANCH   1  11
ATOM     11  C   UNL     1      -6.235 -13.883  22.556  1.00  0.00     0.087 A 
ATOM     12  C   UNL     1      -6.699 -13.819  21.233  1.00  0.00     0.022 A 
ATOM     13  C   UNL     1      -7.835 -14.534  20.845  1.00  0.00     0.051 A 
ATOM     14  C   UNL     1      -8.533 -15.309  21.776  1.00  0.00     0.157 A 
ATOM     15  C   UNL     1      -6.950 -14.646  23.495  1.00  0.00     0.068 A 
ATOM     16  C   UNL     1      -8.093 -15.363  23.109  1.00  0.00     0.158 A 
BRANCH  14  17
ATOM     17  O   UNL     1      -9.663 -16.013  21.360  1.00  0.00    -0.504 OA
ATOM     18  H   UNL     1     -10.348 -15.608  20.733  1.00  0.00     0.293 HD
ENDBRANCH  14  17
BRANCH  16  19
ATOM     19  O   UNL     1      -8.793 -16.123  24.045  1.00  0.00    -0.504 OA
ATOM     20  H   UNL     1      -8.329 -16.541  24.844  1.00  0.00     0.293 HD
ENDBRANCH  16  19
ENDBRANCH   1  11
BRANCH  10  21
ATOM     21  O   UNL     1      -6.373 -11.416  24.106  1.00  0.00    -0.500 OA
ATOM     22  H   UNL     1      -7.183 -11.408  23.495  1.00  0.00     0.294 HD
ENDBRANCH  10  21
BRANCH   5  23
ATOM     23  O   UNL     1       0.936 -13.390  22.400  1.00  0.00    -0.507 OA
ATOM     24  H   UNL     1       1.064 -13.789  21.477  1.00  0.00     0.293 HD
ENDBRANCH   5  23
BRANCH   7  25
ATOM     25  O   UNL     1      -1.520  -9.860  24.606  1.00  0.00    -0.507 OA
ATOM     26  H   UNL     1      -1.448  -8.968  24.130  1.00  0.00     0.293 HD
ENDBRANCH   7  25
TORSDOF 6
ENDMDL
