MODEL 1
REMARK VINA RESULT:    -4.761      0.000      0.000
REMARK INTER + INTRA:          -8.743
REMARK INTER:                  -7.266
REMARK INTRA:                  -1.477
REMARK UNBOUND:                -1.477
REMARK SMILES CC(=O)CCC=C(C)CCC=C(C)CCC=C(C)C
REMARK SMILES IDX 10 1 11 2 12 3 13 4 14 5 15 6 16 7 18 8 17 9 19 10 9 11 7 12
REMARK SMILES IDX 6 13 8 14 5 15 4 16 2 17 3 18 1 19
REMARK H PARENT
REMARK Flexibility Score: inf
ROOT
ATOM      1  C   UNL     1       9.291   6.805   8.543  1.00  0.00     0.032 C 
ENDROOT
BRANCH   1   2
ATOM      2  C   UNL     1       8.580   8.100   8.838  1.00  0.00    -0.028 C 
ATOM      3  C   UNL     1       8.970   8.987   9.783  1.00  0.00    -0.077 C 
ATOM      4  C   UNL     1      10.146   8.716  10.692  1.00  0.00     0.039 C 
BRANCH   3   5
ATOM      5  C   UNL     1       8.196  10.276   9.946  1.00  0.00     0.034 C 
BRANCH   5   6
ATOM      6  C   UNL     1       7.247  10.192  11.147  1.00  0.00     0.032 C 
BRANCH   6   7
ATOM      7  C   UNL     1       5.895   9.671  10.725  1.00  0.00    -0.028 C 
ATOM      8  C   UNL     1       4.094   8.025  10.442  1.00  0.00     0.039 C 
ATOM      9  C   UNL     1       5.454   8.416  10.959  1.00  0.00    -0.080 C 
ATOM     10  C   UNL     1       6.273   7.410  11.733  1.00  0.00     0.039 C 
ENDBRANCH   6   7
ENDBRANCH   5   6
ENDBRANCH   3   5
ENDBRANCH   1   2
BRANCH   1  11
ATOM     11  C   UNL     1       9.944   6.850   7.156  1.00  0.00     0.034 C 
BRANCH  11  12
ATOM     12  C   UNL     1       9.203   5.959   6.186  1.00  0.00    -0.077 C 
ATOM     13  C   UNL     1       7.871   5.781   6.348  1.00  0.00    -0.028 C 
ATOM     14  C   UNL     1       9.967   5.301   5.061  1.00  0.00     0.039 C 
BRANCH  13  15
ATOM     15  C   UNL     1       6.990   4.974   5.422  1.00  0.00     0.035 C 
BRANCH  15  16
ATOM     16  C   UNL     1       5.984   4.124   6.205  1.00  0.00     0.079 C 
BRANCH  16  17
ATOM     17  C   UNL     1       4.716   4.881   6.499  1.00  0.00     0.130 C 
ATOM     18  O   UNL     1       4.016   5.274   5.579  1.00  0.00    -0.300 OA
ATOM     19  C   UNL     1       4.324   5.184   7.913  1.00  0.00     0.087 C 
ENDBRANCH  16  17
ENDBRANCH  15  16
ENDBRANCH  13  15
ENDBRANCH  11  12
ENDBRANCH   1  11
TORSDOF 9
ENDMDL
MODEL 2
REMARK VINA RESULT:    -4.743     14.915     17.914
REMARK INTER + INTRA:          -8.715
REMARK INTER:                  -7.275
REMARK INTRA:                  -1.440
REMARK UNBOUND:                -1.477
REMARK SMILES CC(=O)CCC=C(C)CCC=C(C)CCC=C(C)C
REMARK SMILES IDX 10 1 11 2 12 3 13 4 14 5 15 6 16 7 18 8 17 9 19 10 9 11 7 12
REMARK SMILES IDX 6 13 8 14 5 15 4 16 2 17 3 18 1 19
REMARK H PARENT
REMARK Flexibility Score: inf
ROOT
ATOM      1  C   UNL     1      -5.993  -4.218   6.113  1.00  0.00     0.032 C 
ENDROOT
BRANCH   1   2
ATOM      2  C   UNL     1      -5.524  -5.067   4.959  1.00  0.00    -0.028 C 
ATOM      3  C   UNL     1      -6.285  -5.386   3.886  1.00  0.00    -0.077 C 
ATOM      4  C   UNL     1      -7.732  -4.962   3.783  1.00  0.00     0.039 C 
BRANCH   3   5
ATOM      5  C   UNL     1      -5.676  -6.206   2.771  1.00  0.00     0.034 C 
BRANCH   5   6
ATOM      6  C   UNL     1      -4.256  -5.725   2.456  1.00  0.00     0.032 C 
BRANCH   6   7
ATOM      7  C   UNL     1      -4.289  -4.426   1.690  1.00  0.00    -0.028 C 
ATOM      8  C   UNL     1      -3.876  -2.042   1.262  1.00  0.00     0.039 C 
ATOM      9  C   UNL     1      -3.728  -3.273   2.117  1.00  0.00    -0.080 C 
ATOM     10  C   UNL     1      -2.949  -3.192   3.410  1.00  0.00     0.039 C 
ENDBRANCH   6   7
ENDBRANCH   5   6
ENDBRANCH   3   5
ENDBRANCH   1   2
BRANCH   1  11
ATOM     11  C   UNL     1      -4.919  -3.197   6.506  1.00  0.00     0.034 C 
BRANCH  11  12
ATOM     12  C   UNL     1      -5.085  -2.775   7.949  1.00  0.00    -0.077 C 
ATOM     13  C   UNL     1      -6.268  -3.003   8.564  1.00  0.00    -0.028 C 
ATOM     14  C   UNL     1      -3.927  -2.117   8.660  1.00  0.00     0.039 C 
BRANCH  13  15
ATOM     15  C   UNL     1      -6.558  -2.695  10.015  1.00  0.00     0.035 C 
BRANCH  15  16
ATOM     16  C   UNL     1      -7.639  -1.618  10.155  1.00  0.00     0.079 C 
BRANCH  16  17
ATOM     17  C   UNL     1      -7.051  -0.232  10.181  1.00  0.00     0.130 C 
ATOM     18  O   UNL     1      -6.863   0.329  11.250  1.00  0.00    -0.300 OA
ATOM     19  C   UNL     1      -6.724   0.477   8.902  1.00  0.00     0.087 C 
ENDBRANCH  16  17
ENDBRANCH  15  16
ENDBRANCH  13  15
ENDBRANCH  11  12
ENDBRANCH   1  11
TORSDOF 9
ENDMDL
MODEL 3
REMARK VINA RESULT:    -4.672     15.375     16.918
REMARK INTER + INTRA:          -8.608
REMARK INTER:                  -7.380
REMARK INTRA:                  -1.227
REMARK UNBOUND:                -1.477
REMARK SMILES CC(=O)CCC=C(C)CCC=C(C)CCC=C(C)C
REMARK SMILES IDX 10 1 11 2 12 3 13 4 14 5 15 6 16 7 18 8 17 9 19 10 9 11 7 12
REMARK SMILES IDX 6 13 8 14 5 15 4 16 2 17 3 18 1 19
REMARK H PARENT
REMARK Flexibility Score: inf
ROOT
ATOM      1  C   UNL     1      -5.374  -3.180   6.340  1.00  0.00     0.032 C 
ENDROOT
BRANCH   1   2
ATOM      2  C   UNL     1      -6.077  -3.024   7.664  1.00  0.00    -0.028 C 
ATOM      3  C   UNL     1      -7.421  -3.038   7.822  1.00  0.00    -0.077 C 
ATOM      4  C   UNL     1      -8.360  -3.148   6.643  1.00  0.00     0.039 C 
BRANCH   3   5
ATOM      5  C   UNL     1      -7.999  -2.921   9.215  1.00  0.00     0.034 C 
BRANCH   5   6
ATOM      6  C   UNL     1      -6.966  -2.336  10.184  1.00  0.00     0.032 C 
BRANCH   6   7
ATOM      7  C   UNL     1      -7.445  -1.021  10.747  1.00  0.00    -0.028 C 
ATOM      8  C   UNL     1      -7.678   1.420  10.907  1.00  0.00     0.039 C 
ATOM      9  C   UNL     1      -7.163   0.187  10.210  1.00  0.00    -0.080 C 
ATOM     10  C   UNL     1      -6.368   0.331   8.933  1.00  0.00     0.039 C 
ENDBRANCH   6   7
ENDBRANCH   5   6
ENDBRANCH   3   5
ENDBRANCH   1   2
BRANCH   1  11
ATOM     11  C   UNL     1      -4.902  -4.625   6.144  1.00  0.00     0.034 C 
BRANCH  11  12
ATOM     12  C   UNL     1      -4.677  -4.921   4.678  1.00  0.00    -0.077 C 
ATOM     13  C   UNL     1      -3.513  -4.538   4.105  1.00  0.00    -0.028 C 
ATOM     14  C   UNL     1      -5.754  -5.641   3.901  1.00  0.00     0.039 C 
BRANCH  13  15
ATOM     15  C   UNL     1      -3.124  -4.821   2.673  1.00  0.00     0.035 C 
BRANCH  15  16
ATOM     16  C   UNL     1      -2.813  -3.529   1.909  1.00  0.00     0.079 C 
BRANCH  16  17
ATOM     17  C   UNL     1      -4.053  -2.913   1.319  1.00  0.00     0.130 C 
ATOM     18  O   UNL     1      -5.078  -3.571   1.233  1.00  0.00    -0.300 OA
ATOM     19  C   UNL     1      -4.030  -1.504   0.808  1.00  0.00     0.087 C 
ENDBRANCH  16  17
ENDBRANCH  15  16
ENDBRANCH  13  15
ENDBRANCH  11  12
ENDBRANCH   1  11
TORSDOF 9
ENDMDL
MODEL 4
REMARK VINA RESULT:    -4.523     15.342     17.398
REMARK INTER + INTRA:          -8.379
REMARK INTER:                  -7.274
REMARK INTRA:                  -1.105
REMARK UNBOUND:                -1.477
REMARK SMILES CC(=O)CCC=C(C)CCC=C(C)CCC=C(C)C
REMARK SMILES IDX 10 1 11 2 12 3 13 4 14 5 15 6 16 7 18 8 17 9 19 10 9 11 7 12
REMARK SMILES IDX 6 13 8 14 5 15 4 16 2 17 3 18 1 19
REMARK H PARENT
REMARK Flexibility Score: inf
ROOT
ATOM      1  C   UNL     1      -5.251  -3.629   6.124  1.00  0.00     0.032 C 
ENDROOT
BRANCH   1   2
ATOM      2  C   UNL     1      -3.937  -3.684   5.387  1.00  0.00    -0.028 C 
ATOM      3  C   UNL     1      -3.538  -4.720   4.612  1.00  0.00    -0.077 C 
ATOM      4  C   UNL     1      -4.370  -5.973   4.469  1.00  0.00     0.039 C 
BRANCH   3   5
ATOM      5  C   UNL     1      -2.214  -4.627   3.886  1.00  0.00     0.034 C 
BRANCH   5   6
ATOM      6  C   UNL     1      -2.422  -4.680   2.369  1.00  0.00     0.032 C 
BRANCH   6   7
ATOM      7  C   UNL     1      -2.718  -3.306   1.821  1.00  0.00    -0.028 C 
ATOM      8  C   UNL     1      -4.070  -1.506   0.838  1.00  0.00     0.039 C 
ATOM      9  C   UNL     1      -3.935  -2.897   1.399  1.00  0.00    -0.080 C 
ATOM     10  C   UNL     1      -5.154  -3.785   1.491  1.00  0.00     0.039 C 
ENDBRANCH   6   7
ENDBRANCH   5   6
ENDBRANCH   3   5
ENDBRANCH   1   2
BRANCH   1  11
ATOM     11  C   UNL     1      -5.100  -2.863   7.443  1.00  0.00     0.034 C 
BRANCH  11  12
ATOM     12  C   UNL     1      -6.442  -2.360   7.926  1.00  0.00    -0.077 C 
ATOM     13  C   UNL     1      -6.483  -1.258   8.710  1.00  0.00    -0.028 C 
ATOM     14  C   UNL     1      -7.694  -3.097   7.515  1.00  0.00     0.039 C 
BRANCH  13  15
ATOM     15  C   UNL     1      -7.750  -0.605   9.213  1.00  0.00     0.035 C 
BRANCH  15  16
ATOM     16  C   UNL     1      -7.446   0.664  10.017  1.00  0.00     0.079 C 
BRANCH  16  17
ATOM     17  C   UNL     1      -8.120   1.876   9.430  1.00  0.00     0.130 C 
ATOM     18  O   UNL     1      -8.843   1.756   8.453  1.00  0.00    -0.300 OA
ATOM     19  C   UNL     1      -7.886   3.234  10.019  1.00  0.00     0.087 C 
ENDBRANCH  16  17
ENDBRANCH  15  16
ENDBRANCH  13  15
ENDBRANCH  11  12
ENDBRANCH   1  11
TORSDOF 9
ENDMDL
MODEL 5
REMARK VINA RESULT:    -4.520     14.367     16.018
REMARK INTER + INTRA:          -8.374
REMARK INTER:                  -7.638
REMARK INTRA:                  -0.737
REMARK UNBOUND:                -1.477
REMARK SMILES CC(=O)CCC=C(C)CCC=C(C)CCC=C(C)C
REMARK SMILES IDX 10 1 11 2 12 3 13 4 14 5 15 6 16 7 18 8 17 9 19 10 9 11 7 12
REMARK SMILES IDX 6 13 8 14 5 15 4 16 2 17 3 18 1 19
REMARK H PARENT
REMARK Flexibility Score: inf
ROOT
ATOM      1  C   UNL     1      -5.793  -1.088   8.753  1.00  0.00     0.032 C 
ENDROOT
BRANCH   1   2
ATOM      2  C   UNL     1      -6.853  -0.037   8.546  1.00  0.00    -0.028 C 
ATOM      3  C   UNL     1      -7.404   0.699   9.539  1.00  0.00    -0.077 C 
ATOM      4  C   UNL     1      -7.042   0.477  10.988  1.00  0.00     0.039 C 
BRANCH   3   5
ATOM      5  C   UNL     1      -8.425   1.759   9.189  1.00  0.00     0.034 C 
BRANCH   5   6
ATOM      6  C   UNL     1      -8.019   3.117   9.772  1.00  0.00     0.032 C 
BRANCH   6   7
ATOM      7  C   UNL     1      -8.653   4.244   8.994  1.00  0.00    -0.028 C 
ATOM      8  C   UNL     1      -8.908   6.527   8.123  1.00  0.00     0.039 C 
ATOM      9  C   UNL     1      -8.141   5.492   8.904  1.00  0.00    -0.080 C 
ATOM     10  C   UNL     1      -6.825   5.866   9.544  1.00  0.00     0.039 C 
ENDBRANCH   6   7
ENDBRANCH   5   6
ENDBRANCH   3   5
ENDBRANCH   1   2
BRANCH   1  11
ATOM     11  C   UNL     1      -6.414  -2.490   8.746  1.00  0.00     0.034 C 
BRANCH  11  12
ATOM     12  C   UNL     1      -6.256  -3.138   7.389  1.00  0.00    -0.077 C 
ATOM     13  C   UNL     1      -5.015  -3.261   6.864  1.00  0.00    -0.028 C 
ATOM     14  C   UNL     1      -7.484  -3.635   6.665  1.00  0.00     0.039 C 
BRANCH  13  15
ATOM     15  C   UNL     1      -4.697  -3.942   5.552  1.00  0.00     0.035 C 
BRANCH  15  16
ATOM     16  C   UNL     1      -3.605  -3.192   4.781  1.00  0.00     0.079 C 
BRANCH  16  17
ATOM     17  C   UNL     1      -3.289  -3.856   3.467  1.00  0.00     0.130 C 
ATOM     18  O   UNL     1      -2.767  -4.960   3.453  1.00  0.00    -0.300 OA
ATOM     19  C   UNL     1      -3.584  -3.157   2.174  1.00  0.00     0.087 C 
ENDBRANCH  16  17
ENDBRANCH  15  16
ENDBRANCH  13  15
ENDBRANCH  11  12
ENDBRANCH   1  11
TORSDOF 9
ENDMDL
MODEL 6
REMARK VINA RESULT:    -4.413     15.843     17.154
REMARK INTER + INTRA:          -8.212
REMARK INTER:                  -7.151
REMARK INTRA:                  -1.061
REMARK UNBOUND:                -1.477
REMARK SMILES CC(=O)CCC=C(C)CCC=C(C)CCC=C(C)C
REMARK SMILES IDX 10 1 11 2 12 3 13 4 14 5 15 6 16 7 18 8 17 9 19 10 9 11 7 12
REMARK SMILES IDX 6 13 8 14 5 15 4 16 2 17 3 18 1 19
REMARK H PARENT
REMARK Flexibility Score: inf
ROOT
ATOM      1  C   UNL     1      -4.627  -4.313   6.068  1.00  0.00     0.032 C 
ENDROOT
BRANCH   1   2
ATOM      2  C   UNL     1      -5.697  -3.375   6.564  1.00  0.00    -0.028 C 
ATOM      3  C   UNL     1      -5.664  -2.744   7.761  1.00  0.00    -0.077 C 
ATOM      4  C   UNL     1      -4.553  -2.984   8.757  1.00  0.00     0.039 C 
BRANCH   3   5
ATOM      5  C   UNL     1      -6.780  -1.788   8.119  1.00  0.00     0.034 C 
BRANCH   5   6
ATOM      6  C   UNL     1      -6.305  -0.763   9.156  1.00  0.00     0.032 C 
BRANCH   6   7
ATOM      7  C   UNL     1      -7.062   0.534   9.011  1.00  0.00    -0.028 C 
ATOM      8  C   UNL     1      -8.252   2.552   9.750  1.00  0.00     0.039 C 
ATOM      9  C   UNL     1      -7.468   1.300  10.047  1.00  0.00    -0.080 C 
ATOM     10  C   UNL     1      -7.145   0.947  11.480  1.00  0.00     0.039 C 
ENDBRANCH   6   7
ENDBRANCH   5   6
ENDBRANCH   3   5
ENDBRANCH   1   2
BRANCH   1  11
ATOM     11  C   UNL     1      -3.976  -3.765   4.792  1.00  0.00     0.034 C 
BRANCH  11  12
ATOM     12  C   UNL     1      -4.372  -4.593   3.591  1.00  0.00    -0.077 C 
ATOM     13  C   UNL     1      -4.925  -5.812   3.790  1.00  0.00    -0.028 C 
ATOM     14  C   UNL     1      -4.146  -4.034   2.206  1.00  0.00     0.039 C 
BRANCH  13  15
ATOM     15  C   UNL     1      -5.427  -6.721   2.692  1.00  0.00     0.035 C 
BRANCH  15  16
ATOM     16  C   UNL     1      -6.928  -6.997   2.835  1.00  0.00     0.079 C 
BRANCH  16  17
ATOM     17  C   UNL     1      -7.756  -5.779   2.523  1.00  0.00     0.130 C 
ATOM     18  O   UNL     1      -7.894  -5.418   1.364  1.00  0.00    -0.300 OA
ATOM     19  C   UNL     1      -8.387  -4.986   3.627  1.00  0.00     0.087 C 
ENDBRANCH  16  17
ENDBRANCH  15  16
ENDBRANCH  13  15
ENDBRANCH  11  12
ENDBRANCH   1  11
TORSDOF 9
ENDMDL
MODEL 7
REMARK VINA RESULT:    -4.317     15.294     18.398
REMARK INTER + INTRA:          -8.065
REMARK INTER:                  -7.066
REMARK INTRA:                  -0.998
REMARK UNBOUND:                -1.477
REMARK SMILES CC(=O)CCC=C(C)CCC=C(C)CCC=C(C)C
REMARK SMILES IDX 10 1 11 2 12 3 13 4 14 5 15 6 16 7 18 8 17 9 19 10 9 11 7 12
REMARK SMILES IDX 6 13 8 14 5 15 4 16 2 17 3 18 1 19
REMARK H PARENT
REMARK Flexibility Score: inf
ROOT
ATOM      1  C   UNL     1      -5.485  -3.553   6.772  1.00  0.00     0.032 C 
ENDROOT
BRANCH   1   2
ATOM      2  C   UNL     1      -5.001  -4.608   5.811  1.00  0.00    -0.028 C 
ATOM      3  C   UNL     1      -4.050  -4.405   4.870  1.00  0.00    -0.077 C 
ATOM      4  C   UNL     1      -3.421  -3.048   4.653  1.00  0.00     0.039 C 
BRANCH   3   5
ATOM      5  C   UNL     1      -3.618  -5.563   3.998  1.00  0.00     0.034 C 
BRANCH   5   6
ATOM      6  C   UNL     1      -4.205  -5.431   2.589  1.00  0.00     0.032 C 
BRANCH   6   7
ATOM      7  C   UNL     1      -5.712  -5.373   2.640  1.00  0.00    -0.028 C 
ATOM      8  C   UNL     1      -8.010  -6.240   2.622  1.00  0.00     0.039 C 
ATOM      9  C   UNL     1      -6.519  -6.456   2.604  1.00  0.00    -0.080 C 
ATOM     10  C   UNL     1      -5.971  -7.863   2.564  1.00  0.00     0.039 C 
ENDBRANCH   6   7
ENDBRANCH   5   6
ENDBRANCH   3   5
ENDBRANCH   1   2
BRANCH   1  11
ATOM     11  C   UNL     1      -7.017  -3.517   6.810  1.00  0.00     0.034 C 
BRANCH  11  12
ATOM     12  C   UNL     1      -7.504  -2.495   7.812  1.00  0.00    -0.077 C 
ATOM     13  C   UNL     1      -6.618  -1.964   8.687  1.00  0.00    -0.028 C 
ATOM     14  C   UNL     1      -8.960  -2.093   7.804  1.00  0.00     0.039 C 
BRANCH  13  15
ATOM     15  C   UNL     1      -6.945  -0.890   9.698  1.00  0.00     0.035 C 
BRANCH  15  16
ATOM     16  C   UNL     1      -6.663   0.510   9.141  1.00  0.00     0.079 C 
BRANCH  16  17
ATOM     17  C   UNL     1      -7.866   1.409   9.245  1.00  0.00     0.130 C 
ATOM     18  O   UNL     1      -8.723   1.382   8.376  1.00  0.00    -0.300 OA
ATOM     19  C   UNL     1      -8.005   2.361  10.395  1.00  0.00     0.087 C 
ENDBRANCH  16  17
ENDBRANCH  15  16
ENDBRANCH  13  15
ENDBRANCH  11  12
ENDBRANCH   1  11
TORSDOF 9
ENDMDL
MODEL 8
REMARK VINA RESULT:    -4.301     15.552     18.307
REMARK INTER + INTRA:          -8.041
REMARK INTER:                  -6.750
REMARK INTRA:                  -1.291
REMARK UNBOUND:                -1.477
REMARK SMILES CC(=O)CCC=C(C)CCC=C(C)CCC=C(C)C
REMARK SMILES IDX 10 1 11 2 12 3 13 4 14 5 15 6 16 7 18 8 17 9 19 10 9 11 7 12
REMARK SMILES IDX 6 13 8 14 5 15 4 16 2 17 3 18 1 19
REMARK H PARENT
REMARK Flexibility Score: inf
ROOT
ATOM      1  C   UNL     1      -8.089  -4.908   3.150  1.00  0.00     0.032 C 
ENDROOT
BRANCH   1   2
ATOM      2  C   UNL     1      -8.781  -4.525   4.432  1.00  0.00    -0.028 C 
ATOM      3  C   UNL     1      -8.140  -4.196   5.578  1.00  0.00    -0.077 C 
ATOM      4  C   UNL     1      -6.634  -4.248   5.690  1.00  0.00     0.039 C 
BRANCH   3   5
ATOM      5  C   UNL     1      -8.954  -3.782   6.784  1.00  0.00     0.034 C 
BRANCH   5   6
ATOM      6  C   UNL     1      -8.041  -3.474   7.975  1.00  0.00     0.032 C 
BRANCH   6   7
ATOM      7  C   UNL     1      -7.940  -1.985   8.201  1.00  0.00    -0.028 C 
ATOM      8  C   UNL     1      -6.844   0.158   8.693  1.00  0.00     0.039 C 
ATOM      9  C   UNL     1      -6.785  -1.328   8.447  1.00  0.00    -0.080 C 
ATOM     10  C   UNL     1      -5.449  -2.033   8.466  1.00  0.00     0.039 C 
ENDBRANCH   6   7
ENDBRANCH   5   6
ENDBRANCH   3   5
ENDBRANCH   1   2
BRANCH   1  11
ATOM     11  C   UNL     1      -7.797  -6.412   3.120  1.00  0.00     0.034 C 
BRANCH  11  12
ATOM     12  C   UNL     1      -6.344  -6.669   2.788  1.00  0.00    -0.077 C 
ATOM     13  C   UNL     1      -5.478  -5.629   2.798  1.00  0.00    -0.028 C 
ATOM     14  C   UNL     1      -5.902  -8.075   2.462  1.00  0.00     0.039 C 
BRANCH  13  15
ATOM     15  C   UNL     1      -3.991  -5.743   2.551  1.00  0.00     0.035 C 
BRANCH  15  16
ATOM     16  C   UNL     1      -3.184  -5.036   3.646  1.00  0.00     0.079 C 
BRANCH  16  17
ATOM     17  C   UNL     1      -3.363  -3.542   3.599  1.00  0.00     0.130 C 
ATOM     18  O   UNL     1      -3.430  -2.904   4.638  1.00  0.00    -0.300 OA
ATOM     19  C   UNL     1      -3.491  -2.834   2.284  1.00  0.00     0.087 C 
ENDBRANCH  16  17
ENDBRANCH  15  16
ENDBRANCH  13  15
ENDBRANCH  11  12
ENDBRANCH   1  11
TORSDOF 9
ENDMDL
MODEL 9
REMARK VINA RESULT:    -4.187     15.389     17.098
REMARK INTER + INTRA:          -7.867
REMARK INTER:                  -6.399
REMARK INTRA:                  -1.468
REMARK UNBOUND:                -1.477
REMARK SMILES CC(=O)CCC=C(C)CCC=C(C)CCC=C(C)C
REMARK SMILES IDX 10 1 11 2 12 3 13 4 14 5 15 6 16 7 18 8 17 9 19 10 9 11 7 12
REMARK SMILES IDX 6 13 8 14 5 15 4 16 2 17 3 18 1 19
REMARK H PARENT
REMARK Flexibility Score: inf
ROOT
ATOM      1  C   UNL     1      -7.435  -2.814   6.802  1.00  0.00     0.032 C 
ENDROOT
BRANCH   1   2
ATOM      2  C   UNL     1      -7.594  -2.794   8.300  1.00  0.00    -0.028 C 
ATOM      3  C   UNL     1      -6.564  -2.776   9.178  1.00  0.00    -0.077 C 
ATOM      4  C   UNL     1      -5.126  -2.843   8.718  1.00  0.00     0.039 C 
BRANCH   3   5
ATOM      5  C   UNL     1      -6.861  -2.707  10.659  1.00  0.00     0.034 C 
BRANCH   5   6
ATOM      6  C   UNL     1      -8.062  -1.794  10.930  1.00  0.00     0.032 C 
BRANCH   6   7
ATOM      7  C   UNL     1      -7.646  -0.586  11.733  1.00  0.00    -0.028 C 
ATOM      8  C   UNL     1      -6.884   1.716  12.125  1.00  0.00     0.039 C 
ATOM      9  C   UNL     1      -7.321   0.611  11.198  1.00  0.00    -0.080 C 
ATOM     10  C   UNL     1      -7.400   0.874   9.712  1.00  0.00     0.039 C 
ENDBRANCH   6   7
ENDBRANCH   5   6
ENDBRANCH   3   5
ENDBRANCH   1   2
BRANCH   1  11
ATOM     11  C   UNL     1      -7.676  -4.224   6.251  1.00  0.00     0.034 C 
BRANCH  11  12
ATOM     12  C   UNL     1      -6.604  -4.599   5.251  1.00  0.00    -0.077 C 
ATOM     13  C   UNL     1      -5.308  -4.554   5.636  1.00  0.00    -0.028 C 
ATOM     14  C   UNL     1      -7.012  -5.017   3.859  1.00  0.00     0.039 C 
BRANCH  13  15
ATOM     15  C   UNL     1      -4.138  -4.960   4.770  1.00  0.00     0.035 C 
BRANCH  15  16
ATOM     16  C   UNL     1      -3.550  -3.759   4.021  1.00  0.00     0.079 C 
BRANCH  16  17
ATOM     17  C   UNL     1      -3.723  -3.886   2.531  1.00  0.00     0.130 C 
ATOM     18  O   UNL     1      -3.718  -4.991   2.010  1.00  0.00    -0.300 OA
ATOM     19  C   UNL     1      -3.870  -2.663   1.677  1.00  0.00     0.087 C 
ENDBRANCH  16  17
ENDBRANCH  15  16
ENDBRANCH  13  15
ENDBRANCH  11  12
ENDBRANCH   1  11
TORSDOF 9
ENDMDL
