MODEL 1
REMARK VINA RESULT:    -5.166      0.000      0.000
REMARK INTER + INTRA:         -11.426
REMARK INTER:                  -9.696
REMARK INTRA:                  -1.730
REMARK UNBOUND:                -1.730
REMARK SMILES CCCCCCCCC=CCCCCCCCC(=O)[O-]
REMARK SMILES IDX 10 1 9 2 11 3 12 4 13 5 14 6 15 7 16 8 17 9 18 10 19 11
REMARK SMILES IDX 20 12 8 13 7 14 6 15 5 16 4 17 3 18 2 19 1 20
REMARK H PARENT
REMARK Flexibility Score: inf
ROOT
ATOM      1  C   UNL     1      79.334  57.567  10.248  1.00  0.00    -0.031 C 
ATOM      2  C   UNL     1      79.474  58.884  10.033  1.00  0.00    -0.031 C 
ENDROOT
BRANCH   1   3
ATOM      3  C   UNL     1      78.105  56.827   9.800  1.00  0.00     0.027 C 
BRANCH   3   4
ATOM      4  C   UNL     1      77.982  56.835   8.271  1.00  0.00     0.004 C 
BRANCH   4   5
ATOM      5  C   UNL     1      77.656  55.434   7.703  1.00  0.00     0.000 C 
BRANCH   5   6
ATOM      6  C   UNL     1      78.645  54.350   8.169  1.00  0.00     0.000 C 
BRANCH   6   7
ATOM      7  C   UNL     1      80.043  54.480   7.538  1.00  0.00     0.000 C 
BRANCH   7   8
ATOM      8  C   UNL     1      81.174  53.927   8.439  1.00  0.00     0.006 C 
BRANCH   8   9
ATOM      9  C   UNL     1      81.878  55.006   9.273  1.00  0.00     0.053 C 
BRANCH   9  10
ATOM     10  C   UNL     1      81.983  54.616  10.716  1.00  0.00     0.041 C 
ATOM     11  O   UNL     1      83.056  54.136  11.165  1.00  0.00    -0.550 OA
ATOM     12  O   UNL     1      80.891  54.764  11.560  1.00  0.00    -0.550 OA
ENDBRANCH   9  10
ENDBRANCH   8   9
ENDBRANCH   7   8
ENDBRANCH   6   7
ENDBRANCH   5   6
ENDBRANCH   4   5
ENDBRANCH   3   4
ENDBRANCH   1   3
BRANCH   2  13
ATOM     13  C   UNL     1      80.687  59.636  10.505  1.00  0.00     0.027 C 
BRANCH  13  14
ATOM     14  C   UNL     1      81.867  58.682  10.746  1.00  0.00     0.004 C 
BRANCH  14  15
ATOM     15  C   UNL     1      83.202  59.427  10.913  1.00  0.00     0.000 C 
BRANCH  15  16
ATOM     16  C   UNL     1      84.172  59.168   9.750  1.00  0.00     0.000 C 
BRANCH  16  17
ATOM     17  C   UNL     1      84.810  60.479   9.265  1.00  0.00    -0.000 C 
BRANCH  17  18
ATOM     18  C   UNL     1      85.152  61.435  10.419  1.00  0.00    -0.000 C 
BRANCH  18  19
ATOM     19  C   UNL     1      84.766  62.890  10.118  1.00  0.00    -0.003 C 
ATOM     20  C   UNL     1      83.297  62.997   9.720  1.00  0.00     0.004 C 
ENDBRANCH  18  19
ENDBRANCH  17  18
ENDBRANCH  16  17
ENDBRANCH  15  16
ENDBRANCH  14  15
ENDBRANCH  13  14
ENDBRANCH   2  13
TORSDOF 15
ENDMDL
MODEL 2
REMARK VINA RESULT:    -5.161      3.195      7.651
REMARK INTER + INTRA:         -11.417
REMARK INTER:                  -9.836
REMARK INTRA:                  -1.581
REMARK UNBOUND:                -1.730
REMARK SMILES CCCCCCCCC=CCCCCCCCC(=O)[O-]
REMARK SMILES IDX 10 1 9 2 11 3 12 4 13 5 14 6 15 7 16 8 17 9 18 10 19 11
REMARK SMILES IDX 20 12 8 13 7 14 6 15 5 16 4 17 3 18 2 19 1 20
REMARK H PARENT
REMARK Flexibility Score: inf
ROOT
ATOM      1  C   UNL     1      79.346  58.556   9.937  1.00  0.00    -0.031 C 
ATOM      2  C   UNL     1      79.008  57.464  10.641  1.00  0.00    -0.031 C 
ENDROOT
BRANCH   1   3
ATOM      3  C   UNL     1      80.238  59.616  10.519  1.00  0.00     0.027 C 
BRANCH   3   4
ATOM      4  C   UNL     1      81.697  59.145  10.569  1.00  0.00     0.004 C 
BRANCH   4   5
ATOM      5  C   UNL     1      82.586  60.077  11.425  1.00  0.00     0.000 C 
BRANCH   5   6
ATOM      6  C   UNL     1      83.732  60.719  10.624  1.00  0.00     0.000 C 
BRANCH   6   7
ATOM      7  C   UNL     1      83.326  62.016   9.901  1.00  0.00     0.000 C 
BRANCH   7   8
ATOM      8  C   UNL     1      84.455  63.075   9.865  1.00  0.00     0.006 C 
BRANCH   8   9
ATOM      9  C   UNL     1      85.155  63.180   8.503  1.00  0.00     0.053 C 
BRANCH   9  10
ATOM     10  C   UNL     1      86.529  62.581   8.535  1.00  0.00     0.041 C 
ATOM     11  O   UNL     1      86.673  61.331   8.569  1.00  0.00    -0.550 OA
ATOM     12  O   UNL     1      87.649  63.402   8.546  1.00  0.00    -0.550 OA
ENDBRANCH   9  10
ENDBRANCH   8   9
ENDBRANCH   7   8
ENDBRANCH   6   7
ENDBRANCH   5   6
ENDBRANCH   4   5
ENDBRANCH   3   4
ENDBRANCH   1   3
BRANCH   2  13
ATOM     13  C   UNL     1      78.092  56.415  10.077  1.00  0.00     0.027 C 
BRANCH  13  14
ATOM     14  C   UNL     1      77.646  56.779   8.653  1.00  0.00     0.004 C 
BRANCH  14  15
ATOM     15  C   UNL     1      78.241  55.841   7.590  1.00  0.00     0.000 C 
BRANCH  15  16
ATOM     16  C   UNL     1      78.078  54.358   7.954  1.00  0.00     0.000 C 
BRANCH  16  17
ATOM     17  C   UNL     1      79.410  53.606   7.803  1.00  0.00    -0.000 C 
BRANCH  17  18
ATOM     18  C   UNL     1      80.300  53.719   9.050  1.00  0.00    -0.000 C 
BRANCH  18  19
ATOM     19  C   UNL     1      81.586  54.516   8.790  1.00  0.00    -0.003 C 
ATOM     20  C   UNL     1      81.917  55.423   9.971  1.00  0.00     0.004 C 
ENDBRANCH  18  19
ENDBRANCH  17  18
ENDBRANCH  16  17
ENDBRANCH  15  16
ENDBRANCH  14  15
ENDBRANCH  13  14
ENDBRANCH   2  13
TORSDOF 15
ENDMDL
MODEL 3
REMARK VINA RESULT:    -5.149      4.675      8.877
REMARK INTER + INTRA:         -11.393
REMARK INTER:                 -10.357
REMARK INTRA:                  -1.037
REMARK UNBOUND:                -1.730
REMARK SMILES CCCCCCCCC=CCCCCCCCC(=O)[O-]
REMARK SMILES IDX 10 1 9 2 11 3 12 4 13 5 14 6 15 7 16 8 17 9 18 10 19 11
REMARK SMILES IDX 20 12 8 13 7 14 6 15 5 16 4 17 3 18 2 19 1 20
REMARK H PARENT
REMARK Flexibility Score: inf
ROOT
ATOM      1  C   UNL     1      82.884  59.792  10.843  1.00  0.00    -0.031 C 
ATOM      2  C   UNL     1      81.751  59.105  10.627  1.00  0.00    -0.031 C 
ENDROOT
BRANCH   1   3
ATOM      3  C   UNL     1      84.201  59.091  11.024  1.00  0.00     0.027 C 
BRANCH   3   4
ATOM      4  C   UNL     1      85.317  60.089  11.358  1.00  0.00     0.004 C 
BRANCH   4   5
ATOM      5  C   UNL     1      84.990  60.935  12.611  1.00  0.00     0.000 C 
BRANCH   5   6
ATOM      6  C   UNL     1      85.149  60.151  13.926  1.00  0.00     0.000 C 
BRANCH   6   7
ATOM      7  C   UNL     1      85.447  61.045  15.143  1.00  0.00     0.000 C 
BRANCH   7   8
ATOM      8  C   UNL     1      85.451  62.555  14.806  1.00  0.00     0.006 C 
BRANCH   8   9
ATOM      9  C   UNL     1      84.761  63.423  15.868  1.00  0.00     0.053 C 
BRANCH   9  10
ATOM     10  C   UNL     1      84.876  64.884  15.555  1.00  0.00     0.041 C 
ATOM     11  O   UNL     1      85.915  65.333  15.004  1.00  0.00    -0.550 OA
ATOM     12  O   UNL     1      83.846  65.753  15.889  1.00  0.00    -0.550 OA
ENDBRANCH   9  10
ENDBRANCH   8   9
ENDBRANCH   7   8
ENDBRANCH   6   7
ENDBRANCH   5   6
ENDBRANCH   4   5
ENDBRANCH   3   4
ENDBRANCH   1   3
BRANCH   2  13
ATOM     13  C   UNL     1      80.426  59.798  10.474  1.00  0.00     0.027 C 
BRANCH  13  14
ATOM     14  C   UNL     1      79.348  58.824   9.978  1.00  0.00     0.004 C 
BRANCH  14  15
ATOM     15  C   UNL     1      79.543  57.400  10.524  1.00  0.00     0.000 C 
BRANCH  15  16
ATOM     16  C   UNL     1      78.277  56.540  10.396  1.00  0.00     0.000 C 
BRANCH  16  17
ATOM     17  C   UNL     1      78.583  55.217   9.675  1.00  0.00    -0.000 C 
BRANCH  17  18
ATOM     18  C   UNL     1      78.982  55.421   8.205  1.00  0.00    -0.000 C 
BRANCH  18  19
ATOM     19  C   UNL     1      77.770  55.626   7.285  1.00  0.00    -0.003 C 
ATOM     20  C   UNL     1      77.792  57.013   6.650  1.00  0.00     0.004 C 
ENDBRANCH  18  19
ENDBRANCH  17  18
ENDBRANCH  16  17
ENDBRANCH  15  16
ENDBRANCH  14  15
ENDBRANCH  13  14
ENDBRANCH   2  13
TORSDOF 15
ENDMDL
MODEL 4
REMARK VINA RESULT:    -5.118      2.672      6.640
REMARK INTER + INTRA:         -11.336
REMARK INTER:                  -9.527
REMARK INTRA:                  -1.809
REMARK UNBOUND:                -1.730
REMARK SMILES CCCCCCCCC=CCCCCCCCC(=O)[O-]
REMARK SMILES IDX 10 1 9 2 11 3 12 4 13 5 14 6 15 7 16 8 17 9 18 10 19 11
REMARK SMILES IDX 20 12 8 13 7 14 6 15 5 16 4 17 3 18 2 19 1 20
REMARK H PARENT
REMARK Flexibility Score: inf
ROOT
ATOM      1  C   UNL     1      79.347  58.632   9.962  1.00  0.00    -0.031 C 
ATOM      2  C   UNL     1      79.182  57.417  10.508  1.00  0.00    -0.031 C 
ENDROOT
BRANCH   1   3
ATOM      3  C   UNL     1      80.358  59.602  10.506  1.00  0.00     0.027 C 
BRANCH   3   4
ATOM      4  C   UNL     1      81.708  58.916  10.749  1.00  0.00     0.004 C 
BRANCH   4   5
ATOM      5  C   UNL     1      82.838  59.932  11.035  1.00  0.00     0.000 C 
BRANCH   5   6
ATOM      6  C   UNL     1      84.099  59.685  10.187  1.00  0.00     0.000 C 
BRANCH   6   7
ATOM      7  C   UNL     1      84.190  58.256   9.620  1.00  0.00     0.000 C 
BRANCH   7   8
ATOM      8  C   UNL     1      85.286  57.399  10.297  1.00  0.00     0.006 C 
BRANCH   8   9
ATOM      9  C   UNL     1      86.485  58.218  10.796  1.00  0.00     0.053 C 
BRANCH   9  10
ATOM     10  C   UNL     1      87.637  58.160   9.838  1.00  0.00     0.041 C 
ATOM     11  O   UNL     1      87.690  58.955   8.864  1.00  0.00    -0.550 OA
ATOM     12  O   UNL     1      88.641  57.216  10.010  1.00  0.00    -0.550 OA
ENDBRANCH   9  10
ENDBRANCH   8   9
ENDBRANCH   7   8
ENDBRANCH   6   7
ENDBRANCH   5   6
ENDBRANCH   4   5
ENDBRANCH   3   4
ENDBRANCH   1   3
BRANCH   2  13
ATOM     13  C   UNL     1      78.152  56.453   9.989  1.00  0.00     0.027 C 
BRANCH  13  14
ATOM     14  C   UNL     1      77.707  56.833   8.569  1.00  0.00     0.004 C 
BRANCH  14  15
ATOM     15  C   UNL     1      77.774  55.647   7.593  1.00  0.00     0.000 C 
BRANCH  15  16
ATOM     16  C   UNL     1      78.311  54.368   8.252  1.00  0.00     0.000 C 
BRANCH  16  17
ATOM     17  C   UNL     1      79.756  54.088   7.810  1.00  0.00    -0.000 C 
BRANCH  17  18
ATOM     18  C   UNL     1      80.636  53.565   8.956  1.00  0.00    -0.000 C 
BRANCH  18  19
ATOM     19  C   UNL     1      81.989  54.284   9.039  1.00  0.00    -0.003 C 
ATOM     20  C   UNL     1      82.019  55.265  10.206  1.00  0.00     0.004 C 
ENDBRANCH  18  19
ENDBRANCH  17  18
ENDBRANCH  16  17
ENDBRANCH  15  16
ENDBRANCH  14  15
ENDBRANCH  13  14
ENDBRANCH   2  13
TORSDOF 15
ENDMDL
MODEL 5
REMARK VINA RESULT:    -5.110      2.421      3.439
REMARK INTER + INTRA:         -11.320
REMARK INTER:                  -9.237
REMARK INTRA:                  -2.083
REMARK UNBOUND:                -1.730
REMARK SMILES CCCCCCCCC=CCCCCCCCC(=O)[O-]
REMARK SMILES IDX 10 1 9 2 11 3 12 4 13 5 14 6 15 7 16 8 17 9 18 10 19 11
REMARK SMILES IDX 20 12 8 13 7 14 6 15 5 16 4 17 3 18 2 19 1 20
REMARK H PARENT
REMARK Flexibility Score: inf
ROOT
ATOM      1  C   UNL     1      80.041  55.469  11.149  1.00  0.00    -0.031 C 
ATOM      2  C   UNL     1      81.094  55.791  10.381  1.00  0.00    -0.031 C 
ENDROOT
BRANCH   1   3
ATOM      3  C   UNL     1      78.830  56.356  11.229  1.00  0.00     0.027 C 
BRANCH   3   4
ATOM      4  C   UNL     1      78.733  57.270  10.001  1.00  0.00     0.004 C 
BRANCH   4   5
ATOM      5  C   UNL     1      77.561  56.880   9.071  1.00  0.00     0.000 C 
BRANCH   5   6
ATOM      6  C   UNL     1      78.023  56.189   7.776  1.00  0.00     0.000 C 
BRANCH   6   7
ATOM      7  C   UNL     1      78.049  54.653   7.873  1.00  0.00     0.000 C 
BRANCH   7   8
ATOM      8  C   UNL     1      79.462  54.052   7.682  1.00  0.00     0.006 C 
BRANCH   8   9
ATOM      9  C   UNL     1      79.677  52.735   8.442  1.00  0.00     0.053 C 
BRANCH   9  10
ATOM     10  C   UNL     1      79.569  51.546   7.537  1.00  0.00     0.041 C 
ATOM     11  O   UNL     1      79.774  51.670   6.301  1.00  0.00    -0.550 OA
ATOM     12  O   UNL     1      79.224  50.304   8.053  1.00  0.00    -0.550 OA
ENDBRANCH   9  10
ENDBRANCH   8   9
ENDBRANCH   7   8
ENDBRANCH   6   7
ENDBRANCH   5   6
ENDBRANCH   4   5
ENDBRANCH   3   4
ENDBRANCH   1   3
BRANCH   2  13
ATOM     13  C   UNL     1      82.319  54.923  10.320  1.00  0.00     0.027 C 
BRANCH  13  14
ATOM     14  C   UNL     1      83.329  55.466   9.297  1.00  0.00     0.004 C 
BRANCH  14  15
ATOM     15  C   UNL     1      84.350  56.426   9.928  1.00  0.00     0.000 C 
BRANCH  15  16
ATOM     16  C   UNL     1      84.405  57.784   9.212  1.00  0.00     0.000 C 
BRANCH  16  17
ATOM     17  C   UNL     1      84.068  58.929  10.180  1.00  0.00    -0.000 C 
BRANCH  17  18
ATOM     18  C   UNL     1      82.563  59.043  10.464  1.00  0.00    -0.000 C 
BRANCH  18  19
ATOM     19  C   UNL     1      82.070  60.496  10.477  1.00  0.00    -0.003 C 
ATOM     20  C   UNL     1      83.185  61.457  10.075  1.00  0.00     0.004 C 
ENDBRANCH  18  19
ENDBRANCH  17  18
ENDBRANCH  16  17
ENDBRANCH  15  16
ENDBRANCH  14  15
ENDBRANCH  13  14
ENDBRANCH   2  13
TORSDOF 15
ENDMDL
MODEL 6
REMARK VINA RESULT:    -5.075      3.071      7.165
REMARK INTER + INTRA:         -11.256
REMARK INTER:                  -9.835
REMARK INTRA:                  -1.421
REMARK UNBOUND:                -1.730
REMARK SMILES CCCCCCCCC=CCCCCCCCC(=O)[O-]
REMARK SMILES IDX 10 1 9 2 11 3 12 4 13 5 14 6 15 7 16 8 17 9 18 10 19 11
REMARK SMILES IDX 20 12 8 13 7 14 6 15 5 16 4 17 3 18 2 19 1 20
REMARK H PARENT
REMARK Flexibility Score: inf
ROOT
ATOM      1  C   UNL     1      80.579  58.576  10.656  1.00  0.00    -0.031 C 
ATOM      2  C   UNL     1      79.344  58.436  10.150  1.00  0.00    -0.031 C 
ENDROOT
BRANCH   1   3
ATOM      3  C   UNL     1      81.326  59.876  10.549  1.00  0.00     0.027 C 
BRANCH   3   4
ATOM      4  C   UNL     1      82.761  59.733  11.071  1.00  0.00     0.004 C 
BRANCH   4   5
ATOM      5  C   UNL     1      83.548  58.627  10.330  1.00  0.00     0.000 C 
BRANCH   5   6
ATOM      6  C   UNL     1      84.981  58.447  10.862  1.00  0.00     0.000 C 
BRANCH   6   7
ATOM      7  C   UNL     1      85.545  59.704  11.547  1.00  0.00     0.000 C 
BRANCH   7   8
ATOM      8  C   UNL     1      85.479  59.640  13.092  1.00  0.00     0.006 C 
BRANCH   8   9
ATOM      9  C   UNL     1      85.303  61.013  13.757  1.00  0.00     0.053 C 
BRANCH   9  10
ATOM     10  C   UNL     1      84.623  60.905  15.088  1.00  0.00     0.041 C 
ATOM     11  O   UNL     1      85.305  60.882  16.146  1.00  0.00    -0.550 OA
ATOM     12  O   UNL     1      83.240  60.810  15.160  1.00  0.00    -0.550 OA
ENDBRANCH   9  10
ENDBRANCH   8   9
ENDBRANCH   7   8
ENDBRANCH   6   7
ENDBRANCH   5   6
ENDBRANCH   4   5
ENDBRANCH   3   4
ENDBRANCH   1   3
BRANCH   2  13
ATOM     13  C   UNL     1      78.603  57.131  10.228  1.00  0.00     0.027 C 
BRANCH  13  14
ATOM     14  C   UNL     1      77.505  57.055   9.157  1.00  0.00     0.004 C 
BRANCH  14  15
ATOM     15  C   UNL     1      77.875  56.117   7.997  1.00  0.00     0.000 C 
BRANCH  15  16
ATOM     16  C   UNL     1      78.390  54.754   8.482  1.00  0.00     0.000 C 
BRANCH  16  17
ATOM     17  C   UNL     1      79.736  54.410   7.825  1.00  0.00    -0.000 C 
BRANCH  17  18
ATOM     18  C   UNL     1      80.693  53.677   8.778  1.00  0.00    -0.000 C 
BRANCH  18  19
ATOM     19  C   UNL     1      80.731  54.306  10.178  1.00  0.00    -0.003 C 
ATOM     20  C   UNL     1      81.974  55.172  10.357  1.00  0.00     0.004 C 
ENDBRANCH  18  19
ENDBRANCH  17  18
ENDBRANCH  16  17
ENDBRANCH  15  16
ENDBRANCH  14  15
ENDBRANCH  13  14
ENDBRANCH   2  13
TORSDOF 15
ENDMDL
MODEL 7
REMARK VINA RESULT:    -5.021      2.343      6.341
REMARK INTER + INTRA:         -11.154
REMARK INTER:                  -8.829
REMARK INTRA:                  -2.325
REMARK UNBOUND:                -1.730
REMARK SMILES CCCCCCCCC=CCCCCCCCC(=O)[O-]
REMARK SMILES IDX 10 1 9 2 11 3 12 4 13 5 14 6 15 7 16 8 17 9 18 10 19 11
REMARK SMILES IDX 20 12 8 13 7 14 6 15 5 16 4 17 3 18 2 19 1 20
REMARK H PARENT
REMARK Flexibility Score: inf
ROOT
ATOM      1  C   UNL     1      79.522  56.080  10.960  1.00  0.00    -0.031 C 
ATOM      2  C   UNL     1      80.798  55.886  10.593  1.00  0.00    -0.031 C 
ENDROOT
BRANCH   1   3
ATOM      3  C   UNL     1      78.825  57.387  10.704  1.00  0.00     0.027 C 
BRANCH   3   4
ATOM      4  C   UNL     1      79.694  58.320   9.852  1.00  0.00     0.004 C 
BRANCH   4   5
ATOM      5  C   UNL     1      80.039  59.635  10.589  1.00  0.00     0.000 C 
BRANCH   5   6
ATOM      6  C   UNL     1      81.467  60.132  10.299  1.00  0.00     0.000 C 
BRANCH   6   7
ATOM      7  C   UNL     1      82.539  59.475  11.187  1.00  0.00     0.000 C 
BRANCH   7   8
ATOM      8  C   UNL     1      83.864  59.193  10.439  1.00  0.00     0.006 C 
BRANCH   8   9
ATOM      9  C   UNL     1      83.881  57.844   9.707  1.00  0.00     0.053 C 
BRANCH   9  10
ATOM     10  C   UNL     1      85.136  57.658   8.909  1.00  0.00     0.041 C 
ATOM     11  O   UNL     1      86.173  57.204   9.458  1.00  0.00    -0.550 OA
ATOM     12  O   UNL     1      85.166  58.003   7.565  1.00  0.00    -0.550 OA
ENDBRANCH   9  10
ENDBRANCH   8   9
ENDBRANCH   7   8
ENDBRANCH   6   7
ENDBRANCH   5   6
ENDBRANCH   4   5
ENDBRANCH   3   4
ENDBRANCH   1   3
BRANCH   2  13
ATOM     13  C   UNL     1      81.511  54.593  10.873  1.00  0.00     0.027 C 
BRANCH  13  14
ATOM     14  C   UNL     1      81.746  53.801   9.577  1.00  0.00     0.004 C 
BRANCH  14  15
ATOM     15  C   UNL     1      80.684  52.712   9.351  1.00  0.00     0.000 C 
BRANCH  15  16
ATOM     16  C   UNL     1      80.066  52.773   7.947  1.00  0.00     0.000 C 
BRANCH  16  17
ATOM     17  C   UNL     1      78.779  53.613   7.950  1.00  0.00    -0.000 C 
BRANCH  17  18
ATOM     18  C   UNL     1      78.999  55.038   7.420  1.00  0.00    -0.000 C 
BRANCH  18  19
ATOM     19  C   UNL     1      77.759  55.928   7.582  1.00  0.00    -0.003 C 
ATOM     20  C   UNL     1      77.783  57.088   6.591  1.00  0.00     0.004 C 
ENDBRANCH  18  19
ENDBRANCH  17  18
ENDBRANCH  16  17
ENDBRANCH  15  16
ENDBRANCH  14  15
ENDBRANCH  13  14
ENDBRANCH   2  13
TORSDOF 15
ENDMDL
MODEL 8
REMARK VINA RESULT:    -5.005      1.426      2.367
REMARK INTER + INTRA:         -11.124
REMARK INTER:                  -9.636
REMARK INTRA:                  -1.487
REMARK UNBOUND:                -1.730
REMARK SMILES CCCCCCCCC=CCCCCCCCC(=O)[O-]
REMARK SMILES IDX 10 1 9 2 11 3 12 4 13 5 14 6 15 7 16 8 17 9 18 10 19 11
REMARK SMILES IDX 20 12 8 13 7 14 6 15 5 16 4 17 3 18 2 19 1 20
REMARK H PARENT
REMARK Flexibility Score: inf
ROOT
ATOM      1  C   UNL     1      79.307  57.461  10.387  1.00  0.00    -0.031 C 
ATOM      2  C   UNL     1      79.350  58.735   9.968  1.00  0.00    -0.031 C 
ENDROOT
BRANCH   1   3
ATOM      3  C   UNL     1      78.192  56.540   9.976  1.00  0.00     0.027 C 
BRANCH   3   4
ATOM      4  C   UNL     1      77.743  56.823   8.537  1.00  0.00     0.004 C 
BRANCH   4   5
ATOM      5  C   UNL     1      77.769  55.553   7.655  1.00  0.00     0.000 C 
BRANCH   5   6
ATOM      6  C   UNL     1      78.566  54.398   8.285  1.00  0.00     0.000 C 
BRANCH   6   7
ATOM      7  C   UNL     1      79.966  54.209   7.673  1.00  0.00     0.000 C 
BRANCH   7   8
ATOM      8  C   UNL     1      81.114  54.495   8.671  1.00  0.00     0.006 C 
BRANCH   8   9
ATOM      9  C   UNL     1      81.619  53.242   9.400  1.00  0.00     0.053 C 
BRANCH   9  10
ATOM     10  C   UNL     1      81.424  53.342  10.882  1.00  0.00     0.041 C 
ATOM     11  O   UNL     1      80.754  54.291  11.369  1.00  0.00    -0.550 OA
ATOM     12  O   UNL     1      81.996  52.401  11.728  1.00  0.00    -0.550 OA
ENDBRANCH   9  10
ENDBRANCH   8   9
ENDBRANCH   7   8
ENDBRANCH   6   7
ENDBRANCH   5   6
ENDBRANCH   4   5
ENDBRANCH   3   4
ENDBRANCH   1   3
BRANCH   2  13
ATOM     13  C   UNL     1      80.446  59.670  10.398  1.00  0.00     0.027 C 
BRANCH  13  14
ATOM     14  C   UNL     1      81.723  58.895  10.757  1.00  0.00     0.004 C 
BRANCH  14  15
ATOM     15  C   UNL     1      82.779  59.781  11.437  1.00  0.00     0.000 C 
BRANCH  15  16
ATOM     16  C   UNL     1      83.931  60.157  10.493  1.00  0.00     0.000 C 
BRANCH  16  17
ATOM     17  C   UNL     1      84.450  58.920   9.742  1.00  0.00    -0.000 C 
BRANCH  17  18
ATOM     18  C   UNL     1      85.425  58.081  10.582  1.00  0.00    -0.000 C 
BRANCH  18  19
ATOM     19  C   UNL     1      86.890  58.486  10.371  1.00  0.00    -0.003 C 
ATOM     20  C   UNL     1      87.835  57.364  10.787  1.00  0.00     0.004 C 
ENDBRANCH  18  19
ENDBRANCH  17  18
ENDBRANCH  16  17
ENDBRANCH  15  16
ENDBRANCH  14  15
ENDBRANCH  13  14
ENDBRANCH   2  13
TORSDOF 15
ENDMDL
MODEL 9
REMARK VINA RESULT:    -4.987      4.028      6.051
REMARK INTER + INTRA:         -11.091
REMARK INTER:                  -8.987
REMARK INTRA:                  -2.104
REMARK UNBOUND:                -1.730
REMARK SMILES CCCCCCCCC=CCCCCCCCC(=O)[O-]
REMARK SMILES IDX 10 1 9 2 11 3 12 4 13 5 14 6 15 7 16 8 17 9 18 10 19 11
REMARK SMILES IDX 20 12 8 13 7 14 6 15 5 16 4 17 3 18 2 19 1 20
REMARK H PARENT
REMARK Flexibility Score: inf
ROOT
ATOM      1  C   UNL     1      80.225  53.076   7.878  1.00  0.00    -0.031 C 
ATOM      2  C   UNL     1      80.338  53.608   9.105  1.00  0.00    -0.031 C 
ENDROOT
BRANCH   1   3
ATOM      3  C   UNL     1      79.025  52.259   7.487  1.00  0.00     0.027 C 
BRANCH   3   4
ATOM      4  C   UNL     1      79.277  50.763   7.711  1.00  0.00     0.004 C 
BRANCH   4   5
ATOM      5  C   UNL     1      80.682  50.328   7.233  1.00  0.00     0.000 C 
BRANCH   5   6
ATOM      6  C   UNL     1      81.227  49.108   7.997  1.00  0.00     0.000 C 
BRANCH   6   7
ATOM      7  C   UNL     1      82.204  49.476   9.128  1.00  0.00     0.000 C 
BRANCH   7   8
ATOM      8  C   UNL     1      81.513  49.642  10.502  1.00  0.00     0.006 C 
BRANCH   8   9
ATOM      9  C   UNL     1      81.921  50.923  11.245  1.00  0.00     0.053 C 
BRANCH   9  10
ATOM     10  C   UNL     1      82.856  50.636  12.379  1.00  0.00     0.041 C 
ATOM     11  O   UNL     1      83.969  50.090  12.159  1.00  0.00    -0.550 OA
ATOM     12  O   UNL     1      82.493  50.952  13.681  1.00  0.00    -0.550 OA
ENDBRANCH   9  10
ENDBRANCH   8   9
ENDBRANCH   7   8
ENDBRANCH   6   7
ENDBRANCH   5   6
ENDBRANCH   4   5
ENDBRANCH   3   4
ENDBRANCH   1   3
BRANCH   2  13
ATOM     13  C   UNL     1      81.548  54.400   9.512  1.00  0.00     0.027 C 
BRANCH  13  14
ATOM     14  C   UNL     1      81.151  55.617  10.361  1.00  0.00     0.004 C 
BRANCH  14  15
ATOM     15  C   UNL     1      80.104  55.273  11.432  1.00  0.00     0.000 C 
BRANCH  15  16
ATOM     16  C   UNL     1      78.816  56.097  11.284  1.00  0.00     0.000 C 
BRANCH  16  17
ATOM     17  C   UNL     1      78.895  57.025  10.062  1.00  0.00    -0.000 C 
BRANCH  17  18
ATOM     18  C   UNL     1      77.685  56.878   9.127  1.00  0.00    -0.000 C 
BRANCH  18  19
ATOM     19  C   UNL     1      78.021  56.117   7.837  1.00  0.00    -0.003 C 
ATOM     20  C   UNL     1      77.742  56.973   6.606  1.00  0.00     0.004 C 
ENDBRANCH  18  19
ENDBRANCH  17  18
ENDBRANCH  16  17
ENDBRANCH  15  16
ENDBRANCH  14  15
ENDBRANCH  13  14
ENDBRANCH   2  13
TORSDOF 15
ENDMDL
