MODEL 1
REMARK VINA RESULT:    -3.436      0.000      0.000
REMARK INTER + INTRA:          -4.346
REMARK INTER:                  -4.240
REMARK INTRA:                  -0.107
REMARK UNBOUND:                -0.107
REMARK SMILES CCCCCC(=O)[O-]
REMARK SMILES IDX 4 1 5 2 6 3 7 4 8 5 3 6 2 7 1 8
REMARK H PARENT
REMARK Flexibility Score: inf
ROOT
ATOM      1  C   UNL     1     -24.966  39.850  28.288  1.00  0.00     0.006 C 
ENDROOT
BRANCH   1   2
ATOM      2  C   UNL     1     -25.940  38.687  28.499  1.00  0.00     0.053 C 
BRANCH   2   3
ATOM      3  C   UNL     1     -25.219  37.489  29.034  1.00  0.00     0.041 C 
ATOM      4  O   UNL     1     -25.780  36.363  29.036  1.00  0.00    -0.550 OA
ATOM      5  O   UNL     1     -23.947  37.628  29.574  1.00  0.00    -0.550 OA
ENDBRANCH   2   3
ENDBRANCH   1   2
BRANCH   1   6
ATOM      6  C   UNL     1     -25.463  40.789  27.178  1.00  0.00     0.000 C 
BRANCH   6   7
ATOM      7  C   UNL     1     -26.142  40.033  26.026  1.00  0.00    -0.003 C 
ATOM      8  C   UNL     1     -25.740  40.567  24.651  1.00  0.00     0.004 C 
ENDBRANCH   6   7
ENDBRANCH   1   6
TORSDOF 4
ENDMDL
MODEL 2
REMARK VINA RESULT:    -3.395     11.488     12.798
REMARK INTER + INTRA:          -4.295
REMARK INTER:                  -4.209
REMARK INTRA:                  -0.086
REMARK UNBOUND:                -0.107
REMARK SMILES CCCCCC(=O)[O-]
REMARK SMILES IDX 4 1 5 2 6 3 7 4 8 5 3 6 2 7 1 8
REMARK H PARENT
REMARK Flexibility Score: inf
ROOT
ATOM      1  C   UNL     1     -16.135  44.340  33.414  1.00  0.00     0.006 C 
ENDROOT
BRANCH   1   2
ATOM      2  C   UNL     1     -15.839  44.377  31.912  1.00  0.00     0.053 C 
BRANCH   2   3
ATOM      3  C   UNL     1     -17.113  44.455  31.128  1.00  0.00     0.041 C 
ATOM      4  O   UNL     1     -17.264  45.349  30.255  1.00  0.00    -0.550 OA
ATOM      5  O   UNL     1     -18.149  43.571  31.398  1.00  0.00    -0.550 OA
ENDBRANCH   2   3
ENDBRANCH   1   2
BRANCH   1   6
ATOM      6  C   UNL     1     -14.848  44.107  34.221  1.00  0.00     0.000 C 
BRANCH   6   7
ATOM      7  C   UNL     1     -13.955  45.356  34.280  1.00  0.00    -0.003 C 
ATOM      8  C   UNL     1     -14.417  46.363  35.334  1.00  0.00     0.004 C 
ENDBRANCH   6   7
ENDBRANCH   1   6
TORSDOF 4
ENDMDL
MODEL 3
REMARK VINA RESULT:    -3.375     11.298     12.553
REMARK INTER + INTRA:          -4.270
REMARK INTER:                  -4.115
REMARK INTRA:                  -0.155
REMARK UNBOUND:                -0.107
REMARK SMILES CCCCCC(=O)[O-]
REMARK SMILES IDX 4 1 5 2 6 3 7 4 8 5 3 6 2 7 1 8
REMARK H PARENT
REMARK Flexibility Score: inf
ROOT
ATOM      1  C   UNL     1     -16.098  43.294  33.702  1.00  0.00     0.006 C 
ENDROOT
BRANCH   1   2
ATOM      2  C   UNL     1     -17.073  44.448  33.448  1.00  0.00     0.053 C 
BRANCH   2   3
ATOM      3  C   UNL     1     -17.621  44.375  32.057  1.00  0.00     0.041 C 
ATOM      4  O   UNL     1     -18.685  43.743  31.828  1.00  0.00    -0.550 OA
ATOM      5  O   UNL     1     -16.929  44.963  31.006  1.00  0.00    -0.550 OA
ENDBRANCH   2   3
ENDBRANCH   1   2
BRANCH   1   6
ATOM      6  C   UNL     1     -14.766  43.815  34.263  1.00  0.00     0.000 C 
BRANCH   6   7
ATOM      7  C   UNL     1     -14.532  45.300  33.945  1.00  0.00    -0.003 C 
ATOM      8  C   UNL     1     -14.286  46.140  35.198  1.00  0.00     0.004 C 
ENDBRANCH   6   7
ENDBRANCH   1   6
TORSDOF 4
ENDMDL
MODEL 4
REMARK VINA RESULT:    -3.355     11.883     12.828
REMARK INTER + INTRA:          -4.246
REMARK INTER:                  -4.037
REMARK INTRA:                  -0.209
REMARK UNBOUND:                -0.107
REMARK SMILES CCCCCC(=O)[O-]
REMARK SMILES IDX 4 1 5 2 6 3 7 4 8 5 3 6 2 7 1 8
REMARK H PARENT
REMARK Flexibility Score: inf
ROOT
ATOM      1  C   UNL     1     -16.762  44.532  33.483  1.00  0.00     0.006 C 
ENDROOT
BRANCH   1   2
ATOM      2  C   UNL     1     -15.406  44.053  34.010  1.00  0.00     0.053 C 
BRANCH   2   3
ATOM      3  C   UNL     1     -14.436  45.191  34.075  1.00  0.00     0.041 C 
ATOM      4  O   UNL     1     -13.486  45.259  33.252  1.00  0.00    -0.550 OA
ATOM      5  O   UNL     1     -14.553  46.148  35.074  1.00  0.00    -0.550 OA
ENDBRANCH   2   3
ENDBRANCH   1   2
BRANCH   1   6
ATOM      6  C   UNL     1     -17.087  43.880  32.130  1.00  0.00     0.000 C 
BRANCH   6   7
ATOM      7  C   UNL     1     -16.918  44.850  30.951  1.00  0.00    -0.003 C 
ATOM      8  C   UNL     1     -15.545  44.740  30.288  1.00  0.00     0.004 C 
ENDBRANCH   6   7
ENDBRANCH   1   6
TORSDOF 4
ENDMDL
MODEL 5
REMARK VINA RESULT:    -3.348     10.316     11.318
REMARK INTER + INTRA:          -4.237
REMARK INTER:                  -4.002
REMARK INTRA:                  -0.235
REMARK UNBOUND:                -0.107
REMARK SMILES CCCCCC(=O)[O-]
REMARK SMILES IDX 4 1 5 2 6 3 7 4 8 5 3 6 2 7 1 8
REMARK H PARENT
REMARK Flexibility Score: inf
ROOT
ATOM      1  C   UNL     1     -17.889  43.844  31.431  1.00  0.00     0.006 C 
ENDROOT
BRANCH   1   2
ATOM      2  C   UNL     1     -17.951  44.110  32.938  1.00  0.00     0.053 C 
BRANCH   2   3
ATOM      3  C   UNL     1     -16.634  43.806  33.579  1.00  0.00     0.041 C 
ATOM      4  O   UNL     1     -16.293  42.612  33.789  1.00  0.00    -0.550 OA
ATOM      5  O   UNL     1     -15.805  44.842  33.990  1.00  0.00    -0.550 OA
ENDBRANCH   2   3
ENDBRANCH   1   2
BRANCH   1   6
ATOM      6  C   UNL     1     -17.169  44.987  30.701  1.00  0.00     0.000 C 
BRANCH   6   7
ATOM      7  C   UNL     1     -15.986  44.494  29.855  1.00  0.00    -0.003 C 
ATOM      8  C   UNL     1     -14.631  44.881  30.450  1.00  0.00     0.004 C 
ENDBRANCH   6   7
ENDBRANCH   1   6
TORSDOF 4
ENDMDL
MODEL 6
REMARK VINA RESULT:    -3.338     11.482     12.695
REMARK INTER + INTRA:          -4.225
REMARK INTER:                  -4.104
REMARK INTRA:                  -0.121
REMARK UNBOUND:                -0.107
REMARK SMILES CCCCCC(=O)[O-]
REMARK SMILES IDX 4 1 5 2 6 3 7 4 8 5 3 6 2 7 1 8
REMARK H PARENT
REMARK Flexibility Score: inf
ROOT
ATOM      1  C   UNL     1     -16.301  44.141  32.961  1.00  0.00     0.006 C 
ENDROOT
BRANCH   1   2
ATOM      2  C   UNL     1     -15.351  44.001  34.154  1.00  0.00     0.053 C 
BRANCH   2   3
ATOM      3  C   UNL     1     -14.397  45.154  34.203  1.00  0.00     0.041 C 
ATOM      4  O   UNL     1     -14.548  46.064  35.059  1.00  0.00    -0.550 OA
ATOM      5  O   UNL     1     -13.371  45.247  33.272  1.00  0.00    -0.550 OA
ENDBRANCH   2   3
ENDBRANCH   1   2
BRANCH   1   6
ATOM      6  C   UNL     1     -17.685  44.629  33.416  1.00  0.00     0.000 C 
BRANCH   6   7
ATOM      7  C   UNL     1     -18.827  43.761  32.867  1.00  0.00    -0.003 C 
ATOM      8  C   UNL     1     -19.122  42.547  33.749  1.00  0.00     0.004 C 
ENDBRANCH   6   7
ENDBRANCH   1   6
TORSDOF 4
ENDMDL
MODEL 7
REMARK VINA RESULT:    -3.296     10.067     11.355
REMARK INTER + INTRA:          -4.174
REMARK INTER:                  -4.035
REMARK INTRA:                  -0.139
REMARK UNBOUND:                -0.107
REMARK SMILES CCCCCC(=O)[O-]
REMARK SMILES IDX 4 1 5 2 6 3 7 4 8 5 3 6 2 7 1 8
REMARK H PARENT
REMARK Flexibility Score: inf
ROOT
ATOM      1  C   UNL     1     -17.264  44.430  32.056  1.00  0.00     0.006 C 
ENDROOT
BRANCH   1   2
ATOM      2  C   UNL     1     -16.712  44.553  33.479  1.00  0.00     0.053 C 
BRANCH   2   3
ATOM      3  C   UNL     1     -15.590  43.586  33.692  1.00  0.00     0.041 C 
ATOM      4  O   UNL     1     -14.632  43.886  34.452  1.00  0.00    -0.550 OA
ATOM      5  O   UNL     1     -15.578  42.375  33.012  1.00  0.00    -0.550 OA
ENDBRANCH   2   3
ENDBRANCH   1   2
BRANCH   1   6
ATOM      6  C   UNL     1     -18.663  43.794  32.063  1.00  0.00     0.000 C 
BRANCH   6   7
ATOM      7  C   UNL     1     -19.268  43.716  33.473  1.00  0.00    -0.003 C 
ATOM      8  C   UNL     1     -19.358  42.283  33.999  1.00  0.00     0.004 C 
ENDBRANCH   6   7
ENDBRANCH   1   6
TORSDOF 4
ENDMDL
MODEL 8
REMARK VINA RESULT:    -3.263      9.835     10.983
REMARK INTER + INTRA:          -4.133
REMARK INTER:                  -3.878
REMARK INTRA:                  -0.256
REMARK UNBOUND:                -0.107
REMARK SMILES CCCCCC(=O)[O-]
REMARK SMILES IDX 4 1 5 2 6 3 7 4 8 5 3 6 2 7 1 8
REMARK H PARENT
REMARK Flexibility Score: inf
ROOT
ATOM      1  C   UNL     1     -16.760  43.936  33.447  1.00  0.00     0.006 C 
ENDROOT
BRANCH   1   2
ATOM      2  C   UNL     1     -15.928  44.376  32.239  1.00  0.00     0.053 C 
BRANCH   2   3
ATOM      3  C   UNL     1     -16.676  44.126  30.967  1.00  0.00     0.041 C 
ATOM      4  O   UNL     1     -16.846  42.949  30.555  1.00  0.00    -0.550 OA
ATOM      5  O   UNL     1     -17.143  45.195  30.214  1.00  0.00    -0.550 OA
ENDBRANCH   2   3
ENDBRANCH   1   2
BRANCH   1   6
ATOM      6  C   UNL     1     -18.058  44.752  33.546  1.00  0.00     0.000 C 
BRANCH   6   7
ATOM      7  C   UNL     1     -19.312  43.865  33.554  1.00  0.00    -0.003 C 
ATOM      8  C   UNL     1     -18.980  42.372  33.569  1.00  0.00     0.004 C 
ENDBRANCH   6   7
ENDBRANCH   1   6
TORSDOF 4
ENDMDL
MODEL 9
REMARK VINA RESULT:    -3.229     10.913     12.206
REMARK INTER + INTRA:          -4.091
REMARK INTER:                  -3.872
REMARK INTRA:                  -0.219
REMARK UNBOUND:                -0.107
REMARK SMILES CCCCCC(=O)[O-]
REMARK SMILES IDX 4 1 5 2 6 3 7 4 8 5 3 6 2 7 1 8
REMARK H PARENT
REMARK Flexibility Score: inf
ROOT
ATOM      1  C   UNL     1     -17.354  43.939  32.009  1.00  0.00     0.006 C 
ENDROOT
BRANCH   1   2
ATOM      2  C   UNL     1     -17.115  44.960  30.893  1.00  0.00     0.053 C 
BRANCH   2   3
ATOM      3  C   UNL     1     -15.907  44.588  30.091  1.00  0.00     0.041 C 
ATOM      4  O   UNL     1     -16.022  43.844  29.083  1.00  0.00    -0.550 OA
ATOM      5  O   UNL     1     -14.649  45.023  30.487  1.00  0.00    -0.550 OA
ENDBRANCH   2   3
ENDBRANCH   1   2
BRANCH   1   6
ATOM      6  C   UNL     1     -16.974  44.524  33.379  1.00  0.00     0.000 C 
BRANCH   6   7
ATOM      7  C   UNL     1     -15.590  44.060  33.856  1.00  0.00    -0.003 C 
ATOM      8  C   UNL     1     -14.668  45.225  34.215  1.00  0.00     0.004 C 
ENDBRANCH   6   7
ENDBRANCH   1   6
TORSDOF 4
ENDMDL
