MODEL 1
REMARK VINA RESULT:    -3.442      0.000      0.000
REMARK INTER + INTRA:          -3.741
REMARK INTER:                  -3.643
REMARK INTRA:                  -0.097
REMARK UNBOUND:                -0.097
REMARK SMILES C=C(C)[C@@H]1CC=C(C)C(=O)C1
REMARK SMILES IDX 8 1 7 2 6 3 5 4 4 5 11 6 9 7 10 8 2 9 1 10 3 11
REMARK H PARENT
REMARK Flexibility Score: inf
ROOT
ATOM      1  C   UNL     1      65.471  17.289   2.515  1.00  0.00     0.048 C 
ATOM      2  C   UNL     1      65.001  16.538   1.300  1.00  0.00    -0.012 C 
ATOM      3  C   UNL     1      65.351  16.963   0.075  1.00  0.00    -0.019 C 
ATOM      4  C   UNL     1      64.924  16.238  -1.175  1.00  0.00     0.036 C 
ATOM      5  C   UNL     1      63.541  15.584  -0.991  1.00  0.00     0.025 C 
ATOM      6  C   UNL     1      63.545  14.665   0.245  1.00  0.00     0.089 C 
ATOM      7  C   UNL     1      64.055  15.404   1.451  1.00  0.00     0.158 C 
ATOM      8  O   UNL     1      63.698  15.026   2.599  1.00  0.00    -0.295 OA
ENDROOT
BRANCH   5   9
ATOM      9  C   UNL     1      63.101  14.839  -2.244  1.00  0.00    -0.077 C 
ATOM     10  C   UNL     1      62.423  13.681  -2.167  1.00  0.00     0.008 C 
ATOM     11  C   UNL     1      63.422  15.395  -3.607  1.00  0.00     0.039 C 
ENDBRANCH   5   9
TORSDOF 1
ENDMDL
MODEL 2
REMARK VINA RESULT:    -3.421      2.456      2.863
REMARK INTER + INTRA:          -3.719
REMARK INTER:                  -3.625
REMARK INTRA:                  -0.094
REMARK UNBOUND:                -0.097
REMARK SMILES C=C(C)[C@@H]1CC=C(C)C(=O)C1
REMARK SMILES IDX 8 1 7 2 6 3 5 4 4 5 11 6 9 7 10 8 2 9 1 10 3 11
REMARK H PARENT
REMARK Flexibility Score: inf
ROOT
ATOM      1  C   UNL     1      61.745  17.888   2.626  1.00  0.00     0.048 C 
ATOM      2  C   UNL     1      61.915  16.988   1.434  1.00  0.00    -0.012 C 
ATOM      3  C   UNL     1      62.917  16.092   1.410  1.00  0.00    -0.019 C 
ATOM      4  C   UNL     1      63.122  15.154   0.249  1.00  0.00     0.036 C 
ATOM      5  C   UNL     1      62.690  15.810  -1.076  1.00  0.00     0.025 C 
ATOM      6  C   UNL     1      61.236  16.307  -0.977  1.00  0.00     0.089 C 
ATOM      7  C   UNL     1      61.055  17.174   0.238  1.00  0.00     0.158 C 
ATOM      8  O   UNL     1      60.138  18.037   0.246  1.00  0.00    -0.295 OA
ENDROOT
BRANCH   5   9
ATOM      9  C   UNL     1      62.883  14.868  -2.258  1.00  0.00    -0.077 C 
ATOM     10  C   UNL     1      62.560  13.566  -2.174  1.00  0.00     0.008 C 
ATOM     11  C   UNL     1      63.447  15.388  -3.554  1.00  0.00     0.039 C 
ENDBRANCH   5   9
TORSDOF 1
ENDMDL
MODEL 3
REMARK VINA RESULT:    -3.398      1.486      4.172
REMARK INTER + INTRA:          -3.694
REMARK INTER:                  -3.597
REMARK INTRA:                  -0.098
REMARK UNBOUND:                -0.097
REMARK SMILES C=C(C)[C@@H]1CC=C(C)C(=O)C1
REMARK SMILES IDX 8 1 7 2 6 3 5 4 4 5 11 6 9 7 10 8 2 9 1 10 3 11
REMARK H PARENT
REMARK Flexibility Score: inf
ROOT
ATOM      1  C   UNL     1      61.243  12.236  -2.239  1.00  0.00     0.048 C 
ATOM      2  C   UNL     1      62.056  13.399  -1.741  1.00  0.00    -0.012 C 
ATOM      3  C   UNL     1      62.694  14.193  -2.619  1.00  0.00    -0.019 C 
ATOM      4  C   UNL     1      63.506  15.381  -2.176  1.00  0.00     0.036 C 
ATOM      5  C   UNL     1      64.163  15.125  -0.806  1.00  0.00     0.025 C 
ATOM      6  C   UNL     1      63.095  14.729   0.231  1.00  0.00     0.089 C 
ATOM      7  C   UNL     1      62.254  13.593  -0.283  1.00  0.00     0.158 C 
ATOM      8  O   UNL     1      61.686  12.828   0.541  1.00  0.00    -0.295 OA
ENDROOT
BRANCH   5   9
ATOM      9  C   UNL     1      64.980  16.323  -0.341  1.00  0.00    -0.077 C 
ATOM     10  C   UNL     1      65.096  16.627   0.963  1.00  0.00     0.008 C 
ATOM     11  C   UNL     1      65.680  17.197  -1.349  1.00  0.00     0.039 C 
ENDBRANCH   5   9
TORSDOF 1
ENDMDL
MODEL 4
REMARK VINA RESULT:    -3.323     14.288     15.891
REMARK INTER + INTRA:          -3.615
REMARK INTER:                  -3.520
REMARK INTRA:                  -0.095
REMARK UNBOUND:                -0.097
REMARK SMILES C=C(C)[C@@H]1CC=C(C)C(=O)C1
REMARK SMILES IDX 8 1 7 2 6 3 5 4 4 5 11 6 9 7 10 8 2 9 1 10 3 11
REMARK H PARENT
REMARK Flexibility Score: inf
ROOT
ATOM      1  C   UNL     1      56.758   0.921   5.252  1.00  0.00     0.048 C 
ATOM      2  C   UNL     1      56.174   2.278   4.971  1.00  0.00    -0.012 C 
ATOM      3  C   UNL     1      56.848   3.383   5.331  1.00  0.00    -0.019 C 
ATOM      4  C   UNL     1      56.318   4.767   5.057  1.00  0.00     0.036 C 
ATOM      5  C   UNL     1      54.779   4.793   5.117  1.00  0.00     0.025 C 
ATOM      6  C   UNL     1      54.190   3.741   4.158  1.00  0.00     0.089 C 
ATOM      7  C   UNL     1      54.804   2.392   4.410  1.00  0.00     0.158 C 
ATOM      8  O   UNL     1      54.157   1.356   4.105  1.00  0.00    -0.295 OA
ENDROOT
BRANCH   5   9
ATOM      9  C   UNL     1      54.229   6.184   4.832  1.00  0.00    -0.077 C 
ATOM     10  C   UNL     1      54.796   7.282   5.362  1.00  0.00     0.008 C 
ATOM     11  C   UNL     1      53.026   6.354   3.942  1.00  0.00     0.039 C 
ENDBRANCH   5   9
TORSDOF 1
ENDMDL
MODEL 5
REMARK VINA RESULT:    -3.308     13.706     14.953
REMARK INTER + INTRA:          -3.599
REMARK INTER:                  -3.503
REMARK INTRA:                  -0.096
REMARK UNBOUND:                -0.097
REMARK SMILES C=C(C)[C@@H]1CC=C(C)C(=O)C1
REMARK SMILES IDX 8 1 7 2 6 3 5 4 4 5 11 6 9 7 10 8 2 9 1 10 3 11
REMARK H PARENT
REMARK Flexibility Score: inf
ROOT
ATOM      1  C   UNL     1      59.752   3.879  11.063  1.00  0.00     0.048 C 
ATOM      2  C   UNL     1      59.028   4.692  10.025  1.00  0.00    -0.012 C 
ATOM      3  C   UNL     1      58.219   5.694  10.407  1.00  0.00    -0.019 C 
ATOM      4  C   UNL     1      57.485   6.552   9.410  1.00  0.00     0.036 C 
ATOM      5  C   UNL     1      57.110   5.744   8.153  1.00  0.00     0.025 C 
ATOM      6  C   UNL     1      58.365   5.088   7.547  1.00  0.00     0.089 C 
ATOM      7  C   UNL     1      59.112   4.308   8.594  1.00  0.00     0.158 C 
ATOM      8  O   UNL     1      59.843   3.346   8.238  1.00  0.00    -0.295 OA
ENDROOT
BRANCH   5   9
ATOM      9  C   UNL     1      56.376   6.602   7.131  1.00  0.00    -0.077 C 
ATOM     10  C   UNL     1      56.366   7.943   7.222  1.00  0.00     0.008 C 
ATOM     11  C   UNL     1      55.638   5.952   5.990  1.00  0.00     0.039 C 
ENDBRANCH   5   9
TORSDOF 1
ENDMDL
MODEL 6
REMARK VINA RESULT:    -3.172     14.517     15.238
REMARK INTER + INTRA:          -3.454
REMARK INTER:                  -3.359
REMARK INTRA:                  -0.096
REMARK UNBOUND:                -0.097
REMARK SMILES C=C(C)[C@@H]1CC=C(C)C(=O)C1
REMARK SMILES IDX 8 1 7 2 6 3 5 4 4 5 11 6 9 7 10 8 2 9 1 10 3 11
REMARK H PARENT
REMARK Flexibility Score: inf
ROOT
ATOM      1  C   UNL     1      52.681   6.370   3.525  1.00  0.00     0.048 C 
ATOM      2  C   UNL     1      53.778   5.890   4.434  1.00  0.00    -0.012 C 
ATOM      3  C   UNL     1      54.399   6.758   5.250  1.00  0.00    -0.019 C 
ATOM      4  C   UNL     1      55.491   6.327   6.193  1.00  0.00     0.036 C 
ATOM      5  C   UNL     1      56.309   5.164   5.600  1.00  0.00     0.025 C 
ATOM      6  C   UNL     1      55.378   4.000   5.214  1.00  0.00     0.089 C 
ATOM      7  C   UNL     1      54.256   4.487   4.339  1.00  0.00     0.158 C 
ATOM      8  O   UNL     1      53.698   3.680   3.549  1.00  0.00    -0.295 OA
ENDROOT
BRANCH   5   9
ATOM      9  C   UNL     1      57.411   4.711   6.548  1.00  0.00    -0.077 C 
ATOM     10  C   UNL     1      58.268   3.733   6.208  1.00  0.00     0.008 C 
ATOM     11  C   UNL     1      57.561   5.361   7.899  1.00  0.00     0.039 C 
ENDBRANCH   5   9
TORSDOF 1
ENDMDL
MODEL 7
REMARK VINA RESULT:    -3.146      1.580      2.799
REMARK INTER + INTRA:          -3.427
REMARK INTER:                  -3.335
REMARK INTRA:                  -0.093
REMARK UNBOUND:                -0.097
REMARK SMILES C=C(C)[C@@H]1CC=C(C)C(=O)C1
REMARK SMILES IDX 8 1 7 2 6 3 5 4 4 5 11 6 9 7 10 8 2 9 1 10 3 11
REMARK H PARENT
REMARK Flexibility Score: inf
ROOT
ATOM      1  C   UNL     1      65.338  16.959  -1.053  1.00  0.00     0.048 C 
ATOM      2  C   UNL     1      64.335  15.842  -1.132  1.00  0.00    -0.012 C 
ATOM      3  C   UNL     1      63.816  15.492  -2.321  1.00  0.00    -0.019 C 
ATOM      4  C   UNL     1      62.822  14.369  -2.460  1.00  0.00     0.036 C 
ATOM      5  C   UNL     1      61.930  14.261  -1.209  1.00  0.00     0.025 C 
ATOM      6  C   UNL     1      62.798  14.119   0.055  1.00  0.00     0.089 C 
ATOM      7  C   UNL     1      63.829  15.212   0.113  1.00  0.00     0.158 C 
ATOM      8  O   UNL     1      64.289  15.563   1.232  1.00  0.00    -0.295 OA
ENDROOT
BRANCH   5   9
ATOM      9  C   UNL     1      60.925  13.122  -1.332  1.00  0.00    -0.077 C 
ATOM     10  C   UNL     1      59.747  13.157  -0.686  1.00  0.00     0.008 C 
ATOM     11  C   UNL     1      61.242  11.925  -2.189  1.00  0.00     0.039 C 
ENDBRANCH   5   9
TORSDOF 1
ENDMDL
MODEL 8
REMARK VINA RESULT:    -3.146      2.068      4.439
REMARK INTER + INTRA:          -3.427
REMARK INTER:                  -3.333
REMARK INTRA:                  -0.094
REMARK UNBOUND:                -0.097
REMARK SMILES C=C(C)[C@@H]1CC=C(C)C(=O)C1
REMARK SMILES IDX 8 1 7 2 6 3 5 4 4 5 11 6 9 7 10 8 2 9 1 10 3 11
REMARK H PARENT
REMARK Flexibility Score: inf
ROOT
ATOM      1  C   UNL     1      63.516  15.465  -3.706  1.00  0.00     0.048 C 
ATOM      2  C   UNL     1      63.318  14.863  -2.343  1.00  0.00    -0.012 C 
ATOM      3  C   UNL     1      62.475  13.828  -2.185  1.00  0.00    -0.019 C 
ATOM      4  C   UNL     1      62.254  13.175  -0.845  1.00  0.00     0.036 C 
ATOM      5  C   UNL     1      62.381  14.200   0.298  1.00  0.00     0.025 C 
ATOM      6  C   UNL     1      63.738  14.923   0.218  1.00  0.00     0.089 C 
ATOM      7  C   UNL     1      63.956  15.489  -1.158  1.00  0.00     0.158 C 
ATOM      8  O   UNL     1      64.718  16.482  -1.300  1.00  0.00    -0.295 OA
ENDROOT
BRANCH   5   9
ATOM      9  C   UNL     1      62.168  13.552   1.660  1.00  0.00    -0.077 C 
ATOM     10  C   UNL     1      62.651  12.328   1.934  1.00  0.00     0.008 C 
ATOM     11  C   UNL     1      61.404  14.282   2.733  1.00  0.00     0.039 C 
ENDBRANCH   5   9
TORSDOF 1
ENDMDL
MODEL 9
REMARK VINA RESULT:    -3.127     14.025     15.600
REMARK INTER + INTRA:          -3.408
REMARK INTER:                  -3.314
REMARK INTRA:                  -0.093
REMARK UNBOUND:                -0.097
REMARK SMILES C=C(C)[C@@H]1CC=C(C)C(=O)C1
REMARK SMILES IDX 8 1 7 2 6 3 5 4 4 5 11 6 9 7 10 8 2 9 1 10 3 11
REMARK H PARENT
REMARK Flexibility Score: inf
ROOT
ATOM      1  C   UNL     1      56.097   7.055   6.780  1.00  0.00     0.048 C 
ATOM      2  C   UNL     1      57.014   6.444   7.803  1.00  0.00    -0.012 C 
ATOM      3  C   UNL     1      57.600   5.260   7.553  1.00  0.00    -0.019 C 
ATOM      4  C   UNL     1      58.542   4.612   8.534  1.00  0.00     0.036 C 
ATOM      5  C   UNL     1      58.145   4.944   9.985  1.00  0.00     0.025 C 
ATOM      6  C   UNL     1      58.059   6.470  10.179  1.00  0.00     0.089 C 
ATOM      7  C   UNL     1      57.175   7.087   9.131  1.00  0.00     0.158 C 
ATOM      8  O   UNL     1      56.598   8.179   9.380  1.00  0.00    -0.295 OA
ENDROOT
BRANCH   5   9
ATOM      9  C   UNL     1      59.095   4.303  10.988  1.00  0.00    -0.077 C 
ATOM     10  C   UNL     1      58.722   4.078  12.260  1.00  0.00     0.008 C 
ATOM     11  C   UNL     1      60.486   3.907  10.565  1.00  0.00     0.039 C 
ENDBRANCH   5   9
TORSDOF 1
ENDMDL
