MODEL 1
REMARK VINA RESULT:    -3.573      0.000      0.000
REMARK INTER + INTRA:          -5.334
REMARK INTER:                  -4.722
REMARK INTRA:                  -0.612
REMARK UNBOUND:                -0.612
REMARK SMILES C=C[C@@H](O)CCCCC
REMARK SMILES IDX 6 1 7 2 8 3 9 4 5 5 3 6 2 7 1 8 4 9
REMARK H PARENT 4 10
REMARK Flexibility Score: inf
ROOT
ATOM      1  C   UNL     1     119.758 131.287 125.250  1.00  0.00     0.003 C 
ENDROOT
BRANCH   1   2
ATOM      2  C   UNL     1     118.409 131.704 125.852  1.00  0.00    -0.000 C 
BRANCH   2   3
ATOM      3  C   UNL     1     117.248 131.003 125.137  1.00  0.00    -0.003 C 
ATOM      4  C   UNL     1     116.215 130.492 126.136  1.00  0.00     0.004 C 
ENDBRANCH   2   3
ENDBRANCH   1   2
BRANCH   1   5
ATOM      5  C   UNL     1     120.541 130.299 126.135  1.00  0.00     0.036 C 
BRANCH   5   6
ATOM      6  C   UNL     1     120.404 128.824 125.700  1.00  0.00     0.136 C 
BRANCH   6   7
ATOM      7  C   UNL     1     119.281 128.129 126.435  1.00  0.00    -0.004 C 
ATOM      8  C   UNL     1     118.359 127.417 125.780  1.00  0.00     0.007 C 
ENDBRANCH   6   7
BRANCH   6   9
ATOM      9  O   UNL     1     120.139 128.785 124.321  1.00  0.00    -0.389 OA
ATOM     10  H   UNL     1     121.001 128.947 123.854  1.00  0.00     0.211 HD
ENDBRANCH   6   9
ENDBRANCH   5   6
ENDBRANCH   1   5
TORSDOF 6
ENDMDL
MODEL 2
REMARK VINA RESULT:    -3.570     15.190     16.302
REMARK INTER + INTRA:          -5.330
REMARK INTER:                  -4.884
REMARK INTRA:                  -0.446
REMARK UNBOUND:                -0.612
REMARK SMILES C=C[C@@H](O)CCCCC
REMARK SMILES IDX 6 1 7 2 8 3 9 4 5 5 3 6 2 7 1 8 4 9
REMARK H PARENT 4 10
REMARK Flexibility Score: inf
ROOT
ATOM      1  C   UNL     1     123.593 118.784 114.647  1.00  0.00     0.003 C 
ENDROOT
BRANCH   1   2
ATOM      2  C   UNL     1     124.798 117.890 114.970  1.00  0.00    -0.000 C 
BRANCH   2   3
ATOM      3  C   UNL     1     125.948 118.711 115.563  1.00  0.00    -0.003 C 
ATOM      4  C   UNL     1     125.659 120.207 115.477  1.00  0.00     0.004 C 
ENDBRANCH   2   3
ENDBRANCH   1   2
BRANCH   1   5
ATOM      5  C   UNL     1     122.238 118.080 114.855  1.00  0.00     0.036 C 
BRANCH   5   6
ATOM      6  C   UNL     1     122.257 116.996 115.954  1.00  0.00     0.136 C 
BRANCH   6   7
ATOM      7  C   UNL     1     122.035 117.589 117.326  1.00  0.00    -0.004 C 
ATOM      8  C   UNL     1     123.020 117.643 118.227  1.00  0.00     0.007 C 
ENDBRANCH   6   7
BRANCH   6   9
ATOM      9  O   UNL     1     121.237 116.068 115.686  1.00  0.00    -0.389 OA
ATOM     10  H   UNL     1     121.676 115.199 115.493  1.00  0.00     0.211 HD
ENDBRANCH   6   9
ENDBRANCH   5   6
ENDBRANCH   1   5
TORSDOF 6
ENDMDL
MODEL 3
REMARK VINA RESULT:    -3.537      2.055      4.102
REMARK INTER + INTRA:          -5.286
REMARK INTER:                  -4.838
REMARK INTRA:                  -0.448
REMARK UNBOUND:                -0.612
REMARK SMILES C=C[C@@H](O)CCCCC
REMARK SMILES IDX 6 1 7 2 8 3 9 4 5 5 3 6 2 7 1 8 4 9
REMARK H PARENT 4 10
REMARK Flexibility Score: inf
ROOT
ATOM      1  C   UNL     1     118.473 128.644 125.167  1.00  0.00     0.003 C 
ENDROOT
BRANCH   1   2
ATOM      2  C   UNL     1     119.858 128.437 125.795  1.00  0.00    -0.000 C 
BRANCH   2   3
ATOM      3  C   UNL     1     120.855 129.484 125.284  1.00  0.00    -0.003 C 
ATOM      4  C   UNL     1     120.826 130.740 126.150  1.00  0.00     0.004 C 
ENDBRANCH   2   3
ENDBRANCH   1   2
BRANCH   1   5
ATOM      5  C   UNL     1     117.438 129.221 126.151  1.00  0.00     0.036 C 
BRANCH   5   6
ATOM      6  C   UNL     1     116.931 130.629 125.774  1.00  0.00     0.136 C 
BRANCH   6   7
ATOM      7  C   UNL     1     117.420 131.050 124.407  1.00  0.00    -0.004 C 
ATOM      8  C   UNL     1     116.564 131.377 123.435  1.00  0.00     0.007 C 
ENDBRANCH   6   7
BRANCH   6   9
ATOM      9  O   UNL     1     115.526 130.615 125.772  1.00  0.00    -0.389 OA
ATOM     10  H   UNL     1     115.225 131.531 126.011  1.00  0.00     0.211 HD
ENDBRANCH   6   9
ENDBRANCH   5   6
ENDBRANCH   1   5
TORSDOF 6
ENDMDL
MODEL 4
REMARK VINA RESULT:    -3.490     13.879     15.552
REMARK INTER + INTRA:          -5.223
REMARK INTER:                  -5.023
REMARK INTRA:                  -0.200
REMARK UNBOUND:                -0.612
REMARK SMILES C=C[C@@H](O)CCCCC
REMARK SMILES IDX 6 1 7 2 8 3 9 4 5 5 3 6 2 7 1 8 4 9
REMARK H PARENT 4 10
REMARK Flexibility Score: inf
ROOT
ATOM      1  C   UNL     1     121.437 116.519 117.228  1.00  0.00     0.003 C 
ENDROOT
BRANCH   1   2
ATOM      2  C   UNL     1     121.208 117.824 118.004  1.00  0.00    -0.000 C 
BRANCH   2   3
ATOM      3  C   UNL     1     120.338 117.581 119.243  1.00  0.00    -0.003 C 
ATOM      4  C   UNL     1     119.019 118.342 119.147  1.00  0.00     0.004 C 
ENDBRANCH   2   3
ENDBRANCH   1   2
BRANCH   1   5
ATOM      5  C   UNL     1     121.751 116.744 115.737  1.00  0.00     0.036 C 
BRANCH   5   6
ATOM      6  C   UNL     1     122.487 118.069 115.444  1.00  0.00     0.136 C 
BRANCH   6   7
ATOM      7  C   UNL     1     123.983 117.919 115.588  1.00  0.00    -0.004 C 
ATOM      8  C   UNL     1     124.812 118.926 115.301  1.00  0.00     0.007 C 
ENDBRANCH   6   7
BRANCH   6   9
ATOM      9  O   UNL     1     122.191 118.466 114.129  1.00  0.00    -0.389 OA
ATOM     10  H   UNL     1     121.407 117.934 113.833  1.00  0.00     0.211 HD
ENDBRANCH   6   9
ENDBRANCH   5   6
ENDBRANCH   1   5
TORSDOF 6
ENDMDL
MODEL 5
REMARK VINA RESULT:    -3.433     14.632     15.209
REMARK INTER + INTRA:          -5.149
REMARK INTER:                  -4.855
REMARK INTRA:                  -0.294
REMARK UNBOUND:                -0.612
REMARK SMILES C=C[C@@H](O)CCCCC
REMARK SMILES IDX 6 1 7 2 8 3 9 4 5 5 3 6 2 7 1 8 4 9
REMARK H PARENT 4 10
REMARK Flexibility Score: inf
ROOT
ATOM      1  C   UNL     1     112.013 117.048 127.536  1.00  0.00     0.003 C 
ENDROOT
BRANCH   1   2
ATOM      2  C   UNL     1     113.122 116.416 126.683  1.00  0.00    -0.000 C 
BRANCH   2   3
ATOM      3  C   UNL     1     112.529 115.588 125.538  1.00  0.00    -0.003 C 
ATOM      4  C   UNL     1     112.112 116.480 124.372  1.00  0.00     0.004 C 
ENDBRANCH   2   3
ENDBRANCH   1   2
BRANCH   1   5
ATOM      5  C   UNL     1     111.764 116.302 128.861  1.00  0.00     0.036 C 
BRANCH   5   6
ATOM      6  C   UNL     1     112.281 117.050 130.109  1.00  0.00     0.136 C 
BRANCH   6   7
ATOM      7  C   UNL     1     113.244 116.202 130.907  1.00  0.00    -0.004 C 
ATOM      8  C   UNL     1     114.213 115.504 130.309  1.00  0.00     0.007 C 
ENDBRANCH   6   7
BRANCH   6   9
ATOM      9  O   UNL     1     112.939 118.219 129.691  1.00  0.00    -0.389 OA
ATOM     10  H   UNL     1     113.716 118.348 130.296  1.00  0.00     0.211 HD
ENDBRANCH   6   9
ENDBRANCH   5   6
ENDBRANCH   1   5
TORSDOF 6
ENDMDL
MODEL 6
REMARK VINA RESULT:    -3.428     13.430     15.258
REMARK INTER + INTRA:          -5.142
REMARK INTER:                  -4.922
REMARK INTRA:                  -0.220
REMARK UNBOUND:                -0.612
REMARK SMILES C=C[C@@H](O)CCCCC
REMARK SMILES IDX 6 1 7 2 8 3 9 4 5 5 3 6 2 7 1 8 4 9
REMARK H PARENT 4 10
REMARK Flexibility Score: inf
ROOT
ATOM      1  C   UNL     1     121.312 116.838 116.807  1.00  0.00     0.003 C 
ENDROOT
BRANCH   1   2
ATOM      2  C   UNL     1     122.334 116.809 115.662  1.00  0.00    -0.000 C 
BRANCH   2   3
ATOM      3  C   UNL     1     122.384 118.158 114.936  1.00  0.00    -0.003 C 
ATOM      4  C   UNL     1     123.803 118.718 114.913  1.00  0.00     0.004 C 
ENDBRANCH   2   3
ENDBRANCH   1   2
BRANCH   1   5
ATOM      5  C   UNL     1     121.831 117.556 118.068  1.00  0.00     0.036 C 
BRANCH   5   6
ATOM      6  C   UNL     1     120.826 117.569 119.240  1.00  0.00     0.136 C 
BRANCH   6   7
ATOM      7  C   UNL     1     119.425 117.880 118.769  1.00  0.00    -0.004 C 
ATOM      8  C   UNL     1     118.607 118.656 119.487  1.00  0.00     0.007 C 
ENDBRANCH   6   7
BRANCH   6   9
ATOM      9  O   UNL     1     120.832 116.304 119.851  1.00  0.00    -0.389 OA
ATOM     10  H   UNL     1     120.167 115.745 119.371  1.00  0.00     0.211 HD
ENDBRANCH   6   9
ENDBRANCH   5   6
ENDBRANCH   1   5
TORSDOF 6
ENDMDL
MODEL 7
REMARK VINA RESULT:    -3.423     12.567     14.430
REMARK INTER + INTRA:          -5.136
REMARK INTER:                  -4.499
REMARK INTRA:                  -0.637
REMARK UNBOUND:                -0.612
REMARK SMILES C=C[C@@H](O)CCCCC
REMARK SMILES IDX 6 1 7 2 8 3 9 4 5 5 3 6 2 7 1 8 4 9
REMARK H PARENT 4 10
REMARK Flexibility Score: inf
ROOT
ATOM      1  C   UNL     1     111.619 116.482 128.778  1.00  0.00     0.003 C 
ENDROOT
BRANCH   1   2
ATOM      2  C   UNL     1     111.916 117.337 127.538  1.00  0.00    -0.000 C 
BRANCH   2   3
ATOM      3  C   UNL     1     111.516 118.798 127.769  1.00  0.00    -0.003 C 
ATOM      4  C   UNL     1     112.738 119.712 127.756  1.00  0.00     0.004 C 
ENDBRANCH   2   3
ENDBRANCH   1   2
BRANCH   1   5
ATOM      5  C   UNL     1     112.888 116.025 129.522  1.00  0.00     0.036 C 
BRANCH   5   6
ATOM      6  C   UNL     1     113.167 116.805 130.824  1.00  0.00     0.136 C 
BRANCH   6   7
ATOM      7  C   UNL     1     114.422 117.640 130.716  1.00  0.00    -0.004 C 
ATOM      8  C   UNL     1     115.204 117.580 129.634  1.00  0.00     0.007 C 
ENDBRANCH   6   7
BRANCH   6   9
ATOM      9  O   UNL     1     112.076 117.651 131.083  1.00  0.00    -0.389 OA
ATOM     10  H   UNL     1     111.613 117.803 130.218  1.00  0.00     0.211 HD
ENDBRANCH   6   9
ENDBRANCH   5   6
ENDBRANCH   1   5
TORSDOF 6
ENDMDL
MODEL 8
REMARK VINA RESULT:    -3.284     16.317     16.993
REMARK INTER + INTRA:          -4.952
REMARK INTER:                  -4.493
REMARK INTRA:                  -0.458
REMARK UNBOUND:                -0.612
REMARK SMILES C=C[C@@H](O)CCCCC
REMARK SMILES IDX 6 1 7 2 8 3 9 4 5 5 3 6 2 7 1 8 4 9
REMARK H PARENT 4 10
REMARK Flexibility Score: inf
ROOT
ATOM      1  C   UNL     1     123.829 118.936 114.689  1.00  0.00     0.003 C 
ENDROOT
BRANCH   1   2
ATOM      2  C   UNL     1     122.464 118.239 114.774  1.00  0.00    -0.000 C 
BRANCH   2   3
ATOM      3  C   UNL     1     122.317 117.480 116.098  1.00  0.00    -0.003 C 
ATOM      4  C   UNL     1     121.546 116.178 115.904  1.00  0.00     0.004 C 
ENDBRANCH   2   3
ENDBRANCH   1   2
BRANCH   1   5
ATOM      5  C   UNL     1     124.838 118.430 115.738  1.00  0.00     0.036 C 
BRANCH   5   6
ATOM      6  C   UNL     1     126.019 117.635 115.140  1.00  0.00     0.136 C 
BRANCH   6   7
ATOM      7  C   UNL     1     126.499 116.557 116.084  1.00  0.00    -0.004 C 
ATOM      8  C   UNL     1     125.647 115.897 116.873  1.00  0.00     0.007 C 
ENDBRANCH   6   7
BRANCH   6   9
ATOM      9  O   UNL     1     125.596 117.038 113.941  1.00  0.00    -0.389 OA
ATOM     10  H   UNL     1     125.917 117.614 113.199  1.00  0.00     0.211 HD
ENDBRANCH   6   9
ENDBRANCH   5   6
ENDBRANCH   1   5
TORSDOF 6
ENDMDL
MODEL 9
REMARK VINA RESULT:    -3.253     11.829     14.168
REMARK INTER + INTRA:          -4.910
REMARK INTER:                  -4.656
REMARK INTRA:                  -0.255
REMARK UNBOUND:                -0.612
REMARK SMILES C=C[C@@H](O)CCCCC
REMARK SMILES IDX 6 1 7 2 8 3 9 4 5 5 3 6 2 7 1 8 4 9
REMARK H PARENT 4 10
REMARK Flexibility Score: inf
ROOT
ATOM      1  C   UNL     1     111.612 116.661 128.583  1.00  0.00     0.003 C 
ENDROOT
BRANCH   1   2
ATOM      2  C   UNL     1     113.025 116.154 128.904  1.00  0.00    -0.000 C 
BRANCH   2   3
ATOM      3  C   UNL     1     113.278 116.153 130.415  1.00  0.00    -0.003 C 
ATOM      4  C   UNL     1     112.383 117.165 131.124  1.00  0.00     0.004 C 
ENDBRANCH   2   3
ENDBRANCH   1   2
BRANCH   1   5
ATOM      5  C   UNL     1     111.597 117.826 127.574  1.00  0.00     0.036 C 
BRANCH   5   6
ATOM      6  C   UNL     1     112.113 119.162 128.152  1.00  0.00     0.136 C 
BRANCH   6   7
ATOM      7  C   UNL     1     113.222 119.743 127.306  1.00  0.00    -0.004 C 
ATOM      8  C   UNL     1     113.841 120.874 127.655  1.00  0.00     0.007 C 
ENDBRANCH   6   7
BRANCH   6   9
ATOM      9  O   UNL     1     111.046 120.074 128.195  1.00  0.00    -0.389 OA
ATOM     10  H   UNL     1     110.386 119.784 127.512  1.00  0.00     0.211 HD
ENDBRANCH   6   9
ENDBRANCH   5   6
ENDBRANCH   1   5
TORSDOF 6
ENDMDL
