MODEL 1
REMARK VINA RESULT:    -5.889      0.000      0.000
REMARK INTER + INTRA:          -7.061
REMARK INTER:                  -6.921
REMARK INTRA:                  -0.140
REMARK UNBOUND:                -0.140
REMARK SMILES O=C([O-])C=Cc1ccc(O)c(O)c1
REMARK SMILES IDX 6 1 13 2 7 3 11 4 8 5 9 6 5 7 4 8 2 9 1 10 3 11 12 12 10 14
REMARK H PARENT 12 13 10 15
REMARK Flexibility Score: inf
ROOT
ATOM      1  C   UNL     1       9.916 -13.618 -22.155  1.00  0.00    -0.022 A 
ATOM      2  C   UNL     1      10.090 -15.016 -22.171  1.00  0.00     0.058 A 
ATOM      3  C   UNL     1      10.121 -12.925 -20.955  1.00  0.00     0.012 A 
ATOM      4  C   UNL     1      10.487 -15.705 -21.016  1.00  0.00     0.157 A 
ATOM      5  C   UNL     1      10.519 -13.603 -19.801  1.00  0.00     0.051 A 
ATOM      6  C   UNL     1      10.709 -14.989 -19.818  1.00  0.00     0.157 A 
ENDROOT
BRANCH   1   7
ATOM      7  C   UNL     1       9.486 -12.853 -23.353  1.00  0.00     0.010 C 
ATOM      8  C   UNL     1      10.118 -11.761 -23.805  1.00  0.00     0.025 C 
BRANCH   8   9
ATOM      9  C   UNL     1       9.656 -11.020 -24.991  1.00  0.00     0.064 C 
ATOM     10  O   UNL     1      10.135  -9.891 -25.282  1.00  0.00    -0.545 OA
ATOM     11  O   UNL     1       8.674 -11.573 -25.801  1.00  0.00    -0.545 OA
ENDBRANCH   8   9
ENDBRANCH   1   7
BRANCH   4  12
ATOM     12  O   UNL     1      10.639 -17.090 -21.106  1.00  0.00    -0.504 OA
ATOM     13  H   UNL     1      11.496 -17.547 -21.381  1.00  0.00     0.293 HD
ENDBRANCH   4  12
BRANCH   6  14
ATOM     14  O   UNL     1      11.114 -15.606 -18.632  1.00  0.00    -0.504 OA
ATOM     15  H   UNL     1      10.483 -15.862 -17.886  1.00  0.00     0.293 HD
ENDBRANCH   6  14
TORSDOF 4
ENDMDL
MODEL 2
REMARK VINA RESULT:    -5.675      0.902      2.135
REMARK INTER + INTRA:          -6.810
REMARK INTER:                  -6.685
REMARK INTRA:                  -0.125
REMARK UNBOUND:                -0.140
REMARK SMILES O=C([O-])C=Cc1ccc(O)c(O)c1
REMARK SMILES IDX 6 1 13 2 7 3 11 4 8 5 9 6 5 7 4 8 2 9 1 10 3 11 12 12 10 14
REMARK H PARENT 12 13 10 15
REMARK Flexibility Score: inf
ROOT
ATOM      1  C   UNL     1       9.790 -13.763 -22.281  1.00  0.00    -0.022 A 
ATOM      2  C   UNL     1      10.188 -12.971 -21.187  1.00  0.00     0.058 A 
ATOM      3  C   UNL     1       9.839 -15.158 -22.159  1.00  0.00     0.012 A 
ATOM      4  C   UNL     1      10.602 -13.560 -19.984  1.00  0.00     0.157 A 
ATOM      5  C   UNL     1      10.248 -15.753 -20.964  1.00  0.00     0.051 A 
ATOM      6  C   UNL     1      10.627 -14.968 -19.870  1.00  0.00     0.157 A 
ENDROOT
BRANCH   1   7
ATOM      7  C   UNL     1       9.356 -13.178 -23.575  1.00  0.00     0.010 C 
ATOM      8  C   UNL     1       9.651 -11.930 -23.964  1.00  0.00     0.025 C 
BRANCH   8   9
ATOM      9  C   UNL     1       9.194 -11.379 -25.251  1.00  0.00     0.064 C 
ATOM     10  O   UNL     1       8.159 -11.821 -25.819  1.00  0.00    -0.545 OA
ATOM     11  O   UNL     1       9.915 -10.355 -25.849  1.00  0.00    -0.545 OA
ENDBRANCH   8   9
ENDBRANCH   1   7
BRANCH   4  12
ATOM     12  O   UNL     1      10.983 -12.713 -18.942  1.00  0.00    -0.504 OA
ATOM     13  H   UNL     1      10.382 -12.462 -18.170  1.00  0.00     0.293 HD
ENDBRANCH   4  12
BRANCH   6  14
ATOM     14  O   UNL     1      11.019 -15.626 -18.701  1.00  0.00    -0.504 OA
ATOM     15  H   UNL     1      10.574 -16.459 -18.346  1.00  0.00     0.293 HD
ENDBRANCH   6  14
TORSDOF 4
ENDMDL
MODEL 3
REMARK VINA RESULT:    -5.367      3.008      5.507
REMARK INTER + INTRA:          -6.448
REMARK INTER:                  -6.295
REMARK INTRA:                  -0.153
REMARK UNBOUND:                -0.140
REMARK SMILES O=C([O-])C=Cc1ccc(O)c(O)c1
REMARK SMILES IDX 6 1 13 2 7 3 11 4 8 5 9 6 5 7 4 8 2 9 1 10 3 11 12 12 10 14
REMARK H PARENT 12 13 10 15
REMARK Flexibility Score: inf
ROOT
ATOM      1  C   UNL     1      10.716 -15.726 -22.887  1.00  0.00    -0.022 A 
ATOM      2  C   UNL     1      11.092 -14.425 -23.272  1.00  0.00     0.058 A 
ATOM      3  C   UNL     1      10.042 -15.903 -21.671  1.00  0.00     0.012 A 
ATOM      4  C   UNL     1      10.777 -13.318 -22.472  1.00  0.00     0.157 A 
ATOM      5  C   UNL     1       9.722 -14.806 -20.869  1.00  0.00     0.051 A 
ATOM      6  C   UNL     1      10.079 -13.510 -21.258  1.00  0.00     0.157 A 
ENDROOT
BRANCH   1   7
ATOM      7  C   UNL     1      11.040 -16.925 -23.700  1.00  0.00     0.010 C 
ATOM      8  C   UNL     1      10.901 -18.183 -23.260  1.00  0.00     0.025 C 
BRANCH   8   9
ATOM      9  C   UNL     1      11.244 -19.350 -24.091  1.00  0.00     0.064 C 
ATOM     10  O   UNL     1      11.253 -20.514 -23.609  1.00  0.00    -0.545 OA
ATOM     11  O   UNL     1      11.564 -19.163 -25.429  1.00  0.00    -0.545 OA
ENDBRANCH   8   9
ENDBRANCH   1   7
BRANCH   4  12
ATOM     12  O   UNL     1      11.181 -12.058 -22.917  1.00  0.00    -0.504 OA
ATOM     13  H   UNL     1      10.629 -11.469 -23.524  1.00  0.00     0.293 HD
ENDBRANCH   4  12
BRANCH   6  14
ATOM     14  O   UNL     1       9.724 -12.455 -20.414  1.00  0.00    -0.504 OA
ATOM     15  H   UNL     1       9.214 -11.638 -20.716  1.00  0.00     0.293 HD
ENDBRANCH   6  14
TORSDOF 4
ENDMDL
MODEL 4
REMARK VINA RESULT:    -5.325      1.178      2.159
REMARK INTER + INTRA:          -6.399
REMARK INTER:                  -6.260
REMARK INTRA:                  -0.138
REMARK UNBOUND:                -0.140
REMARK SMILES O=C([O-])C=Cc1ccc(O)c(O)c1
REMARK SMILES IDX 6 1 13 2 7 3 11 4 8 5 9 6 5 7 4 8 2 9 1 10 3 11 12 12 10 14
REMARK H PARENT 12 13 10 15
REMARK Flexibility Score: inf
ROOT
ATOM      1  C   UNL     1      10.392 -13.615 -22.657  1.00  0.00    -0.022 A 
ATOM      2  C   UNL     1      10.028 -13.932 -21.334  1.00  0.00     0.058 A 
ATOM      3  C   UNL     1      10.787 -14.649 -23.517  1.00  0.00     0.012 A 
ATOM      4  C   UNL     1      10.034 -15.260 -20.885  1.00  0.00     0.157 A 
ATOM      5  C   UNL     1      10.793 -15.974 -23.078  1.00  0.00     0.051 A 
ATOM      6  C   UNL     1      10.416 -16.294 -21.770  1.00  0.00     0.157 A 
ENDROOT
BRANCH   1   7
ATOM      7  C   UNL     1      10.409 -12.221 -23.168  1.00  0.00     0.010 C 
ATOM      8  C   UNL     1       9.772 -11.827 -24.279  1.00  0.00     0.025 C 
BRANCH   8   9
ATOM      9  C   UNL     1       9.821 -10.437 -24.763  1.00  0.00     0.064 C 
ATOM     10  O   UNL     1       9.761  -9.465 -23.962  1.00  0.00    -0.545 OA
ATOM     11  O   UNL     1       9.935 -10.192 -26.124  1.00  0.00    -0.545 OA
ENDBRANCH   8   9
ENDBRANCH   1   7
BRANCH   4  12
ATOM     12  O   UNL     1       9.663 -15.501 -19.561  1.00  0.00    -0.504 OA
ATOM     13  H   UNL     1      10.130 -15.099 -18.761  1.00  0.00     0.293 HD
ENDBRANCH   4  12
BRANCH   6  14
ATOM     14  O   UNL     1      10.438 -17.640 -21.396  1.00  0.00    -0.504 OA
ATOM     15  H   UNL     1      10.619 -18.400 -22.036  1.00  0.00     0.293 HD
ENDBRANCH   6  14
TORSDOF 4
ENDMDL
MODEL 5
REMARK VINA RESULT:    -5.282      2.872      5.343
REMARK INTER + INTRA:          -6.349
REMARK INTER:                  -6.225
REMARK INTRA:                  -0.124
REMARK UNBOUND:                -0.140
REMARK SMILES O=C([O-])C=Cc1ccc(O)c(O)c1
REMARK SMILES IDX 6 1 13 2 7 3 11 4 8 5 9 6 5 7 4 8 2 9 1 10 3 11 12 12 10 14
REMARK H PARENT 12 13 10 15
REMARK Flexibility Score: inf
ROOT
ATOM      1  C   UNL     1      10.863 -15.876 -22.681  1.00  0.00    -0.022 A 
ATOM      2  C   UNL     1      10.901 -15.962 -21.276  1.00  0.00     0.058 A 
ATOM      3  C   UNL     1      10.441 -14.678 -23.274  1.00  0.00     0.012 A 
ATOM      4  C   UNL     1      10.550 -14.864 -20.477  1.00  0.00     0.157 A 
ATOM      5  C   UNL     1      10.092 -13.579 -22.486  1.00  0.00     0.051 A 
ATOM      6  C   UNL     1      10.146 -13.656 -21.090  1.00  0.00     0.157 A 
ENDROOT
BRANCH   1   7
ATOM      7  C   UNL     1      11.215 -17.018 -23.561  1.00  0.00     0.010 C 
ATOM      8  C   UNL     1      10.843 -18.284 -23.323  1.00  0.00     0.025 C 
BRANCH   8   9
ATOM      9  C   UNL     1      11.221 -19.395 -24.213  1.00  0.00     0.064 C 
ATOM     10  O   UNL     1      11.547 -19.187 -25.413  1.00  0.00    -0.545 OA
ATOM     11  O   UNL     1      11.218 -20.693 -23.722  1.00  0.00    -0.545 OA
ENDBRANCH   8   9
ENDBRANCH   1   7
BRANCH   4  12
ATOM     12  O   UNL     1      10.611 -15.022 -19.091  1.00  0.00    -0.504 OA
ATOM     13  H   UNL     1      10.174 -14.395 -18.432  1.00  0.00     0.293 HD
ENDBRANCH   4  12
BRANCH   6  14
ATOM     14  O   UNL     1       9.790 -12.520 -20.360  1.00  0.00    -0.504 OA
ATOM     15  H   UNL     1       9.499 -12.539 -19.394  1.00  0.00     0.293 HD
ENDBRANCH   6  14
TORSDOF 4
ENDMDL
MODEL 6
REMARK VINA RESULT:    -5.174      3.227      5.246
REMARK INTER + INTRA:          -6.222
REMARK INTER:                  -6.077
REMARK INTRA:                  -0.145
REMARK UNBOUND:                -0.140
REMARK SMILES O=C([O-])C=Cc1ccc(O)c(O)c1
REMARK SMILES IDX 6 1 13 2 7 3 11 4 8 5 9 6 5 7 4 8 2 9 1 10 3 11 12 12 10 14
REMARK H PARENT 12 13 10 15
REMARK Flexibility Score: inf
ROOT
ATOM      1  C   UNL     1      10.674 -16.610 -22.850  1.00  0.00    -0.022 A 
ATOM      2  C   UNL     1      10.869 -17.997 -22.703  1.00  0.00     0.058 A 
ATOM      3  C   UNL     1      10.860 -16.031 -24.112  1.00  0.00     0.012 A 
ATOM      4  C   UNL     1      11.219 -18.795 -23.801  1.00  0.00     0.157 A 
ATOM      5  C   UNL     1      11.205 -16.819 -25.212  1.00  0.00     0.051 A 
ATOM      6  C   UNL     1      11.383 -18.200 -25.073  1.00  0.00     0.157 A 
ENDROOT
BRANCH   1   7
ATOM      7  C   UNL     1      10.315 -15.729 -21.710  1.00  0.00     0.010 C 
ATOM      8  C   UNL     1      10.764 -14.474 -21.570  1.00  0.00     0.025 C 
BRANCH   8   9
ATOM      9  C   UNL     1      10.396 -13.632 -20.419  1.00  0.00     0.064 C 
ATOM     10  O   UNL     1       9.829 -12.518 -20.581  1.00  0.00    -0.545 OA
ATOM     11  O   UNL     1      10.680 -14.072 -19.133  1.00  0.00    -0.545 OA
ENDBRANCH   8   9
ENDBRANCH   1   7
BRANCH   4  12
ATOM     12  O   UNL     1      11.396 -20.163 -23.582  1.00  0.00    -0.504 OA
ATOM     13  H   UNL     1      11.567 -20.835 -24.315  1.00  0.00     0.293 HD
ENDBRANCH   4  12
BRANCH   6  14
ATOM     14  O   UNL     1      11.721 -18.932 -26.213  1.00  0.00    -0.504 OA
ATOM     15  H   UNL     1      12.516 -19.552 -26.269  1.00  0.00     0.293 HD
ENDBRANCH   6  14
TORSDOF 4
ENDMDL
MODEL 7
REMARK VINA RESULT:    -5.157      2.699      5.686
REMARK INTER + INTRA:          -6.202
REMARK INTER:                  -6.066
REMARK INTRA:                  -0.136
REMARK UNBOUND:                -0.140
REMARK SMILES O=C([O-])C=Cc1ccc(O)c(O)c1
REMARK SMILES IDX 6 1 13 2 7 3 11 4 8 5 9 6 5 7 4 8 2 9 1 10 3 11 12 12 10 14
REMARK H PARENT 12 13 10 15
REMARK Flexibility Score: inf
ROOT
ATOM      1  C   UNL     1      10.441 -14.603 -23.635  1.00  0.00    -0.022 A 
ATOM      2  C   UNL     1      11.102 -13.590 -22.914  1.00  0.00     0.058 A 
ATOM      3  C   UNL     1       9.320 -14.263 -24.405  1.00  0.00     0.012 A 
ATOM      4  C   UNL     1      10.669 -12.258 -22.981  1.00  0.00     0.157 A 
ATOM      5  C   UNL     1       8.883 -12.939 -24.479  1.00  0.00     0.051 A 
ATOM      6  C   UNL     1       9.549 -11.928 -23.778  1.00  0.00     0.157 A 
ENDROOT
BRANCH   1   7
ATOM      7  C   UNL     1      10.861 -16.026 -23.582  1.00  0.00     0.010 C 
ATOM      8  C   UNL     1      11.272 -16.721 -24.652  1.00  0.00     0.025 C 
BRANCH   8   9
ATOM      9  C   UNL     1      11.671 -18.136 -24.564  1.00  0.00     0.064 C 
ATOM     10  O   UNL     1      12.066 -18.636 -23.476  1.00  0.00    -0.545 OA
ATOM     11  O   UNL     1      11.613 -18.933 -25.699  1.00  0.00    -0.545 OA
ENDBRANCH   8   9
ENDBRANCH   1   7
BRANCH   4  12
ATOM     12  O   UNL     1      11.372 -11.307 -22.239  1.00  0.00    -0.504 OA
ATOM     13  H   UNL     1      11.491 -11.347 -21.237  1.00  0.00     0.293 HD
ENDBRANCH   4  12
BRANCH   6  14
ATOM     14  O   UNL     1       9.065 -10.623 -23.899  1.00  0.00    -0.504 OA
ATOM     15  H   UNL     1       8.325 -10.353 -24.531  1.00  0.00     0.293 HD
ENDBRANCH   6  14
TORSDOF 4
ENDMDL
MODEL 8
REMARK VINA RESULT:    -5.090      1.253      6.135
REMARK INTER + INTRA:          -6.123
REMARK INTER:                  -5.998
REMARK INTRA:                  -0.125
REMARK UNBOUND:                -0.140
REMARK SMILES O=C([O-])C=Cc1ccc(O)c(O)c1
REMARK SMILES IDX 6 1 13 2 7 3 11 4 8 5 9 6 5 7 4 8 2 9 1 10 3 11 12 12 10 14
REMARK H PARENT 12 13 10 15
REMARK Flexibility Score: inf
ROOT
ATOM      1  C   UNL     1       9.291 -12.784 -23.504  1.00  0.00    -0.022 A 
ATOM      2  C   UNL     1       9.945 -11.544 -23.644  1.00  0.00     0.058 A 
ATOM      3  C   UNL     1       8.415 -13.204 -24.514  1.00  0.00     0.012 A 
ATOM      4  C   UNL     1       9.747 -10.750 -24.782  1.00  0.00     0.157 A 
ATOM      5  C   UNL     1       8.215 -12.421 -25.653  1.00  0.00     0.051 A 
ATOM      6  C   UNL     1       8.876 -11.197 -25.802  1.00  0.00     0.157 A 
ENDROOT
BRANCH   1   7
ATOM      7  C   UNL     1       9.464 -13.648 -22.310  1.00  0.00     0.010 C 
ATOM      8  C   UNL     1       9.998 -13.225 -21.155  1.00  0.00     0.025 C 
BRANCH   8   9
ATOM      9  C   UNL     1      10.165 -14.114 -19.993  1.00  0.00     0.064 C 
ATOM     10  O   UNL     1      10.884 -13.779 -19.014  1.00  0.00    -0.545 OA
ATOM     11  O   UNL     1       9.521 -15.344 -19.977  1.00  0.00    -0.545 OA
ENDBRANCH   8   9
ENDBRANCH   1   7
BRANCH   4  12
ATOM     12  O   UNL     1      10.427  -9.533 -24.853  1.00  0.00    -0.504 OA
ATOM     13  H   UNL     1      11.427  -9.451 -24.972  1.00  0.00     0.293 HD
ENDBRANCH   4  12
BRANCH   6  14
ATOM     14  O   UNL     1       8.637 -10.465 -26.967  1.00  0.00    -0.504 OA
ATOM     15  H   UNL     1       9.331 -10.298 -27.681  1.00  0.00     0.293 HD
ENDBRANCH   6  14
TORSDOF 4
ENDMDL
MODEL 9
REMARK VINA RESULT:    -5.077      3.361      5.336
REMARK INTER + INTRA:          -6.107
REMARK INTER:                  -5.959
REMARK INTRA:                  -0.148
REMARK UNBOUND:                -0.140
REMARK SMILES O=C([O-])C=Cc1ccc(O)c(O)c1
REMARK SMILES IDX 6 1 13 2 7 3 11 4 8 5 9 6 5 7 4 8 2 9 1 10 3 11 12 12 10 14
REMARK H PARENT 12 13 10 15
REMARK Flexibility Score: inf
ROOT
ATOM      1  C   UNL     1      11.057 -15.989 -23.261  1.00  0.00    -0.022 A 
ATOM      2  C   UNL     1      10.904 -15.888 -24.658  1.00  0.00     0.058 A 
ATOM      3  C   UNL     1      11.310 -17.247 -22.698  1.00  0.00     0.012 A 
ATOM      4  C   UNL     1      11.028 -17.017 -25.479  1.00  0.00     0.157 A 
ATOM      5  C   UNL     1      11.437 -18.376 -23.510  1.00  0.00     0.051 A 
ATOM      6  C   UNL     1      11.304 -18.275 -24.898  1.00  0.00     0.157 A 
ENDROOT
BRANCH   1   7
ATOM      7  C   UNL     1      10.922 -14.820 -22.356  1.00  0.00     0.010 C 
ATOM      8  C   UNL     1      10.517 -14.908 -21.081  1.00  0.00     0.025 C 
BRANCH   8   9
ATOM      9  C   UNL     1      10.384 -13.725 -20.215  1.00  0.00     0.064 C 
ATOM     10  O   UNL     1      10.747 -13.756 -19.008  1.00  0.00    -0.545 OA
ATOM     11  O   UNL     1       9.848 -12.555 -20.736  1.00  0.00    -0.545 OA
ENDBRANCH   8   9
ENDBRANCH   1   7
BRANCH   4  12
ATOM     12  O   UNL     1      10.864 -16.841 -26.855  1.00  0.00    -0.504 OA
ATOM     13  H   UNL     1      10.243 -17.397 -27.425  1.00  0.00     0.293 HD
ENDBRANCH   4  12
BRANCH   6  14
ATOM     14  O   UNL     1      11.449 -19.442 -25.654  1.00  0.00    -0.504 OA
ATOM     15  H   UNL     1      12.341 -19.841 -25.908  1.00  0.00     0.293 HD
ENDBRANCH   6  14
TORSDOF 4
ENDMDL
