MODEL 1
REMARK VINA RESULT:    -2.898      0.000      0.000
REMARK INTER + INTRA:          -3.371
REMARK INTER:                  -3.321
REMARK INTRA:                  -0.050
REMARK UNBOUND:                -0.050
REMARK SMILES CC(C)[C@H]([NH3+])C(=O)[O-]
REMARK SMILES IDX 4 1 5 2 6 6 7 7 8 8 2 9 1 10 3 11
REMARK H PARENT 5 3 5 4 5 5
REMARK Flexibility Score: inf
ROOT
ATOM      1  C   UNL     1     118.364 130.993 143.489  1.00  0.00     0.230 C 
ENDROOT
BRANCH   1   2
ATOM      2  N   UNL     1     119.081 131.240 142.228  1.00  0.00    -0.350 N 
ATOM      3  H   UNL     1     120.046 130.845 142.273  1.00  0.00     0.345 HD
ATOM      4  H   UNL     1     118.582 130.761 141.444  1.00  0.00     0.345 HD
ATOM      5  H   UNL     1     119.134 132.261 142.011  1.00  0.00     0.345 HD
ENDBRANCH   1   2
BRANCH   1   6
ATOM      6  C   UNL     1     118.818 129.696 144.115  1.00  0.00     0.099 C 
ATOM      7  O   UNL     1     119.903 129.170 143.752  1.00  0.00    -0.544 OA
ATOM      8  O   UNL     1     118.073 129.095 145.124  1.00  0.00    -0.544 OA
ENDBRANCH   1   6
BRANCH   1   9
ATOM      9  C   UNL     1     116.814 131.016 143.324  1.00  0.00     0.047 C 
ATOM     10  C   UNL     1     116.166 132.122 144.171  1.00  0.00     0.014 C 
ATOM     11  C   UNL     1     116.352 131.130 141.861  1.00  0.00     0.014 C 
ENDBRANCH   1   9
TORSDOF 3
ENDMDL
MODEL 2
REMARK VINA RESULT:    -2.885      1.649      2.360
REMARK INTER + INTRA:          -3.356
REMARK INTER:                  -3.314
REMARK INTRA:                  -0.042
REMARK UNBOUND:                -0.050
REMARK SMILES CC(C)[C@H]([NH3+])C(=O)[O-]
REMARK SMILES IDX 4 1 5 2 6 6 7 7 8 8 2 9 1 10 3 11
REMARK H PARENT 5 3 5 4 5 5
REMARK Flexibility Score: inf
ROOT
ATOM      1  C   UNL     1     118.028 130.391 143.611  1.00  0.00     0.230 C 
ENDROOT
BRANCH   1   2
ATOM      2  N   UNL     1     117.870 130.251 145.068  1.00  0.00    -0.350 N 
ATOM      3  H   UNL     1     118.024 129.261 145.358  1.00  0.00     0.345 HD
ATOM      4  H   UNL     1     118.588 130.836 145.553  1.00  0.00     0.345 HD
ATOM      5  H   UNL     1     116.923 130.562 145.382  1.00  0.00     0.345 HD
ENDBRANCH   1   2
BRANCH   1   6
ATOM      6  C   UNL     1     119.475 130.626 143.251  1.00  0.00     0.099 C 
ATOM      7  O   UNL     1     120.387 130.109 143.950  1.00  0.00    -0.544 OA
ATOM      8  O   UNL     1     119.817 131.371 142.128  1.00  0.00    -0.544 OA
ENDBRANCH   1   6
BRANCH   1   9
ATOM      9  C   UNL     1     117.119 131.502 143.003  1.00  0.00     0.047 C 
ATOM     10  C   UNL     1     116.349 131.000 141.771  1.00  0.00     0.014 C 
ATOM     11  C   UNL     1     116.145 132.125 144.018  1.00  0.00     0.014 C 
ENDBRANCH   1   9
TORSDOF 3
ENDMDL
MODEL 3
REMARK VINA RESULT:    -2.865     21.110     21.802
REMARK INTER + INTRA:          -3.334
REMARK INTER:                  -3.299
REMARK INTRA:                  -0.035
REMARK UNBOUND:                -0.050
REMARK SMILES CC(C)[C@H]([NH3+])C(=O)[O-]
REMARK SMILES IDX 4 1 5 2 6 6 7 7 8 8 2 9 1 10 3 11
REMARK H PARENT 5 3 5 4 5 5
REMARK Flexibility Score: inf
ROOT
ATOM      1  C   UNL     1     131.480 113.870 138.791  1.00  0.00     0.230 C 
ENDROOT
BRANCH   1   2
ATOM      2  N   UNL     1     132.075 115.067 138.175  1.00  0.00    -0.350 N 
ATOM      3  H   UNL     1     131.698 115.207 137.212  1.00  0.00     0.345 HD
ATOM      4  H   UNL     1     131.820 115.911 138.738  1.00  0.00     0.345 HD
ATOM      5  H   UNL     1     133.117 114.999 138.135  1.00  0.00     0.345 HD
ENDBRANCH   1   2
BRANCH   1   6
ATOM      6  C   UNL     1     130.225 113.461 138.059  1.00  0.00     0.099 C 
ATOM      7  O   UNL     1     130.215 113.428 136.800  1.00  0.00    -0.544 OA
ATOM      8  O   UNL     1     129.087 113.074 138.759  1.00  0.00    -0.544 OA
ENDBRANCH   1   6
BRANCH   1   9
ATOM      9  C   UNL     1     131.202 114.042 140.315  1.00  0.00     0.047 C 
ATOM     10  C   UNL     1     131.616 112.798 141.116  1.00  0.00     0.014 C 
ATOM     11  C   UNL     1     131.846 115.301 140.920  1.00  0.00     0.014 C 
ENDBRANCH   1   9
TORSDOF 3
ENDMDL
MODEL 4
REMARK VINA RESULT:    -2.848      1.896      3.262
REMARK INTER + INTRA:          -3.314
REMARK INTER:                  -3.373
REMARK INTRA:                   0.058
REMARK UNBOUND:                -0.050
REMARK SMILES CC(C)[C@H]([NH3+])C(=O)[O-]
REMARK SMILES IDX 4 1 5 2 6 6 7 7 8 8 2 9 1 10 3 11
REMARK H PARENT 5 3 5 4 5 5
REMARK Flexibility Score: inf
ROOT
ATOM      1  C   UNL     1     118.344 130.655 143.151  1.00  0.00     0.230 C 
ENDROOT
BRANCH   1   2
ATOM      2  N   UNL     1     119.001 131.518 142.157  1.00  0.00    -0.350 N 
ATOM      3  H   UNL     1     119.696 132.144 142.620  1.00  0.00     0.345 HD
ATOM      4  H   UNL     1     119.520 130.925 141.470  1.00  0.00     0.345 HD
ATOM      5  H   UNL     1     118.305 132.098 141.634  1.00  0.00     0.345 HD
ENDBRANCH   1   2
BRANCH   1   6
ATOM      6  C   UNL     1     117.142 131.347 143.748  1.00  0.00     0.099 C 
ATOM      7  O   UNL     1     116.451 132.125 143.039  1.00  0.00    -0.544 OA
ATOM      8  O   UNL     1     116.759 131.100 145.061  1.00  0.00    -0.544 OA
ENDBRANCH   1   6
BRANCH   1   9
ATOM      9  C   UNL     1     119.314 130.166 144.270  1.00  0.00     0.047 C 
ATOM     10  C   UNL     1     118.988 128.735 144.724  1.00  0.00     0.014 C 
ATOM     11  C   UNL     1     120.800 130.276 143.888  1.00  0.00     0.014 C 
ENDBRANCH   1   9
TORSDOF 3
ENDMDL
MODEL 5
REMARK VINA RESULT:    -2.736      1.533      1.694
REMARK INTER + INTRA:          -3.185
REMARK INTER:                  -3.127
REMARK INTRA:                  -0.058
REMARK UNBOUND:                -0.050
REMARK SMILES CC(C)[C@H]([NH3+])C(=O)[O-]
REMARK SMILES IDX 4 1 5 2 6 6 7 7 8 8 2 9 1 10 3 11
REMARK H PARENT 5 3 5 4 5 5
REMARK Flexibility Score: inf
ROOT
ATOM      1  C   UNL     1     116.791 131.481 143.453  1.00  0.00     0.230 C 
ENDROOT
BRANCH   1   2
ATOM      2  N   UNL     1     116.873 131.532 141.984  1.00  0.00    -0.350 N 
ATOM      3  H   UNL     1     117.738 132.032 141.684  1.00  0.00     0.345 HD
ATOM      4  H   UNL     1     116.925 130.558 141.605  1.00  0.00     0.345 HD
ATOM      5  H   UNL     1     116.038 132.004 141.570  1.00  0.00     0.345 HD
ENDBRANCH   1   2
BRANCH   1   6
ATOM      6  C   UNL     1     117.872 130.592 144.017  1.00  0.00     0.099 C 
ATOM      7  O   UNL     1     119.033 130.629 143.530  1.00  0.00    -0.544 OA
ATOM      8  O   UNL     1     117.615 129.763 145.104  1.00  0.00    -0.544 OA
ENDBRANCH   1   6
BRANCH   1   9
ATOM      9  C   UNL     1     115.387 131.044 143.970  1.00  0.00     0.047 C 
ATOM     10  C   UNL     1     114.740 132.125 144.850  1.00  0.00     0.014 C 
ATOM     11  C   UNL     1     114.420 130.625 142.850  1.00  0.00     0.014 C 
ENDBRANCH   1   9
TORSDOF 3
ENDMDL
MODEL 6
REMARK VINA RESULT:    -2.707      2.497      3.551
REMARK INTER + INTRA:          -3.152
REMARK INTER:                  -3.187
REMARK INTRA:                   0.034
REMARK UNBOUND:                -0.050
REMARK SMILES CC(C)[C@H]([NH3+])C(=O)[O-]
REMARK SMILES IDX 4 1 5 2 6 6 7 7 8 8 2 9 1 10 3 11
REMARK H PARENT 5 3 5 4 5 5
REMARK Flexibility Score: inf
ROOT
ATOM      1  C   UNL     1     117.904 130.839 144.198  1.00  0.00     0.230 C 
ENDROOT
BRANCH   1   2
ATOM      2  N   UNL     1     116.781 130.476 145.077  1.00  0.00    -0.350 N 
ATOM      3  H   UNL     1     116.280 131.333 145.400  1.00  0.00     0.345 HD
ATOM      4  H   UNL     1     116.096 129.893 144.544  1.00  0.00     0.345 HD
ATOM      5  H   UNL     1     117.106 129.930 145.907  1.00  0.00     0.345 HD
ENDBRANCH   1   2
BRANCH   1   6
ATOM      6  C   UNL     1     117.399 131.331 142.863  1.00  0.00     0.099 C 
ATOM      7  O   UNL     1     118.169 131.971 142.099  1.00  0.00    -0.544 OA
ATOM      8  O   UNL     1     116.104 131.048 142.444  1.00  0.00    -0.544 OA
ENDBRANCH   1   6
BRANCH   1   9
ATOM      9  C   UNL     1     118.929 129.679 144.009  1.00  0.00     0.047 C 
ATOM     10  C   UNL     1     120.364 130.205 143.848  1.00  0.00     0.014 C 
ATOM     11  C   UNL     1     118.875 128.621 145.124  1.00  0.00     0.014 C 
ENDBRANCH   1   9
TORSDOF 3
ENDMDL
MODEL 7
REMARK VINA RESULT:    -2.594      2.818      3.459
REMARK INTER + INTRA:          -3.022
REMARK INTER:                  -2.985
REMARK INTRA:                  -0.037
REMARK UNBOUND:                -0.050
REMARK SMILES CC(C)[C@H]([NH3+])C(=O)[O-]
REMARK SMILES IDX 4 1 5 2 6 6 7 7 8 8 2 9 1 10 3 11
REMARK H PARENT 5 3 5 4 5 5
REMARK Flexibility Score: inf
ROOT
ATOM      1  C   UNL     1     116.458 131.383 144.264  1.00  0.00     0.230 C 
ENDROOT
BRANCH   1   2
ATOM      2  N   UNL     1     117.274 130.255 144.741  1.00  0.00    -0.350 N 
ATOM      3  H   UNL     1     116.905 129.354 144.364  1.00  0.00     0.345 HD
ATOM      4  H   UNL     1     118.254 130.364 144.395  1.00  0.00     0.345 HD
ATOM      5  H   UNL     1     117.294 130.212 145.785  1.00  0.00     0.345 HD
ENDBRANCH   1   2
BRANCH   1   6
ATOM      6  C   UNL     1     114.989 131.102 144.462  1.00  0.00     0.099 C 
ATOM      7  O   UNL     1     114.607 129.936 144.748  1.00  0.00    -0.544 OA
ATOM      8  O   UNL     1     114.051 132.125 144.379  1.00  0.00    -0.544 OA
ENDBRANCH   1   6
BRANCH   1   9
ATOM      9  C   UNL     1     116.754 131.766 142.782  1.00  0.00     0.047 C 
ATOM     10  C   UNL     1     118.260 131.745 142.475  1.00  0.00     0.014 C 
ATOM     11  C   UNL     1     115.994 130.905 141.759  1.00  0.00     0.014 C 
ENDBRANCH   1   9
TORSDOF 3
ENDMDL
MODEL 8
REMARK VINA RESULT:    -2.577      2.678      3.252
REMARK INTER + INTRA:          -3.004
REMARK INTER:                  -2.940
REMARK INTRA:                  -0.063
REMARK UNBOUND:                -0.050
REMARK SMILES CC(C)[C@H]([NH3+])C(=O)[O-]
REMARK SMILES IDX 4 1 5 2 6 6 7 7 8 8 2 9 1 10 3 11
REMARK H PARENT 5 3 5 4 5 5
REMARK Flexibility Score: inf
ROOT
ATOM      1  C   UNL     1     116.223 130.827 143.748  1.00  0.00     0.230 C 
ENDROOT
BRANCH   1   2
ATOM      2  N   UNL     1     116.710 131.005 145.125  1.00  0.00    -0.350 N 
ATOM      3  H   UNL     1     117.067 131.976 145.263  1.00  0.00     0.345 HD
ATOM      4  H   UNL     1     115.919 130.863 145.794  1.00  0.00     0.345 HD
ATOM      5  H   UNL     1     117.465 130.321 145.355  1.00  0.00     0.345 HD
ENDBRANCH   1   2
BRANCH   1   6
ATOM      6  C   UNL     1     117.231 131.350 142.753  1.00  0.00     0.099 C 
ATOM      7  O   UNL     1     116.860 132.124 141.832  1.00  0.00    -0.544 OA
ATOM      8  O   UNL     1     118.578 131.023 142.868  1.00  0.00    -0.544 OA
ENDBRANCH   1   6
BRANCH   1   9
ATOM      9  C   UNL     1     114.823 131.470 143.508  1.00  0.00     0.047 C 
ATOM     10  C   UNL     1     113.833 130.471 142.888  1.00  0.00     0.014 C 
ATOM     11  C   UNL     1     114.213 132.107 144.768  1.00  0.00     0.014 C 
ENDBRANCH   1   9
TORSDOF 3
ENDMDL
MODEL 9
REMARK VINA RESULT:    -2.525      4.168      4.917
REMARK INTER + INTRA:          -2.943
REMARK INTER:                  -2.919
REMARK INTRA:                  -0.025
REMARK UNBOUND:                -0.050
REMARK SMILES CC(C)[C@H]([NH3+])C(=O)[O-]
REMARK SMILES IDX 4 1 5 2 6 6 7 7 8 8 2 9 1 10 3 11
REMARK H PARENT 5 3 5 4 5 5
REMARK Flexibility Score: inf
ROOT
ATOM      1  C   UNL     1     114.125 130.575 143.255  1.00  0.00     0.230 C 
ENDROOT
BRANCH   1   2
ATOM      2  N   UNL     1     114.066 130.211 141.830  1.00  0.00    -0.350 N 
ATOM      3  H   UNL     1     113.214 129.640 141.635  1.00  0.00     0.345 HD
ATOM      4  H   UNL     1     114.002 131.080 141.252  1.00  0.00     0.345 HD
ATOM      5  H   UNL     1     114.916 129.680 141.536  1.00  0.00     0.345 HD
ENDBRANCH   1   2
BRANCH   1   6
ATOM      6  C   UNL     1     112.885 131.334 143.664  1.00  0.00     0.099 C 
ATOM      7  O   UNL     1     111.875 131.336 142.913  1.00  0.00    -0.544 OA
ATOM      8  O   UNL     1     112.827 131.995 144.886  1.00  0.00    -0.544 OA
ENDBRANCH   1   6
BRANCH   1   9
ATOM      9  C   UNL     1     115.411 131.373 143.628  1.00  0.00     0.047 C 
ATOM     10  C   UNL     1     116.076 130.825 144.900  1.00  0.00     0.014 C 
ATOM     11  C   UNL     1     116.439 131.453 142.486  1.00  0.00     0.014 C 
ENDBRANCH   1   9
TORSDOF 3
ENDMDL
