MODEL 1
REMARK VINA RESULT:    -4.613      0.000      0.000
REMARK INTER + INTRA:         -12.929
REMARK INTER:                 -10.008
REMARK INTRA:                  -2.922
REMARK UNBOUND:                -2.922
REMARK SMILES CCCCCCCCCCCCCCCCCCCCCC(=O)[O-]
REMARK SMILES IDX 12 1 11 2 10 3 9 4 8 5 7 6 6 7 5 8 4 9 3 10 2 11 1 12 13 13
REMARK SMILES IDX 14 14 15 15 16 16 17 17 18 18 19 19 20 20 21 21 22 22 23 23
REMARK SMILES IDX 24 24
REMARK H PARENT
REMARK Flexibility Score: inf
ROOT
ATOM      1  C   UNL     1       7.407   4.086  18.882  1.00  0.00     0.000 C 
ENDROOT
BRANCH   1   2
ATOM      2  C   UNL     1       7.623   5.610  18.763  1.00  0.00     0.000 C 
BRANCH   2   3
ATOM      3  C   UNL     1       6.339   6.346  18.341  1.00  0.00     0.000 C 
BRANCH   3   4
ATOM      4  C   UNL     1       6.306   6.646  16.827  1.00  0.00    -0.000 C 
BRANCH   4   5
ATOM      5  C   UNL     1       5.605   5.558  15.997  1.00  0.00    -0.000 C 
BRANCH   5   6
ATOM      6  C   UNL     1       6.594   4.612  15.297  1.00  0.00    -0.000 C 
BRANCH   6   7
ATOM      7  C   UNL     1       7.932   5.297  14.968  1.00  0.00    -0.000 C 
BRANCH   7   8
ATOM      8  C   UNL     1       9.133   4.591  15.615  1.00  0.00    -0.000 C 
BRANCH   8   9
ATOM      9  C   UNL     1      10.222   5.602  15.995  1.00  0.00    -0.000 C 
BRANCH   9  10
ATOM     10  C   UNL     1      10.226   6.794  15.030  1.00  0.00    -0.000 C 
BRANCH  10  11
ATOM     11  C   UNL     1      11.140   6.527  13.829  1.00  0.00    -0.003 C 
ATOM     12  C   UNL     1      10.369   6.619  12.517  1.00  0.00     0.004 C 
ENDBRANCH  10  11
ENDBRANCH   9  10
ENDBRANCH   8   9
ENDBRANCH   7   8
ENDBRANCH   6   7
ENDBRANCH   5   6
ENDBRANCH   4   5
ENDBRANCH   3   4
ENDBRANCH   2   3
ENDBRANCH   1   2
BRANCH   1  13
ATOM     13  C   UNL     1       5.976   3.694  19.289  1.00  0.00     0.000 C 
BRANCH  13  14
ATOM     14  C   UNL     1       5.941   2.590  20.354  1.00  0.00     0.000 C 
BRANCH  14  15
ATOM     15  C   UNL     1       4.965   2.946  21.485  1.00  0.00     0.000 C 
BRANCH  15  16
ATOM     16  C   UNL     1       4.499   4.411  21.431  1.00  0.00     0.000 C 
BRANCH  16  17
ATOM     17  C   UNL     1       5.069   5.321  22.538  1.00  0.00     0.000 C 
BRANCH  17  18
ATOM     18  C   UNL     1       6.288   6.168  22.130  1.00  0.00     0.000 C 
BRANCH  18  19
ATOM     19  C   UNL     1       5.906   7.591  21.688  1.00  0.00     0.000 C 
BRANCH  19  20
ATOM     20  C   UNL     1       7.125   8.423  21.249  1.00  0.00     0.006 C 
BRANCH  20  21
ATOM     21  C   UNL     1       7.219   9.806  21.915  1.00  0.00     0.053 C 
BRANCH  21  22
ATOM     22  C   UNL     1       6.349   9.901  23.130  1.00  0.00     0.041 C 
ATOM     23  O   UNL     1       6.709   9.368  24.212  1.00  0.00    -0.550 OA
ATOM     24  O   UNL     1       5.153  10.605  23.074  1.00  0.00    -0.550 OA
ENDBRANCH  21  22
ENDBRANCH  20  21
ENDBRANCH  19  20
ENDBRANCH  18  19
ENDBRANCH  17  18
ENDBRANCH  16  17
ENDBRANCH  15  16
ENDBRANCH  14  15
ENDBRANCH  13  14
ENDBRANCH   1  13
TORSDOF 20
ENDMDL
MODEL 2
REMARK VINA RESULT:    -4.611      2.344      3.945
REMARK INTER + INTRA:         -12.923
REMARK INTER:                  -9.358
REMARK INTRA:                  -3.566
REMARK UNBOUND:                -2.922
REMARK SMILES CCCCCCCCCCCCCCCCCCCCCC(=O)[O-]
REMARK SMILES IDX 12 1 11 2 10 3 9 4 8 5 7 6 6 7 5 8 4 9 3 10 2 11 1 12 13 13
REMARK SMILES IDX 14 14 15 15 16 16 17 17 18 18 19 19 20 20 21 21 22 22 23 23
REMARK SMILES IDX 24 24
REMARK H PARENT
REMARK Flexibility Score: inf
ROOT
ATOM      1  C   UNL     1       6.001   5.269  17.987  1.00  0.00     0.000 C 
ENDROOT
BRANCH   1   2
ATOM      2  C   UNL     1       6.014   5.907  16.582  1.00  0.00     0.000 C 
BRANCH   2   3
ATOM      3  C   UNL     1       7.160   5.367  15.709  1.00  0.00     0.000 C 
BRANCH   3   4
ATOM      4  C   UNL     1       8.399   6.287  15.734  1.00  0.00    -0.000 C 
BRANCH   4   5
ATOM      5  C   UNL     1       9.701   5.561  16.115  1.00  0.00    -0.000 C 
BRANCH   5   6
ATOM      6  C   UNL     1      10.881   5.936  15.204  1.00  0.00    -0.000 C 
BRANCH   6   7
ATOM      7  C   UNL     1      10.507   7.007  14.166  1.00  0.00    -0.000 C 
BRANCH   7   8
ATOM      8  C   UNL     1      10.884   6.599  12.733  1.00  0.00    -0.000 C 
BRANCH   8   9
ATOM      9  C   UNL     1      10.414   5.171  12.430  1.00  0.00    -0.000 C 
BRANCH   9  10
ATOM     10  C   UNL     1       8.931   5.151  12.041  1.00  0.00    -0.000 C 
BRANCH  10  11
ATOM     11  C   UNL     1       8.258   3.854  12.506  1.00  0.00    -0.003 C 
ATOM     12  C   UNL     1       9.177   3.053  13.423  1.00  0.00     0.004 C 
ENDBRANCH  10  11
ENDBRANCH   9  10
ENDBRANCH   8   9
ENDBRANCH   7   8
ENDBRANCH   6   7
ENDBRANCH   5   6
ENDBRANCH   4   5
ENDBRANCH   3   4
ENDBRANCH   2   3
ENDBRANCH   1   2
BRANCH   1  13
ATOM     13  C   UNL     1       6.767   6.085  19.043  1.00  0.00     0.000 C 
BRANCH  13  14
ATOM     14  C   UNL     1       7.993   5.345  19.595  1.00  0.00     0.000 C 
BRANCH  14  15
ATOM     15  C   UNL     1       8.021   3.888  19.111  1.00  0.00     0.000 C 
BRANCH  15  16
ATOM     16  C   UNL     1       7.665   2.884  20.222  1.00  0.00     0.000 C 
BRANCH  16  17
ATOM     17  C   UNL     1       6.267   2.243  20.101  1.00  0.00     0.000 C 
BRANCH  17  18
ATOM     18  C   UNL     1       5.327   2.486  21.296  1.00  0.00     0.000 C 
BRANCH  18  19
ATOM     19  C   UNL     1       4.591   3.834  21.211  1.00  0.00     0.000 C 
BRANCH  19  20
ATOM     20  C   UNL     1       4.642   4.621  22.533  1.00  0.00     0.006 C 
BRANCH  20  21
ATOM     21  C   UNL     1       5.839   5.580  22.651  1.00  0.00     0.053 C 
BRANCH  21  22
ATOM     22  C   UNL     1       6.905   5.035  23.551  1.00  0.00     0.041 C 
ATOM     23  O   UNL     1       8.104   5.002  23.168  1.00  0.00    -0.550 OA
ATOM     24  O   UNL     1       6.577   4.590  24.825  1.00  0.00    -0.550 OA
ENDBRANCH  21  22
ENDBRANCH  20  21
ENDBRANCH  19  20
ENDBRANCH  18  19
ENDBRANCH  17  18
ENDBRANCH  16  17
ENDBRANCH  15  16
ENDBRANCH  14  15
ENDBRANCH  13  14
ENDBRANCH   1  13
TORSDOF 20
ENDMDL
MODEL 3
REMARK VINA RESULT:    -4.546      2.311      4.550
REMARK INTER + INTRA:         -12.784
REMARK INTER:                  -9.474
REMARK INTRA:                  -3.310
REMARK UNBOUND:                -2.922
REMARK SMILES CCCCCCCCCCCCCCCCCCCCCC(=O)[O-]
REMARK SMILES IDX 12 1 11 2 10 3 9 4 8 5 7 6 6 7 5 8 4 9 3 10 2 11 1 12 13 13
REMARK SMILES IDX 14 14 15 15 16 16 17 17 18 18 19 19 20 20 21 21 22 22 23 23
REMARK SMILES IDX 24 24
REMARK H PARENT
REMARK Flexibility Score: inf
ROOT
ATOM      1  C   UNL     1       5.458   6.250  22.131  1.00  0.00     0.000 C 
ENDROOT
BRANCH   1   2
ATOM      2  C   UNL     1       4.504   5.153  21.612  1.00  0.00     0.000 C 
BRANCH   2   3
ATOM      3  C   UNL     1       4.475   3.924  22.537  1.00  0.00     0.000 C 
BRANCH   3   4
ATOM      4  C   UNL     1       5.003   2.652  21.840  1.00  0.00    -0.000 C 
BRANCH   4   5
ATOM      5  C   UNL     1       6.453   2.778  21.341  1.00  0.00    -0.000 C 
BRANCH   5   6
ATOM      6  C   UNL     1       6.565   2.703  19.810  1.00  0.00    -0.000 C 
BRANCH   6   7
ATOM      7  C   UNL     1       7.878   3.306  19.284  1.00  0.00    -0.000 C 
BRANCH   7   8
ATOM      8  C   UNL     1       7.648   4.525  18.378  1.00  0.00    -0.000 C 
BRANCH   8   9
ATOM      9  C   UNL     1       6.150   4.795  18.194  1.00  0.00    -0.000 C 
BRANCH   9  10
ATOM     10  C   UNL     1       5.856   5.335  16.789  1.00  0.00    -0.000 C 
BRANCH  10  11
ATOM     11  C   UNL     1       6.840   6.447  16.410  1.00  0.00    -0.003 C 
ATOM     12  C   UNL     1       6.301   7.819  16.801  1.00  0.00     0.004 C 
ENDBRANCH  10  11
ENDBRANCH   9  10
ENDBRANCH   8   9
ENDBRANCH   7   8
ENDBRANCH   6   7
ENDBRANCH   5   6
ENDBRANCH   4   5
ENDBRANCH   3   4
ENDBRANCH   2   3
ENDBRANCH   1   2
BRANCH   1  13
ATOM     13  C   UNL     1       5.538   7.483  21.214  1.00  0.00     0.000 C 
BRANCH  13  14
ATOM     14  C   UNL     1       6.873   7.583  20.464  1.00  0.00     0.000 C 
BRANCH  14  15
ATOM     15  C   UNL     1       7.967   6.774  21.176  1.00  0.00     0.000 C 
BRANCH  15  16
ATOM     16  C   UNL     1       8.980   7.666  21.916  1.00  0.00     0.000 C 
BRANCH  16  17
ATOM     17  C   UNL     1       8.622   7.984  23.383  1.00  0.00     0.000 C 
BRANCH  17  18
ATOM     18  C   UNL     1       8.272   9.456  23.669  1.00  0.00     0.000 C 
BRANCH  18  19
ATOM     19  C   UNL     1       8.613  10.389  22.495  1.00  0.00     0.000 C 
BRANCH  19  20
ATOM     20  C   UNL     1       7.359  11.000  21.841  1.00  0.00     0.006 C 
BRANCH  20  21
ATOM     21  C   UNL     1       6.100  10.950  22.722  1.00  0.00     0.053 C 
BRANCH  21  22
ATOM     22  C   UNL     1       5.671  12.316  23.162  1.00  0.00     0.041 C 
ATOM     23  O   UNL     1       5.416  12.541  24.375  1.00  0.00    -0.550 OA
ATOM     24  O   UNL     1       5.584  13.348  22.237  1.00  0.00    -0.550 OA
ENDBRANCH  21  22
ENDBRANCH  20  21
ENDBRANCH  19  20
ENDBRANCH  18  19
ENDBRANCH  17  18
ENDBRANCH  16  17
ENDBRANCH  15  16
ENDBRANCH  14  15
ENDBRANCH  13  14
ENDBRANCH   1  13
TORSDOF 20
ENDMDL
MODEL 4
REMARK VINA RESULT:    -4.517      4.221      8.536
REMARK INTER + INTRA:         -12.719
REMARK INTER:                  -9.397
REMARK INTRA:                  -3.323
REMARK UNBOUND:                -2.922
REMARK SMILES CCCCCCCCCCCCCCCCCCCCCC(=O)[O-]
REMARK SMILES IDX 12 1 11 2 10 3 9 4 8 5 7 6 6 7 5 8 4 9 3 10 2 11 1 12 13 13
REMARK SMILES IDX 14 14 15 15 16 16 17 17 18 18 19 19 20 20 21 21 22 22 23 23
REMARK SMILES IDX 24 24
REMARK H PARENT
REMARK Flexibility Score: inf
ROOT
ATOM      1  C   UNL     1       6.009   5.329  18.164  1.00  0.00     0.000 C 
ENDROOT
BRANCH   1   2
ATOM      2  C   UNL     1       6.501   3.992  18.755  1.00  0.00     0.000 C 
BRANCH   2   3
ATOM      3  C   UNL     1       7.822   4.150  19.530  1.00  0.00     0.000 C 
BRANCH   3   4
ATOM      4  C   UNL     1       8.302   5.616  19.577  1.00  0.00    -0.000 C 
BRANCH   4   5
ATOM      5  C   UNL     1       8.815   6.055  20.959  1.00  0.00    -0.000 C 
BRANCH   5   6
ATOM      6  C   UNL     1       7.959   7.167  21.587  1.00  0.00    -0.000 C 
BRANCH   6   7
ATOM      7  C   UNL     1       6.783   7.585  20.688  1.00  0.00    -0.000 C 
BRANCH   7   8
ATOM      8  C   UNL     1       5.417   7.283  21.323  1.00  0.00    -0.000 C 
BRANCH   8   9
ATOM      9  C   UNL     1       5.474   5.996  22.156  1.00  0.00    -0.000 C 
BRANCH   9  10
ATOM     10  C   UNL     1       4.521   4.934  21.594  1.00  0.00    -0.000 C 
BRANCH  10  11
ATOM     11  C   UNL     1       4.490   3.692  22.492  1.00  0.00    -0.003 C 
ATOM     12  C   UNL     1       5.223   2.523  21.841  1.00  0.00     0.004 C 
ENDBRANCH  10  11
ENDBRANCH   9  10
ENDBRANCH   8   9
ENDBRANCH   7   8
ENDBRANCH   6   7
ENDBRANCH   5   6
ENDBRANCH   4   5
ENDBRANCH   3   4
ENDBRANCH   2   3
ENDBRANCH   1   2
BRANCH   1  13
ATOM     13  C   UNL     1       5.825   5.299  16.637  1.00  0.00     0.000 C 
BRANCH  13  14
ATOM     14  C   UNL     1       6.971   5.989  15.884  1.00  0.00     0.000 C 
BRANCH  14  15
ATOM     15  C   UNL     1       7.827   4.965  15.125  1.00  0.00     0.000 C 
BRANCH  15  16
ATOM     16  C   UNL     1       9.225   4.781  15.742  1.00  0.00     0.000 C 
BRANCH  16  17
ATOM     17  C   UNL     1       9.871   6.069  16.294  1.00  0.00     0.000 C 
BRANCH  17  18
ATOM     18  C   UNL     1      10.332   7.081  15.229  1.00  0.00     0.000 C 
BRANCH  18  19
ATOM     19  C   UNL     1      11.106   6.421  14.075  1.00  0.00     0.000 C 
BRANCH  19  20
ATOM     20  C   UNL     1      10.541   6.795  12.692  1.00  0.00     0.006 C 
BRANCH  20  21
ATOM     21  C   UNL     1       9.679   5.698  12.045  1.00  0.00     0.053 C 
BRANCH  21  22
ATOM     22  C   UNL     1      10.404   4.390  11.967  1.00  0.00     0.041 C 
ATOM     23  O   UNL     1       9.983   3.392  12.609  1.00  0.00    -0.550 OA
ATOM     24  O   UNL     1      11.529   4.267  11.162  1.00  0.00    -0.550 OA
ENDBRANCH  21  22
ENDBRANCH  20  21
ENDBRANCH  19  20
ENDBRANCH  18  19
ENDBRANCH  17  18
ENDBRANCH  16  17
ENDBRANCH  15  16
ENDBRANCH  14  15
ENDBRANCH  13  14
ENDBRANCH   1  13
TORSDOF 20
ENDMDL
MODEL 5
REMARK VINA RESULT:    -4.501      2.467      4.255
REMARK INTER + INTRA:         -12.685
REMARK INTER:                  -8.813
REMARK INTRA:                  -3.872
REMARK UNBOUND:                -2.922
REMARK SMILES CCCCCCCCCCCCCCCCCCCCCC(=O)[O-]
REMARK SMILES IDX 12 1 11 2 10 3 9 4 8 5 7 6 6 7 5 8 4 9 3 10 2 11 1 12 13 13
REMARK SMILES IDX 14 14 15 15 16 16 17 17 18 18 19 19 20 20 21 21 22 22 23 23
REMARK SMILES IDX 24 24
REMARK H PARENT
REMARK Flexibility Score: inf
ROOT
ATOM      1  C   UNL     1       4.509   3.398  22.568  1.00  0.00     0.000 C 
ENDROOT
BRANCH   1   2
ATOM      2  C   UNL     1       5.291   2.264  21.872  1.00  0.00     0.000 C 
BRANCH   2   3
ATOM      3  C   UNL     1       5.609   2.594  20.403  1.00  0.00     0.000 C 
BRANCH   3   4
ATOM      4  C   UNL     1       7.121   2.523  20.101  1.00  0.00    -0.000 C 
BRANCH   4   5
ATOM      5  C   UNL     1       8.009   2.924  21.292  1.00  0.00    -0.000 C 
BRANCH   5   6
ATOM      6  C   UNL     1       8.619   4.327  21.134  1.00  0.00    -0.000 C 
BRANCH   6   7
ATOM      7  C   UNL     1       8.363   4.927  19.741  1.00  0.00    -0.000 C 
BRANCH   7   8
ATOM      8  C   UNL     1       7.775   6.345  19.807  1.00  0.00    -0.000 C 
BRANCH   8   9
ATOM      9  C   UNL     1       6.418   6.407  19.095  1.00  0.00    -0.000 C 
BRANCH   9  10
ATOM     10  C   UNL     1       6.367   5.422  17.920  1.00  0.00    -0.000 C 
BRANCH  10  11
ATOM     11  C   UNL     1       6.266   6.166  16.583  1.00  0.00    -0.003 C 
ATOM     12  C   UNL     1       6.361   7.675  16.783  1.00  0.00     0.004 C 
ENDBRANCH  10  11
ENDBRANCH   9  10
ENDBRANCH   8   9
ENDBRANCH   7   8
ENDBRANCH   6   7
ENDBRANCH   5   6
ENDBRANCH   4   5
ENDBRANCH   3   4
ENDBRANCH   2   3
ENDBRANCH   1   2
BRANCH   1  13
ATOM     13  C   UNL     1       4.485   4.712  21.768  1.00  0.00     0.000 C 
BRANCH  13  14
ATOM     14  C   UNL     1       5.317   5.824  22.423  1.00  0.00     0.000 C 
BRANCH  14  15
ATOM     15  C   UNL     1       6.020   5.313  23.689  1.00  0.00     0.000 C 
BRANCH  15  16
ATOM     16  C   UNL     1       7.219   6.187  24.098  1.00  0.00     0.000 C 
BRANCH  16  17
ATOM     17  C   UNL     1       7.393   7.484  23.280  1.00  0.00     0.000 C 
BRANCH  17  18
ATOM     18  C   UNL     1       8.851   7.891  22.996  1.00  0.00     0.000 C 
BRANCH  18  19
ATOM     19  C   UNL     1       8.959   9.136  22.100  1.00  0.00     0.000 C 
BRANCH  19  20
ATOM     20  C   UNL     1       7.591   9.611  21.577  1.00  0.00     0.006 C 
BRANCH  20  21
ATOM     21  C   UNL     1       7.248  11.067  21.935  1.00  0.00     0.053 C 
BRANCH  21  22
ATOM     22  C   UNL     1       6.336  11.152  23.119  1.00  0.00     0.041 C 
ATOM     23  O   UNL     1       6.703  11.758  24.161  1.00  0.00    -0.550 OA
ATOM     24  O   UNL     1       5.069  10.587  23.061  1.00  0.00    -0.550 OA
ENDBRANCH  21  22
ENDBRANCH  20  21
ENDBRANCH  19  20
ENDBRANCH  18  19
ENDBRANCH  17  18
ENDBRANCH  16  17
ENDBRANCH  15  16
ENDBRANCH  14  15
ENDBRANCH  13  14
ENDBRANCH   1  13
TORSDOF 20
ENDMDL
MODEL 6
REMARK VINA RESULT:    -4.501      3.516      7.772
REMARK INTER + INTRA:         -12.685
REMARK INTER:                  -9.796
REMARK INTRA:                  -2.889
REMARK UNBOUND:                -2.922
REMARK SMILES CCCCCCCCCCCCCCCCCCCCCC(=O)[O-]
REMARK SMILES IDX 12 1 11 2 10 3 9 4 8 5 7 6 6 7 5 8 4 9 3 10 2 11 1 12 13 13
REMARK SMILES IDX 14 14 15 15 16 16 17 17 18 18 19 19 20 20 21 21 22 22 23 23
REMARK SMILES IDX 24 24
REMARK H PARENT
REMARK Flexibility Score: inf
ROOT
ATOM      1  C   UNL     1       5.155   6.492  21.538  1.00  0.00     0.000 C 
ENDROOT
BRANCH   1   2
ATOM      2  C   UNL     1       5.991   7.623  20.904  1.00  0.00     0.000 C 
BRANCH   2   3
ATOM      3  C   UNL     1       7.473   7.548  21.312  1.00  0.00     0.000 C 
BRANCH   3   4
ATOM      4  C   UNL     1       7.995   8.889  21.872  1.00  0.00    -0.000 C 
BRANCH   4   5
ATOM      5  C   UNL     1       8.215   8.879  23.395  1.00  0.00    -0.000 C 
BRANCH   5   6
ATOM      6  C   UNL     1       7.295   9.862  24.136  1.00  0.00    -0.000 C 
BRANCH   6   7
ATOM      7  C   UNL     1       5.849   9.350  24.243  1.00  0.00    -0.000 C 
BRANCH   7   8
ATOM      8  C   UNL     1       4.862  10.184  23.411  1.00  0.00    -0.000 C 
BRANCH   8   9
ATOM      9  C   UNL     1       5.504  11.503  22.963  1.00  0.00    -0.000 C 
BRANCH   9  10
ATOM     10  C   UNL     1       4.878  12.696  23.694  1.00  0.00    -0.000 C 
BRANCH  10  11
ATOM     11  C   UNL     1       4.434  13.778  22.702  1.00  0.00    -0.003 C 
ATOM     12  C   UNL     1       5.550  14.118  21.720  1.00  0.00     0.004 C 
ENDBRANCH  10  11
ENDBRANCH   9  10
ENDBRANCH   8   9
ENDBRANCH   7   8
ENDBRANCH   6   7
ENDBRANCH   5   6
ENDBRANCH   4   5
ENDBRANCH   3   4
ENDBRANCH   2   3
ENDBRANCH   1   2
BRANCH   1  13
ATOM     13  C   UNL     1       5.876   5.757  22.681  1.00  0.00     0.000 C 
BRANCH  13  14
ATOM     14  C   UNL     1       5.136   4.491  23.137  1.00  0.00     0.000 C 
BRANCH  14  15
ATOM     15  C   UNL     1       4.559   3.728  21.936  1.00  0.00     0.000 C 
BRANCH  15  16
ATOM     16  C   UNL     1       5.483   2.599  21.447  1.00  0.00     0.000 C 
BRANCH  16  17
ATOM     17  C   UNL     1       5.790   2.613  19.935  1.00  0.00     0.000 C 
BRANCH  17  18
ATOM     18  C   UNL     1       5.948   4.011  19.309  1.00  0.00     0.000 C 
BRANCH  18  19
ATOM     19  C   UNL     1       7.341   4.238  18.699  1.00  0.00     0.000 C 
BRANCH  19  20
ATOM     20  C   UNL     1       7.537   5.678  18.190  1.00  0.00     0.006 C 
BRANCH  20  21
ATOM     21  C   UNL     1       6.392   6.196  17.303  1.00  0.00     0.053 C 
BRANCH  21  22
ATOM     22  C   UNL     1       6.274   5.415  16.031  1.00  0.00     0.041 C 
ATOM     23  O   UNL     1       5.184   4.865  15.723  1.00  0.00    -0.550 OA
ATOM     24  O   UNL     1       7.359   5.322  15.170  1.00  0.00    -0.550 OA
ENDBRANCH  21  22
ENDBRANCH  20  21
ENDBRANCH  19  20
ENDBRANCH  18  19
ENDBRANCH  17  18
ENDBRANCH  16  17
ENDBRANCH  15  16
ENDBRANCH  14  15
ENDBRANCH  13  14
ENDBRANCH   1  13
TORSDOF 20
ENDMDL
MODEL 7
REMARK VINA RESULT:    -4.466      1.345      2.797
REMARK INTER + INTRA:         -12.610
REMARK INTER:                  -9.841
REMARK INTRA:                  -2.769
REMARK UNBOUND:                -2.922
REMARK SMILES CCCCCCCCCCCCCCCCCCCCCC(=O)[O-]
REMARK SMILES IDX 12 1 11 2 10 3 9 4 8 5 7 6 6 7 5 8 4 9 3 10 2 11 1 12 13 13
REMARK SMILES IDX 14 14 15 15 16 16 17 17 18 18 19 19 20 20 21 21 22 22 23 23
REMARK SMILES IDX 24 24
REMARK H PARENT
REMARK Flexibility Score: inf
ROOT
ATOM      1  C   UNL     1       6.363   6.012  17.701  1.00  0.00     0.000 C 
ENDROOT
BRANCH   1   2
ATOM      2  C   UNL     1       7.564   6.017  16.733  1.00  0.00     0.000 C 
BRANCH   2   3
ATOM      3  C   UNL     1       7.216   5.386  15.373  1.00  0.00     0.000 C 
BRANCH   3   4
ATOM      4  C   UNL     1       8.296   4.391  14.895  1.00  0.00    -0.000 C 
BRANCH   4   5
ATOM      5  C   UNL     1       7.931   3.663  13.591  1.00  0.00    -0.000 C 
BRANCH   5   6
ATOM      6  C   UNL     1       8.965   3.887  12.475  1.00  0.00    -0.000 C 
BRANCH   6   7
ATOM      7  C   UNL     1       8.995   5.343  11.982  1.00  0.00    -0.000 C 
BRANCH   7   8
ATOM      8  C   UNL     1      10.379   5.992  12.137  1.00  0.00    -0.000 C 
BRANCH   8   9
ATOM      9  C   UNL     1      10.434   6.868  13.395  1.00  0.00    -0.000 C 
BRANCH   9  10
ATOM     10  C   UNL     1      11.422   6.298  14.420  1.00  0.00    -0.000 C 
BRANCH  10  11
ATOM     11  C   UNL     1      11.225   6.947  15.794  1.00  0.00    -0.003 C 
ATOM     12  C   UNL     1      11.207   5.898  16.902  1.00  0.00     0.004 C 
ENDBRANCH  10  11
ENDBRANCH   9  10
ENDBRANCH   8   9
ENDBRANCH   7   8
ENDBRANCH   6   7
ENDBRANCH   5   6
ENDBRANCH   4   5
ENDBRANCH   3   4
ENDBRANCH   2   3
ENDBRANCH   1   2
BRANCH   1  13
ATOM     13  C   UNL     1       6.109   4.648  18.365  1.00  0.00     0.000 C 
BRANCH  13  14
ATOM     14  C   UNL     1       7.389   4.008  18.921  1.00  0.00     0.000 C 
BRANCH  14  15
ATOM     15  C   UNL     1       7.068   3.042  20.071  1.00  0.00     0.000 C 
BRANCH  15  16
ATOM     16  C   UNL     1       5.559   2.790  20.233  1.00  0.00     0.000 C 
BRANCH  16  17
ATOM     17  C   UNL     1       4.979   3.155  21.616  1.00  0.00     0.000 C 
BRANCH  17  18
ATOM     18  C   UNL     1       4.416   4.583  21.736  1.00  0.00     0.000 C 
BRANCH  18  19
ATOM     19  C   UNL     1       5.507   5.633  22.006  1.00  0.00     0.000 C 
BRANCH  19  20
ATOM     20  C   UNL     1       5.297   6.927  21.198  1.00  0.00     0.006 C 
BRANCH  20  21
ATOM     21  C   UNL     1       6.592   7.700  20.896  1.00  0.00     0.053 C 
BRANCH  21  22
ATOM     22  C   UNL     1       6.841   8.786  21.896  1.00  0.00     0.041 C 
ATOM     23  O   UNL     1       5.903   9.205  22.625  1.00  0.00    -0.550 OA
ATOM     24  O   UNL     1       8.116   9.315  22.044  1.00  0.00    -0.550 OA
ENDBRANCH  21  22
ENDBRANCH  20  21
ENDBRANCH  19  20
ENDBRANCH  18  19
ENDBRANCH  17  18
ENDBRANCH  16  17
ENDBRANCH  15  16
ENDBRANCH  14  15
ENDBRANCH  13  14
ENDBRANCH   1  13
TORSDOF 20
ENDMDL
MODEL 8
REMARK VINA RESULT:    -4.437      1.723      4.449
REMARK INTER + INTRA:         -12.547
REMARK INTER:                  -9.377
REMARK INTRA:                  -3.170
REMARK UNBOUND:                -2.922
REMARK SMILES CCCCCCCCCCCCCCCCCCCCCC(=O)[O-]
REMARK SMILES IDX 12 1 11 2 10 3 9 4 8 5 7 6 6 7 5 8 4 9 3 10 2 11 1 12 13 13
REMARK SMILES IDX 14 14 15 15 16 16 17 17 18 18 19 19 20 20 21 21 22 22 23 23
REMARK SMILES IDX 24 24
REMARK H PARENT
REMARK Flexibility Score: inf
ROOT
ATOM      1  C   UNL     1       5.495   5.988  22.021  1.00  0.00     0.000 C 
ENDROOT
BRANCH   1   2
ATOM      2  C   UNL     1       4.349   5.082  21.524  1.00  0.00     0.000 C 
BRANCH   2   3
ATOM      3  C   UNL     1       4.483   3.639  22.042  1.00  0.00     0.000 C 
BRANCH   3   4
ATOM      4  C   UNL     1       5.881   3.045  21.764  1.00  0.00    -0.000 C 
BRANCH   4   5
ATOM      5  C   UNL     1       6.034   2.460  20.349  1.00  0.00    -0.000 C 
BRANCH   5   6
ATOM      6  C   UNL     1       7.325   2.919  19.652  1.00  0.00    -0.000 C 
BRANCH   6   7
ATOM      7  C   UNL     1       7.302   4.414  19.293  1.00  0.00    -0.000 C 
BRANCH   7   8
ATOM      8  C   UNL     1       6.204   4.762  18.276  1.00  0.00    -0.000 C 
BRANCH   8   9
ATOM      9  C   UNL     1       6.359   6.203  17.775  1.00  0.00    -0.000 C 
BRANCH   9  10
ATOM     10  C   UNL     1       6.513   6.241  16.250  1.00  0.00    -0.000 C 
BRANCH  10  11
ATOM     11  C   UNL     1       7.905   5.759  15.826  1.00  0.00    -0.003 C 
ATOM     12  C   UNL     1       7.810   4.632  14.801  1.00  0.00     0.004 C 
ENDBRANCH  10  11
ENDBRANCH   9  10
ENDBRANCH   8   9
ENDBRANCH   7   8
ENDBRANCH   6   7
ENDBRANCH   5   6
ENDBRANCH   4   5
ENDBRANCH   3   4
ENDBRANCH   2   3
ENDBRANCH   1   2
BRANCH   1  13
ATOM     13  C   UNL     1       5.648   7.289  21.214  1.00  0.00     0.000 C 
BRANCH  13  14
ATOM     14  C   UNL     1       7.096   7.794  21.165  1.00  0.00     0.000 C 
BRANCH  14  15
ATOM     15  C   UNL     1       7.890   7.310  22.387  1.00  0.00     0.000 C 
BRANCH  15  16
ATOM     16  C   UNL     1       8.679   8.441  23.070  1.00  0.00     0.000 C 
BRANCH  16  17
ATOM     17  C   UNL     1       9.020   9.642  22.163  1.00  0.00     0.000 C 
BRANCH  17  18
ATOM     18  C   UNL     1       8.436  10.993  22.615  1.00  0.00     0.000 C 
BRANCH  18  19
ATOM     19  C   UNL     1       7.093  11.318  21.941  1.00  0.00     0.000 C 
BRANCH  19  20
ATOM     20  C   UNL     1       5.961  11.558  22.958  1.00  0.00     0.006 C 
BRANCH  20  21
ATOM     21  C   UNL     1       5.102  10.316  23.249  1.00  0.00     0.053 C 
BRANCH  21  22
ATOM     22  C   UNL     1       5.344   9.779  24.626  1.00  0.00     0.041 C 
ATOM     23  O   UNL     1       5.273  10.541  25.626  1.00  0.00    -0.550 OA
ATOM     24  O   UNL     1       5.619   8.430  24.807  1.00  0.00    -0.550 OA
ENDBRANCH  21  22
ENDBRANCH  20  21
ENDBRANCH  19  20
ENDBRANCH  18  19
ENDBRANCH  17  18
ENDBRANCH  16  17
ENDBRANCH  15  16
ENDBRANCH  14  15
ENDBRANCH  13  14
ENDBRANCH   1  13
TORSDOF 20
ENDMDL
MODEL 9
REMARK VINA RESULT:    -4.433      3.799      8.053
REMARK INTER + INTRA:         -12.538
REMARK INTER:                  -9.950
REMARK INTRA:                  -2.588
REMARK UNBOUND:                -2.922
REMARK SMILES CCCCCCCCCCCCCCCCCCCCCC(=O)[O-]
REMARK SMILES IDX 12 1 11 2 10 3 9 4 8 5 7 6 6 7 5 8 4 9 3 10 2 11 1 12 13 13
REMARK SMILES IDX 14 14 15 15 16 16 17 17 18 18 19 19 20 20 21 21 22 22 23 23
REMARK SMILES IDX 24 24
REMARK H PARENT
REMARK Flexibility Score: inf
ROOT
ATOM      1  C   UNL     1       5.223   3.102  21.615  1.00  0.00     0.000 C 
ENDROOT
BRANCH   1   2
ATOM      2  C   UNL     1       4.441   4.378  21.240  1.00  0.00     0.000 C 
BRANCH   2   3
ATOM      3  C   UNL     1       4.964   5.619  21.985  1.00  0.00     0.000 C 
BRANCH   3   4
ATOM      4  C   UNL     1       6.421   5.445  22.464  1.00  0.00    -0.000 C 
BRANCH   4   5
ATOM      5  C   UNL     1       7.306   6.678  22.215  1.00  0.00    -0.000 C 
BRANCH   5   6
ATOM      6  C   UNL     1       6.564   7.803  21.474  1.00  0.00    -0.000 C 
BRANCH   6   7
ATOM      7  C   UNL     1       7.051   9.202  21.888  1.00  0.00    -0.000 C 
BRANCH   7   8
ATOM      8  C   UNL     1       6.147   9.854  22.945  1.00  0.00    -0.000 C 
BRANCH   8   9
ATOM      9  C   UNL     1       6.103  11.377  22.763  1.00  0.00    -0.000 C 
BRANCH   9  10
ATOM     10  C   UNL     1       4.877  11.979  23.460  1.00  0.00    -0.000 C 
BRANCH  10  11
ATOM     11  C   UNL     1       4.853  13.504  23.310  1.00  0.00    -0.003 C 
ATOM     12  C   UNL     1       5.415  13.935  21.959  1.00  0.00     0.004 C 
ENDBRANCH  10  11
ENDBRANCH   9  10
ENDBRANCH   8   9
ENDBRANCH   7   8
ENDBRANCH   6   7
ENDBRANCH   5   6
ENDBRANCH   4   5
ENDBRANCH   3   4
ENDBRANCH   2   3
ENDBRANCH   1   2
BRANCH   1  13
ATOM     13  C   UNL     1       5.899   2.416  20.414  1.00  0.00     0.000 C 
BRANCH  13  14
ATOM     14  C   UNL     1       6.156   3.378  19.245  1.00  0.00     0.000 C 
BRANCH  14  15
ATOM     15  C   UNL     1       7.593   3.917  19.281  1.00  0.00     0.000 C 
BRANCH  15  16
ATOM     16  C   UNL     1       7.697   5.371  18.789  1.00  0.00     0.000 C 
BRANCH  16  17
ATOM     17  C   UNL     1       6.360   6.015  18.366  1.00  0.00     0.000 C 
BRANCH  17  18
ATOM     18  C   UNL     1       6.245   6.366  16.871  1.00  0.00     0.000 C 
BRANCH  18  19
ATOM     19  C   UNL     1       5.601   5.242  16.042  1.00  0.00     0.000 C 
BRANCH  19  20
ATOM     20  C   UNL     1       6.485   4.793  14.864  1.00  0.00     0.006 C 
BRANCH  20  21
ATOM     21  C   UNL     1       7.994   4.832  15.157  1.00  0.00     0.053 C 
BRANCH  21  22
ATOM     22  C   UNL     1       8.752   3.855  14.312  1.00  0.00     0.041 C 
ATOM     23  O   UNL     1      10.010   3.814  14.363  1.00  0.00    -0.550 OA
ATOM     24  O   UNL     1       8.068   2.968  13.492  1.00  0.00    -0.550 OA
ENDBRANCH  21  22
ENDBRANCH  20  21
ENDBRANCH  19  20
ENDBRANCH  18  19
ENDBRANCH  17  18
ENDBRANCH  16  17
ENDBRANCH  15  16
ENDBRANCH  14  15
ENDBRANCH  13  14
ENDBRANCH   1  13
TORSDOF 20
ENDMDL
