MODEL 1
REMARK VINA RESULT:    -3.461      0.000      0.000
REMARK INTER + INTRA:          -5.388
REMARK INTER:                  -5.281
REMARK INTRA:                  -0.107
REMARK UNBOUND:                -0.107
REMARK SMILES CC1=CCC[C@@H](C)C(=O)C[C@H](C(C)C)C(=O)C1
REMARK SMILES IDX 8 1 9 2 6 3 7 4 5 5 4 6 3 7 2 8 1 9 10 11 11 12 15 13 16 14
REMARK SMILES IDX 17 15 12 17 13 18 14 19
REMARK H PARENT
REMARK Flexibility Score: 70.00
ROOT
ATOM      1  C   UNL     1      59.577 -17.499  -1.794  1.00  0.00     0.136 C 
ATOM      2  O   UNL     1      59.639 -17.750  -2.989  1.00  0.00    -0.299 OA
ENDROOT
BRANCH   1   3
ATOM      3  C   UNL     1      60.827 -17.560  -0.933  1.00  0.00     0.053 C 
ATOM      4  C   UNL     1      61.871 -18.545  -1.484  1.00  0.00     0.016 C 
BRANCH   3   5
ATOM      5  C   UNL     1      60.482 -17.862   0.540  1.00  0.00     0.015 C 
BRANCH   5   6
ATOM      6  C   UNL     1      60.345 -19.366   0.850  1.00  0.00     0.028 C 
BRANCH   6   7
ATOM      7  C   UNL     1      59.379 -19.592   1.984  1.00  0.00    -0.028 C 
ATOM      8  C   UNL     1      58.065 -19.882   1.831  1.00  0.00    -0.070 CG0
ATOM      9  C   UNL     1      57.222 -20.022   3.073  1.00  0.00     0.039 C 
ATOM     10  G   UNL     1      57.414 -20.091   0.471  1.00  0.00     0.000 G0
ENDBRANCH   6   7
ENDBRANCH   5   6
ENDBRANCH   3   5
ENDBRANCH   1   3
BRANCH   1  11
ATOM     11  C   UNL     1      58.240 -17.136  -1.194  1.00  0.00     0.087 C 
BRANCH  11  12
ATOM     12  C   UNL     1      57.181 -18.251  -1.403  1.00  0.00     0.066 C 
BRANCH  12  13
ATOM     13  C   UNL     1      56.741 -18.848  -0.075  1.00  0.00     0.140 C 
ATOM     14  O   UNL     1      55.800 -18.355   0.532  1.00  0.00    -0.299 OA
BRANCH  13  15
ATOM     15  C   UNL     1      57.391 -20.099   0.465  1.00  0.00     0.106 CG0
ATOM     16  G   UNL     1      58.056 -19.870   1.815  1.00  0.00     0.000 G0
ENDBRANCH  13  15
ENDBRANCH  12  13
BRANCH  12  17
ATOM     17  C   UNL     1      55.946 -17.787  -2.240  1.00  0.00    -0.006 C 
ATOM     18  C   UNL     1      56.287 -16.789  -3.362  1.00  0.00     0.008 C 
ATOM     19  C   UNL     1      55.178 -18.985  -2.825  1.00  0.00     0.008 C 
ENDBRANCH  12  17
ENDBRANCH  11  12
ENDBRANCH   1  11
TORSDOF 1
ENDMDL
MODEL 2
REMARK VINA RESULT:    -3.198      1.465      3.809
REMARK INTER + INTRA:          -4.988
REMARK INTER:                  -4.858
REMARK INTRA:                  -0.129
REMARK UNBOUND:                -0.107
REMARK SMILES CC1=CCC[C@@H](C)C(=O)C[C@H](C(C)C)C(=O)C1
REMARK SMILES IDX 8 1 9 2 6 3 7 4 5 5 4 6 3 7 2 8 1 9 10 11 11 12 15 13 16 14
REMARK SMILES IDX 17 15 12 17 13 18 14 19
REMARK H PARENT
REMARK Flexibility Score: 70.00
ROOT
ATOM      1  C   UNL     1      56.949 -19.066   1.309  1.00  0.00     0.136 C 
ATOM      2  O   UNL     1      56.501 -18.045   1.809  1.00  0.00    -0.299 OA
ENDROOT
BRANCH   1   3
ATOM      3  C   UNL     1      57.508 -20.170   2.192  1.00  0.00     0.053 C 
ATOM      4  C   UNL     1      56.417 -20.866   3.021  1.00  0.00     0.016 C 
BRANCH   3   5
ATOM      5  C   UNL     1      58.655 -19.651   3.083  1.00  0.00     0.015 C 
BRANCH   5   6
ATOM      6  C   UNL     1      60.024 -19.611   2.374  1.00  0.00     0.028 C 
BRANCH   6   7
ATOM      7  C   UNL     1      60.361 -18.209   1.941  1.00  0.00    -0.028 C 
ATOM      8  C   UNL     1      60.337 -17.772   0.659  1.00  0.00    -0.070 CG0
ATOM      9  C   UNL     1      60.759 -16.349   0.388  1.00  0.00     0.039 C 
ATOM     10  G   UNL     1      59.887 -18.641  -0.507  1.00  0.00     0.000 G0
ENDBRANCH   6   7
ENDBRANCH   5   6
ENDBRANCH   3   5
ENDBRANCH   1   3
BRANCH   1  11
ATOM     11  C   UNL     1      56.941 -19.207  -0.194  1.00  0.00     0.087 C 
BRANCH  11  12
ATOM     12  C   UNL     1      57.389 -17.903  -0.907  1.00  0.00     0.066 C 
BRANCH  12  13
ATOM     13  C   UNL     1      58.826 -18.007  -1.393  1.00  0.00     0.140 C 
ATOM     14  O   UNL     1      59.144 -17.507  -2.463  1.00  0.00    -0.299 OA
BRANCH  13  15
ATOM     15  C   UNL     1      59.891 -18.644  -0.533  1.00  0.00     0.106 CG0
ATOM     16  G   UNL     1      60.311 -17.751   0.626  1.00  0.00     0.000 G0
ENDBRANCH  13  15
ENDBRANCH  12  13
BRANCH  12  17
ATOM     17  C   UNL     1      56.438 -17.472  -2.070  1.00  0.00    -0.006 C 
ATOM     18  C   UNL     1      55.557 -18.611  -2.615  1.00  0.00     0.008 C 
ATOM     19  C   UNL     1      55.555 -16.279  -1.665  1.00  0.00     0.008 C 
ENDBRANCH  12  17
ENDBRANCH  11  12
ENDBRANCH   1  11
TORSDOF 1
ENDMDL
MODEL 3
REMARK VINA RESULT:    -3.138      1.706      4.189
REMARK INTER + INTRA:          -4.895
REMARK INTER:                  -4.581
REMARK INTRA:                  -0.315
REMARK UNBOUND:                -0.107
REMARK SMILES CC1=CCC[C@@H](C)C(=O)C[C@H](C(C)C)C(=O)C1
REMARK SMILES IDX 8 1 9 2 6 3 7 4 5 5 4 6 3 7 2 8 1 9 10 11 11 12 15 13 16 14
REMARK SMILES IDX 17 15 12 17 13 18 14 19
REMARK H PARENT
REMARK Flexibility Score: 70.00
ROOT
ATOM      1  C   UNL     1      60.028 -18.235  -0.374  1.00  0.00     0.136 C 
ATOM      2  O   UNL     1      61.015 -17.608  -0.016  1.00  0.00    -0.299 OA
ENDROOT
BRANCH   1   3
ATOM      3  C   UNL     1      59.221 -17.771  -1.575  1.00  0.00     0.053 C 
ATOM      4  C   UNL     1      60.023 -17.847  -2.884  1.00  0.00     0.016 C 
BRANCH   3   5
ATOM      5  C   UNL     1      58.633 -16.363  -1.349  1.00  0.00     0.015 C 
BRANCH   5   6
ATOM      6  C   UNL     1      57.269 -16.366  -0.631  1.00  0.00     0.028 C 
BRANCH   6   7
ATOM      7  C   UNL     1      56.345 -17.387  -1.243  1.00  0.00    -0.028 C 
ATOM      8  C   UNL     1      55.832 -18.454  -0.585  1.00  0.00    -0.070 CG0
ATOM      9  C   UNL     1      54.967 -19.415  -1.362  1.00  0.00     0.039 C 
ATOM     10  G   UNL     1      56.073 -18.711   0.895  1.00  0.00     0.000 G0
ENDBRANCH   6   7
ENDBRANCH   5   6
ENDBRANCH   3   5
ENDBRANCH   1   3
BRANCH   1  11
ATOM     11  C   UNL     1      59.627 -19.468   0.399  1.00  0.00     0.087 C 
BRANCH  11  12
ATOM     12  C   UNL     1      58.592 -19.150   1.512  1.00  0.00     0.066 C 
BRANCH  12  13
ATOM     13  C   UNL     1      57.212 -19.676   1.148  1.00  0.00     0.140 C 
ATOM     14  O   UNL     1      57.009 -20.882   1.118  1.00  0.00    -0.299 OA
BRANCH  13  15
ATOM     15  C   UNL     1      56.060 -18.730   0.908  1.00  0.00     0.106 CG0
ATOM     16  G   UNL     1      55.838 -18.449  -0.571  1.00  0.00     0.000 G0
ENDBRANCH  13  15
ENDBRANCH  12  13
BRANCH  12  17
ATOM     17  C   UNL     1      59.024 -19.656   2.926  1.00  0.00    -0.006 C 
ATOM     18  C   UNL     1      60.547 -19.779   3.110  1.00  0.00     0.008 C 
ATOM     19  C   UNL     1      58.434 -18.780   4.044  1.00  0.00     0.008 C 
ENDBRANCH  12  17
ENDBRANCH  11  12
ENDBRANCH   1  11
TORSDOF 1
ENDMDL
MODEL 4
REMARK VINA RESULT:    -3.058      1.985      4.180
REMARK INTER + INTRA:          -4.773
REMARK INTER:                  -4.495
REMARK INTRA:                  -0.278
REMARK UNBOUND:                -0.107
REMARK SMILES CC1=CCC[C@@H](C)C(=O)C[C@H](C(C)C)C(=O)C1
REMARK SMILES IDX 8 1 9 2 6 3 7 4 5 5 4 6 3 7 2 8 1 9 10 11 11 12 15 13 16 14
REMARK SMILES IDX 17 15 12 17 13 18 14 19
REMARK H PARENT
REMARK Flexibility Score: 70.00
ROOT
ATOM      1  C   UNL     1      60.181 -19.231   0.927  1.00  0.00     0.136 C 
ATOM      2  O   UNL     1      60.936 -19.396   1.874  1.00  0.00    -0.299 OA
ENDROOT
BRANCH   1   3
ATOM      3  C   UNL     1      60.596 -18.352  -0.240  1.00  0.00     0.053 C 
ATOM      4  C   UNL     1      61.858 -18.874  -0.947  1.00  0.00     0.016 C 
BRANCH   3   5
ATOM      5  C   UNL     1      60.755 -16.879   0.192  1.00  0.00     0.015 C 
BRANCH   5   6
ATOM      6  C   UNL     1      59.475 -16.038   0.014  1.00  0.00     0.028 C 
BRANCH   6   7
ATOM      7  C   UNL     1      58.865 -16.274  -1.343  1.00  0.00    -0.028 C 
ATOM      8  C   UNL     1      57.643 -16.822  -1.555  1.00  0.00    -0.070 CG0
ATOM      9  C   UNL     1      57.205 -17.043  -2.980  1.00  0.00     0.039 C 
ATOM     10  G   UNL     1      56.697 -17.201  -0.425  1.00  0.00     0.000 G0
ENDBRANCH   6   7
ENDBRANCH   5   6
ENDBRANCH   3   5
ENDBRANCH   1   3
BRANCH   1  11
ATOM     11  C   UNL     1      58.833 -19.910   0.943  1.00  0.00     0.087 C 
BRANCH  11  12
ATOM     12  C   UNL     1      57.684 -18.925   1.292  1.00  0.00     0.066 C 
BRANCH  12  13
ATOM     13  C   UNL     1      56.838 -18.612   0.067  1.00  0.00     0.140 C 
ATOM     14  O   UNL     1      56.221 -19.508  -0.492  1.00  0.00    -0.299 OA
BRANCH  13  15
ATOM     15  C   UNL     1      56.675 -17.191  -0.419  1.00  0.00     0.106 CG0
ATOM     16  G   UNL     1      57.651 -16.843  -1.533  1.00  0.00     0.000 G0
ENDBRANCH  13  15
ENDBRANCH  12  13
BRANCH  12  17
ATOM     17  C   UNL     1      56.788 -19.408   2.477  1.00  0.00    -0.006 C 
ATOM     18  C   UNL     1      57.441 -20.491   3.356  1.00  0.00     0.008 C 
ATOM     19  C   UNL     1      56.330 -18.231   3.355  1.00  0.00     0.008 C 
ENDBRANCH  12  17
ENDBRANCH  11  12
ENDBRANCH   1  11
TORSDOF 1
ENDMDL
MODEL 5
REMARK VINA RESULT:    -3.049      2.513      5.986
REMARK INTER + INTRA:          -4.760
REMARK INTER:                  -4.444
REMARK INTRA:                  -0.316
REMARK UNBOUND:                -0.107
REMARK SMILES CC1=CCC[C@@H](C)C(=O)C[C@H](C(C)C)C(=O)C1
REMARK SMILES IDX 8 1 9 2 6 3 7 4 5 5 4 6 3 7 2 8 1 9 10 11 11 12 15 13 16 14
REMARK SMILES IDX 17 15 12 17 13 18 14 19
REMARK H PARENT
REMARK Flexibility Score: 70.00
ROOT
ATOM      1  C   UNL     1      57.744 -19.131   4.450  1.00  0.00     0.136 C 
ATOM      2  O   UNL     1      57.865 -19.318   5.652  1.00  0.00    -0.299 OA
ENDROOT
BRANCH   1   3
ATOM      3  C   UNL     1      56.433 -19.456   3.753  1.00  0.00     0.053 C 
ATOM      4  C   UNL     1      56.400 -20.892   3.208  1.00  0.00     0.016 C 
BRANCH   3   5
ATOM      5  C   UNL     1      56.108 -18.423   2.654  1.00  0.00     0.015 C 
BRANCH   5   6
ATOM      6  C   UNL     1      56.001 -19.032   1.241  1.00  0.00     0.028 C 
BRANCH   6   7
ATOM      7  C   UNL     1      56.927 -18.328   0.284  1.00  0.00    -0.028 C 
ATOM      8  C   UNL     1      58.213 -18.686   0.051  1.00  0.00    -0.070 CG0
ATOM      9  C   UNL     1      59.023 -17.838  -0.897  1.00  0.00     0.039 C 
ATOM     10  G   UNL     1      58.861 -19.909   0.683  1.00  0.00     0.000 G0
ENDBRANCH   6   7
ENDBRANCH   5   6
ENDBRANCH   3   5
ENDBRANCH   1   3
BRANCH   1  11
ATOM     11  C   UNL     1      58.916 -18.578   3.676  1.00  0.00     0.087 C 
BRANCH  11  12
ATOM     12  C   UNL     1      59.842 -19.700   3.134  1.00  0.00     0.066 C 
BRANCH  12  13
ATOM     13  C   UNL     1      60.016 -19.590   1.627  1.00  0.00     0.140 C 
ATOM     14  O   UNL     1      61.108 -19.296   1.161  1.00  0.00    -0.299 OA
BRANCH  13  15
ATOM     15  C   UNL     1      58.881 -19.924   0.689  1.00  0.00     0.106 CG0
ATOM     16  G   UNL     1      58.252 -18.683   0.073  1.00  0.00     0.000 G0
ENDBRANCH  13  15
ENDBRANCH  12  13
BRANCH  12  17
ATOM     17  C   UNL     1      61.229 -19.763   3.850  1.00  0.00    -0.006 C 
ATOM     18  C   UNL     1      61.664 -18.434   4.493  1.00  0.00     0.008 C 
ATOM     19  C   UNL     1      61.271 -20.887   4.900  1.00  0.00     0.008 C 
ENDBRANCH  12  17
ENDBRANCH  11  12
ENDBRANCH   1  11
TORSDOF 1
ENDMDL
MODEL 6
REMARK VINA RESULT:    -2.981      1.743      3.858
REMARK INTER + INTRA:          -4.657
REMARK INTER:                  -4.729
REMARK INTRA:                   0.073
REMARK UNBOUND:                -0.107
REMARK SMILES CC1=CCC[C@@H](C)C(=O)C[C@H](C(C)C)C(=O)C1
REMARK SMILES IDX 8 1 9 2 6 3 7 4 5 5 4 6 3 7 2 8 1 9 10 11 11 12 15 13 16 14
REMARK SMILES IDX 17 15 12 17 13 18 14 19
REMARK H PARENT
REMARK Flexibility Score: 70.00
ROOT
ATOM      1  C   UNL     1      56.549 -19.025   0.895  1.00  0.00     0.136 C 
ATOM      2  O   UNL     1      56.058 -18.123   1.557  1.00  0.00    -0.299 OA
ENDROOT
BRANCH   1   3
ATOM      3  C   UNL     1      57.402 -20.090   1.564  1.00  0.00     0.053 C 
ATOM      4  C   UNL     1      56.795 -20.582   2.887  1.00  0.00     0.016 C 
BRANCH   3   5
ATOM      5  C   UNL     1      58.857 -19.611   1.750  1.00  0.00     0.015 C 
BRANCH   5   6
ATOM      6  C   UNL     1      59.667 -19.559   0.439  1.00  0.00     0.028 C 
BRANCH   6   7
ATOM      7  C   UNL     1      60.079 -18.146   0.120  1.00  0.00    -0.028 C 
ATOM      8  C   UNL     1      59.636 -17.435  -0.945  1.00  0.00    -0.070 CG0
ATOM      9  C   UNL     1      60.194 -16.050  -1.152  1.00  0.00     0.039 C 
ATOM     10  G   UNL     1      58.595 -17.964  -1.920  1.00  0.00     0.000 G0
ENDBRANCH   6   7
ENDBRANCH   5   6
ENDBRANCH   3   5
ENDBRANCH   1   3
BRANCH   1  11
ATOM     11  C   UNL     1      56.296 -19.058  -0.593  1.00  0.00     0.087 C 
BRANCH  11  12
ATOM     12  C   UNL     1      56.088 -17.638  -1.184  1.00  0.00     0.066 C 
BRANCH  12  13
ATOM     13  C   UNL     1      57.319 -17.172  -1.946  1.00  0.00     0.140 C 
ATOM     14  O   UNL     1      57.302 -16.098  -2.530  1.00  0.00    -0.299 OA
BRANCH  13  15
ATOM     15  C   UNL     1      58.596 -17.977  -1.921  1.00  0.00     0.106 CG0
ATOM     16  G   UNL     1      59.622 -17.407  -0.953  1.00  0.00     0.000 G0
ENDBRANCH  13  15
ENDBRANCH  12  13
BRANCH  12  17
ATOM     17  C   UNL     1      54.806 -17.515  -2.070  1.00  0.00    -0.006 C 
ATOM     18  C   UNL     1      54.855 -18.347  -3.364  1.00  0.00     0.008 C 
ATOM     19  C   UNL     1      53.535 -17.863  -1.275  1.00  0.00     0.008 C 
ENDBRANCH  12  17
ENDBRANCH  11  12
ENDBRANCH   1  11
TORSDOF 1
ENDMDL
MODEL 7
REMARK VINA RESULT:    -2.966      1.771      2.372
REMARK INTER + INTRA:          -4.634
REMARK INTER:                  -4.370
REMARK INTRA:                  -0.264
REMARK UNBOUND:                -0.107
REMARK SMILES CC1=CCC[C@@H](C)C(=O)C[C@H](C(C)C)C(=O)C1
REMARK SMILES IDX 8 1 9 2 6 3 7 4 5 5 4 6 3 7 2 8 1 9 10 11 11 12 15 13 16 14
REMARK SMILES IDX 17 15 12 17 13 18 14 19
REMARK H PARENT
REMARK Flexibility Score: 70.00
ROOT
ATOM      1  C   UNL     1      58.988 -17.928  -0.628  1.00  0.00     0.136 C 
ATOM      2  O   UNL     1      59.829 -18.241  -1.459  1.00  0.00    -0.299 OA
ENDROOT
BRANCH   1   3
ATOM      3  C   UNL     1      58.969 -18.602   0.734  1.00  0.00     0.053 C 
ATOM      4  C   UNL     1      60.283 -18.398   1.506  1.00  0.00     0.016 C 
BRANCH   3   5
ATOM      5  C   UNL     1      58.604 -20.097   0.618  1.00  0.00     0.015 C 
BRANCH   5   6
ATOM      6  C   UNL     1      57.107 -20.390   0.844  1.00  0.00     0.028 C 
BRANCH   6   7
ATOM      7  C   UNL     1      56.580 -19.606   2.018  1.00  0.00    -0.028 C 
ATOM      8  C   UNL     1      55.633 -18.640   1.937  1.00  0.00    -0.070 CG0
ATOM      9  C   UNL     1      55.258 -17.910   3.201  1.00  0.00     0.039 C 
ATOM     10  G   UNL     1      54.924 -18.279   0.639  1.00  0.00     0.000 G0
ENDBRANCH   6   7
ENDBRANCH   5   6
ENDBRANCH   3   5
ENDBRANCH   1   3
BRANCH   1  11
ATOM     11  C   UNL     1      57.971 -16.870  -0.982  1.00  0.00     0.087 C 
BRANCH  11  12
ATOM     12  C   UNL     1      56.568 -17.475  -1.258  1.00  0.00     0.066 C 
BRANCH  12  13
ATOM     13  C   UNL     1      55.601 -17.162  -0.127  1.00  0.00     0.140 C 
ATOM     14  O   UNL     1      55.311 -16.000   0.122  1.00  0.00    -0.299 OA
BRANCH  13  15
ATOM     15  C   UNL     1      54.920 -18.270   0.640  1.00  0.00     0.106 CG0
ATOM     16  G   UNL     1      55.649 -18.614   1.932  1.00  0.00     0.000 G0
ENDBRANCH  13  15
ENDBRANCH  12  13
BRANCH  12  17
ATOM     17  C   UNL     1      55.967 -17.049  -2.636  1.00  0.00    -0.006 C 
ATOM     18  C   UNL     1      57.007 -16.504  -3.633  1.00  0.00     0.008 C 
ATOM     19  C   UNL     1      55.175 -18.196  -3.286  1.00  0.00     0.008 C 
ENDBRANCH  12  17
ENDBRANCH  11  12
ENDBRANCH   1  11
TORSDOF 1
ENDMDL
MODEL 8
REMARK VINA RESULT:    -2.735      1.973      2.666
REMARK INTER + INTRA:          -4.281
REMARK INTER:                  -3.977
REMARK INTRA:                  -0.303
REMARK UNBOUND:                -0.107
REMARK SMILES CC1=CCC[C@@H](C)C(=O)C[C@H](C(C)C)C(=O)C1
REMARK SMILES IDX 8 1 9 2 6 3 7 4 5 5 4 6 3 7 2 8 1 9 10 11 11 12 15 13 16 14
REMARK SMILES IDX 17 15 12 17 13 18 14 19
REMARK H PARENT
REMARK Flexibility Score: 70.00
ROOT
ATOM      1  C   UNL     1      60.303 -15.666  -1.587  1.00  0.00     0.136 C 
ATOM      2  O   UNL     1      60.939 -14.882  -2.276  1.00  0.00    -0.299 OA
ENDROOT
BRANCH   1   3
ATOM      3  C   UNL     1      61.025 -16.711  -0.752  1.00  0.00     0.053 C 
ATOM      4  C   UNL     1      61.401 -17.956  -1.571  1.00  0.00     0.016 C 
BRANCH   3   5
ATOM      5  C   UNL     1      60.216 -17.082   0.508  1.00  0.00     0.015 C 
BRANCH   5   6
ATOM      6  C   UNL     1      59.626 -18.506   0.471  1.00  0.00     0.028 C 
BRANCH   6   7
ATOM      7  C   UNL     1      58.166 -18.490   0.842  1.00  0.00    -0.028 C 
ATOM      8  C   UNL     1      57.145 -18.485  -0.048  1.00  0.00    -0.070 CG0
ATOM      9  C   UNL     1      55.739 -18.410   0.489  1.00  0.00     0.039 C 
ATOM     10  G   UNL     1      57.355 -18.572  -1.553  1.00  0.00     0.000 G0
ENDBRANCH   6   7
ENDBRANCH   5   6
ENDBRANCH   3   5
ENDBRANCH   1   3
BRANCH   1  11
ATOM     11  C   UNL     1      58.796 -15.579  -1.585  1.00  0.00     0.087 C 
BRANCH  11  12
ATOM     12  C   UNL     1      58.162 -16.361  -2.767  1.00  0.00     0.066 C 
BRANCH  12  13
ATOM     13  C   UNL     1      57.051 -17.282  -2.285  1.00  0.00     0.140 C 
ATOM     14  O   UNL     1      55.886 -17.014  -2.541  1.00  0.00    -0.299 OA
BRANCH  13  15
ATOM     15  C   UNL     1      57.370 -18.573  -1.570  1.00  0.00     0.106 CG0
ATOM     16  G   UNL     1      57.134 -18.479  -0.070  1.00  0.00     0.000 G0
ENDBRANCH  13  15
ENDBRANCH  12  13
BRANCH  12  17
ATOM     17  C   UNL     1      57.658 -15.440  -3.923  1.00  0.00    -0.006 C 
ATOM     18  C   UNL     1      57.743 -13.935  -3.609  1.00  0.00     0.008 C 
ATOM     19  C   UNL     1      58.391 -15.738  -5.243  1.00  0.00     0.008 C 
ENDBRANCH  12  17
ENDBRANCH  11  12
ENDBRANCH   1  11
TORSDOF 1
ENDMDL
MODEL 9
REMARK VINA RESULT:    -2.606      1.972      2.838
REMARK INTER + INTRA:          -4.083
REMARK INTER:                  -3.954
REMARK INTRA:                  -0.130
REMARK UNBOUND:                -0.107
REMARK SMILES CC1=CCC[C@@H](C)C(=O)C[C@H](C(C)C)C(=O)C1
REMARK SMILES IDX 8 1 9 2 6 3 7 4 5 5 4 6 3 7 2 8 1 9 10 11 11 12 15 13 16 14
REMARK SMILES IDX 17 15 12 17 13 18 14 19
REMARK H PARENT
REMARK Flexibility Score: 70.00
ROOT
ATOM      1  C   UNL     1      59.696 -17.749   0.746  1.00  0.00     0.136 C 
ATOM      2  O   UNL     1      60.837 -17.755   0.308  1.00  0.00    -0.299 OA
ENDROOT
BRANCH   1   3
ATOM      3  C   UNL     1      59.178 -18.929   1.551  1.00  0.00     0.053 C 
ATOM      4  C   UNL     1      60.182 -19.397   2.616  1.00  0.00     0.016 C 
BRANCH   3   5
ATOM      5  C   UNL     1      58.742 -20.089   0.632  1.00  0.00     0.015 C 
BRANCH   5   6
ATOM      6  C   UNL     1      57.276 -20.524   0.834  1.00  0.00     0.028 C 
BRANCH   6   7
ATOM      7  C   UNL     1      56.650 -19.775   1.982  1.00  0.00    -0.028 C 
ATOM      8  C   UNL     1      55.891 -18.660   1.852  1.00  0.00    -0.070 CG0
ATOM      9  C   UNL     1      55.387 -17.998   3.110  1.00  0.00     0.039 C 
ATOM     10  G   UNL     1      55.514 -18.065   0.503  1.00  0.00     0.000 G0
ENDBRANCH   6   7
ENDBRANCH   5   6
ENDBRANCH   3   5
ENDBRANCH   1   3
BRANCH   1  11
ATOM     11  C   UNL     1      58.815 -16.555   0.468  1.00  0.00     0.087 C 
BRANCH  11  12
ATOM     12  C   UNL     1      57.655 -16.896  -0.506  1.00  0.00     0.066 C 
BRANCH  12  13
ATOM     13  C   UNL     1      56.306 -16.802   0.189  1.00  0.00     0.140 C 
ATOM     14  O   UNL     1      55.824 -15.705   0.436  1.00  0.00    -0.299 OA
BRANCH  13  15
ATOM     15  C   UNL     1      55.507 -18.044   0.503  1.00  0.00     0.106 CG0
ATOM     16  G   UNL     1      55.889 -18.658   1.842  1.00  0.00     0.000 G0
ENDBRANCH  13  15
ENDBRANCH  12  13
BRANCH  12  17
ATOM     17  C   UNL     1      57.668 -16.039  -1.812  1.00  0.00    -0.006 C 
ATOM     18  C   UNL     1      59.069 -15.840  -2.419  1.00  0.00     0.008 C 
ATOM     19  C   UNL     1      56.718 -16.617  -2.876  1.00  0.00     0.008 C 
ENDBRANCH  12  17
ENDBRANCH  11  12
ENDBRANCH   1  11
TORSDOF 1
ENDMDL
