MODEL 1
REMARK VINA RESULT:    -6.592      0.000      0.000
REMARK INTER + INTRA:         -11.045
REMARK INTER:                  -9.675
REMARK INTRA:                  -1.370
REMARK UNBOUND:                -1.370
REMARK SMILES O=c1c(O[C@@H]2O[C@H](CO)[C@@H](O)[C@@H](O)[C@@H]2O)c(-c2ccc(O)c(O)c2)oc2cc(O)cc(O)c12
REMARK SMILES IDX 4 1 3 2 16 3 25 4 2 5 26 6 1 7 33 8 27 9 31 10 28 11 30 12
REMARK SMILES IDX 17 13 18 14 19 15 20 16 24 17 22 18 21 19 23 21 32 23 29 25
REMARK SMILES IDX 5 27 14 28 6 29 12 30 7 31 10 32 15 33 13 35 8 37 9 38 11 40
REMARK H PARENT 21 20 23 22 32 24 29 26 15 34 13 36 9 39 11 41
REMARK Flexibility Score: inf
ROOT
ATOM      1  O   UNL     1      15.402  44.920  73.567  1.00  0.00    -0.454 OA
ENDROOT
BRANCH   1   2
ATOM      2  C   UNL     1      16.260  43.868  73.946  1.00  0.00     0.214 A 
ATOM      3  C   UNL     1      17.565  44.195  74.359  1.00  0.00     0.180 A 
ATOM      4  O   UNL     1      18.378  43.249  74.811  1.00  0.00    -0.452 OA
ATOM      5  C   UNL     1      15.865  42.511  73.981  1.00  0.00     0.239 A 
ATOM      6  C   UNL     1      18.052  41.964  74.853  1.00  0.00     0.146 A 
ATOM      7  O   UNL     1      14.676  42.202  73.710  1.00  0.00    -0.285 OA
ATOM      8  C   UNL     1      16.790  41.518  74.387  1.00  0.00     0.111 A 
ATOM      9  C   UNL     1      18.979  41.058  75.375  1.00  0.00     0.094 A 
ATOM     10  C   UNL     1      16.517  40.117  74.400  1.00  0.00     0.134 A 
ATOM     11  C   UNL     1      18.674  39.697  75.445  1.00  0.00     0.123 A 
ATOM     12  C   UNL     1      17.450  39.238  74.962  1.00  0.00     0.093 A 
BRANCH   3  13
ATOM     13  C   UNL     1      18.069  45.588  74.327  1.00  0.00     0.025 A 
ATOM     14  C   UNL     1      17.959  46.390  75.472  1.00  0.00     0.016 A 
ATOM     15  C   UNL     1      18.438  47.702  75.466  1.00  0.00     0.051 A 
ATOM     16  C   UNL     1      19.048  48.227  74.319  1.00  0.00     0.157 A 
ATOM     17  C   UNL     1      18.705  46.110  73.185  1.00  0.00     0.062 A 
ATOM     18  C   UNL     1      19.184  47.424  73.174  1.00  0.00     0.158 A 
BRANCH  16  19
ATOM     19  O   UNL     1      19.522  49.538  74.314  1.00  0.00    -0.504 OA
ATOM     20  H   UNL     1      19.536  50.100  75.158  1.00  0.00     0.293 HD
ENDBRANCH  16  19
BRANCH  18  21
ATOM     21  O   UNL     1      19.796  47.912  72.020  1.00  0.00    -0.504 OA
ATOM     22  H   UNL     1      20.720  47.613  71.733  1.00  0.00     0.293 HD
ENDBRANCH  18  21
ENDBRANCH   3  13
BRANCH  10  23
ATOM     23  O   UNL     1      15.369  39.542  73.847  1.00  0.00    -0.507 OA
ATOM     24  H   UNL     1      14.914  38.715  74.204  1.00  0.00     0.293 HD
ENDBRANCH  10  23
BRANCH  11  25
ATOM     25  O   UNL     1      19.584  38.792  75.986  1.00  0.00    -0.508 OA
ATOM     26  H   UNL     1      19.615  37.826  75.682  1.00  0.00     0.293 HD
ENDBRANCH  11  25
ENDBRANCH   1   2
BRANCH   1  27
ATOM     27  C   UNL     1      14.690  45.807  74.430  1.00  0.00     0.339 C 
ATOM     28  C   UNL     1      14.655  47.231  73.794  1.00  0.00     0.214 C 
ATOM     29  O   UNL     1      13.389  45.277  74.648  1.00  0.00    -0.332 OA
ATOM     30  C   UNL     1      13.242  47.551  73.278  1.00  0.00     0.180 C 
ATOM     31  C   UNL     1      12.576  46.206  75.342  1.00  0.00     0.179 C 
ATOM     32  C   UNL     1      12.215  47.410  74.424  1.00  0.00     0.177 C 
BRANCH  28  33
ATOM     33  O   UNL     1      15.586  47.328  72.744  1.00  0.00    -0.384 OA
ATOM     34  H   UNL     1      15.099  47.130  71.902  1.00  0.00     0.211 HD
ENDBRANCH  28  33
BRANCH  30  35
ATOM     35  O   UNL     1      13.210  48.848  72.739  1.00  0.00    -0.387 OA
ATOM     36  H   UNL     1      13.443  48.761  71.777  1.00  0.00     0.211 HD
ENDBRANCH  30  35
BRANCH  31  37
ATOM     37  C   UNL     1      11.322  45.488  75.859  1.00  0.00     0.191 C 
BRANCH  37  38
ATOM     38  O   UNL     1      10.496  46.366  76.578  1.00  0.00    -0.394 OA
ATOM     39  H   UNL     1      10.648  47.273  76.203  1.00  0.00     0.210 HD
ENDBRANCH  37  38
ENDBRANCH  31  37
BRANCH  32  40
ATOM     40  O   UNL     1      12.189  48.591  75.184  1.00  0.00    -0.387 OA
ATOM     41  H   UNL     1      12.679  49.278  74.662  1.00  0.00     0.211 HD
ENDBRANCH  32  40
ENDBRANCH   1  27
TORSDOF 12
ENDMDL
MODEL 2
REMARK VINA RESULT:    -6.428      3.292      5.641
REMARK INTER + INTRA:         -10.805
REMARK INTER:                  -9.186
REMARK INTRA:                  -1.619
REMARK UNBOUND:                -1.370
REMARK SMILES O=c1c(O[C@@H]2O[C@H](CO)[C@@H](O)[C@@H](O)[C@@H]2O)c(-c2ccc(O)c(O)c2)oc2cc(O)cc(O)c12
REMARK SMILES IDX 4 1 3 2 16 3 25 4 2 5 26 6 1 7 33 8 27 9 31 10 28 11 30 12
REMARK SMILES IDX 17 13 18 14 19 15 20 16 24 17 22 18 21 19 23 21 32 23 29 25
REMARK SMILES IDX 5 27 14 28 6 29 12 30 7 31 10 32 15 33 13 35 8 37 9 38 11 40
REMARK H PARENT 21 20 23 22 32 24 29 26 15 34 13 36 9 39 11 41
REMARK Flexibility Score: inf
ROOT
ATOM      1  O   UNL     1      17.734  42.738  76.230  1.00  0.00    -0.454 OA
ENDROOT
BRANCH   1   2
ATOM      2  C   UNL     1      18.265  41.515  76.686  1.00  0.00     0.214 A 
ATOM      3  C   UNL     1      18.802  41.471  77.986  1.00  0.00     0.180 A 
ATOM      4  O   UNL     1      19.230  40.321  78.492  1.00  0.00    -0.452 OA
ATOM      5  C   UNL     1      18.243  40.322  75.927  1.00  0.00     0.239 A 
ATOM      6  C   UNL     1      19.236  39.181  77.813  1.00  0.00     0.146 A 
ATOM      7  O   UNL     1      17.683  40.311  74.802  1.00  0.00    -0.285 OA
ATOM      8  C   UNL     1      18.790  39.133  76.469  1.00  0.00     0.111 A 
ATOM      9  C   UNL     1      19.686  38.025  78.456  1.00  0.00     0.094 A 
ATOM     10  C   UNL     1      18.875  37.892  75.769  1.00  0.00     0.134 A 
ATOM     11  C   UNL     1      19.700  36.802  77.782  1.00  0.00     0.123 A 
ATOM     12  C   UNL     1      19.295  36.743  76.449  1.00  0.00     0.093 A 
BRANCH   3  13
ATOM     13  C   UNL     1      18.890  42.680  78.837  1.00  0.00     0.025 A 
ATOM     14  C   UNL     1      19.969  43.561  78.678  1.00  0.00     0.016 A 
ATOM     15  C   UNL     1      20.064  44.713  79.463  1.00  0.00     0.051 A 
ATOM     16  C   UNL     1      19.073  45.009  80.408  1.00  0.00     0.157 A 
ATOM     17  C   UNL     1      17.883  42.993  79.770  1.00  0.00     0.062 A 
ATOM     18  C   UNL     1      17.976  44.144  80.559  1.00  0.00     0.158 A 
BRANCH  16  19
ATOM     19  O   UNL     1      19.172  46.157  81.192  1.00  0.00    -0.504 OA
ATOM     20  H   UNL     1      18.389  46.494  81.740  1.00  0.00     0.293 HD
ENDBRANCH  16  19
BRANCH  18  21
ATOM     21  O   UNL     1      16.967  44.416  81.482  1.00  0.00    -0.504 OA
ATOM     22  H   UNL     1      16.804  43.827  82.290  1.00  0.00     0.293 HD
ENDBRANCH  18  21
ENDBRANCH   3  13
BRANCH  10  23
ATOM     23  O   UNL     1      18.594  37.744  74.407  1.00  0.00    -0.507 OA
ATOM     24  H   UNL     1      18.743  36.897  73.881  1.00  0.00     0.293 HD
ENDBRANCH  10  23
BRANCH  11  25
ATOM     25  O   UNL     1      20.125  35.642  78.425  1.00  0.00    -0.508 OA
ATOM     26  H   UNL     1      19.523  34.831  78.507  1.00  0.00     0.293 HD
ENDBRANCH  11  25
ENDBRANCH   1   2
BRANCH   1  27
ATOM     27  C   UNL     1      18.248  43.567  75.187  1.00  0.00     0.339 C 
ATOM     28  C   UNL     1      17.138  43.797  74.115  1.00  0.00     0.214 C 
ATOM     29  O   UNL     1      18.709  44.783  75.761  1.00  0.00    -0.332 OA
ATOM     30  C   UNL     1      16.612  45.239  74.192  1.00  0.00     0.180 C 
ATOM     31  C   UNL     1      19.055  45.716  74.754  1.00  0.00     0.179 C 
ATOM     32  C   UNL     1      17.780  46.239  74.031  1.00  0.00     0.177 C 
BRANCH  28  33
ATOM     33  O   UNL     1      16.081  42.886  74.294  1.00  0.00    -0.384 OA
ATOM     34  H   UNL     1      15.280  43.279  73.857  1.00  0.00     0.211 HD
ENDBRANCH  28  33
BRANCH  30  35
ATOM     35  O   UNL     1      15.639  45.449  73.201  1.00  0.00    -0.387 OA
ATOM     36  H   UNL     1      15.351  44.550  72.891  1.00  0.00     0.211 HD
ENDBRANCH  30  35
BRANCH  31  37
ATOM     37  C   UNL     1      19.860  46.861  75.385  1.00  0.00     0.191 C 
BRANCH  37  38
ATOM     38  O   UNL     1      19.513  48.096  74.818  1.00  0.00    -0.394 OA
ATOM     39  H   UNL     1      18.527  48.182  74.899  1.00  0.00     0.210 HD
ENDBRANCH  37  38
ENDBRANCH  31  37
BRANCH  32  40
ATOM     40  O   UNL     1      18.056  46.428  72.666  1.00  0.00    -0.387 OA
ATOM     41  H   UNL     1      19.038  46.542  72.586  1.00  0.00     0.211 HD
ENDBRANCH  32  40
ENDBRANCH   1  27
TORSDOF 12
ENDMDL
MODEL 3
REMARK VINA RESULT:    -6.101      1.529      6.473
REMARK INTER + INTRA:         -10.324
REMARK INTER:                  -8.801
REMARK INTRA:                  -1.523
REMARK UNBOUND:                -1.370
REMARK SMILES O=c1c(O[C@@H]2O[C@H](CO)[C@@H](O)[C@@H](O)[C@@H]2O)c(-c2ccc(O)c(O)c2)oc2cc(O)cc(O)c12
REMARK SMILES IDX 4 1 3 2 16 3 25 4 2 5 26 6 1 7 33 8 27 9 31 10 28 11 30 12
REMARK SMILES IDX 17 13 18 14 19 15 20 16 24 17 22 18 21 19 23 21 32 23 29 25
REMARK SMILES IDX 5 27 14 28 6 29 12 30 7 31 10 32 15 33 13 35 8 37 9 38 11 40
REMARK H PARENT 21 20 23 22 32 24 29 26 15 34 13 36 9 39 11 41
REMARK Flexibility Score: inf
ROOT
ATOM      1  O   UNL     1      17.593  45.597  73.531  1.00  0.00    -0.454 OA
ENDROOT
BRANCH   1   2
ATOM      2  C   UNL     1      16.271  45.466  73.999  1.00  0.00     0.214 A 
ATOM      3  C   UNL     1      15.954  44.337  74.778  1.00  0.00     0.180 A 
ATOM      4  O   UNL     1      14.748  44.216  75.316  1.00  0.00    -0.452 OA
ATOM      5  C   UNL     1      15.261  46.429  73.770  1.00  0.00     0.239 A 
ATOM      6  C   UNL     1      13.768  45.089  75.120  1.00  0.00     0.146 A 
ATOM      7  O   UNL     1      15.542  47.492  73.160  1.00  0.00    -0.285 OA
ATOM      8  C   UNL     1      13.959  46.221  74.288  1.00  0.00     0.111 A 
ATOM      9  C   UNL     1      12.545  44.874  75.760  1.00  0.00     0.094 A 
ATOM     10  C   UNL     1      12.853  47.095  74.065  1.00  0.00     0.134 A 
ATOM     11  C   UNL     1      11.491  45.773  75.588  1.00  0.00     0.123 A 
ATOM     12  C   UNL     1      11.651  46.874  74.748  1.00  0.00     0.093 A 
BRANCH   3  13
ATOM     13  C   UNL     1      16.944  43.268  75.042  1.00  0.00     0.025 A 
ATOM     14  C   UNL     1      17.790  43.368  76.156  1.00  0.00     0.016 A 
ATOM     15  C   UNL     1      18.723  42.365  76.430  1.00  0.00     0.051 A 
ATOM     16  C   UNL     1      18.813  41.239  75.601  1.00  0.00     0.157 A 
ATOM     17  C   UNL     1      17.020  42.123  74.227  1.00  0.00     0.062 A 
ATOM     18  C   UNL     1      17.954  41.117  74.496  1.00  0.00     0.158 A 
BRANCH  16  19
ATOM     19  O   UNL     1      19.747  40.241  75.874  1.00  0.00    -0.504 OA
ATOM     20  H   UNL     1      20.692  40.464  76.166  1.00  0.00     0.293 HD
ENDBRANCH  16  19
BRANCH  18  21
ATOM     21  O   UNL     1      18.011  40.004  73.659  1.00  0.00    -0.504 OA
ATOM     22  H   UNL     1      17.176  39.558  73.298  1.00  0.00     0.293 HD
ENDBRANCH  18  21
ENDBRANCH   3  13
BRANCH  10  23
ATOM     23  O   UNL     1      12.873  48.164  73.165  1.00  0.00    -0.507 OA
ATOM     24  H   UNL     1      13.215  48.108  72.217  1.00  0.00     0.293 HD
ENDBRANCH  10  23
BRANCH  11  25
ATOM     25  O   UNL     1      10.277  45.576  76.242  1.00  0.00    -0.508 OA
ATOM     26  H   UNL     1       9.421  45.396  75.729  1.00  0.00     0.293 HD
ENDBRANCH  11  25
ENDBRANCH   1   2
BRANCH   1  27
ATOM     27  C   UNL     1      18.606  46.467  74.038  1.00  0.00     0.339 C 
ATOM     28  C   UNL     1      18.828  47.642  73.037  1.00  0.00     0.214 C 
ATOM     29  O   UNL     1      18.210  46.918  75.327  1.00  0.00    -0.332 OA
ATOM     30  C   UNL     1      18.254  48.948  73.611  1.00  0.00     0.180 C 
ATOM     31  C   UNL     1      19.084  47.928  75.798  1.00  0.00     0.179 C 
ATOM     32  C   UNL     1      18.885  49.244  74.991  1.00  0.00     0.177 C 
BRANCH  28  33
ATOM     33  O   UNL     1      18.231  47.356  71.796  1.00  0.00    -0.384 OA
ATOM     34  H   UNL     1      18.683  47.922  71.117  1.00  0.00     0.211 HD
ENDBRANCH  28  33
BRANCH  30  35
ATOM     35  O   UNL     1      18.490  50.009  72.720  1.00  0.00    -0.387 OA
ATOM     36  H   UNL     1      17.858  50.733  72.967  1.00  0.00     0.211 HD
ENDBRANCH  30  35
BRANCH  31  37
ATOM     37  C   UNL     1      18.844  48.140  77.299  1.00  0.00     0.191 C 
BRANCH  37  38
ATOM     38  O   UNL     1      18.567  49.486  77.582  1.00  0.00    -0.394 OA
ATOM     39  H   UNL     1      18.192  49.514  78.502  1.00  0.00     0.210 HD
ENDBRANCH  37  38
ENDBRANCH  31  37
BRANCH  32  40
ATOM     40  O   UNL     1      20.125  49.882  74.817  1.00  0.00    -0.387 OA
ATOM     41  H   UNL     1      19.976  50.627  74.179  1.00  0.00     0.211 HD
ENDBRANCH  32  40
ENDBRANCH   1  27
TORSDOF 12
ENDMDL
MODEL 4
REMARK VINA RESULT:    -6.044      3.237      5.021
REMARK INTER + INTRA:         -10.241
REMARK INTER:                  -9.164
REMARK INTRA:                  -1.077
REMARK UNBOUND:                -1.370
REMARK SMILES O=c1c(O[C@@H]2O[C@H](CO)[C@@H](O)[C@@H](O)[C@@H]2O)c(-c2ccc(O)c(O)c2)oc2cc(O)cc(O)c12
REMARK SMILES IDX 4 1 3 2 16 3 25 4 2 5 26 6 1 7 33 8 27 9 31 10 28 11 30 12
REMARK SMILES IDX 17 13 18 14 19 15 20 16 24 17 22 18 21 19 23 21 32 23 29 25
REMARK SMILES IDX 5 27 14 28 6 29 12 30 7 31 10 32 15 33 13 35 8 37 9 38 11 40
REMARK H PARENT 21 20 23 22 32 24 29 26 15 34 13 36 9 39 11 41
REMARK Flexibility Score: inf
ROOT
ATOM      1  O   UNL     1      18.305  42.802  75.876  1.00  0.00    -0.454 OA
ENDROOT
BRANCH   1   2
ATOM      2  C   UNL     1      18.654  41.571  76.465  1.00  0.00     0.214 A 
ATOM      3  C   UNL     1      18.991  41.563  77.832  1.00  0.00     0.180 A 
ATOM      4  O   UNL     1      19.238  40.416  78.451  1.00  0.00    -0.452 OA
ATOM      5  C   UNL     1      18.636  40.339  75.771  1.00  0.00     0.239 A 
ATOM      6  C   UNL     1      19.241  39.240  77.838  1.00  0.00     0.146 A 
ATOM      7  O   UNL     1      18.245  40.304  74.576  1.00  0.00    -0.285 OA
ATOM      8  C   UNL     1      18.992  39.145  76.445  1.00  0.00     0.111 A 
ATOM      9  C   UNL     1      19.489  38.093  78.596  1.00  0.00     0.094 A 
ATOM     10  C   UNL     1      19.066  37.861  75.827  1.00  0.00     0.134 A 
ATOM     11  C   UNL     1      19.493  36.834  77.992  1.00  0.00     0.123 A 
ATOM     12  C   UNL     1      19.280  36.726  76.619  1.00  0.00     0.093 A 
BRANCH   3  13
ATOM     13  C   UNL     1      19.062  42.811  78.626  1.00  0.00     0.025 A 
ATOM     14  C   UNL     1      20.049  43.764  78.332  1.00  0.00     0.016 A 
ATOM     15  C   UNL     1      20.125  44.953  79.061  1.00  0.00     0.051 A 
ATOM     16  C   UNL     1      19.206  45.214  80.086  1.00  0.00     0.157 A 
ATOM     17  C   UNL     1      18.125  43.088  79.639  1.00  0.00     0.062 A 
ATOM     18  C   UNL     1      18.199  44.277  80.373  1.00  0.00     0.158 A 
BRANCH  16  19
ATOM     19  O   UNL     1      19.287  46.399  80.815  1.00  0.00    -0.504 OA
ATOM     20  H   UNL     1      19.686  47.241  80.416  1.00  0.00     0.293 HD
ENDBRANCH  16  19
BRANCH  18  21
ATOM     21  O   UNL     1      17.262  44.511  81.379  1.00  0.00    -0.504 OA
ATOM     22  H   UNL     1      17.458  45.119  82.165  1.00  0.00     0.293 HD
ENDBRANCH  18  21
ENDBRANCH   3  13
BRANCH  10  23
ATOM     23  O   UNL     1      18.972  37.653  74.448  1.00  0.00    -0.507 OA
ATOM     24  H   UNL     1      18.997  36.748  74.003  1.00  0.00     0.293 HD
ENDBRANCH  10  23
BRANCH  11  25
ATOM     25  O   UNL     1      19.716  35.685  78.747  1.00  0.00    -0.508 OA
ATOM     26  H   UNL     1      20.577  35.157  78.667  1.00  0.00     0.293 HD
ENDBRANCH  11  25
ENDBRANCH   1   2
BRANCH   1  27
ATOM     27  C   UNL     1      17.032  43.449  75.917  1.00  0.00     0.339 C 
ATOM     28  C   UNL     1      17.222  44.981  75.693  1.00  0.00     0.214 C 
ATOM     29  O   UNL     1      16.192  42.856  74.935  1.00  0.00    -0.332 OA
ATOM     30  C   UNL     1      16.718  45.383  74.297  1.00  0.00     0.180 C 
ATOM     31  C   UNL     1      14.983  43.581  74.802  1.00  0.00     0.179 C 
ATOM     32  C   UNL     1      15.242  44.958  74.124  1.00  0.00     0.177 C 
BRANCH  28  33
ATOM     33  O   UNL     1      18.575  45.339  75.840  1.00  0.00    -0.384 OA
ATOM     34  H   UNL     1      18.630  45.958  76.615  1.00  0.00     0.211 HD
ENDBRANCH  28  33
BRANCH  30  35
ATOM     35  O   UNL     1      16.859  46.769  74.117  1.00  0.00    -0.387 OA
ATOM     36  H   UNL     1      15.993  47.099  73.759  1.00  0.00     0.211 HD
ENDBRANCH  30  35
BRANCH  31  37
ATOM     37  C   UNL     1      13.976  42.737  74.008  1.00  0.00     0.191 C 
BRANCH  37  38
ATOM     38  O   UNL     1      14.536  41.509  73.624  1.00  0.00    -0.394 OA
ATOM     39  H   UNL     1      14.059  41.221  72.803  1.00  0.00     0.210 HD
ENDBRANCH  37  38
ENDBRANCH  31  37
BRANCH  32  40
ATOM     40  O   UNL     1      14.400  45.929  74.692  1.00  0.00    -0.387 OA
ATOM     41  H   UNL     1      14.439  46.724  74.100  1.00  0.00     0.211 HD
ENDBRANCH  32  40
ENDBRANCH   1  27
TORSDOF 12
ENDMDL
MODEL 5
REMARK VINA RESULT:    -5.731     15.179     17.939
REMARK INTER + INTRA:          -9.782
REMARK INTER:                  -9.151
REMARK INTRA:                  -0.631
REMARK UNBOUND:                -1.370
REMARK SMILES O=c1c(O[C@@H]2O[C@H](CO)[C@@H](O)[C@@H](O)[C@@H]2O)c(-c2ccc(O)c(O)c2)oc2cc(O)cc(O)c12
REMARK SMILES IDX 4 1 3 2 16 3 25 4 2 5 26 6 1 7 33 8 27 9 31 10 28 11 30 12
REMARK SMILES IDX 17 13 18 14 19 15 20 16 24 17 22 18 21 19 23 21 32 23 29 25
REMARK SMILES IDX 5 27 14 28 6 29 12 30 7 31 10 32 15 33 13 35 8 37 9 38 11 40
REMARK H PARENT 21 20 23 22 32 24 29 26 15 34 13 36 9 39 11 41
REMARK Flexibility Score: inf
ROOT
ATOM      1  O   UNL     1       5.433  33.928  71.157  1.00  0.00    -0.454 OA
ENDROOT
BRANCH   1   2
ATOM      2  C   UNL     1       4.566  34.358  70.133  1.00  0.00     0.214 A 
ATOM      3  C   UNL     1       4.895  34.025  68.805  1.00  0.00     0.180 A 
ATOM      4  O   UNL     1       4.064  34.329  67.817  1.00  0.00    -0.452 OA
ATOM      5  C   UNL     1       3.364  35.063  70.371  1.00  0.00     0.239 A 
ATOM      6  C   UNL     1       2.931  34.997  67.993  1.00  0.00     0.146 A 
ATOM      7  O   UNL     1       2.999  35.289  71.552  1.00  0.00    -0.285 OA
ATOM      8  C   UNL     1       2.546  35.448  69.280  1.00  0.00     0.111 A 
ATOM      9  C   UNL     1       2.120  35.239  66.881  1.00  0.00     0.094 A 
ATOM     10  C   UNL     1       1.347  36.213  69.401  1.00  0.00     0.134 A 
ATOM     11  C   UNL     1       0.916  35.930  67.023  1.00  0.00     0.123 A 
ATOM     12  C   UNL     1       0.536  36.408  68.277  1.00  0.00     0.093 A 
BRANCH   3  13
ATOM     13  C   UNL     1       6.149  33.314  68.466  1.00  0.00     0.025 A 
ATOM     14  C   UNL     1       7.355  34.028  68.403  1.00  0.00     0.016 A 
ATOM     15  C   UNL     1       8.550  33.373  68.096  1.00  0.00     0.051 A 
ATOM     16  C   UNL     1       8.560  31.992  67.862  1.00  0.00     0.157 A 
ATOM     17  C   UNL     1       6.167  31.922  68.255  1.00  0.00     0.062 A 
ATOM     18  C   UNL     1       7.361  31.264  67.945  1.00  0.00     0.158 A 
BRANCH  16  19
ATOM     19  O   UNL     1       9.753  31.342  67.551  1.00  0.00    -0.504 OA
ATOM     20  H   UNL     1      10.437  31.119  68.266  1.00  0.00     0.293 HD
ENDBRANCH  16  19
BRANCH  18  21
ATOM     21  O   UNL     1       7.339  29.886  67.728  1.00  0.00    -0.504 OA
ATOM     22  H   UNL     1       8.109  29.398  67.287  1.00  0.00     0.293 HD
ENDBRANCH  18  21
ENDBRANCH   3  13
BRANCH  10  23
ATOM     23  O   UNL     1       0.930  36.825  70.587  1.00  0.00    -0.507 OA
ATOM     24  H   UNL     1       1.221  37.742  70.891  1.00  0.00     0.293 HD
ENDBRANCH  10  23
BRANCH  11  25
ATOM     25  O   UNL     1       0.092  36.153  65.923  1.00  0.00    -0.508 OA
ATOM     26  H   UNL     1      -0.918  36.182  66.013  1.00  0.00     0.293 HD
ENDBRANCH  11  25
ENDBRANCH   1   2
BRANCH   1  27
ATOM     27  C   UNL     1       5.893  32.597  71.396  1.00  0.00     0.339 C 
ATOM     28  C   UNL     1       7.330  32.647  72.001  1.00  0.00     0.214 C 
ATOM     29  O   UNL     1       4.965  31.945  72.254  1.00  0.00    -0.332 OA
ATOM     30  C   UNL     1       7.297  32.268  73.490  1.00  0.00     0.180 C 
ATOM     31  C   UNL     1       5.465  30.689  72.675  1.00  0.00     0.179 C 
ATOM     32  C   UNL     1       6.649  30.876  73.668  1.00  0.00     0.177 C 
BRANCH  28  33
ATOM     33  O   UNL     1       7.891  33.927  71.840  1.00  0.00    -0.384 OA
ATOM     34  H   UNL     1       7.444  34.526  72.495  1.00  0.00     0.211 HD
ENDBRANCH  28  33
BRANCH  30  35
ATOM     35  O   UNL     1       8.599  32.281  74.018  1.00  0.00    -0.387 OA
ATOM     36  H   UNL     1       9.037  33.102  73.672  1.00  0.00     0.211 HD
ENDBRANCH  30  35
BRANCH  31  37
ATOM     37  C   UNL     1       4.322  29.877  73.299  1.00  0.00     0.191 C 
BRANCH  37  38
ATOM     38  O   UNL     1       3.175  29.914  72.491  1.00  0.00    -0.394 OA
ATOM     39  H   UNL     1       2.394  29.822  73.097  1.00  0.00     0.210 HD
ENDBRANCH  37  38
ENDBRANCH  31  37
BRANCH  32  40
ATOM     40  O   UNL     1       7.611  29.875  73.450  1.00  0.00    -0.387 OA
ATOM     41  H   UNL     1       7.458  29.526  72.534  1.00  0.00     0.211 HD
ENDBRANCH  32  40
ENDBRANCH   1  27
TORSDOF 12
ENDMDL
MODEL 6
REMARK VINA RESULT:    -5.629     14.759     18.264
REMARK INTER + INTRA:          -9.632
REMARK INTER:                  -8.149
REMARK INTRA:                  -1.483
REMARK UNBOUND:                -1.370
REMARK SMILES O=c1c(O[C@@H]2O[C@H](CO)[C@@H](O)[C@@H](O)[C@@H]2O)c(-c2ccc(O)c(O)c2)oc2cc(O)cc(O)c12
REMARK SMILES IDX 4 1 3 2 16 3 25 4 2 5 26 6 1 7 33 8 27 9 31 10 28 11 30 12
REMARK SMILES IDX 17 13 18 14 19 15 20 16 24 17 22 18 21 19 23 21 32 23 29 25
REMARK SMILES IDX 5 27 14 28 6 29 12 30 7 31 10 32 15 33 13 35 8 37 9 38 11 40
REMARK H PARENT 21 20 23 22 32 24 29 26 15 34 13 36 9 39 11 41
REMARK Flexibility Score: inf
ROOT
ATOM      1  O   UNL     1       4.591  32.520  70.182  1.00  0.00    -0.454 OA
ENDROOT
BRANCH   1   2
ATOM      2  C   UNL     1       3.890  33.384  69.317  1.00  0.00     0.214 A 
ATOM      3  C   UNL     1       4.525  33.788  68.128  1.00  0.00     0.180 A 
ATOM      4  O   UNL     1       3.871  34.526  67.241  1.00  0.00    -0.452 OA
ATOM      5  C   UNL     1       2.569  33.827  69.557  1.00  0.00     0.239 A 
ATOM      6  C   UNL     1       2.635  34.971  67.428  1.00  0.00     0.146 A 
ATOM      7  O   UNL     1       1.945  33.405  70.564  1.00  0.00    -0.285 OA
ATOM      8  C   UNL     1       1.935  34.688  68.628  1.00  0.00     0.111 A 
ATOM      9  C   UNL     1       2.034  35.720  66.413  1.00  0.00     0.094 A 
ATOM     10  C   UNL     1       0.631  35.242  68.801  1.00  0.00     0.134 A 
ATOM     11  C   UNL     1       0.732  36.200  66.566  1.00  0.00     0.123 A 
ATOM     12  C   UNL     1       0.041  35.958  67.752  1.00  0.00     0.093 A 
BRANCH   3  13
ATOM     13  C   UNL     1       5.917  33.392  67.812  1.00  0.00     0.025 A 
ATOM     14  C   UNL     1       6.982  34.169  68.291  1.00  0.00     0.016 A 
ATOM     15  C   UNL     1       8.303  33.806  68.014  1.00  0.00     0.051 A 
ATOM     16  C   UNL     1       8.578  32.654  67.267  1.00  0.00     0.157 A 
ATOM     17  C   UNL     1       6.198  32.221  67.083  1.00  0.00     0.062 A 
ATOM     18  C   UNL     1       7.519  31.857  66.802  1.00  0.00     0.158 A 
BRANCH  16  19
ATOM     19  O   UNL     1       9.896  32.297  66.988  1.00  0.00    -0.504 OA
ATOM     20  H   UNL     1      10.120  31.445  66.487  1.00  0.00     0.293 HD
ENDBRANCH  16  19
BRANCH  18  21
ATOM     21  O   UNL     1       7.759  30.698  66.065  1.00  0.00    -0.504 OA
ATOM     22  H   UNL     1       7.360  29.803  66.323  1.00  0.00     0.293 HD
ENDBRANCH  18  21
ENDBRANCH   3  13
BRANCH  10  23
ATOM     23  O   UNL     1      -0.105  35.148  69.986  1.00  0.00    -0.507 OA
ATOM     24  H   UNL     1      -0.249  34.294  70.503  1.00  0.00     0.293 HD
ENDBRANCH  10  23
BRANCH  11  25
ATOM     25  O   UNL     1       0.120  36.927  65.548  1.00  0.00    -0.508 OA
ATOM     26  H   UNL     1      -0.516  37.690  65.750  1.00  0.00     0.293 HD
ENDBRANCH  11  25
ENDBRANCH   1   2
BRANCH   1  27
ATOM     27  C   UNL     1       4.981  32.778  71.531  1.00  0.00     0.339 C 
ATOM     28  C   UNL     1       4.231  31.795  72.483  1.00  0.00     0.214 C 
ATOM     29  O   UNL     1       6.394  32.654  71.625  1.00  0.00    -0.332 OA
ATOM     30  C   UNL     1       5.202  30.737  73.030  1.00  0.00     0.180 C 
ATOM     31  C   UNL     1       6.816  32.713  72.976  1.00  0.00     0.179 C 
ATOM     32  C   UNL     1       6.391  31.425  73.739  1.00  0.00     0.177 C 
BRANCH  28  33
ATOM     33  O   UNL     1       3.165  31.170  71.810  1.00  0.00    -0.384 OA
ATOM     34  H   UNL     1       3.513  30.318  71.439  1.00  0.00     0.211 HD
ENDBRANCH  28  33
BRANCH  30  35
ATOM     35  O   UNL     1       4.528  29.878  73.914  1.00  0.00    -0.387 OA
ATOM     36  H   UNL     1       4.721  30.206  74.832  1.00  0.00     0.211 HD
ENDBRANCH  30  35
BRANCH  31  37
ATOM     37  C   UNL     1       8.335  32.925  73.018  1.00  0.00     0.191 C 
BRANCH  37  38
ATOM     38  O   UNL     1       8.794  33.044  74.339  1.00  0.00    -0.394 OA
ATOM     39  H   UNL     1       8.066  33.478  74.856  1.00  0.00     0.210 HD
ENDBRANCH  37  38
ENDBRANCH  31  37
BRANCH  32  40
ATOM     40  O   UNL     1       6.031  31.755  75.056  1.00  0.00    -0.387 OA
ATOM     41  H   UNL     1       5.723  32.698  75.041  1.00  0.00     0.211 HD
ENDBRANCH  32  40
ENDBRANCH   1  27
TORSDOF 12
ENDMDL
MODEL 7
REMARK VINA RESULT:    -5.523      1.618      5.113
REMARK INTER + INTRA:          -9.476
REMARK INTER:                  -8.816
REMARK INTRA:                  -0.660
REMARK UNBOUND:                -1.370
REMARK SMILES O=c1c(O[C@@H]2O[C@H](CO)[C@@H](O)[C@@H](O)[C@@H]2O)c(-c2ccc(O)c(O)c2)oc2cc(O)cc(O)c12
REMARK SMILES IDX 4 1 3 2 16 3 25 4 2 5 26 6 1 7 33 8 27 9 31 10 28 11 30 12
REMARK SMILES IDX 17 13 18 14 19 15 20 16 24 17 22 18 21 19 23 21 32 23 29 25
REMARK SMILES IDX 5 27 14 28 6 29 12 30 7 31 10 32 15 33 13 35 8 37 9 38 11 40
REMARK H PARENT 21 20 23 22 32 24 29 26 15 34 13 36 9 39 11 41
REMARK Flexibility Score: inf
ROOT
ATOM      1  O   UNL     1      16.814  46.225  74.284  1.00  0.00    -0.454 OA
ENDROOT
BRANCH   1   2
ATOM      2  C   UNL     1      16.625  44.828  74.300  1.00  0.00     0.214 A 
ATOM      3  C   UNL     1      15.310  44.340  74.408  1.00  0.00     0.180 A 
ATOM      4  O   UNL     1      15.075  43.036  74.336  1.00  0.00    -0.452 OA
ATOM      5  C   UNL     1      17.679  43.895  74.165  1.00  0.00     0.239 A 
ATOM      6  C   UNL     1      16.033  42.126  74.218  1.00  0.00     0.146 A 
ATOM      7  O   UNL     1      18.852  44.306  73.971  1.00  0.00    -0.285 OA
ATOM      8  C   UNL     1      17.397  42.507  74.181  1.00  0.00     0.111 A 
ATOM      9  C   UNL     1      15.667  40.780  74.125  1.00  0.00     0.094 A 
ATOM     10  C   UNL     1      18.388  41.482  74.114  1.00  0.00     0.134 A 
ATOM     11  C   UNL     1      16.643  39.791  73.991  1.00  0.00     0.123 A 
ATOM     12  C   UNL     1      17.991  40.146  73.984  1.00  0.00     0.093 A 
BRANCH   3  13
ATOM     13  C   UNL     1      14.151  45.246  74.581  1.00  0.00     0.025 A 
ATOM     14  C   UNL     1      14.141  46.488  73.929  1.00  0.00     0.016 A 
ATOM     15  C   UNL     1      13.052  47.352  74.070  1.00  0.00     0.051 A 
ATOM     16  C   UNL     1      11.952  46.982  74.854  1.00  0.00     0.157 A 
ATOM     17  C   UNL     1      13.033  44.867  75.348  1.00  0.00     0.062 A 
ATOM     18  C   UNL     1      11.943  45.731  75.493  1.00  0.00     0.158 A 
BRANCH  16  19
ATOM     19  O   UNL     1      10.869  47.848  74.996  1.00  0.00    -0.504 OA
ATOM     20  H   UNL     1      10.478  48.063  75.907  1.00  0.00     0.293 HD
ENDBRANCH  16  19
BRANCH  18  21
ATOM     21  O   UNL     1      10.858  45.328  76.271  1.00  0.00    -0.504 OA
ATOM     22  H   UNL     1      10.388  44.443  76.123  1.00  0.00     0.293 HD
ENDBRANCH  18  21
ENDBRANCH   3  13
BRANCH  10  23
ATOM     23  O   UNL     1      19.763  41.720  74.205  1.00  0.00    -0.507 OA
ATOM     24  H   UNL     1      20.476  41.088  73.872  1.00  0.00     0.293 HD
ENDBRANCH  10  23
BRANCH  11  25
ATOM     25  O   UNL     1      16.283  38.451  73.873  1.00  0.00    -0.508 OA
ATOM     26  H   UNL     1      16.768  37.724  74.387  1.00  0.00     0.293 HD
ENDBRANCH  11  25
ENDBRANCH   1   2
BRANCH   1  27
ATOM     27  C   UNL     1      17.600  47.000  75.190  1.00  0.00     0.339 C 
ATOM     28  C   UNL     1      18.736  47.722  74.401  1.00  0.00     0.214 C 
ATOM     29  O   UNL     1      16.743  47.911  75.866  1.00  0.00    -0.332 OA
ATOM     30  C   UNL     1      18.441  49.228  74.300  1.00  0.00     0.180 C 
ATOM     31  C   UNL     1      17.495  48.832  76.637  1.00  0.00     0.179 C 
ATOM     32  C   UNL     1      18.254  49.827  75.712  1.00  0.00     0.177 C 
BRANCH  28  33
ATOM     33  O   UNL     1      18.874  47.170  73.115  1.00  0.00    -0.384 OA
ATOM     34  H   UNL     1      19.026  46.195  73.231  1.00  0.00     0.211 HD
ENDBRANCH  28  33
BRANCH  30  35
ATOM     35  O   UNL     1      19.486  49.877  73.620  1.00  0.00    -0.387 OA
ATOM     36  H   UNL     1      20.304  49.748  74.168  1.00  0.00     0.211 HD
ENDBRANCH  30  35
BRANCH  31  37
ATOM     37  C   UNL     1      16.554  49.560  77.606  1.00  0.00     0.191 C 
BRANCH  37  38
ATOM     38  O   UNL     1      15.234  49.557  77.130  1.00  0.00    -0.394 OA
ATOM     39  H   UNL     1      15.229  50.096  76.297  1.00  0.00     0.210 HD
ENDBRANCH  37  38
ENDBRANCH  31  37
BRANCH  32  40
ATOM     40  O   UNL     1      19.509  50.125  76.270  1.00  0.00    -0.387 OA
ATOM     41  H   UNL     1      19.662  49.469  76.999  1.00  0.00     0.211 HD
ENDBRANCH  32  40
ENDBRANCH   1  27
TORSDOF 12
ENDMDL
MODEL 8
REMARK VINA RESULT:    -5.444      1.292      2.527
REMARK INTER + INTRA:          -9.360
REMARK INTER:                  -8.405
REMARK INTRA:                  -0.955
REMARK UNBOUND:                -1.370
REMARK SMILES O=c1c(O[C@@H]2O[C@H](CO)[C@@H](O)[C@@H](O)[C@@H]2O)c(-c2ccc(O)c(O)c2)oc2cc(O)cc(O)c12
REMARK SMILES IDX 4 1 3 2 16 3 25 4 2 5 26 6 1 7 33 8 27 9 31 10 28 11 30 12
REMARK SMILES IDX 17 13 18 14 19 15 20 16 24 17 22 18 21 19 23 21 32 23 29 25
REMARK SMILES IDX 5 27 14 28 6 29 12 30 7 31 10 32 15 33 13 35 8 37 9 38 11 40
REMARK H PARENT 21 20 23 22 32 24 29 26 15 34 13 36 9 39 11 41
REMARK Flexibility Score: inf
ROOT
ATOM      1  O   UNL     1      15.674  45.564  75.006  1.00  0.00    -0.454 OA
ENDROOT
BRANCH   1   2
ATOM      2  C   UNL     1      16.446  44.387  75.060  1.00  0.00     0.214 A 
ATOM      3  C   UNL     1      17.761  44.481  75.552  1.00  0.00     0.180 A 
ATOM      4  O   UNL     1      18.495  43.386  75.707  1.00  0.00    -0.452 OA
ATOM      5  C   UNL     1      15.955  43.113  74.693  1.00  0.00     0.239 A 
ATOM      6  C   UNL     1      18.078  42.173  75.368  1.00  0.00     0.146 A 
ATOM      7  O   UNL     1      14.755  42.986  74.341  1.00  0.00    -0.285 OA
ATOM      8  C   UNL     1      16.799  41.979  74.789  1.00  0.00     0.111 A 
ATOM      9  C   UNL     1      18.926  41.087  75.600  1.00  0.00     0.094 A 
ATOM     10  C   UNL     1      16.427  40.660  74.389  1.00  0.00     0.134 A 
ATOM     11  C   UNL     1      18.524  39.793  75.267  1.00  0.00     0.123 A 
ATOM     12  C   UNL     1      17.282  39.587  74.668  1.00  0.00     0.093 A 
BRANCH   3  13
ATOM     13  C   UNL     1      18.363  45.780  75.932  1.00  0.00     0.025 A 
ATOM     14  C   UNL     1      18.881  45.951  77.224  1.00  0.00     0.016 A 
ATOM     15  C   UNL     1      19.462  47.164  77.599  1.00  0.00     0.051 A 
ATOM     16  C   UNL     1      19.548  48.220  76.682  1.00  0.00     0.157 A 
ATOM     17  C   UNL     1      18.473  46.834  75.006  1.00  0.00     0.062 A 
ATOM     18  C   UNL     1      19.053  48.051  75.378  1.00  0.00     0.158 A 
BRANCH  16  19
ATOM     19  O   UNL     1      20.125  49.432  77.060  1.00  0.00    -0.504 OA
ATOM     20  H   UNL     1      20.101  49.754  78.021  1.00  0.00     0.293 HD
ENDBRANCH  16  19
BRANCH  18  21
ATOM     21  O   UNL     1      19.133  49.079  74.438  1.00  0.00    -0.504 OA
ATOM     22  H   UNL     1      20.020  49.427  74.096  1.00  0.00     0.293 HD
ENDBRANCH  18  21
ENDBRANCH   3  13
BRANCH  10  23
ATOM     23  O   UNL     1      15.254  40.360  73.689  1.00  0.00    -0.507 OA
ATOM     24  H   UNL     1      14.681  39.547  73.857  1.00  0.00     0.293 HD
ENDBRANCH  10  23
BRANCH  11  25
ATOM     25  O   UNL     1      19.356  38.704  75.518  1.00  0.00    -0.508 OA
ATOM     26  H   UNL     1      19.967  38.679  76.326  1.00  0.00     0.293 HD
ENDBRANCH  11  25
ENDBRANCH   1   2
BRANCH   1  27
ATOM     27  C   UNL     1      14.833  45.997  73.935  1.00  0.00     0.339 C 
ATOM     28  C   UNL     1      13.340  45.886  74.374  1.00  0.00     0.214 C 
ATOM     29  O   UNL     1      15.198  47.325  73.582  1.00  0.00    -0.332 OA
ATOM     30  C   UNL     1      12.748  47.284  74.615  1.00  0.00     0.180 C 
ATOM     31  C   UNL     1      14.276  47.871  72.657  1.00  0.00     0.179 C 
ATOM     32  C   UNL     1      12.910  48.154  73.347  1.00  0.00     0.177 C 
BRANCH  28  33
ATOM     33  O   UNL     1      13.222  45.104  75.537  1.00  0.00    -0.384 OA
ATOM     34  H   UNL     1      13.714  44.258  75.372  1.00  0.00     0.211 HD
ENDBRANCH  28  33
BRANCH  30  35
ATOM     35  O   UNL     1      11.394  47.177  74.974  1.00  0.00    -0.387 OA
ATOM     36  H   UNL     1      11.373  46.994  75.950  1.00  0.00     0.211 HD
ENDBRANCH  30  35
BRANCH  31  37
ATOM     37  C   UNL     1      14.877  49.143  72.042  1.00  0.00     0.191 C 
BRANCH  37  38
ATOM     38  O   UNL     1      13.876  50.078  71.734  1.00  0.00    -0.394 OA
ATOM     39  H   UNL     1      13.187  50.005  72.445  1.00  0.00     0.210 HD
ENDBRANCH  37  38
ENDBRANCH  31  37
BRANCH  32  40
ATOM     40  O   UNL     1      11.863  47.881  72.450  1.00  0.00    -0.387 OA
ATOM     41  H   UNL     1      11.017  48.072  72.931  1.00  0.00     0.211 HD
ENDBRANCH  32  40
ENDBRANCH   1  27
TORSDOF 12
ENDMDL
MODEL 9
REMARK VINA RESULT:    -5.249     15.373     17.948
REMARK INTER + INTRA:          -9.075
REMARK INTER:                  -7.687
REMARK INTRA:                  -1.388
REMARK UNBOUND:                -1.370
REMARK SMILES O=c1c(O[C@@H]2O[C@H](CO)[C@@H](O)[C@@H](O)[C@@H]2O)c(-c2ccc(O)c(O)c2)oc2cc(O)cc(O)c12
REMARK SMILES IDX 4 1 3 2 16 3 25 4 2 5 26 6 1 7 33 8 27 9 31 10 28 11 30 12
REMARK SMILES IDX 17 13 18 14 19 15 20 16 24 17 22 18 21 19 23 21 32 23 29 25
REMARK SMILES IDX 5 27 14 28 6 29 12 30 7 31 10 32 15 33 13 35 8 37 9 38 11 40
REMARK H PARENT 21 20 23 22 32 24 29 26 15 34 13 36 9 39 11 41
REMARK Flexibility Score: inf
ROOT
ATOM      1  O   UNL     1       4.117  31.782  68.955  1.00  0.00    -0.454 OA
ENDROOT
BRANCH   1   2
ATOM      2  C   UNL     1       4.481  31.377  70.255  1.00  0.00     0.214 A 
ATOM      3  C   UNL     1       5.847  31.394  70.594  1.00  0.00     0.180 A 
ATOM      4  O   UNL     1       6.230  31.109  71.832  1.00  0.00    -0.452 OA
ATOM      5  C   UNL     1       3.547  31.002  71.248  1.00  0.00     0.239 A 
ATOM      6  C   UNL     1       5.390  30.745  72.792  1.00  0.00     0.146 A 
ATOM      7  O   UNL     1       2.316  31.071  71.002  1.00  0.00    -0.285 OA
ATOM      8  C   UNL     1       4.002  30.619  72.534  1.00  0.00     0.111 A 
ATOM      9  C   UNL     1       5.903  30.494  74.067  1.00  0.00     0.094 A 
ATOM     10  C   UNL     1       3.153  30.166  73.588  1.00  0.00     0.134 A 
ATOM     11  C   UNL     1       5.053  30.116  75.108  1.00  0.00     0.123 A 
ATOM     12  C   UNL     1       3.689  29.957  74.864  1.00  0.00     0.093 A 
BRANCH   3  13
ATOM     13  C   UNL     1       6.893  31.747  69.606  1.00  0.00     0.025 A 
ATOM     14  C   UNL     1       7.603  30.726  68.956  1.00  0.00     0.016 A 
ATOM     15  C   UNL     1       8.585  31.038  68.013  1.00  0.00     0.051 A 
ATOM     16  C   UNL     1       8.862  32.373  67.694  1.00  0.00     0.157 A 
ATOM     17  C   UNL     1       7.156  33.087  69.266  1.00  0.00     0.062 A 
ATOM     18  C   UNL     1       8.141  33.403  68.323  1.00  0.00     0.158 A 
BRANCH  16  19
ATOM     19  O   UNL     1       9.845  32.681  66.756  1.00  0.00    -0.504 OA
ATOM     20  H   UNL     1       9.732  33.448  66.101  1.00  0.00     0.293 HD
ENDBRANCH  16  19
BRANCH  18  21
ATOM     21  O   UNL     1       8.384  34.742  68.021  1.00  0.00    -0.504 OA
ATOM     22  H   UNL     1       9.293  35.167  68.157  1.00  0.00     0.293 HD
ENDBRANCH  18  21
ENDBRANCH   3  13
BRANCH  10  23
ATOM     23  O   UNL     1       1.795  29.875  73.425  1.00  0.00    -0.507 OA
ATOM     24  H   UNL     1       1.054  30.557  73.478  1.00  0.00     0.293 HD
ENDBRANCH  10  23
BRANCH  11  25
ATOM     25  O   UNL     1       5.555  29.887  76.387  1.00  0.00    -0.508 OA
ATOM     26  H   UNL     1       5.033  30.149  77.216  1.00  0.00     0.293 HD
ENDBRANCH  11  25
ENDBRANCH   1   2
BRANCH   1  27
ATOM     27  C   UNL     1       3.589  33.050  68.562  1.00  0.00     0.339 C 
ATOM     28  C   UNL     1       2.293  32.832  67.721  1.00  0.00     0.214 C 
ATOM     29  O   UNL     1       3.355  33.824  69.732  1.00  0.00    -0.332 OA
ATOM     30  C   UNL     1       1.054  33.236  68.536  1.00  0.00     0.180 C 
ATOM     31  C   UNL     1       2.659  35.015  69.416  1.00  0.00     0.179 C 
ATOM     32  C   UNL     1       1.188  34.700  69.015  1.00  0.00     0.177 C 
BRANCH  28  33
ATOM     33  O   UNL     1       2.187  31.491  67.312  1.00  0.00    -0.384 OA
ATOM     34  H   UNL     1       1.364  31.418  66.761  1.00  0.00     0.211 HD
ENDBRANCH  28  33
BRANCH  30  35
ATOM     35  O   UNL     1      -0.105  33.072  67.760  1.00  0.00    -0.387 OA
ATOM     36  H   UNL     1      -0.868  33.373  68.321  1.00  0.00     0.211 HD
ENDBRANCH  30  35
BRANCH  31  37
ATOM     37  C   UNL     1       2.729  35.971  70.614  1.00  0.00     0.191 C 
BRANCH  37  38
ATOM     38  O   UNL     1       1.536  36.697  70.755  1.00  0.00    -0.394 OA
ATOM     39  H   UNL     1       1.599  37.188  71.615  1.00  0.00     0.210 HD
ENDBRANCH  37  38
ENDBRANCH  31  37
BRANCH  32  40
ATOM     40  O   UNL     1       0.780  35.572  67.991  1.00  0.00    -0.387 OA
ATOM     41  H   UNL     1       1.338  36.388  68.072  1.00  0.00     0.211 HD
ENDBRANCH  32  40
ENDBRANCH   1  27
TORSDOF 12
ENDMDL
