MODEL 1
REMARK VINA RESULT:    -3.959      0.000      0.000
REMARK INTER + INTRA:          -7.149
REMARK INTER:                  -6.042
REMARK INTRA:                  -1.108
REMARK UNBOUND:                -1.108
REMARK SMILES CCCCCCCCCCC(=O)[O-]
REMARK SMILES IDX 7 1 8 2 9 3 10 4 11 5 12 6 13 7 6 8 5 9 4 10 3 11 2 12 1 13
REMARK H PARENT
REMARK Flexibility Score: inf
ROOT
ATOM      1  C   UNL     1      19.028  30.613  43.880  1.00  0.00     0.000 C 
ENDROOT
BRANCH   1   2
ATOM      2  C   UNL     1      18.472  30.124  45.228  1.00  0.00     0.000 C 
BRANCH   2   3
ATOM      3  C   UNL     1      18.338  31.258  46.263  1.00  0.00     0.006 C 
BRANCH   3   4
ATOM      4  C   UNL     1      18.791  30.876  47.682  1.00  0.00     0.053 C 
BRANCH   4   5
ATOM      5  C   UNL     1      20.171  30.294  47.695  1.00  0.00     0.041 C 
ATOM      6  O   UNL     1      20.338  29.066  47.908  1.00  0.00    -0.550 OA
ATOM      7  O   UNL     1      21.274  31.117  47.506  1.00  0.00    -0.550 OA
ENDBRANCH   4   5
ENDBRANCH   3   4
ENDBRANCH   2   3
ENDBRANCH   1   2
BRANCH   1   8
ATOM      8  C   UNL     1      19.372  32.113  43.895  1.00  0.00     0.000 C 
BRANCH   8   9
ATOM      9  C   UNL     1      20.885  32.368  43.991  1.00  0.00    -0.000 C 
BRANCH   9  10
ATOM     10  C   UNL     1      21.230  33.596  44.855  1.00  0.00    -0.000 C 
BRANCH  10  11
ATOM     11  C   UNL     1      20.191  34.735  44.818  1.00  0.00    -0.000 C 
BRANCH  11  12
ATOM     12  C   UNL     1      19.539  35.065  46.172  1.00  0.00    -0.003 C 
ATOM     13  C   UNL     1      20.331  34.523  47.362  1.00  0.00     0.004 C 
ENDBRANCH  11  12
ENDBRANCH  10  11
ENDBRANCH   9  10
ENDBRANCH   8   9
ENDBRANCH   1   8
TORSDOF 9
ENDMDL
MODEL 2
REMARK VINA RESULT:    -3.956      1.558      1.719
REMARK INTER + INTRA:          -7.145
REMARK INTER:                  -6.006
REMARK INTRA:                  -1.139
REMARK UNBOUND:                -1.108
REMARK SMILES CCCCCCCCCCC(=O)[O-]
REMARK SMILES IDX 7 1 8 2 9 3 10 4 11 5 12 6 13 7 6 8 5 9 4 10 3 11 2 12 1 13
REMARK H PARENT
REMARK Flexibility Score: inf
ROOT
ATOM      1  C   UNL     1      18.616  30.357  43.967  1.00  0.00     0.000 C 
ENDROOT
BRANCH   1   2
ATOM      2  C   UNL     1      18.362  29.506  45.223  1.00  0.00     0.000 C 
BRANCH   2   3
ATOM      3  C   UNL     1      19.180  29.980  46.439  1.00  0.00     0.006 C 
BRANCH   3   4
ATOM      4  C   UNL     1      18.346  30.224  47.707  1.00  0.00     0.053 C 
BRANCH   4   5
ATOM      5  C   UNL     1      19.130  29.961  48.956  1.00  0.00     0.041 C 
ATOM      6  O   UNL     1      19.444  28.783  49.270  1.00  0.00    -0.550 OA
ATOM      7  O   UNL     1      19.485  31.014  49.790  1.00  0.00    -0.550 OA
ENDBRANCH   4   5
ENDBRANCH   3   4
ENDBRANCH   2   3
ENDBRANCH   1   2
BRANCH   1   8
ATOM      8  C   UNL     1      19.730  31.397  44.178  1.00  0.00     0.000 C 
BRANCH   8   9
ATOM      9  C   UNL     1      19.262  32.830  43.875  1.00  0.00    -0.000 C 
BRANCH   9  10
ATOM     10  C   UNL     1      18.185  33.326  44.857  1.00  0.00    -0.000 C 
BRANCH  10  11
ATOM     11  C   UNL     1      18.682  34.312  45.933  1.00  0.00    -0.000 C 
BRANCH  11  12
ATOM     12  C   UNL     1      19.341  33.659  47.160  1.00  0.00    -0.003 C 
ATOM     13  C   UNL     1      20.866  33.607  47.060  1.00  0.00     0.004 C 
ENDBRANCH  11  12
ENDBRANCH  10  11
ENDBRANCH   9  10
ENDBRANCH   8   9
ENDBRANCH   1   8
TORSDOF 9
ENDMDL
MODEL 3
REMARK VINA RESULT:    -3.937      1.864      4.132
REMARK INTER + INTRA:          -7.117
REMARK INTER:                  -5.805
REMARK INTRA:                  -1.312
REMARK UNBOUND:                -1.108
REMARK SMILES CCCCCCCCCCC(=O)[O-]
REMARK SMILES IDX 7 1 8 2 9 3 10 4 11 5 12 6 13 7 6 8 5 9 4 10 3 11 2 12 1 13
REMARK H PARENT
REMARK Flexibility Score: inf
ROOT
ATOM      1  C   UNL     1      19.253  31.961  43.875  1.00  0.00     0.000 C 
ENDROOT
BRANCH   1   2
ATOM      2  C   UNL     1      20.772  32.164  44.005  1.00  0.00     0.000 C 
BRANCH   2   3
ATOM      3  C   UNL     1      21.141  33.540  44.593  1.00  0.00     0.006 C 
BRANCH   3   4
ATOM      4  C   UNL     1      19.941  34.476  44.816  1.00  0.00     0.053 C 
BRANCH   4   5
ATOM      5  C   UNL     1      19.821  34.905  46.246  1.00  0.00     0.041 C 
ATOM      6  O   UNL     1      20.658  34.511  47.099  1.00  0.00    -0.550 OA
ATOM      7  O   UNL     1      18.762  35.713  46.642  1.00  0.00    -0.550 OA
ENDBRANCH   4   5
ENDBRANCH   3   4
ENDBRANCH   2   3
ENDBRANCH   1   2
BRANCH   1   8
ATOM      8  C   UNL     1      18.847  30.481  43.980  1.00  0.00     0.000 C 
BRANCH   8   9
ATOM      9  C   UNL     1      18.623  30.034  45.434  1.00  0.00    -0.000 C 
BRANCH   9  10
ATOM     10  C   UNL     1      18.184  31.189  46.353  1.00  0.00    -0.000 C 
BRANCH  10  11
ATOM     11  C   UNL     1      19.077  31.418  47.590  1.00  0.00    -0.000 C 
BRANCH  11  12
ATOM     12  C   UNL     1      20.314  30.508  47.677  1.00  0.00    -0.003 C 
ATOM     13  C   UNL     1      21.629  31.287  47.650  1.00  0.00     0.004 C 
ENDBRANCH  11  12
ENDBRANCH  10  11
ENDBRANCH   9  10
ENDBRANCH   8   9
ENDBRANCH   1   8
TORSDOF 9
ENDMDL
MODEL 4
REMARK VINA RESULT:    -3.852      1.156      2.135
REMARK INTER + INTRA:          -6.987
REMARK INTER:                  -5.968
REMARK INTRA:                  -1.019
REMARK UNBOUND:                -1.108
REMARK SMILES CCCCCCCCCCC(=O)[O-]
REMARK SMILES IDX 7 1 8 2 9 3 10 4 11 5 12 6 13 7 6 8 5 9 4 10 3 11 2 12 1 13
REMARK H PARENT
REMARK Flexibility Score: inf
ROOT
ATOM      1  C   UNL     1      18.791  32.677  44.257  1.00  0.00     0.000 C 
ENDROOT
BRANCH   1   2
ATOM      2  C   UNL     1      19.125  31.190  44.050  1.00  0.00     0.000 C 
BRANCH   2   3
ATOM      3  C   UNL     1      18.654  30.306  45.221  1.00  0.00     0.006 C 
BRANCH   3   4
ATOM      4  C   UNL     1      18.279  31.085  46.492  1.00  0.00     0.053 C 
BRANCH   4   5
ATOM      5  C   UNL     1      18.997  30.569  47.701  1.00  0.00     0.041 C 
ATOM      6  O   UNL     1      18.907  31.176  48.799  1.00  0.00    -0.550 OA
ATOM      7  O   UNL     1      19.794  29.435  47.604  1.00  0.00    -0.550 OA
ENDBRANCH   4   5
ENDBRANCH   3   4
ENDBRANCH   2   3
ENDBRANCH   1   2
BRANCH   1   8
ATOM      8  C   UNL     1      19.985  33.596  43.945  1.00  0.00     0.000 C 
BRANCH   8   9
ATOM      9  C   UNL     1      20.110  34.758  44.945  1.00  0.00    -0.000 C 
BRANCH   9  10
ATOM     10  C   UNL     1      18.992  34.758  46.004  1.00  0.00    -0.000 C 
BRANCH  10  11
ATOM     11  C   UNL     1      19.473  34.651  47.465  1.00  0.00    -0.000 C 
BRANCH  11  12
ATOM     12  C   UNL     1      20.857  34.006  47.650  1.00  0.00    -0.003 C 
ATOM     13  C   UNL     1      21.408  34.175  49.066  1.00  0.00     0.004 C 
ENDBRANCH  11  12
ENDBRANCH  10  11
ENDBRANCH   9  10
ENDBRANCH   8   9
ENDBRANCH   1   8
TORSDOF 9
ENDMDL
MODEL 5
REMARK VINA RESULT:    -3.819      1.724      2.272
REMARK INTER + INTRA:          -6.936
REMARK INTER:                  -6.056
REMARK INTRA:                  -0.881
REMARK UNBOUND:                -1.108
REMARK SMILES CCCCCCCCCCC(=O)[O-]
REMARK SMILES IDX 7 1 8 2 9 3 10 4 11 5 12 6 13 7 6 8 5 9 4 10 3 11 2 12 1 13
REMARK H PARENT
REMARK Flexibility Score: inf
ROOT
ATOM      1  C   UNL     1      18.681  30.100  45.492  1.00  0.00     0.000 C 
ENDROOT
BRANCH   1   2
ATOM      2  C   UNL     1      18.059  31.176  46.400  1.00  0.00     0.000 C 
BRANCH   2   3
ATOM      3  C   UNL     1      18.056  30.771  47.886  1.00  0.00     0.006 C 
BRANCH   3   4
ATOM      4  C   UNL     1      19.127  31.474  48.736  1.00  0.00     0.053 C 
BRANCH   4   5
ATOM      5  C   UNL     1      19.037  31.095  50.182  1.00  0.00     0.041 C 
ATOM      6  O   UNL     1      18.602  31.919  51.028  1.00  0.00    -0.550 OA
ATOM      7  O   UNL     1      19.464  29.840  50.599  1.00  0.00    -0.550 OA
ENDBRANCH   4   5
ENDBRANCH   3   4
ENDBRANCH   2   3
ENDBRANCH   1   2
BRANCH   1   8
ATOM      8  C   UNL     1      18.868  30.589  44.045  1.00  0.00     0.000 C 
BRANCH   8   9
ATOM      9  C   UNL     1      19.136  32.102  43.965  1.00  0.00    -0.000 C 
BRANCH   9  10
ATOM     10  C   UNL     1      20.620  32.457  44.169  1.00  0.00    -0.000 C 
BRANCH  10  11
ATOM     11  C   UNL     1      20.900  33.497  45.273  1.00  0.00    -0.000 C 
BRANCH  11  12
ATOM     12  C   UNL     1      19.978  34.729  45.255  1.00  0.00    -0.003 C 
ATOM     13  C   UNL     1      19.140  34.863  46.526  1.00  0.00     0.004 C 
ENDBRANCH  11  12
ENDBRANCH  10  11
ENDBRANCH   9  10
ENDBRANCH   8   9
ENDBRANCH   1   8
TORSDOF 9
ENDMDL
MODEL 6
REMARK VINA RESULT:    -3.786      1.162      3.231
REMARK INTER + INTRA:          -6.886
REMARK INTER:                  -5.773
REMARK INTRA:                  -1.113
REMARK UNBOUND:                -1.108
REMARK SMILES CCCCCCCCCCC(=O)[O-]
REMARK SMILES IDX 7 1 8 2 9 3 10 4 11 5 12 6 13 7 6 8 5 9 4 10 3 11 2 12 1 13
REMARK H PARENT
REMARK Flexibility Score: inf
ROOT
ATOM      1  C   UNL     1      20.232  34.265  46.982  1.00  0.00     0.000 C 
ENDROOT
BRANCH   1   2
ATOM      2  C   UNL     1      19.085  33.884  47.932  1.00  0.00     0.000 C 
BRANCH   2   3
ATOM      3  C   UNL     1      18.635  32.420  47.765  1.00  0.00     0.006 C 
BRANCH   3   4
ATOM      4  C   UNL     1      19.789  31.407  47.698  1.00  0.00     0.053 C 
BRANCH   4   5
ATOM      5  C   UNL     1      19.780  30.466  48.863  1.00  0.00     0.041 C 
ATOM      6  O   UNL     1      19.028  30.683  49.848  1.00  0.00    -0.550 OA
ATOM      7  O   UNL     1      20.630  29.367  48.875  1.00  0.00    -0.550 OA
ENDBRANCH   4   5
ENDBRANCH   3   4
ENDBRANCH   2   3
ENDBRANCH   1   2
BRANCH   1   8
ATOM      8  C   UNL     1      19.757  35.133  45.804  1.00  0.00     0.000 C 
BRANCH   8   9
ATOM      9  C   UNL     1      20.333  34.665  44.457  1.00  0.00    -0.000 C 
BRANCH   9  10
ATOM     10  C   UNL     1      21.369  33.537  44.611  1.00  0.00    -0.000 C 
BRANCH  10  11
ATOM     11  C   UNL     1      20.872  32.132  44.216  1.00  0.00    -0.000 C 
BRANCH  11  12
ATOM     12  C   UNL     1      19.374  32.043  43.876  1.00  0.00    -0.003 C 
ATOM     13  C   UNL     1      18.814  30.627  44.018  1.00  0.00     0.004 C 
ENDBRANCH  11  12
ENDBRANCH  10  11
ENDBRANCH   9  10
ENDBRANCH   8   9
ENDBRANCH   1   8
TORSDOF 9
ENDMDL
MODEL 7
REMARK VINA RESULT:    -3.776     10.553     12.377
REMARK INTER + INTRA:          -6.871
REMARK INTER:                  -5.998
REMARK INTRA:                  -0.873
REMARK UNBOUND:                -1.108
REMARK SMILES CCCCCCCCCCC(=O)[O-]
REMARK SMILES IDX 7 1 8 2 9 3 10 4 11 5 12 6 13 7 6 8 5 9 4 10 3 11 2 12 1 13
REMARK H PARENT
REMARK Flexibility Score: inf
ROOT
ATOM      1  C   UNL     1      29.794  39.400  44.579  1.00  0.00     0.000 C 
ENDROOT
BRANCH   1   2
ATOM      2  C   UNL     1      28.831  40.513  44.134  1.00  0.00     0.000 C 
BRANCH   2   3
ATOM      3  C   UNL     1      28.209  41.272  45.322  1.00  0.00     0.006 C 
BRANCH   3   4
ATOM      4  C   UNL     1      27.626  42.648  44.959  1.00  0.00     0.053 C 
BRANCH   4   5
ATOM      5  C   UNL     1      27.030  43.338  46.147  1.00  0.00     0.041 C 
ATOM      6  O   UNL     1      25.949  43.972  46.035  1.00  0.00    -0.550 OA
ATOM      7  O   UNL     1      27.687  43.307  47.371  1.00  0.00    -0.550 OA
ENDBRANCH   4   5
ENDBRANCH   3   4
ENDBRANCH   2   3
ENDBRANCH   1   2
BRANCH   1   8
ATOM      8  C   UNL     1      29.372  38.755  45.911  1.00  0.00     0.000 C 
BRANCH   8   9
ATOM      9  C   UNL     1      28.838  37.324  45.729  1.00  0.00    -0.000 C 
BRANCH   9  10
ATOM     10  C   UNL     1      27.755  36.956  46.760  1.00  0.00    -0.000 C 
BRANCH  10  11
ATOM     11  C   UNL     1      27.404  38.069  47.768  1.00  0.00    -0.000 C 
BRANCH  11  12
ATOM     12  C   UNL     1      26.085  38.810  47.487  1.00  0.00    -0.003 C 
ATOM     13  C   UNL     1      26.027  40.190  48.142  1.00  0.00     0.004 C 
ENDBRANCH  11  12
ENDBRANCH  10  11
ENDBRANCH   9  10
ENDBRANCH   8   9
ENDBRANCH   1   8
TORSDOF 9
ENDMDL
MODEL 8
REMARK VINA RESULT:    -3.632      1.522      3.733
REMARK INTER + INTRA:          -6.651
REMARK INTER:                  -5.480
REMARK INTRA:                  -1.171
REMARK UNBOUND:                -1.108
REMARK SMILES CCCCCCCCCCC(=O)[O-]
REMARK SMILES IDX 7 1 8 2 9 3 10 4 11 5 12 6 13 7 6 8 5 9 4 10 3 11 2 12 1 13
REMARK H PARENT
REMARK Flexibility Score: inf
ROOT
ATOM      1  C   UNL     1      20.507  34.375  44.936  1.00  0.00     0.000 C 
ENDROOT
BRANCH   1   2
ATOM      2  C   UNL     1      19.440  35.127  45.749  1.00  0.00     0.000 C 
BRANCH   2   3
ATOM      3  C   UNL     1      19.424  34.716  47.234  1.00  0.00     0.006 C 
BRANCH   3   4
ATOM      4  C   UNL     1      20.579  33.789  47.647  1.00  0.00     0.053 C 
BRANCH   4   5
ATOM      5  C   UNL     1      20.268  33.025  48.897  1.00  0.00     0.041 C 
ATOM      6  O   UNL     1      21.194  32.498  49.565  1.00  0.00    -0.550 OA
ATOM      7  O   UNL     1      18.949  32.866  49.304  1.00  0.00    -0.550 OA
ENDBRANCH   4   5
ENDBRANCH   3   4
ENDBRANCH   2   3
ENDBRANCH   1   2
BRANCH   1   8
ATOM      8  C   UNL     1      19.891  33.447  43.875  1.00  0.00     0.000 C 
BRANCH   8   9
ATOM      9  C   UNL     1      20.223  31.965  44.124  1.00  0.00    -0.000 C 
BRANCH   9  10
ATOM     10  C   UNL     1      18.979  31.122  44.458  1.00  0.00    -0.000 C 
BRANCH  10  11
ATOM     11  C   UNL     1      18.255  31.510  45.764  1.00  0.00    -0.000 C 
BRANCH  11  12
ATOM     12  C   UNL     1      18.147  30.384  46.807  1.00  0.00    -0.003 C 
ATOM     13  C   UNL     1      19.509  29.849  47.249  1.00  0.00     0.004 C 
ENDBRANCH  11  12
ENDBRANCH  10  11
ENDBRANCH   9  10
ENDBRANCH   8   9
ENDBRANCH   1   8
TORSDOF 9
ENDMDL
