MODEL 1
REMARK VINA RESULT:    -7.091      0.000      0.000
REMARK INTER + INTRA:          -8.824
REMARK INTER:                  -8.541
REMARK INTRA:                  -0.283
REMARK UNBOUND:                -0.283
REMARK SMILES O=c1c(O)c(-c2ccc(O)c(O)c2)oc2cc(O)cc(O)c12
REMARK SMILES IDX 5 1 3 2 2 3 1 4 22 5 20 6 19 7 17 8 16 9 15 10 14 11 6 12
REMARK SMILES IDX 7 13 8 14 9 15 13 16 11 17 10 18 12 20 4 22 21 24 18 26
REMARK H PARENT 10 19 12 21 4 23 21 25 18 27
REMARK Flexibility Score: inf
ROOT
ATOM      1  C   UNL     1       8.621   3.368  -3.201  1.00  0.00     0.180 A 
ATOM      2  C   UNL     1       9.055   4.700  -3.326  1.00  0.00     0.208 A 
ATOM      3  C   UNL     1       9.077   5.517  -2.184  1.00  0.00     0.238 A 
ATOM      4  O   UNL     1       9.414   6.724  -2.312  1.00  0.00    -0.285 OA
ATOM      5  C   UNL     1       8.683   4.990  -0.932  1.00  0.00     0.111 A 
ATOM      6  C   UNL     1       8.705   5.717   0.297  1.00  0.00     0.134 A 
ATOM      7  C   UNL     1       8.169   5.135   1.452  1.00  0.00     0.093 A 
ATOM      8  C   UNL     1       7.674   3.832   1.441  1.00  0.00     0.123 A 
ATOM      9  C   UNL     1       7.701   3.091   0.258  1.00  0.00     0.094 A 
ATOM     10  C   UNL     1       8.196   3.657  -0.920  1.00  0.00     0.146 A 
ATOM     11  O   UNL     1       8.195   2.922  -2.025  1.00  0.00    -0.452 OA
ENDROOT
BRANCH   1  12
ATOM     12  C   UNL     1       8.593   2.438  -4.354  1.00  0.00     0.025 A 
ATOM     13  C   UNL     1       9.792   1.863  -4.805  1.00  0.00     0.016 A 
ATOM     14  C   UNL     1       9.792   1.000  -5.904  1.00  0.00     0.051 A 
ATOM     15  C   UNL     1       8.597   0.710  -6.576  1.00  0.00     0.157 A 
ATOM     16  C   UNL     1       7.399   2.162  -5.043  1.00  0.00     0.062 A 
ATOM     17  C   UNL     1       7.396   1.299  -6.145  1.00  0.00     0.158 A 
BRANCH  15  18
ATOM     18  O   UNL     1       8.601  -0.153  -7.670  1.00  0.00    -0.504 OA
ATOM     19  H   UNL     1       8.699   0.191  -8.618  1.00  0.00     0.293 HD
ENDBRANCH  15  18
BRANCH  17  20
ATOM     20  O   UNL     1       6.193   1.043  -6.802  1.00  0.00    -0.504 OA
ATOM     21  H   UNL     1       5.551   0.324  -6.489  1.00  0.00     0.293 HD
ENDBRANCH  17  20
ENDBRANCH   1  12
BRANCH   2  22
ATOM     22  O   UNL     1       9.419   5.207  -4.575  1.00  0.00    -0.502 OA
ATOM     23  H   UNL     1       9.039   6.071  -4.945  1.00  0.00     0.293 HD
ENDBRANCH   2  22
BRANCH   6  24
ATOM     24  O   UNL     1       9.262   6.991   0.441  1.00  0.00    -0.507 OA
ATOM     25  H   UNL     1       9.493   7.421   1.323  1.00  0.00     0.293 HD
ENDBRANCH   6  24
BRANCH   8  26
ATOM     26  O   UNL     1       7.162   3.280   2.612  1.00  0.00    -0.508 OA
ATOM     27  H   UNL     1       7.396   3.658   3.523  1.00  0.00     0.293 HD
ENDBRANCH   8  26
TORSDOF 6
ENDMDL
MODEL 2
REMARK VINA RESULT:    -6.999      1.885      7.157
REMARK INTER + INTRA:          -8.713
REMARK INTER:                  -8.519
REMARK INTRA:                  -0.194
REMARK UNBOUND:                -0.283
REMARK SMILES O=c1c(O)c(-c2ccc(O)c(O)c2)oc2cc(O)cc(O)c12
REMARK SMILES IDX 5 1 3 2 2 3 1 4 22 5 20 6 19 7 17 8 16 9 15 10 14 11 6 12
REMARK SMILES IDX 7 13 8 14 9 15 13 16 11 17 10 18 12 20 4 22 21 24 18 26
REMARK H PARENT 10 19 12 21 4 23 21 25 18 27
REMARK Flexibility Score: inf
ROOT
ATOM      1  C   UNL     1       8.708   3.667  -1.827  1.00  0.00     0.180 A 
ATOM      2  C   UNL     1       8.308   2.338  -2.056  1.00  0.00     0.208 A 
ATOM      3  C   UNL     1       8.334   1.837  -3.368  1.00  0.00     0.238 A 
ATOM      4  O   UNL     1       7.922   0.665  -3.574  1.00  0.00    -0.285 OA
ATOM      5  C   UNL     1       8.775   2.662  -4.429  1.00  0.00     0.111 A 
ATOM      6  C   UNL     1       8.880   2.245  -5.791  1.00  0.00     0.134 A 
ATOM      7  C   UNL     1       9.204   3.184  -6.777  1.00  0.00     0.093 A 
ATOM      8  C   UNL     1       9.490   4.507  -6.447  1.00  0.00     0.123 A 
ATOM      9  C   UNL     1       9.447   4.913  -5.112  1.00  0.00     0.094 A 
ATOM     10  C   UNL     1       9.092   4.007  -4.108  1.00  0.00     0.146 A 
ATOM     11  O   UNL     1       9.054   4.436  -2.853  1.00  0.00    -0.452 OA
ENDROOT
BRANCH   1  12
ATOM     12  C   UNL     1       8.731   4.259  -0.470  1.00  0.00     0.025 A 
ATOM     13  C   UNL     1       9.965   4.534   0.141  1.00  0.00     0.016 A 
ATOM     14  C   UNL     1      10.011   5.073   1.430  1.00  0.00     0.051 A 
ATOM     15  C   UNL     1       8.826   5.331   2.131  1.00  0.00     0.157 A 
ATOM     16  C   UNL     1       7.544   4.499   0.245  1.00  0.00     0.062 A 
ATOM     17  C   UNL     1       7.587   5.037   1.536  1.00  0.00     0.158 A 
BRANCH  15  18
ATOM     18  O   UNL     1       8.876   5.870   3.415  1.00  0.00    -0.504 OA
ATOM     19  H   UNL     1       8.763   6.864   3.579  1.00  0.00     0.293 HD
ENDBRANCH  15  18
BRANCH  17  20
ATOM     20  O   UNL     1       6.391   5.268   2.214  1.00  0.00    -0.504 OA
ATOM     21  H   UNL     1       5.502   5.332   1.732  1.00  0.00     0.293 HD
ENDBRANCH  17  20
ENDBRANCH   1  12
BRANCH   2  22
ATOM     22  O   UNL     1       7.855   1.548  -0.998  1.00  0.00    -0.502 OA
ATOM     23  H   UNL     1       8.372   1.450  -0.131  1.00  0.00     0.293 HD
ENDBRANCH   2  22
BRANCH   6  24
ATOM     24  O   UNL     1       8.706   0.925  -6.218  1.00  0.00    -0.507 OA
ATOM     25  H   UNL     1       8.098   0.640  -6.970  1.00  0.00     0.293 HD
ENDBRANCH   6  24
BRANCH   8  26
ATOM     26  O   UNL     1       9.823   5.411  -7.453  1.00  0.00    -0.508 OA
ATOM     27  H   UNL     1      10.462   6.179  -7.285  1.00  0.00     0.293 HD
ENDBRANCH   8  26
TORSDOF 6
ENDMDL
MODEL 3
REMARK VINA RESULT:    -6.873      2.552      7.993
REMARK INTER + INTRA:          -8.562
REMARK INTER:                  -8.547
REMARK INTRA:                  -0.015
REMARK UNBOUND:                -0.283
REMARK SMILES O=c1c(O)c(-c2ccc(O)c(O)c2)oc2cc(O)cc(O)c12
REMARK SMILES IDX 5 1 3 2 2 3 1 4 22 5 20 6 19 7 17 8 16 9 15 10 14 11 6 12
REMARK SMILES IDX 7 13 8 14 9 15 13 16 11 17 10 18 12 20 4 22 21 24 18 26
REMARK H PARENT 10 19 12 21 4 23 21 25 18 27
REMARK Flexibility Score: inf
ROOT
ATOM      1  C   UNL     1       8.311   5.147   0.936  1.00  0.00     0.180 A 
ATOM      2  C   UNL     1       7.960   3.819   0.633  1.00  0.00     0.208 A 
ATOM      3  C   UNL     1       8.162   3.344  -0.673  1.00  0.00     0.238 A 
ATOM      4  O   UNL     1       7.795   2.172  -0.952  1.00  0.00    -0.285 OA
ATOM      5  C   UNL     1       8.726   4.194  -1.653  1.00  0.00     0.111 A 
ATOM      6  C   UNL     1       9.011   3.805  -2.997  1.00  0.00     0.134 A 
ATOM      7  C   UNL     1       9.447   4.767  -3.916  1.00  0.00     0.093 A 
ATOM      8  C   UNL     1       9.672   6.086  -3.527  1.00  0.00     0.123 A 
ATOM      9  C   UNL     1       9.452   6.465  -2.202  1.00  0.00     0.094 A 
ATOM     10  C   UNL     1       8.982   5.536  -1.269  1.00  0.00     0.146 A 
ATOM     11  O   UNL     1       8.777   5.939  -0.022  1.00  0.00    -0.452 OA
ENDROOT
BRANCH   1  12
ATOM     12  C   UNL     1       8.152   5.712   2.296  1.00  0.00     0.025 A 
ATOM     13  C   UNL     1       9.261   6.282   2.940  1.00  0.00     0.016 A 
ATOM     14  C   UNL     1       9.139   6.803   4.231  1.00  0.00     0.051 A 
ATOM     15  C   UNL     1       7.911   6.747   4.903  1.00  0.00     0.157 A 
ATOM     16  C   UNL     1       6.926   5.639   2.981  1.00  0.00     0.062 A 
ATOM     17  C   UNL     1       6.801   6.157   4.275  1.00  0.00     0.158 A 
BRANCH  15  18
ATOM     18  O   UNL     1       7.792   7.269   6.190  1.00  0.00    -0.504 OA
ATOM     19  H   UNL     1       7.578   6.678   6.985  1.00  0.00     0.293 HD
ENDBRANCH  15  18
BRANCH  17  20
ATOM     20  O   UNL     1       5.568   6.073   4.922  1.00  0.00    -0.504 OA
ATOM     21  H   UNL     1       5.298   5.259   5.463  1.00  0.00     0.293 HD
ENDBRANCH  17  20
ENDBRANCH   1  12
BRANCH   2  22
ATOM     22  O   UNL     1       7.385   3.004   1.610  1.00  0.00    -0.502 OA
ATOM     23  H   UNL     1       7.480   3.191   2.602  1.00  0.00     0.293 HD
ENDBRANCH   2  22
BRANCH   6  24
ATOM     24  O   UNL     1       8.910   2.492  -3.467  1.00  0.00    -0.507 OA
ATOM     25  H   UNL     1       8.833   2.234  -4.439  1.00  0.00     0.293 HD
ENDBRANCH   6  24
BRANCH   8  26
ATOM     26  O   UNL     1      10.120   7.013  -4.465  1.00  0.00    -0.508 OA
ATOM     27  H   UNL     1       9.865   7.992  -4.408  1.00  0.00     0.293 HD
ENDBRANCH   8  26
TORSDOF 6
ENDMDL
MODEL 4
REMARK VINA RESULT:    -6.839      1.586      6.662
REMARK INTER + INTRA:          -8.521
REMARK INTER:                  -8.302
REMARK INTRA:                  -0.219
REMARK UNBOUND:                -0.283
REMARK SMILES O=c1c(O)c(-c2ccc(O)c(O)c2)oc2cc(O)cc(O)c12
REMARK SMILES IDX 5 1 3 2 2 3 1 4 22 5 20 6 19 7 17 8 16 9 15 10 14 11 6 12
REMARK SMILES IDX 7 13 8 14 9 15 13 16 11 17 10 18 12 20 4 22 21 24 18 26
REMARK H PARENT 10 19 12 21 4 23 21 25 18 27
REMARK Flexibility Score: inf
ROOT
ATOM      1  C   UNL     1       8.894   4.198  -1.817  1.00  0.00     0.180 A 
ATOM      2  C   UNL     1       9.259   5.076  -2.852  1.00  0.00     0.208 A 
ATOM      3  C   UNL     1       9.256   4.607  -4.176  1.00  0.00     0.238 A 
ATOM      4  O   UNL     1       9.638   5.381  -5.092  1.00  0.00    -0.285 OA
ATOM      5  C   UNL     1       8.873   3.272  -4.449  1.00  0.00     0.111 A 
ATOM      6  C   UNL     1       8.795   2.702  -5.756  1.00  0.00     0.134 A 
ATOM      7  C   UNL     1       8.531   1.335  -5.898  1.00  0.00     0.093 A 
ATOM      8  C   UNL     1       8.276   0.531  -4.789  1.00  0.00     0.123 A 
ATOM      9  C   UNL     1       8.291   1.089  -3.510  1.00  0.00     0.094 A 
ATOM     10  C   UNL     1       8.588   2.444  -3.333  1.00  0.00     0.146 A 
ATOM     11  O   UNL     1       8.603   2.933  -2.099  1.00  0.00    -0.452 OA
ENDROOT
BRANCH   1  12
ATOM     12  C   UNL     1       8.848   4.626  -0.400  1.00  0.00     0.025 A 
ATOM     13  C   UNL     1      10.049   4.850   0.292  1.00  0.00     0.016 A 
ATOM     14  C   UNL     1      10.029   5.234   1.635  1.00  0.00     0.051 A 
ATOM     15  C   UNL     1       8.811   5.387   2.310  1.00  0.00     0.157 A 
ATOM     16  C   UNL     1       7.628   4.760   0.285  1.00  0.00     0.062 A 
ATOM     17  C   UNL     1       7.605   5.143   1.632  1.00  0.00     0.158 A 
BRANCH  15  18
ATOM     18  O   UNL     1       8.795   5.772   3.649  1.00  0.00    -0.504 OA
ATOM     19  H   UNL     1       8.738   5.091   4.397  1.00  0.00     0.293 HD
ENDBRANCH  15  18
BRANCH  17  20
ATOM     20  O   UNL     1       6.376   5.271   2.279  1.00  0.00    -0.504 OA
ATOM     21  H   UNL     1       6.278   5.775   3.153  1.00  0.00     0.293 HD
ENDBRANCH  17  20
ENDBRANCH   1  12
BRANCH   2  22
ATOM     22  O   UNL     1       9.656   6.383  -2.558  1.00  0.00    -0.502 OA
ATOM     23  H   UNL     1       9.037   7.178  -2.668  1.00  0.00     0.293 HD
ENDBRANCH   2  22
BRANCH   6  24
ATOM     24  O   UNL     1       8.941   3.436  -6.937  1.00  0.00    -0.507 OA
ATOM     25  H   UNL     1       9.808   3.835  -7.262  1.00  0.00     0.293 HD
ENDBRANCH   6  24
BRANCH   8  26
ATOM     26  O   UNL     1       8.001  -0.823  -4.969  1.00  0.00    -0.508 OA
ATOM     27  H   UNL     1       8.703  -1.534  -4.800  1.00  0.00     0.293 HD
ENDBRANCH   8  26
TORSDOF 6
ENDMDL
MODEL 5
REMARK VINA RESULT:    -6.636      1.248      2.874
REMARK INTER + INTRA:          -8.276
REMARK INTER:                  -7.947
REMARK INTRA:                  -0.329
REMARK UNBOUND:                -0.283
REMARK SMILES O=c1c(O)c(-c2ccc(O)c(O)c2)oc2cc(O)cc(O)c12
REMARK SMILES IDX 5 1 3 2 2 3 1 4 22 5 20 6 19 7 17 8 16 9 15 10 14 11 6 12
REMARK SMILES IDX 7 13 8 14 9 15 13 16 11 17 10 18 12 20 4 22 21 24 18 26
REMARK H PARENT 10 19 12 21 4 23 21 25 18 27
REMARK Flexibility Score: inf
ROOT
ATOM      1  C   UNL     1       8.547   2.983  -3.159  1.00  0.00     0.180 A 
ATOM      2  C   UNL     1       8.202   2.388  -1.933  1.00  0.00     0.208 A 
ATOM      3  C   UNL     1       8.260   3.160  -0.762  1.00  0.00     0.238 A 
ATOM      4  O   UNL     1       8.003   2.606   0.340  1.00  0.00    -0.285 OA
ATOM      5  C   UNL     1       8.645   4.520  -0.833  1.00  0.00     0.111 A 
ATOM      6  C   UNL     1       8.700   5.406   0.286  1.00  0.00     0.134 A 
ATOM      7  C   UNL     1       9.220   6.695   0.120  1.00  0.00     0.093 A 
ATOM      8  C   UNL     1       9.626   7.153  -1.133  1.00  0.00     0.123 A 
ATOM      9  C   UNL     1       9.523   6.315  -2.244  1.00  0.00     0.094 A 
ATOM     10  C   UNL     1       9.041   5.010  -2.104  1.00  0.00     0.146 A 
ATOM     11  O   UNL     1       8.967   4.243  -3.184  1.00  0.00    -0.452 OA
ENDROOT
BRANCH   1  12
ATOM     12  C   UNL     1       8.486   2.241  -4.440  1.00  0.00     0.025 A 
ATOM     13  C   UNL     1       9.657   1.669  -4.962  1.00  0.00     0.016 A 
ATOM     14  C   UNL     1       9.626   0.983  -6.179  1.00  0.00     0.051 A 
ATOM     15  C   UNL     1       8.429   0.871  -6.898  1.00  0.00     0.157 A 
ATOM     16  C   UNL     1       7.291   2.146  -5.174  1.00  0.00     0.062 A 
ATOM     17  C   UNL     1       7.257   1.460  -6.395  1.00  0.00     0.158 A 
BRANCH  15  18
ATOM     18  O   UNL     1       8.402   0.184  -8.111  1.00  0.00    -0.504 OA
ATOM     19  H   UNL     1       7.915   0.553  -8.919  1.00  0.00     0.293 HD
ENDBRANCH  15  18
BRANCH  17  20
ATOM     20  O   UNL     1       6.053   1.380  -7.094  1.00  0.00    -0.504 OA
ATOM     21  H   UNL     1       5.893   1.896  -7.951  1.00  0.00     0.293 HD
ENDBRANCH  17  20
ENDBRANCH   1  12
BRANCH   2  22
ATOM     22  O   UNL     1       7.845   1.038  -1.883  1.00  0.00    -0.502 OA
ATOM     23  H   UNL     1       8.115   0.431  -1.117  1.00  0.00     0.293 HD
ENDBRANCH   2  22
BRANCH   6  24
ATOM     24  O   UNL     1       8.233   5.081   1.563  1.00  0.00    -0.507 OA
ATOM     25  H   UNL     1       7.983   4.151   1.864  1.00  0.00     0.293 HD
ENDBRANCH   6  24
BRANCH   8  26
ATOM     26  O   UNL     1      10.125   8.447  -1.264  1.00  0.00    -0.508 OA
ATOM     27  H   UNL     1       9.751   9.217  -0.721  1.00  0.00     0.293 HD
ENDBRANCH   8  26
TORSDOF 6
ENDMDL
MODEL 6
REMARK VINA RESULT:    -6.286      1.750      3.536
REMARK INTER + INTRA:          -7.855
REMARK INTER:                  -8.285
REMARK INTRA:                   0.429
REMARK UNBOUND:                -0.283
REMARK SMILES O=c1c(O)c(-c2ccc(O)c(O)c2)oc2cc(O)cc(O)c12
REMARK SMILES IDX 5 1 3 2 2 3 1 4 22 5 20 6 19 7 17 8 16 9 15 10 14 11 6 12
REMARK SMILES IDX 7 13 8 14 9 15 13 16 11 17 10 18 12 20 4 22 21 24 18 26
REMARK H PARENT 10 19 12 21 4 23 21 25 18 27
REMARK Flexibility Score: inf
ROOT
ATOM      1  C   UNL     1       8.680   3.995  -1.304  1.00  0.00     0.180 A 
ATOM      2  C   UNL     1       8.056   3.251  -0.286  1.00  0.00     0.208 A 
ATOM      3  C   UNL     1       7.911   3.827   0.986  1.00  0.00     0.238 A 
ATOM      4  O   UNL     1       7.401   3.137   1.907  1.00  0.00    -0.285 OA
ATOM      5  C   UNL     1       8.376   5.143   1.221  1.00  0.00     0.111 A 
ATOM      6  C   UNL     1       8.245   5.840   2.461  1.00  0.00     0.134 A 
ATOM      7  C   UNL     1       8.859   7.088   2.618  1.00  0.00     0.093 A 
ATOM      8  C   UNL     1       9.540   7.695   1.565  1.00  0.00     0.123 A 
ATOM      9  C   UNL     1       9.624   7.049   0.330  1.00  0.00     0.094 A 
ATOM     10  C   UNL     1       9.053   5.785   0.153  1.00  0.00     0.146 A 
ATOM     11  O   UNL     1       9.164   5.202  -1.034  1.00  0.00    -0.452 OA
ENDROOT
BRANCH   1  12
ATOM     12  C   UNL     1       8.846   3.466  -2.677  1.00  0.00     0.025 A 
ATOM     13  C   UNL     1       9.128   4.352  -3.728  1.00  0.00     0.016 A 
ATOM     14  C   UNL     1       9.268   3.877  -5.035  1.00  0.00     0.051 A 
ATOM     15  C   UNL     1       9.114   2.512  -5.312  1.00  0.00     0.157 A 
ATOM     16  C   UNL     1       8.671   2.099  -2.961  1.00  0.00     0.062 A 
ATOM     17  C   UNL     1       8.808   1.621  -4.269  1.00  0.00     0.158 A 
BRANCH  15  18
ATOM     18  O   UNL     1       9.256   2.042  -6.616  1.00  0.00    -0.504 OA
ATOM     19  H   UNL     1       8.511   2.130  -7.297  1.00  0.00     0.293 HD
ENDBRANCH  15  18
BRANCH  17  20
ATOM     20  O   UNL     1       8.634   0.259  -4.515  1.00  0.00    -0.504 OA
ATOM     21  H   UNL     1       8.082  -0.332  -3.904  1.00  0.00     0.293 HD
ENDBRANCH  17  20
ENDBRANCH   1  12
BRANCH   2  22
ATOM     22  O   UNL     1       7.624   1.946  -0.534  1.00  0.00    -0.502 OA
ATOM     23  H   UNL     1       7.643   1.532  -1.459  1.00  0.00     0.293 HD
ENDBRANCH   2  22
BRANCH   6  24
ATOM     24  O   UNL     1       7.506   5.365   3.549  1.00  0.00    -0.507 OA
ATOM     25  H   UNL     1       6.682   5.810   3.921  1.00  0.00     0.293 HD
ENDBRANCH   6  24
BRANCH   8  26
ATOM     26  O   UNL     1      10.125   8.945   1.753  1.00  0.00    -0.508 OA
ATOM     27  H   UNL     1      10.562   9.447   0.988  1.00  0.00     0.293 HD
ENDBRANCH   8  26
TORSDOF 6
ENDMDL
MODEL 7
REMARK VINA RESULT:    -6.270      2.860      5.212
REMARK INTER + INTRA:          -7.836
REMARK INTER:                  -7.897
REMARK INTRA:                   0.061
REMARK UNBOUND:                -0.283
REMARK SMILES O=c1c(O)c(-c2ccc(O)c(O)c2)oc2cc(O)cc(O)c12
REMARK SMILES IDX 5 1 3 2 2 3 1 4 22 5 20 6 19 7 17 8 16 9 15 10 14 11 6 12
REMARK SMILES IDX 7 13 8 14 9 15 13 16 11 17 10 18 12 20 4 22 21 24 18 26
REMARK H PARENT 10 19 12 21 4 23 21 25 18 27
REMARK Flexibility Score: inf
ROOT
ATOM      1  C   UNL     1       8.214   5.469   1.376  1.00  0.00     0.180 A 
ATOM      2  C   UNL     1       9.175   6.441   1.705  1.00  0.00     0.208 A 
ATOM      3  C   UNL     1       9.143   7.024   2.983  1.00  0.00     0.238 A 
ATOM      4  O   UNL     1       9.971   7.933   3.252  1.00  0.00    -0.285 OA
ATOM      5  C   UNL     1       8.164   6.615   3.919  1.00  0.00     0.111 A 
ATOM      6  C   UNL     1       8.064   7.109   5.255  1.00  0.00     0.134 A 
ATOM      7  C   UNL     1       6.977   6.731   6.051  1.00  0.00     0.093 A 
ATOM      8  C   UNL     1       6.023   5.828   5.587  1.00  0.00     0.123 A 
ATOM      9  C   UNL     1       6.142   5.293   4.303  1.00  0.00     0.094 A 
ATOM     10  C   UNL     1       7.197   5.679   3.471  1.00  0.00     0.146 A 
ATOM     11  O   UNL     1       7.268   5.154   2.254  1.00  0.00    -0.452 OA
ENDROOT
BRANCH   1  12
ATOM     12  C   UNL     1       8.198   4.792   0.059  1.00  0.00     0.025 A 
ATOM     13  C   UNL     1       8.263   5.561  -1.113  1.00  0.00     0.016 A 
ATOM     14  C   UNL     1       8.228   4.944  -2.367  1.00  0.00     0.051 A 
ATOM     15  C   UNL     1       8.114   3.551  -2.467  1.00  0.00     0.157 A 
ATOM     16  C   UNL     1       8.062   3.396  -0.045  1.00  0.00     0.062 A 
ATOM     17  C   UNL     1       8.025   2.775  -1.299  1.00  0.00     0.158 A 
BRANCH  15  18
ATOM     18  O   UNL     1       8.082   2.939  -3.719  1.00  0.00    -0.504 OA
ATOM     19  H   UNL     1       7.250   2.471  -4.060  1.00  0.00     0.293 HD
ENDBRANCH  15  18
BRANCH  17  20
ATOM     20  O   UNL     1       7.895   1.388  -1.365  1.00  0.00    -0.504 OA
ATOM     21  H   UNL     1       8.524   0.764  -0.874  1.00  0.00     0.293 HD
ENDBRANCH  17  20
ENDBRANCH   1  12
BRANCH   2  22
ATOM     22  O   UNL     1      10.118   6.845   0.758  1.00  0.00    -0.502 OA
ATOM     23  H   UNL     1      11.073   6.504   0.760  1.00  0.00     0.293 HD
ENDBRANCH   2  22
BRANCH   6  24
ATOM     24  O   UNL     1       9.014   7.945   5.852  1.00  0.00    -0.507 OA
ATOM     25  H   UNL     1       8.962   8.951   5.872  1.00  0.00     0.293 HD
ENDBRANCH   6  24
BRANCH   8  26
ATOM     26  O   UNL     1       4.962   5.462   6.412  1.00  0.00    -0.508 OA
ATOM     27  H   UNL     1       5.113   4.955   7.276  1.00  0.00     0.293 HD
ENDBRANCH   8  26
TORSDOF 6
ENDMDL
MODEL 8
REMARK VINA RESULT:    -6.176      1.316      6.741
REMARK INTER + INTRA:          -7.722
REMARK INTER:                  -8.064
REMARK INTRA:                   0.342
REMARK UNBOUND:                -0.283
REMARK SMILES O=c1c(O)c(-c2ccc(O)c(O)c2)oc2cc(O)cc(O)c12
REMARK SMILES IDX 5 1 3 2 2 3 1 4 22 5 20 6 19 7 17 8 16 9 15 10 14 11 6 12
REMARK SMILES IDX 7 13 8 14 9 15 13 16 11 17 10 18 12 20 4 22 21 24 18 26
REMARK H PARENT 10 19 12 21 4 23 21 25 18 27
REMARK Flexibility Score: inf
ROOT
ATOM      1  C   UNL     1       8.540   3.893  -2.660  1.00  0.00     0.180 A 
ATOM      2  C   UNL     1       9.335   4.653  -3.536  1.00  0.00     0.208 A 
ATOM      3  C   UNL     1       9.351   4.323  -4.901  1.00  0.00     0.238 A 
ATOM      4  O   UNL     1      10.107   4.971  -5.670  1.00  0.00    -0.285 OA
ATOM      5  C   UNL     1       8.560   3.249  -5.375  1.00  0.00     0.111 A 
ATOM      6  C   UNL     1       8.469   2.852  -6.744  1.00  0.00     0.134 A 
ATOM      7  C   UNL     1       7.758   1.694  -7.080  1.00  0.00     0.093 A 
ATOM      8  C   UNL     1       7.081   0.957  -6.111  1.00  0.00     0.123 A 
ATOM      9  C   UNL     1       7.114   1.368  -4.778  1.00  0.00     0.094 A 
ATOM     10  C   UNL     1       7.846   2.500  -4.405  1.00  0.00     0.146 A 
ATOM     11  O   UNL     1       7.860   2.851  -3.125  1.00  0.00    -0.452 OA
ENDROOT
BRANCH   1  12
ATOM     12  C   UNL     1       8.452   4.196  -1.213  1.00  0.00     0.025 A 
ATOM     13  C   UNL     1       7.985   3.211  -0.329  1.00  0.00     0.016 A 
ATOM     14  C   UNL     1       7.874   3.482   1.037  1.00  0.00     0.051 A 
ATOM     15  C   UNL     1       8.213   4.746   1.538  1.00  0.00     0.157 A 
ATOM     16  C   UNL     1       8.771   5.471  -0.711  1.00  0.00     0.062 A 
ATOM     17  C   UNL     1       8.658   5.746   0.657  1.00  0.00     0.158 A 
BRANCH  15  18
ATOM     18  O   UNL     1       8.102   5.012   2.901  1.00  0.00    -0.504 OA
ATOM     19  H   UNL     1       7.534   5.776   3.249  1.00  0.00     0.293 HD
ENDBRANCH  15  18
BRANCH  17  20
ATOM     20  O   UNL     1       8.989   7.019   1.121  1.00  0.00    -0.504 OA
ATOM     21  H   UNL     1       8.306   7.626   1.559  1.00  0.00     0.293 HD
ENDBRANCH  17  20
ENDBRANCH   1  12
BRANCH   2  22
ATOM     22  O   UNL     1      10.125   5.694  -3.043  1.00  0.00    -0.502 OA
ATOM     23  H   UNL     1       9.730   6.564  -2.703  1.00  0.00     0.293 HD
ENDBRANCH   2  22
BRANCH   6  24
ATOM     24  O   UNL     1       9.030   3.571  -7.804  1.00  0.00    -0.507 OA
ATOM     25  H   UNL     1      10.002   3.831  -7.870  1.00  0.00     0.293 HD
ENDBRANCH   6  24
BRANCH   8  26
ATOM     26  O   UNL     1       6.370  -0.182  -6.484  1.00  0.00    -0.508 OA
ATOM     27  H   UNL     1       5.498  -0.434  -6.034  1.00  0.00     0.293 HD
ENDBRANCH   8  26
TORSDOF 6
ENDMDL
MODEL 9
REMARK VINA RESULT:    -5.091      2.827      8.099
REMARK INTER + INTRA:          -6.415
REMARK INTER:                  -6.125
REMARK INTRA:                  -0.290
REMARK UNBOUND:                -0.283
REMARK SMILES O=c1c(O)c(-c2ccc(O)c(O)c2)oc2cc(O)cc(O)c12
REMARK SMILES IDX 5 1 3 2 2 3 1 4 22 5 20 6 19 7 17 8 16 9 15 10 14 11 6 12
REMARK SMILES IDX 7 13 8 14 9 15 13 16 11 17 10 18 12 20 4 22 21 24 18 26
REMARK H PARENT 10 19 12 21 4 23 21 25 18 27
REMARK Flexibility Score: inf
ROOT
ATOM      1  C   UNL     1       8.952   5.992   1.698  1.00  0.00     0.180 A 
ATOM      2  C   UNL     1       9.357   6.910   0.712  1.00  0.00     0.208 A 
ATOM      3  C   UNL     1       9.327   6.516  -0.636  1.00  0.00     0.238 A 
ATOM      4  O   UNL     1       9.743   7.322  -1.509  1.00  0.00    -0.285 OA
ATOM      5  C   UNL     1       8.878   5.219  -0.982  1.00  0.00     0.111 A 
ATOM      6  C   UNL     1       8.769   4.729  -2.319  1.00  0.00     0.134 A 
ATOM      7  C   UNL     1       8.437   3.387  -2.536  1.00  0.00     0.093 A 
ATOM      8  C   UNL     1       8.147   2.534  -1.472  1.00  0.00     0.123 A 
ATOM      9  C   UNL     1       8.193   3.018  -0.164  1.00  0.00     0.094 A 
ATOM     10  C   UNL     1       8.557   4.344   0.087  1.00  0.00     0.146 A 
ATOM     11  O   UNL     1       8.598   4.762   1.346  1.00  0.00    -0.452 OA
ENDROOT
BRANCH   1  12
ATOM     12  C   UNL     1       8.931   6.342   3.137  1.00  0.00     0.025 A 
ATOM     13  C   UNL     1      10.125   6.301   3.875  1.00  0.00     0.016 A 
ATOM     14  C   UNL     1      10.125   6.606   5.238  1.00  0.00     0.051 A 
ATOM     15  C   UNL     1       8.930   6.942   5.888  1.00  0.00     0.157 A 
ATOM     16  C   UNL     1       7.730   6.659   3.796  1.00  0.00     0.062 A 
ATOM     17  C   UNL     1       7.726   6.963   5.163  1.00  0.00     0.158 A 
BRANCH  15  18
ATOM     18  O   UNL     1       8.934   7.248   7.247  1.00  0.00    -0.504 OA
ATOM     19  H   UNL     1       9.285   8.134   7.591  1.00  0.00     0.293 HD
ENDBRANCH  15  18
BRANCH  17  20
ATOM     20  O   UNL     1       6.518   7.279   5.783  1.00  0.00    -0.504 OA
ATOM     21  H   UNL     1       5.623   7.096   5.345  1.00  0.00     0.293 HD
ENDBRANCH  17  20
ENDBRANCH   1  12
BRANCH   2  22
ATOM     22  O   UNL     1       9.817   8.176   1.077  1.00  0.00    -0.502 OA
ATOM     23  H   UNL     1      10.206   8.830   0.406  1.00  0.00     0.293 HD
ENDBRANCH   2  22
BRANCH   6  24
ATOM     24  O   UNL     1       8.947   5.521  -3.457  1.00  0.00    -0.507 OA
ATOM     25  H   UNL     1       8.774   5.215  -4.402  1.00  0.00     0.293 HD
ENDBRANCH   6  24
BRANCH   8  26
ATOM     26  O   UNL     1       7.805   1.208  -1.727  1.00  0.00    -0.508 OA
ATOM     27  H   UNL     1       8.226   0.444  -1.211  1.00  0.00     0.293 HD
ENDBRANCH   8  26
TORSDOF 6
ENDMDL
