MODEL 1
REMARK VINA RESULT:    31.728      0.000      0.000
REMARK INTER + INTRA:          39.364
REMARK INTER:                  39.147
REMARK INTRA:                   0.217
REMARK UNBOUND:                 0.217
REMARK SMILES COc1cc(-c2oc3cc(O)cc(O)c3c(=O)c2O)ccc1O
REMARK SMILES IDX 6 1 18 2 16 3 17 4 15 5 13 6 12 7 10 8 9 9 8 10 7 11 5 12
REMARK SMILES IDX 3 13 22 14 4 15 21 16 20 17 2 18 1 19 23 20 19 22 14 24
REMARK SMILES IDX 11 26
REMARK H PARENT 23 21 19 23 14 25 11 27
REMARK Flexibility Score: inf
ROOT
ATOM      1  C   UNL     1      17.687  95.719   8.713  1.00  0.00     0.180 A 
ATOM      2  C   UNL     1      16.330  95.723   9.090  1.00  0.00     0.208 A 
ATOM      3  C   UNL     1      15.709  96.949   9.379  1.00  0.00     0.238 A 
ATOM      4  O   UNL     1      14.498  96.963   9.728  1.00  0.00    -0.285 OA
ATOM      5  C   UNL     1      16.446  98.146   9.266  1.00  0.00     0.111 A 
ATOM      6  C   UNL     1      15.893  99.422   9.534  1.00  0.00     0.134 A 
ATOM      7  C   UNL     1      16.689 100.568   9.390  1.00  0.00     0.093 A 
ATOM      8  C   UNL     1      18.021 100.464   8.983  1.00  0.00     0.123 A 
ATOM      9  C   UNL     1      18.572  99.206   8.718  1.00  0.00     0.094 A 
ATOM     10  C   UNL     1      17.796  98.052   8.857  1.00  0.00     0.146 A 
ATOM     11  O   UNL     1      18.345  96.869   8.604  1.00  0.00    -0.452 OA
ENDROOT
BRANCH   1  12
ATOM     12  C   UNL     1      18.416  94.466   8.413  1.00  0.00     0.025 A 
ATOM     13  C   UNL     1      19.734  92.532   9.126  1.00  0.00     0.161 A 
ATOM     14  C   UNL     1      19.837  92.120   7.785  1.00  0.00     0.157 A 
ATOM     15  C   UNL     1      19.027  93.713   9.431  1.00  0.00     0.062 A 
ATOM     16  C   UNL     1      19.248  92.882   6.772  1.00  0.00     0.051 A 
ATOM     17  C   UNL     1      18.550  94.050   7.080  1.00  0.00     0.016 A 
BRANCH  13  18
ATOM     18  O   UNL     1      20.346  91.753  10.122  1.00  0.00    -0.493 OA
ATOM     19  C   UNL     1      20.381  90.329  10.125  1.00  0.00     0.278 C 
ENDBRANCH  13  18
BRANCH  14  20
ATOM     20  O   UNL     1      20.525  90.958   7.438  1.00  0.00    -0.504 OA
ATOM     21  H   UNL     1      21.464  90.978   7.059  1.00  0.00     0.293 HD
ENDBRANCH  14  20
ENDBRANCH   1  12
BRANCH   2  22
ATOM     22  O   UNL     1      15.610  94.527   9.146  1.00  0.00    -0.502 OA
ATOM     23  H   UNL     1      14.956  94.322   9.892  1.00  0.00     0.293 HD
ENDBRANCH   2  22
BRANCH   6  24
ATOM     24  O   UNL     1      14.565  99.560   9.941  1.00  0.00    -0.507 OA
ATOM     25  H   UNL     1      14.041  98.781  10.320  1.00  0.00     0.293 HD
ENDBRANCH   6  24
BRANCH   8  26
ATOM     26  O   UNL     1      18.789 101.618   8.848  1.00  0.00    -0.508 OA
ATOM     27  H   UNL     1      19.494 101.869   9.532  1.00  0.00     0.293 HD
ENDBRANCH   8  26
TORSDOF 6
ENDMDL
MODEL 2
REMARK VINA RESULT:    33.769      0.752      1.780
REMARK INTER + INTRA:          41.883
REMARK INTER:                  42.270
REMARK INTRA:                  -0.387
REMARK UNBOUND:                 0.217
REMARK SMILES COc1cc(-c2oc3cc(O)cc(O)c3c(=O)c2O)ccc1O
REMARK SMILES IDX 6 1 18 2 16 3 17 4 15 5 13 6 12 7 10 8 9 9 8 10 7 11 5 12
REMARK SMILES IDX 3 13 22 14 4 15 21 16 20 17 2 18 1 19 23 20 19 22 14 24
REMARK SMILES IDX 11 26
REMARK H PARENT 23 21 19 23 14 25 11 27
REMARK Flexibility Score: inf
ROOT
ATOM      1  C   UNL     1      17.742  95.768   9.019  1.00  0.00     0.180 A 
ATOM      2  C   UNL     1      16.354  95.796   9.255  1.00  0.00     0.208 A 
ATOM      3  C   UNL     1      15.713  97.040   9.383  1.00  0.00     0.238 A 
ATOM      4  O   UNL     1      14.472  97.078   9.605  1.00  0.00    -0.285 OA
ATOM      5  C   UNL     1      16.463  98.226   9.254  1.00  0.00     0.111 A 
ATOM      6  C   UNL     1      15.893  99.518   9.366  1.00  0.00     0.134 A 
ATOM      7  C   UNL     1      16.706 100.651   9.216  1.00  0.00     0.093 A 
ATOM      8  C   UNL     1      18.072 100.520   8.956  1.00  0.00     0.123 A 
ATOM      9  C   UNL     1      18.640  99.247   8.846  1.00  0.00     0.094 A 
ATOM     10  C   UNL     1      17.848  98.105   8.993  1.00  0.00     0.146 A 
ATOM     11  O   UNL     1      18.414  96.907   8.889  1.00  0.00    -0.452 OA
ENDROOT
BRANCH   1  12
ATOM     12  C   UNL     1      18.491  94.497   8.892  1.00  0.00     0.025 A 
ATOM     13  C   UNL     1      19.320  92.625   7.552  1.00  0.00     0.161 A 
ATOM     14  C   UNL     1      19.878  92.055   8.711  1.00  0.00     0.157 A 
ATOM     15  C   UNL     1      18.620  93.845   7.653  1.00  0.00     0.062 A 
ATOM     16  C   UNL     1      19.729  92.694   9.945  1.00  0.00     0.051 A 
ATOM     17  C   UNL     1      19.035  93.901  10.038  1.00  0.00     0.016 A 
BRANCH  13  18
ATOM     18  O   UNL     1      19.475  91.956   6.327  1.00  0.00    -0.493 OA
ATOM     19  C   UNL     1      18.473  91.876   5.317  1.00  0.00     0.278 C 
ENDBRANCH  13  18
BRANCH  14  20
ATOM     20  O   UNL     1      20.580  90.852   8.656  1.00  0.00    -0.504 OA
ATOM     21  H   UNL     1      20.546  90.242   7.848  1.00  0.00     0.293 HD
ENDBRANCH  14  20
ENDBRANCH   1  12
BRANCH   2  22
ATOM     22  O   UNL     1      15.625  94.607   9.329  1.00  0.00    -0.502 OA
ATOM     23  H   UNL     1      15.758  93.935  10.075  1.00  0.00     0.293 HD
ENDBRANCH   2  22
BRANCH   6  24
ATOM     24  O   UNL     1      14.532  99.683   9.624  1.00  0.00    -0.507 OA
ATOM     25  H   UNL     1      14.112  99.370  10.490  1.00  0.00     0.293 HD
ENDBRANCH   6  24
BRANCH   8  26
ATOM     26  O   UNL     1      18.856 101.662   8.811  1.00  0.00    -0.508 OA
ATOM     27  H   UNL     1      18.547 102.449   8.251  1.00  0.00     0.293 HD
ENDBRANCH   8  26
TORSDOF 6
ENDMDL
MODEL 3
REMARK VINA RESULT:    34.038      1.743      6.523
REMARK INTER + INTRA:          42.214
REMARK INTER:                  42.028
REMARK INTRA:                   0.186
REMARK UNBOUND:                 0.217
REMARK SMILES COc1cc(-c2oc3cc(O)cc(O)c3c(=O)c2O)ccc1O
REMARK SMILES IDX 6 1 18 2 16 3 17 4 15 5 13 6 12 7 10 8 9 9 8 10 7 11 5 12
REMARK SMILES IDX 3 13 22 14 4 15 21 16 20 17 2 18 1 19 23 20 19 22 14 24
REMARK SMILES IDX 11 26
REMARK H PARENT 23 21 19 23 14 25 11 27
REMARK Flexibility Score: inf
ROOT
ATOM      1  C   UNL     1      17.256  96.806   9.114  1.00  0.00     0.180 A 
ATOM      2  C   UNL     1      15.872  96.544   9.101  1.00  0.00     0.208 A 
ATOM      3  C   UNL     1      15.431  95.223   9.279  1.00  0.00     0.238 A 
ATOM      4  O   UNL     1      14.195  94.974   9.258  1.00  0.00    -0.285 OA
ATOM      5  C   UNL     1      16.373  94.196   9.488  1.00  0.00     0.111 A 
ATOM      6  C   UNL     1      16.010  92.840   9.680  1.00  0.00     0.134 A 
ATOM      7  C   UNL     1      17.008  91.877   9.890  1.00  0.00     0.093 A 
ATOM      8  C   UNL     1      18.357  92.241   9.913  1.00  0.00     0.123 A 
ATOM      9  C   UNL     1      18.721  93.578   9.723  1.00  0.00     0.094 A 
ATOM     10  C   UNL     1      17.742  94.552   9.511  1.00  0.00     0.146 A 
ATOM     11  O   UNL     1      18.115  95.814   9.327  1.00  0.00    -0.452 OA
ENDROOT
BRANCH   1  12
ATOM     12  C   UNL     1      17.799  98.169   8.913  1.00  0.00     0.025 A 
ATOM     13  C   UNL     1      19.431  99.920   9.422  1.00  0.00     0.161 A 
ATOM     14  C   UNL     1      18.761 100.787   8.539  1.00  0.00     0.157 A 
ATOM     15  C   UNL     1      18.937  98.612   9.609  1.00  0.00     0.062 A 
ATOM     16  C   UNL     1      17.617 100.351   7.865  1.00  0.00     0.051 A 
ATOM     17  C   UNL     1      17.133  99.056   8.055  1.00  0.00     0.016 A 
BRANCH  13  18
ATOM     18  O   UNL     1      20.571 100.388  10.094  1.00  0.00    -0.493 OA
ATOM     19  C   UNL     1      21.825  99.713  10.124  1.00  0.00     0.278 C 
ENDBRANCH  13  18
BRANCH  14  20
ATOM     20  O   UNL     1      19.216 102.087   8.321  1.00  0.00    -0.504 OA
ATOM     21  H   UNL     1      19.870 102.314   7.581  1.00  0.00     0.293 HD
ENDBRANCH  14  20
ENDBRANCH   1  12
BRANCH   2  22
ATOM     22  O   UNL     1      14.957  97.588   8.942  1.00  0.00    -0.502 OA
ATOM     23  H   UNL     1      15.248  98.544   8.777  1.00  0.00     0.293 HD
ENDBRANCH   2  22
BRANCH   6  24
ATOM     24  O   UNL     1      14.672  92.445   9.663  1.00  0.00    -0.507 OA
ATOM     25  H   UNL     1      14.024  92.728  10.387  1.00  0.00     0.293 HD
ENDBRANCH   6  24
BRANCH   8  26
ATOM     26  O   UNL     1      19.327  91.264  10.125  1.00  0.00    -0.508 OA
ATOM     27  H   UNL     1      20.019  91.042   9.417  1.00  0.00     0.293 HD
ENDBRANCH   8  26
TORSDOF 6
ENDMDL
