MODEL 1
REMARK VINA RESULT:    -4.028      0.000      0.000
REMARK INTER + INTRA:          -8.793
REMARK INTER:                  -7.795
REMARK INTRA:                  -0.998
REMARK UNBOUND:                -0.998
REMARK SMILES CCCCCCCCCCCCCCCCCC(=O)[O-]
REMARK SMILES IDX 10 1 11 2 12 3 13 4 14 5 15 6 16 7 17 8 18 9 19 10 20 11
REMARK SMILES IDX 9 12 8 13 7 14 6 15 5 16 4 17 3 18 2 19 1 20
REMARK H PARENT
REMARK Flexibility Score: inf
ROOT
ATOM      1  C   UNL     1      29.588  -7.534 -15.476  1.00  0.00     0.000 C 
ENDROOT
BRANCH   1   2
ATOM      2  C   UNL     1      29.882  -8.137 -14.090  1.00  0.00     0.000 C 
BRANCH   2   3
ATOM      3  C   UNL     1      29.241  -7.393 -12.901  1.00  0.00     0.000 C 
BRANCH   3   4
ATOM      4  C   UNL     1      28.778  -5.954 -13.203  1.00  0.00     0.000 C 
BRANCH   4   5
ATOM      5  C   UNL     1      29.827  -4.861 -12.918  1.00  0.00     0.000 C 
BRANCH   5   6
ATOM      6  C   UNL     1      30.747  -5.137 -11.710  1.00  0.00     0.000 C 
BRANCH   6   7
ATOM      7  C   UNL     1      32.153  -5.650 -12.068  1.00  0.00     0.006 C 
BRANCH   7   8
ATOM      8  C   UNL     1      32.575  -6.863 -11.229  1.00  0.00     0.053 C 
BRANCH   8   9
ATOM      9  C   UNL     1      32.912  -6.441  -9.834  1.00  0.00     0.041 C 
ATOM     10  O   UNL     1      32.425  -5.382  -9.358  1.00  0.00    -0.550 OA
ATOM     11  O   UNL     1      33.803  -7.190  -9.078  1.00  0.00    -0.550 OA
ENDBRANCH   8   9
ENDBRANCH   7   8
ENDBRANCH   6   7
ENDBRANCH   5   6
ENDBRANCH   4   5
ENDBRANCH   3   4
ENDBRANCH   2   3
ENDBRANCH   1   2
BRANCH   1  12
ATOM     12  C   UNL     1      30.860  -7.070 -16.206  1.00  0.00     0.000 C 
BRANCH  12  13
ATOM     13  C   UNL     1      31.384  -5.722 -15.683  1.00  0.00    -0.000 C 
BRANCH  13  14
ATOM     14  C   UNL     1      32.193  -4.947 -16.734  1.00  0.00    -0.000 C 
BRANCH  14  15
ATOM     15  C   UNL     1      33.633  -5.476 -16.818  1.00  0.00    -0.000 C 
BRANCH  15  16
ATOM     16  C   UNL     1      34.189  -5.458 -18.255  1.00  0.00    -0.000 C 
BRANCH  16  17
ATOM     17  C   UNL     1      35.729  -5.453 -18.324  1.00  0.00    -0.000 C 
BRANCH  17  18
ATOM     18  C   UNL     1      36.381  -4.464 -17.332  1.00  0.00    -0.000 C 
BRANCH  18  19
ATOM     19  C   UNL     1      37.249  -5.151 -16.265  1.00  0.00    -0.003 C 
ATOM     20  C   UNL     1      37.596  -6.595 -16.623  1.00  0.00     0.004 C 
ENDBRANCH  18  19
ENDBRANCH  17  18
ENDBRANCH  16  17
ENDBRANCH  15  16
ENDBRANCH  14  15
ENDBRANCH  13  14
ENDBRANCH  12  13
ENDBRANCH   1  12
TORSDOF 16
ENDMDL
MODEL 2
REMARK VINA RESULT:    -3.996      1.047      1.838
REMARK INTER + INTRA:          -8.731
REMARK INTER:                  -7.648
REMARK INTRA:                  -1.083
REMARK UNBOUND:                -0.998
REMARK SMILES CCCCCCCCCCCCCCCCCC(=O)[O-]
REMARK SMILES IDX 10 1 11 2 12 3 13 4 14 5 15 6 16 7 17 8 18 9 19 10 20 11
REMARK SMILES IDX 9 12 8 13 7 14 6 15 5 16 4 17 3 18 2 19 1 20
REMARK H PARENT
REMARK Flexibility Score: inf
ROOT
ATOM      1  C   UNL     1      30.980  -7.014 -15.983  1.00  0.00     0.000 C 
ENDROOT
BRANCH   1   2
ATOM      2  C   UNL     1      29.625  -7.561 -15.499  1.00  0.00     0.000 C 
BRANCH   2   3
ATOM      3  C   UNL     1      29.672  -8.358 -14.180  1.00  0.00     0.000 C 
BRANCH   3   4
ATOM      4  C   UNL     1      29.299  -7.555 -12.917  1.00  0.00     0.000 C 
BRANCH   4   5
ATOM      5  C   UNL     1      28.762  -6.135 -13.186  1.00  0.00     0.000 C 
BRANCH   5   6
ATOM      6  C   UNL     1      29.632  -4.992 -12.625  1.00  0.00     0.000 C 
BRANCH   6   7
ATOM      7  C   UNL     1      31.124  -5.332 -12.458  1.00  0.00     0.006 C 
BRANCH   7   8
ATOM      8  C   UNL     1      31.577  -5.318 -10.993  1.00  0.00     0.053 C 
BRANCH   8   9
ATOM      9  C   UNL     1      32.609  -6.375 -10.756  1.00  0.00     0.041 C 
ATOM     10  O   UNL     1      33.157  -6.483  -9.628  1.00  0.00    -0.550 OA
ATOM     11  O   UNL     1      33.003  -7.207 -11.795  1.00  0.00    -0.550 OA
ENDBRANCH   8   9
ENDBRANCH   7   8
ENDBRANCH   6   7
ENDBRANCH   5   6
ENDBRANCH   4   5
ENDBRANCH   3   4
ENDBRANCH   2   3
ENDBRANCH   1   2
BRANCH   1  12
ATOM     12  C   UNL     1      31.128  -5.500 -15.754  1.00  0.00     0.000 C 
BRANCH  12  13
ATOM     13  C   UNL     1      32.108  -4.844 -16.741  1.00  0.00    -0.000 C 
BRANCH  13  14
ATOM     14  C   UNL     1      33.503  -5.487 -16.714  1.00  0.00    -0.000 C 
BRANCH  14  15
ATOM     15  C   UNL     1      34.115  -5.528 -18.123  1.00  0.00    -0.000 C 
BRANCH  15  16
ATOM     16  C   UNL     1      35.478  -6.248 -18.156  1.00  0.00    -0.000 C 
BRANCH  16  17
ATOM     17  C   UNL     1      36.312  -6.056 -16.875  1.00  0.00    -0.000 C 
BRANCH  17  18
ATOM     18  C   UNL     1      37.293  -4.865 -16.958  1.00  0.00    -0.000 C 
BRANCH  18  19
ATOM     19  C   UNL     1      36.714  -3.647 -17.697  1.00  0.00    -0.003 C 
ATOM     20  C   UNL     1      37.608  -3.166 -18.838  1.00  0.00     0.004 C 
ENDBRANCH  18  19
ENDBRANCH  17  18
ENDBRANCH  16  17
ENDBRANCH  15  16
ENDBRANCH  14  15
ENDBRANCH  13  14
ENDBRANCH  12  13
ENDBRANCH   1  12
TORSDOF 16
ENDMDL
MODEL 3
REMARK VINA RESULT:    -3.858      2.627      6.440
REMARK INTER + INTRA:          -8.465
REMARK INTER:                  -7.419
REMARK INTRA:                  -1.046
REMARK UNBOUND:                -0.998
REMARK SMILES CCCCCCCCCCCCCCCCCC(=O)[O-]
REMARK SMILES IDX 10 1 11 2 12 3 13 4 14 5 15 6 16 7 17 8 18 9 19 10 20 11
REMARK SMILES IDX 9 12 8 13 7 14 6 15 5 16 4 17 3 18 2 19 1 20
REMARK H PARENT
REMARK Flexibility Score: inf
ROOT
ATOM      1  C   UNL     1      29.426  -7.380 -15.281  1.00  0.00     0.000 C 
ENDROOT
BRANCH   1   2
ATOM      2  C   UNL     1      30.645  -6.966 -16.126  1.00  0.00     0.000 C 
BRANCH   2   3
ATOM      3  C   UNL     1      31.325  -5.650 -15.696  1.00  0.00     0.000 C 
BRANCH   3   4
ATOM      4  C   UNL     1      32.237  -5.008 -16.760  1.00  0.00     0.000 C 
BRANCH   4   5
ATOM      5  C   UNL     1      33.707  -5.472 -16.721  1.00  0.00     0.000 C 
BRANCH   5   6
ATOM      6  C   UNL     1      34.502  -5.233 -18.020  1.00  0.00     0.000 C 
BRANCH   6   7
ATOM      7  C   UNL     1      35.790  -4.409 -17.852  1.00  0.00     0.006 C 
BRANCH   7   8
ATOM      8  C   UNL     1      37.061  -5.260 -17.968  1.00  0.00     0.053 C 
BRANCH   8   9
ATOM      9  C   UNL     1      37.442  -5.814 -16.632  1.00  0.00     0.041 C 
ATOM     10  O   UNL     1      37.058  -5.244 -15.577  1.00  0.00    -0.550 OA
ATOM     11  O   UNL     1      38.264  -6.931 -16.551  1.00  0.00    -0.550 OA
ENDBRANCH   8   9
ENDBRANCH   7   8
ENDBRANCH   6   7
ENDBRANCH   5   6
ENDBRANCH   4   5
ENDBRANCH   3   4
ENDBRANCH   2   3
ENDBRANCH   1   2
BRANCH   1  12
ATOM     12  C   UNL     1      29.820  -8.060 -13.959  1.00  0.00     0.000 C 
BRANCH  12  13
ATOM     13  C   UNL     1      29.212  -7.365 -12.730  1.00  0.00    -0.000 C 
BRANCH  13  14
ATOM     14  C   UNL     1      28.718  -5.941 -13.032  1.00  0.00    -0.000 C 
BRANCH  14  15
ATOM     15  C   UNL     1      29.884  -4.940 -13.006  1.00  0.00    -0.000 C 
BRANCH  15  16
ATOM     16  C   UNL     1      30.768  -5.092 -11.753  1.00  0.00    -0.000 C 
BRANCH  16  17
ATOM     17  C   UNL     1      32.196  -5.584 -12.058  1.00  0.00    -0.000 C 
BRANCH  17  18
ATOM     18  C   UNL     1      32.642  -6.759 -11.159  1.00  0.00    -0.000 C 
BRANCH  18  19
ATOM     19  C   UNL     1      32.867  -6.356  -9.693  1.00  0.00    -0.003 C 
ATOM     20  C   UNL     1      33.829  -7.289  -8.961  1.00  0.00     0.004 C 
ENDBRANCH  18  19
ENDBRANCH  17  18
ENDBRANCH  16  17
ENDBRANCH  15  16
ENDBRANCH  14  15
ENDBRANCH  13  14
ENDBRANCH  12  13
ENDBRANCH   1  12
TORSDOF 16
ENDMDL
MODEL 4
REMARK VINA RESULT:    -3.777      0.831      1.620
REMARK INTER + INTRA:          -8.308
REMARK INTER:                  -7.150
REMARK INTRA:                  -1.158
REMARK UNBOUND:                -0.998
REMARK SMILES CCCCCCCCCCCCCCCCCC(=O)[O-]
REMARK SMILES IDX 10 1 11 2 12 3 13 4 14 5 15 6 16 7 17 8 18 9 19 10 20 11
REMARK SMILES IDX 9 12 8 13 7 14 6 15 5 16 4 17 3 18 2 19 1 20
REMARK H PARENT
REMARK Flexibility Score: inf
ROOT
ATOM      1  C   UNL     1      30.819  -6.967 -16.135  1.00  0.00     0.000 C 
ENDROOT
BRANCH   1   2
ATOM      2  C   UNL     1      29.530  -7.343 -15.382  1.00  0.00     0.000 C 
BRANCH   2   3
ATOM      3  C   UNL     1      29.735  -8.197 -14.114  1.00  0.00     0.000 C 
BRANCH   3   4
ATOM      4  C   UNL     1      29.356  -7.504 -12.790  1.00  0.00     0.000 C 
BRANCH   4   5
ATOM      5  C   UNL     1      28.735  -6.101 -12.946  1.00  0.00     0.000 C 
BRANCH   5   6
ATOM      6  C   UNL     1      29.704  -4.927 -12.700  1.00  0.00     0.000 C 
BRANCH   6   7
ATOM      7  C   UNL     1      31.183  -5.326 -12.550  1.00  0.00     0.006 C 
BRANCH   7   8
ATOM      8  C   UNL     1      31.660  -5.305 -11.092  1.00  0.00     0.053 C 
BRANCH   8   9
ATOM      9  C   UNL     1      32.648  -6.403 -10.851  1.00  0.00     0.041 C 
ATOM     10  O   UNL     1      32.971  -7.180 -11.786  1.00  0.00    -0.550 OA
ATOM     11  O   UNL     1      33.172  -6.599  -9.580  1.00  0.00    -0.550 OA
ENDBRANCH   8   9
ENDBRANCH   7   8
ENDBRANCH   6   7
ENDBRANCH   5   6
ENDBRANCH   4   5
ENDBRANCH   3   4
ENDBRANCH   2   3
ENDBRANCH   1   2
BRANCH   1  12
ATOM     12  C   UNL     1      31.374  -5.594 -15.719  1.00  0.00     0.000 C 
BRANCH  12  13
ATOM     13  C   UNL     1      32.212  -4.934 -16.827  1.00  0.00    -0.000 C 
BRANCH  13  14
ATOM     14  C   UNL     1      33.669  -5.421 -16.845  1.00  0.00    -0.000 C 
BRANCH  14  15
ATOM     15  C   UNL     1      34.205  -5.494 -18.283  1.00  0.00    -0.000 C 
BRANCH  15  16
ATOM     16  C   UNL     1      35.735  -5.329 -18.354  1.00  0.00    -0.000 C 
BRANCH  16  17
ATOM     17  C   UNL     1      36.310  -4.395 -17.272  1.00  0.00    -0.000 C 
BRANCH  17  18
ATOM     18  C   UNL     1      37.277  -5.110 -16.300  1.00  0.00    -0.000 C 
BRANCH  18  19
ATOM     19  C   UNL     1      37.397  -6.621 -16.559  1.00  0.00    -0.003 C 
ATOM     20  C   UNL     1      38.827  -7.135 -16.418  1.00  0.00     0.004 C 
ENDBRANCH  18  19
ENDBRANCH  17  18
ENDBRANCH  16  17
ENDBRANCH  15  16
ENDBRANCH  14  15
ENDBRANCH  13  14
ENDBRANCH  12  13
ENDBRANCH   1  12
TORSDOF 16
ENDMDL
MODEL 5
REMARK VINA RESULT:    -3.511      2.885      6.379
REMARK INTER + INTRA:          -7.793
REMARK INTER:                  -7.056
REMARK INTRA:                  -0.737
REMARK UNBOUND:                -0.998
REMARK SMILES CCCCCCCCCCCCCCCCCC(=O)[O-]
REMARK SMILES IDX 10 1 11 2 12 3 13 4 14 5 15 6 16 7 17 8 18 9 19 10 20 11
REMARK SMILES IDX 9 12 8 13 7 14 6 15 5 16 4 17 3 18 2 19 1 20
REMARK H PARENT
REMARK Flexibility Score: inf
ROOT
ATOM      1  C   UNL     1      29.853  -8.125 -13.978  1.00  0.00     0.000 C 
ENDROOT
BRANCH   1   2
ATOM      2  C   UNL     1      29.517  -7.488 -15.339  1.00  0.00     0.000 C 
BRANCH   2   3
ATOM      3  C   UNL     1      30.732  -6.991 -16.149  1.00  0.00     0.000 C 
BRANCH   3   4
ATOM      4  C   UNL     1      31.281  -5.613 -15.725  1.00  0.00     0.000 C 
BRANCH   4   5
ATOM      5  C   UNL     1      32.223  -4.947 -16.747  1.00  0.00     0.000 C 
BRANCH   5   6
ATOM      6  C   UNL     1      33.668  -5.488 -16.753  1.00  0.00     0.000 C 
BRANCH   6   7
ATOM      7  C   UNL     1      34.398  -5.377 -18.103  1.00  0.00     0.006 C 
BRANCH   7   8
ATOM      8  C   UNL     1      35.858  -5.840 -18.030  1.00  0.00     0.053 C 
BRANCH   8   9
ATOM      9  C   UNL     1      36.685  -4.842 -17.281  1.00  0.00     0.041 C 
ATOM     10  O   UNL     1      36.589  -3.615 -17.546  1.00  0.00    -0.550 OA
ATOM     11  O   UNL     1      37.598  -5.272 -16.328  1.00  0.00    -0.550 OA
ENDBRANCH   8   9
ENDBRANCH   7   8
ENDBRANCH   6   7
ENDBRANCH   5   6
ENDBRANCH   4   5
ENDBRANCH   3   4
ENDBRANCH   2   3
ENDBRANCH   1   2
BRANCH   1  12
ATOM     12  C   UNL     1      29.273  -7.336 -12.792  1.00  0.00     0.000 C 
BRANCH  12  13
ATOM     13  C   UNL     1      28.862  -5.905 -13.177  1.00  0.00    -0.000 C 
BRANCH  13  14
ATOM     14  C   UNL     1      29.948  -4.865 -12.861  1.00  0.00    -0.000 C 
BRANCH  14  15
ATOM     15  C   UNL     1      30.882  -5.368 -11.750  1.00  0.00    -0.000 C 
BRANCH  15  16
ATOM     16  C   UNL     1      32.098  -6.138 -12.301  1.00  0.00    -0.000 C 
BRANCH  16  17
ATOM     17  C   UNL     1      33.005  -6.731 -11.206  1.00  0.00    -0.000 C 
BRANCH  17  18
ATOM     18  C   UNL     1      32.772  -6.101  -9.814  1.00  0.00    -0.000 C 
BRANCH  18  19
ATOM     19  C   UNL     1      33.249  -6.990  -8.653  1.00  0.00    -0.003 C 
ATOM     20  C   UNL     1      34.538  -7.744  -8.974  1.00  0.00     0.004 C 
ENDBRANCH  18  19
ENDBRANCH  17  18
ENDBRANCH  16  17
ENDBRANCH  15  16
ENDBRANCH  14  15
ENDBRANCH  13  14
ENDBRANCH  12  13
ENDBRANCH   1  12
TORSDOF 16
ENDMDL
MODEL 6
REMARK VINA RESULT:    -3.100      3.648      7.222
REMARK INTER + INTRA:          -6.997
REMARK INTER:                  -6.853
REMARK INTRA:                  -0.143
REMARK UNBOUND:                -0.998
REMARK SMILES CCCCCCCCCCCCCCCCCC(=O)[O-]
REMARK SMILES IDX 10 1 11 2 12 3 13 4 14 5 15 6 16 7 17 8 18 9 19 10 20 11
REMARK SMILES IDX 9 12 8 13 7 14 6 15 5 16 4 17 3 18 2 19 1 20
REMARK H PARENT
REMARK Flexibility Score: inf
ROOT
ATOM      1  C   UNL     1      30.340  -4.867 -14.011  1.00  0.00     0.000 C 
ENDROOT
BRANCH   1   2
ATOM      2  C   UNL     1      30.617  -5.686 -15.285  1.00  0.00     0.000 C 
BRANCH   2   3
ATOM      3  C   UNL     1      31.470  -4.972 -16.353  1.00  0.00     0.000 C 
BRANCH   3   4
ATOM      4  C   UNL     1      32.955  -5.384 -16.388  1.00  0.00     0.000 C 
BRANCH   4   5
ATOM      5  C   UNL     1      33.692  -5.048 -17.699  1.00  0.00     0.000 C 
BRANCH   5   6
ATOM      6  C   UNL     1      34.726  -6.098 -18.154  1.00  0.00     0.000 C 
BRANCH   6   7
ATOM      7  C   UNL     1      36.025  -6.130 -17.330  1.00  0.00     0.006 C 
BRANCH   7   8
ATOM      8  C   UNL     1      37.187  -5.407 -18.022  1.00  0.00     0.053 C 
BRANCH   8   9
ATOM      9  C   UNL     1      36.959  -3.928 -18.018  1.00  0.00     0.041 C 
ATOM     10  O   UNL     1      36.331  -3.388 -17.070  1.00  0.00    -0.550 OA
ATOM     11  O   UNL     1      37.394  -3.155 -19.086  1.00  0.00    -0.550 OA
ENDBRANCH   8   9
ENDBRANCH   7   8
ENDBRANCH   6   7
ENDBRANCH   5   6
ENDBRANCH   4   5
ENDBRANCH   3   4
ENDBRANCH   2   3
ENDBRANCH   1   2
BRANCH   1  12
ATOM     12  C   UNL     1      30.766  -5.599 -12.727  1.00  0.00     0.000 C 
BRANCH  12  13
ATOM     13  C   UNL     1      30.828  -7.125 -12.908  1.00  0.00    -0.000 C 
BRANCH  13  14
ATOM     14  C   UNL     1      29.450  -7.753 -13.169  1.00  0.00    -0.000 C 
BRANCH  14  15
ATOM     15  C   UNL     1      29.555  -8.904 -14.181  1.00  0.00    -0.000 C 
BRANCH  15  16
ATOM     16  C   UNL     1      29.522  -8.415 -15.642  1.00  0.00    -0.000 C 
BRANCH  16  17
ATOM     17  C   UNL     1      30.286  -9.328 -16.619  1.00  0.00    -0.000 C 
BRANCH  17  18
ATOM     18  C   UNL     1      29.508  -9.609 -17.925  1.00  0.00    -0.000 C 
BRANCH  18  19
ATOM     19  C   UNL     1      28.127  -8.935 -17.971  1.00  0.00    -0.003 C 
ATOM     20  C   UNL     1      27.253  -9.450 -19.113  1.00  0.00     0.004 C 
ENDBRANCH  18  19
ENDBRANCH  17  18
ENDBRANCH  16  17
ENDBRANCH  15  16
ENDBRANCH  14  15
ENDBRANCH  13  14
ENDBRANCH  12  13
ENDBRANCH   1  12
TORSDOF 16
ENDMDL
MODEL 7
REMARK VINA RESULT:    -3.050      0.819      1.522
REMARK INTER + INTRA:          -6.901
REMARK INTER:                  -5.697
REMARK INTRA:                  -1.204
REMARK UNBOUND:                -0.998
REMARK SMILES CCCCCCCCCCCCCCCCCC(=O)[O-]
REMARK SMILES IDX 10 1 11 2 12 3 13 4 14 5 15 6 16 7 17 8 18 9 19 10 20 11
REMARK SMILES IDX 9 12 8 13 7 14 6 15 5 16 4 17 3 18 2 19 1 20
REMARK H PARENT
REMARK Flexibility Score: inf
ROOT
ATOM      1  C   UNL     1      29.707  -8.119 -14.118  1.00  0.00     0.000 C 
ENDROOT
BRANCH   1   2
ATOM      2  C   UNL     1      29.373  -7.287 -12.866  1.00  0.00     0.000 C 
BRANCH   2   3
ATOM      3  C   UNL     1      28.900  -5.845 -13.141  1.00  0.00     0.000 C 
BRANCH   3   4
ATOM      4  C   UNL     1      29.889  -4.741 -12.718  1.00  0.00     0.000 C 
BRANCH   4   5
ATOM      5  C   UNL     1      30.926  -5.168 -11.660  1.00  0.00     0.000 C 
BRANCH   5   6
ATOM      6  C   UNL     1      32.151  -5.922 -12.214  1.00  0.00     0.000 C 
BRANCH   6   7
ATOM      7  C   UNL     1      32.771  -6.951 -11.251  1.00  0.00     0.006 C 
BRANCH   7   8
ATOM      8  C   UNL     1      33.024  -6.378  -9.850  1.00  0.00     0.053 C 
BRANCH   8   9
ATOM      9  C   UNL     1      33.849  -7.328  -9.040  1.00  0.00     0.041 C 
ATOM     10  O   UNL     1      33.423  -7.751  -7.934  1.00  0.00    -0.550 OA
ATOM     11  O   UNL     1      35.110  -7.704  -9.482  1.00  0.00    -0.550 OA
ENDBRANCH   8   9
ENDBRANCH   7   8
ENDBRANCH   6   7
ENDBRANCH   5   6
ENDBRANCH   4   5
ENDBRANCH   3   4
ENDBRANCH   2   3
ENDBRANCH   1   2
BRANCH   1  12
ATOM     12  C   UNL     1      29.610  -7.302 -15.418  1.00  0.00     0.000 C 
BRANCH  12  13
ATOM     13  C   UNL     1      30.989  -6.987 -16.023  1.00  0.00    -0.000 C 
BRANCH  13  14
ATOM     14  C   UNL     1      31.418  -5.528 -15.803  1.00  0.00    -0.000 C 
BRANCH  14  15
ATOM     15  C   UNL     1      32.395  -5.073 -16.899  1.00  0.00    -0.000 C 
BRANCH  15  16
ATOM     16  C   UNL     1      33.859  -5.423 -16.571  1.00  0.00    -0.000 C 
BRANCH  16  17
ATOM     17  C   UNL     1      34.805  -5.331 -17.784  1.00  0.00    -0.000 C 
BRANCH  17  18
ATOM     18  C   UNL     1      35.997  -4.372 -17.556  1.00  0.00    -0.000 C 
BRANCH  18  19
ATOM     19  C   UNL     1      37.043  -4.921 -16.573  1.00  0.00    -0.003 C 
ATOM     20  C   UNL     1      37.399  -6.382 -16.840  1.00  0.00     0.004 C 
ENDBRANCH  18  19
ENDBRANCH  17  18
ENDBRANCH  16  17
ENDBRANCH  15  16
ENDBRANCH  14  15
ENDBRANCH  13  14
ENDBRANCH  12  13
ENDBRANCH   1  12
TORSDOF 16
ENDMDL
MODEL 8
REMARK VINA RESULT:    -2.675      3.843      5.278
REMARK INTER + INTRA:          -6.175
REMARK INTER:                  -5.292
REMARK INTRA:                  -0.883
REMARK UNBOUND:                -0.998
REMARK SMILES CCCCCCCCCCCCCCCCCC(=O)[O-]
REMARK SMILES IDX 10 1 11 2 12 3 13 4 14 5 15 6 16 7 17 8 18 9 19 10 20 11
REMARK SMILES IDX 9 12 8 13 7 14 6 15 5 16 4 17 3 18 2 19 1 20
REMARK H PARENT
REMARK Flexibility Score: inf
ROOT
ATOM      1  C   UNL     1      30.580  -4.635 -15.154  1.00  0.00     0.000 C 
ENDROOT
BRANCH   1   2
ATOM      2  C   UNL     1      29.997  -5.054 -13.791  1.00  0.00     0.000 C 
BRANCH   2   3
ATOM      3  C   UNL     1      30.793  -6.142 -13.043  1.00  0.00     0.000 C 
BRANCH   3   4
ATOM      4  C   UNL     1      30.117  -7.527 -12.990  1.00  0.00     0.000 C 
BRANCH   4   5
ATOM      5  C   UNL     1      29.388  -7.943 -14.284  1.00  0.00     0.000 C 
BRANCH   5   6
ATOM      6  C   UNL     1      29.937  -9.214 -14.962  1.00  0.00     0.000 C 
BRANCH   6   7
ATOM      7  C   UNL     1      29.870  -9.211 -16.500  1.00  0.00     0.006 C 
BRANCH   7   8
ATOM      8  C   UNL     1      28.579  -8.581 -17.038  1.00  0.00     0.053 C 
BRANCH   8   9
ATOM      9  C   UNL     1      28.222  -9.175 -18.363  1.00  0.00     0.041 C 
ATOM     10  O   UNL     1      27.031  -9.142 -18.771  1.00  0.00    -0.550 OA
ATOM     11  O   UNL     1      29.193  -9.811 -19.125  1.00  0.00    -0.550 OA
ENDBRANCH   8   9
ENDBRANCH   7   8
ENDBRANCH   6   7
ENDBRANCH   5   6
ENDBRANCH   4   5
ENDBRANCH   3   4
ENDBRANCH   2   3
ENDBRANCH   1   2
BRANCH   1  12
ATOM     12  C   UNL     1      31.626  -5.630 -15.685  1.00  0.00     0.000 C 
BRANCH  12  13
ATOM     13  C   UNL     1      32.222  -5.198 -17.035  1.00  0.00    -0.000 C 
BRANCH  13  14
ATOM     14  C   UNL     1      33.756  -5.279 -17.065  1.00  0.00    -0.000 C 
BRANCH  14  15
ATOM     15  C   UNL     1      34.243  -5.978 -18.343  1.00  0.00    -0.000 C 
BRANCH  15  16
ATOM     16  C   UNL     1      35.761  -6.244 -18.332  1.00  0.00    -0.000 C 
BRANCH  16  17
ATOM     17  C   UNL     1      36.389  -6.194 -16.926  1.00  0.00    -0.000 C 
BRANCH  17  18
ATOM     18  C   UNL     1      37.262  -4.939 -16.692  1.00  0.00    -0.000 C 
BRANCH  18  19
ATOM     19  C   UNL     1      36.756  -3.695 -17.440  1.00  0.00    -0.003 C 
ATOM     20  C   UNL     1      37.478  -3.466 -18.766  1.00  0.00     0.004 C 
ENDBRANCH  18  19
ENDBRANCH  17  18
ENDBRANCH  16  17
ENDBRANCH  15  16
ENDBRANCH  14  15
ENDBRANCH  13  14
ENDBRANCH  12  13
ENDBRANCH   1  12
TORSDOF 16
ENDMDL
MODEL 9
REMARK VINA RESULT:    -2.496      2.562      6.688
REMARK INTER + INTRA:          -5.828
REMARK INTER:                  -5.946
REMARK INTRA:                   0.119
REMARK UNBOUND:                -0.998
REMARK SMILES CCCCCCCCCCCCCCCCCC(=O)[O-]
REMARK SMILES IDX 10 1 11 2 12 3 13 4 14 5 15 6 16 7 17 8 18 9 19 10 20 11
REMARK SMILES IDX 9 12 8 13 7 14 6 15 5 16 4 17 3 18 2 19 1 20
REMARK H PARENT
REMARK Flexibility Score: inf
ROOT
ATOM      1  C   UNL     1      30.487  -5.703 -15.370  1.00  0.00     0.000 C 
ENDROOT
BRANCH   1   2
ATOM      2  C   UNL     1      31.505  -4.835 -16.133  1.00  0.00     0.000 C 
BRANCH   2   3
ATOM      3  C   UNL     1      32.840  -5.531 -16.470  1.00  0.00     0.000 C 
BRANCH   3   4
ATOM      4  C   UNL     1      33.592  -4.950 -17.683  1.00  0.00     0.000 C 
BRANCH   4   5
ATOM      5  C   UNL     1      34.485  -5.956 -18.436  1.00  0.00     0.000 C 
BRANCH   5   6
ATOM      6  C   UNL     1      35.854  -5.406 -18.885  1.00  0.00     0.000 C 
BRANCH   6   7
ATOM      7  C   UNL     1      36.304  -4.120 -18.169  1.00  0.00     0.006 C 
BRANCH   7   8
ATOM      8  C   UNL     1      37.501  -4.345 -17.237  1.00  0.00     0.053 C 
BRANCH   8   9
ATOM      9  C   UNL     1      37.243  -5.505 -16.327  1.00  0.00     0.041 C 
ATOM     10  O   UNL     1      37.946  -6.545 -16.413  1.00  0.00    -0.550 OA
ATOM     11  O   UNL     1      36.193  -5.456 -15.420  1.00  0.00    -0.550 OA
ENDBRANCH   8   9
ENDBRANCH   7   8
ENDBRANCH   6   7
ENDBRANCH   5   6
ENDBRANCH   4   5
ENDBRANCH   3   4
ENDBRANCH   2   3
ENDBRANCH   1   2
BRANCH   1  12
ATOM     12  C   UNL     1      30.395  -7.136 -15.920  1.00  0.00     0.000 C 
BRANCH  12  13
ATOM     13  C   UNL     1      29.606  -8.077 -14.993  1.00  0.00    -0.000 C 
BRANCH  13  14
ATOM     14  C   UNL     1      29.928  -7.860 -13.507  1.00  0.00    -0.000 C 
BRANCH  14  15
ATOM     15  C   UNL     1      29.331  -6.537 -13.004  1.00  0.00    -0.000 C 
BRANCH  15  16
ATOM     16  C   UNL     1      30.332  -5.713 -12.171  1.00  0.00    -0.000 C 
BRANCH  16  17
ATOM     17  C   UNL     1      31.799  -5.897 -12.604  1.00  0.00    -0.000 C 
BRANCH  17  18
ATOM     18  C   UNL     1      32.637  -6.710 -11.591  1.00  0.00    -0.000 C 
BRANCH  18  19
ATOM     19  C   UNL     1      32.650  -6.099 -10.180  1.00  0.00    -0.003 C 
ATOM     20  C   UNL     1      33.396  -6.963  -9.166  1.00  0.00     0.004 C 
ENDBRANCH  18  19
ENDBRANCH  17  18
ENDBRANCH  16  17
ENDBRANCH  15  16
ENDBRANCH  14  15
ENDBRANCH  13  14
ENDBRANCH  12  13
ENDBRANCH   1  12
TORSDOF 16
ENDMDL
