MODEL 1
REMARK VINA RESULT:    -3.889      0.000      0.000
REMARK INTER + INTRA:          -5.661
REMARK INTER:                  -5.253
REMARK INTRA:                  -0.408
REMARK UNBOUND:                -0.408
REMARK SMILES CCCCCCCC(=O)[O-]
REMARK SMILES IDX 5 1 6 2 7 3 8 4 9 5 10 6 4 7 3 8 2 9 1 10
REMARK H PARENT
REMARK Flexibility Score: inf
ROOT
ATOM      1  C   UNL     1      14.839 -30.229  23.113  1.00  0.00     0.000 C 
ENDROOT
BRANCH   1   2
ATOM      2  C   UNL     1      14.970 -30.552  21.617  1.00  0.00     0.006 C 
BRANCH   2   3
ATOM      3  C   UNL     1      15.665 -31.900  21.406  1.00  0.00     0.053 C 
BRANCH   3   4
ATOM      4  C   UNL     1      14.686 -32.926  20.931  1.00  0.00     0.041 C 
ATOM      5  O   UNL     1      13.634 -32.571  20.336  1.00  0.00    -0.550 OA
ATOM      6  O   UNL     1      14.910 -34.274  21.186  1.00  0.00    -0.550 OA
ENDBRANCH   3   4
ENDBRANCH   2   3
ENDBRANCH   1   2
BRANCH   1   7
ATOM      7  C   UNL     1      13.426 -30.502  23.655  1.00  0.00     0.000 C 
BRANCH   7   8
ATOM      8  C   UNL     1      12.332 -30.261  22.600  1.00  0.00    -0.000 C 
BRANCH   8   9
ATOM      9  C   UNL     1      11.425 -29.072  22.954  1.00  0.00    -0.003 C 
ATOM     10  C   UNL     1      11.847 -28.372  24.246  1.00  0.00     0.004 C 
ENDBRANCH   8   9
ENDBRANCH   7   8
ENDBRANCH   1   7
TORSDOF 6
ENDMDL
MODEL 2
REMARK VINA RESULT:    -3.788      1.963      2.784
REMARK INTER + INTRA:          -5.524
REMARK INTER:                  -5.214
REMARK INTRA:                  -0.310
REMARK UNBOUND:                -0.408
REMARK SMILES CCCCCCCC(=O)[O-]
REMARK SMILES IDX 5 1 6 2 7 3 8 4 9 5 10 6 4 7 3 8 2 9 1 10
REMARK H PARENT
REMARK Flexibility Score: inf
ROOT
ATOM      1  C   UNL     1      13.497 -31.610  20.766  1.00  0.00     0.000 C 
ENDROOT
BRANCH   1   2
ATOM      2  C   UNL     1      14.292 -32.851  21.199  1.00  0.00     0.006 C 
BRANCH   2   3
ATOM      3  C   UNL     1      14.597 -33.752  19.999  1.00  0.00     0.053 C 
BRANCH   3   4
ATOM      4  C   UNL     1      15.756 -34.649  20.297  1.00  0.00     0.041 C 
ATOM      5  O   UNL     1      16.284 -35.329  19.377  1.00  0.00    -0.550 OA
ATOM      6  O   UNL     1      16.223 -34.774  21.600  1.00  0.00    -0.550 OA
ENDBRANCH   3   4
ENDBRANCH   2   3
ENDBRANCH   1   2
BRANCH   1   7
ATOM      7  C   UNL     1      12.703 -30.984  21.924  1.00  0.00     0.000 C 
BRANCH   7   8
ATOM      8  C   UNL     1      13.484 -30.992  23.249  1.00  0.00    -0.000 C 
BRANCH   8   9
ATOM      9  C   UNL     1      14.283 -29.698  23.470  1.00  0.00    -0.003 C 
ATOM     10  C   UNL     1      15.757 -29.844  23.094  1.00  0.00     0.004 C 
ENDBRANCH   8   9
ENDBRANCH   7   8
ENDBRANCH   1   7
TORSDOF 6
ENDMDL
MODEL 3
REMARK VINA RESULT:    -3.783      2.241      4.806
REMARK INTER + INTRA:          -5.519
REMARK INTER:                  -5.163
REMARK INTRA:                  -0.356
REMARK UNBOUND:                -0.408
REMARK SMILES CCCCCCCC(=O)[O-]
REMARK SMILES IDX 5 1 6 2 7 3 8 4 9 5 10 6 4 7 3 8 2 9 1 10
REMARK H PARENT
REMARK Flexibility Score: inf
ROOT
ATOM      1  C   UNL     1      15.029 -31.070  22.947  1.00  0.00     0.000 C 
ENDROOT
BRANCH   1   2
ATOM      2  C   UNL     1      13.621 -31.103  23.561  1.00  0.00     0.006 C 
BRANCH   2   3
ATOM      3  C   UNL     1      13.051 -29.688  23.700  1.00  0.00     0.053 C 
BRANCH   3   4
ATOM      4  C   UNL     1      11.831 -29.528  22.850  1.00  0.00     0.041 C 
ATOM      5  O   UNL     1      11.004 -28.609  23.095  1.00  0.00    -0.550 OA
ATOM      6  O   UNL     1      11.580 -30.422  21.817  1.00  0.00    -0.550 OA
ENDBRANCH   3   4
ENDBRANCH   2   3
ENDBRANCH   1   2
BRANCH   1   7
ATOM      7  C   UNL     1      15.021 -31.338  21.434  1.00  0.00     0.000 C 
BRANCH   7   8
ATOM      8  C   UNL     1      14.247 -32.616  21.064  1.00  0.00    -0.000 C 
BRANCH   8   9
ATOM      9  C   UNL     1      15.013 -33.895  21.436  1.00  0.00    -0.003 C 
ATOM     10  C   UNL     1      15.304 -34.782  20.225  1.00  0.00     0.004 C 
ENDBRANCH   8   9
ENDBRANCH   7   8
ENDBRANCH   1   7
TORSDOF 6
ENDMDL
MODEL 4
REMARK VINA RESULT:    -3.780      1.975      2.720
REMARK INTER + INTRA:          -5.515
REMARK INTER:                  -5.275
REMARK INTRA:                  -0.239
REMARK UNBOUND:                -0.408
REMARK SMILES CCCCCCCC(=O)[O-]
REMARK SMILES IDX 5 1 6 2 7 3 8 4 9 5 10 6 4 7 3 8 2 9 1 10
REMARK H PARENT
REMARK Flexibility Score: inf
ROOT
ATOM      1  C   UNL     1      13.850 -32.143  21.121  1.00  0.00     0.000 C 
ENDROOT
BRANCH   1   2
ATOM      2  C   UNL     1      14.256 -33.201  20.084  1.00  0.00     0.006 C 
BRANCH   2   3
ATOM      3  C   UNL     1      15.080 -34.317  20.733  1.00  0.00     0.053 C 
BRANCH   3   4
ATOM      4  C   UNL     1      16.015 -34.927  19.738  1.00  0.00     0.041 C 
ATOM      5  O   UNL     1      16.607 -34.199  18.897  1.00  0.00    -0.550 OA
ATOM      6  O   UNL     1      16.196 -36.304  19.705  1.00  0.00    -0.550 OA
ENDBRANCH   3   4
ENDBRANCH   2   3
ENDBRANCH   1   2
BRANCH   1   7
ATOM      7  C   UNL     1      14.499 -32.382  22.494  1.00  0.00     0.000 C 
BRANCH   7   8
ATOM      8  C   UNL     1      13.840 -31.556  23.612  1.00  0.00    -0.000 C 
BRANCH   8   9
ATOM      9  C   UNL     1      13.927 -30.043  23.355  1.00  0.00    -0.003 C 
ATOM     10  C   UNL     1      12.830 -29.259  24.074  1.00  0.00     0.004 C 
ENDBRANCH   8   9
ENDBRANCH   7   8
ENDBRANCH   1   7
TORSDOF 6
ENDMDL
MODEL 5
REMARK VINA RESULT:    -3.743      2.688      5.594
REMARK INTER + INTRA:          -5.464
REMARK INTER:                  -5.221
REMARK INTRA:                  -0.244
REMARK UNBOUND:                -0.408
REMARK SMILES CCCCCCCC(=O)[O-]
REMARK SMILES IDX 5 1 6 2 7 3 8 4 9 5 10 6 4 7 3 8 2 9 1 10
REMARK H PARENT
REMARK Flexibility Score: inf
ROOT
ATOM      1  C   UNL     1      14.220 -32.884  20.666  1.00  0.00     0.000 C 
ENDROOT
BRANCH   1   2
ATOM      2  C   UNL     1      14.418 -31.519  21.342  1.00  0.00     0.006 C 
BRANCH   2   3
ATOM      3  C   UNL     1      13.095 -30.986  21.900  1.00  0.00     0.053 C 
BRANCH   3   4
ATOM      4  C   UNL     1      13.188 -30.798  23.381  1.00  0.00     0.041 C 
ATOM      5  O   UNL     1      13.539 -31.756  24.120  1.00  0.00    -0.550 OA
ATOM      6  O   UNL     1      12.839 -29.581  23.951  1.00  0.00    -0.550 OA
ENDBRANCH   3   4
ENDBRANCH   2   3
ENDBRANCH   1   2
BRANCH   1   7
ATOM      7  C   UNL     1      15.278 -33.914  21.092  1.00  0.00     0.000 C 
BRANCH   7   8
ATOM      8  C   UNL     1      15.418 -35.069  20.086  1.00  0.00    -0.000 C 
BRANCH   8   9
ATOM      9  C   UNL     1      16.854 -35.221  19.560  1.00  0.00    -0.003 C 
ATOM     10  C   UNL     1      17.417 -33.917  18.996  1.00  0.00     0.004 C 
ENDBRANCH   8   9
ENDBRANCH   7   8
ENDBRANCH   1   7
TORSDOF 6
ENDMDL
MODEL 6
REMARK VINA RESULT:    -3.679      1.360      2.277
REMARK INTER + INTRA:          -5.378
REMARK INTER:                  -4.991
REMARK INTRA:                  -0.387
REMARK UNBOUND:                -0.408
REMARK SMILES CCCCCCCC(=O)[O-]
REMARK SMILES IDX 5 1 6 2 7 3 8 4 9 5 10 6 4 7 3 8 2 9 1 10
REMARK H PARENT
REMARK Flexibility Score: inf
ROOT
ATOM      1  C   UNL     1      15.621 -31.843  21.571  1.00  0.00     0.000 C 
ENDROOT
BRANCH   1   2
ATOM      2  C   UNL     1      14.948 -33.112  22.115  1.00  0.00     0.006 C 
BRANCH   2   3
ATOM      3  C   UNL     1      15.357 -34.341  21.298  1.00  0.00     0.053 C 
BRANCH   3   4
ATOM      4  C   UNL     1      15.233 -34.064  19.833  1.00  0.00     0.041 C 
ATOM      5  O   UNL     1      16.227 -34.212  19.074  1.00  0.00    -0.550 OA
ATOM      6  O   UNL     1      14.033 -33.593  19.313  1.00  0.00    -0.550 OA
ENDBRANCH   3   4
ENDBRANCH   2   3
ENDBRANCH   1   2
BRANCH   1   7
ATOM      7  C   UNL     1      14.668 -30.637  21.536  1.00  0.00     0.000 C 
BRANCH   7   8
ATOM      8  C   UNL     1      13.188 -31.053  21.568  1.00  0.00    -0.000 C 
BRANCH   8   9
ATOM      9  C   UNL     1      12.366 -30.227  22.571  1.00  0.00    -0.003 C 
ATOM     10  C   UNL     1      13.184 -29.791  23.786  1.00  0.00     0.004 C 
ENDBRANCH   8   9
ENDBRANCH   7   8
ENDBRANCH   1   7
TORSDOF 6
ENDMDL
MODEL 7
REMARK VINA RESULT:    -3.670      8.645      9.822
REMARK INTER + INTRA:          -5.366
REMARK INTER:                  -5.089
REMARK INTRA:                  -0.277
REMARK UNBOUND:                -0.408
REMARK SMILES CCCCCCCC(=O)[O-]
REMARK SMILES IDX 5 1 6 2 7 3 8 4 9 5 10 6 4 7 3 8 2 9 1 10
REMARK H PARENT
REMARK Flexibility Score: inf
ROOT
ATOM      1  C   UNL     1      20.203 -26.688  20.554  1.00  0.00     0.000 C 
ENDROOT
BRANCH   1   2
ATOM      2  C   UNL     1      20.870 -25.372  20.127  1.00  0.00     0.006 C 
BRANCH   2   3
ATOM      3  C   UNL     1      22.261 -25.235  20.754  1.00  0.00     0.053 C 
BRANCH   3   4
ATOM      4  C   UNL     1      23.207 -24.586  19.795  1.00  0.00     0.041 C 
ATOM      5  O   UNL     1      23.322 -25.028  18.621  1.00  0.00    -0.550 OA
ATOM      6  O   UNL     1      24.000 -23.523  20.210  1.00  0.00    -0.550 OA
ENDBRANCH   3   4
ENDBRANCH   2   3
ENDBRANCH   1   2
BRANCH   1   7
ATOM      7  C   UNL     1      21.225 -27.784  20.898  1.00  0.00     0.000 C 
BRANCH   7   8
ATOM      8  C   UNL     1      20.593 -29.186  20.948  1.00  0.00    -0.000 C 
BRANCH   8   9
ATOM      9  C   UNL     1      19.058 -29.143  20.880  1.00  0.00    -0.003 C 
ATOM     10  C   UNL     1      18.420 -30.519  21.071  1.00  0.00     0.004 C 
ENDBRANCH   8   9
ENDBRANCH   7   8
ENDBRANCH   1   7
TORSDOF 6
ENDMDL
MODEL 8
REMARK VINA RESULT:    -3.606      1.147      2.249
REMARK INTER + INTRA:          -5.279
REMARK INTER:                  -4.920
REMARK INTRA:                  -0.359
REMARK UNBOUND:                -0.408
REMARK SMILES CCCCCCCC(=O)[O-]
REMARK SMILES IDX 5 1 6 2 7 3 8 4 9 5 10 6 4 7 3 8 2 9 1 10
REMARK H PARENT
REMARK Flexibility Score: inf
ROOT
ATOM      1  C   UNL     1      16.355 -31.252  21.612  1.00  0.00     0.000 C 
ENDROOT
BRANCH   1   2
ATOM      2  C   UNL     1      16.288 -32.563  22.410  1.00  0.00     0.006 C 
BRANCH   2   3
ATOM      3  C   UNL     1      14.975 -33.304  22.137  1.00  0.00     0.053 C 
BRANCH   3   4
ATOM      4  C   UNL     1      15.057 -34.060  20.849  1.00  0.00     0.041 C 
ATOM      5  O   UNL     1      15.806 -35.068  20.753  1.00  0.00    -0.550 OA
ATOM      6  O   UNL     1      14.345 -33.624  19.739  1.00  0.00    -0.550 OA
ENDBRANCH   3   4
ENDBRANCH   2   3
ENDBRANCH   1   2
BRANCH   1   7
ATOM      7  C   UNL     1      15.046 -30.450  21.683  1.00  0.00     0.000 C 
BRANCH   7   8
ATOM      8  C   UNL     1      14.834 -29.785  23.054  1.00  0.00    -0.000 C 
BRANCH   8   9
ATOM      9  C   UNL     1      13.480 -30.150  23.683  1.00  0.00    -0.003 C 
ATOM     10  C   UNL     1      12.721 -28.929  24.202  1.00  0.00     0.004 C 
ENDBRANCH   8   9
ENDBRANCH   7   8
ENDBRANCH   1   7
TORSDOF 6
ENDMDL
MODEL 9
REMARK VINA RESULT:    -1.662      5.807      7.118
REMARK INTER + INTRA:          -2.653
REMARK INTER:                  -2.434
REMARK INTRA:                  -0.219
REMARK UNBOUND:                -0.408
REMARK SMILES CCCCCCCC(=O)[O-]
REMARK SMILES IDX 5 1 6 2 7 3 8 4 9 5 10 6 4 7 3 8 2 9 1 10
REMARK H PARENT
REMARK Flexibility Score: inf
ROOT
ATOM      1  C   UNL     1      16.799 -35.447  25.752  1.00  0.00     0.000 C 
ENDROOT
BRANCH   1   2
ATOM      2  C   UNL     1      16.970 -34.730  24.404  1.00  0.00     0.006 C 
BRANCH   2   3
ATOM      3  C   UNL     1      15.897 -33.652  24.217  1.00  0.00     0.053 C 
BRANCH   3   4
ATOM      4  C   UNL     1      15.430 -33.618  22.796  1.00  0.00     0.041 C 
ATOM      5  O   UNL     1      15.963 -34.369  21.936  1.00  0.00    -0.550 OA
ATOM      6  O   UNL     1      14.441 -32.722  22.410  1.00  0.00    -0.550 OA
ENDBRANCH   3   4
ENDBRANCH   2   3
ENDBRANCH   1   2
BRANCH   1   7
ATOM      7  C   UNL     1      18.005 -36.330  26.108  1.00  0.00     0.000 C 
BRANCH   7   8
ATOM      8  C   UNL     1      17.588 -37.715  26.635  1.00  0.00    -0.000 C 
BRANCH   8   9
ATOM      9  C   UNL     1      16.157 -37.725  27.195  1.00  0.00    -0.003 C 
ATOM     10  C   UNL     1      16.103 -38.125  28.669  1.00  0.00     0.004 C 
ENDBRANCH   8   9
ENDBRANCH   7   8
ENDBRANCH   1   7
TORSDOF 6
ENDMDL
