MODEL 1
REMARK VINA RESULT:    -5.787      0.000      0.000
REMARK INTER + INTRA:          -5.956
REMARK INTER:                  -5.956
REMARK INTRA:                   0.000
REMARK UNBOUND:                 0.000
REMARK SMILES C=C1[C@H]2C[C@@]3(C[C@@H]1O)[C@H](CC[C@@H]3C)C2(C)C
REMARK SMILES IDX 13 1 12 2 11 3 10 4 9 5 5 6 4 7 3 8 14 9 15 10 16 11 2 12
REMARK SMILES IDX 1 13 7 14 6 15 8 16
REMARK H PARENT 8 17
REMARK Flexibility Score: inf
ROOT
ATOM      1  C   UNL     1     183.326 188.320 190.495  1.00  0.00     0.008 C 
ATOM      2  C   UNL     1     183.926 189.733 190.508  1.00  0.00    -0.008 C 
ATOM      3  C   UNL     1     184.695 190.008 191.798  1.00  0.00     0.004 C 
ATOM      4  C   UNL     1     185.604 191.176 191.460  1.00  0.00     0.005 C 
ATOM      5  C   UNL     1     186.055 190.903 190.017  1.00  0.00     0.002 C 
ATOM      6  C   UNL     1     184.921 190.079 189.357  1.00  0.00    -0.020 C 
ATOM      7  C   UNL     1     184.321 191.018 188.306  1.00  0.00     0.016 C 
ATOM      8  C   UNL     1     185.565 191.708 187.771  1.00  0.00     0.023 C 
ATOM      9  C   UNL     1     186.335 192.115 189.063  1.00  0.00    -0.025 C 
ATOM     10  C   UNL     1     185.790 193.474 189.576  1.00  0.00     0.012 C 
ATOM     11  C   UNL     1     187.854 192.306 188.829  1.00  0.00     0.012 C 
ATOM     12  C   UNL     1     186.328 190.678 186.938  1.00  0.00    -0.045 C 
ATOM     13  C   UNL     1     186.934 191.056 185.802  1.00  0.00     0.011 C 
ATOM     14  C   UNL     1     186.472 189.235 187.421  1.00  0.00     0.140 C 
ATOM     15  C   UNL     1     185.512 188.854 188.594  1.00  0.00     0.044 C 
ENDROOT
BRANCH  14  16
ATOM     16  O   UNL     1     187.805 189.010 187.800  1.00  0.00    -0.389 OA
ATOM     17  H   UNL     1     188.099 188.178 187.345  1.00  0.00     0.211 HD
ENDBRANCH  14  16
TORSDOF 1
ENDMDL
MODEL 2
REMARK VINA RESULT:    -5.633      1.816      2.911
REMARK INTER + INTRA:          -5.797
REMARK INTER:                  -5.797
REMARK INTRA:                   0.000
REMARK UNBOUND:                 0.000
REMARK SMILES C=C1[C@H]2C[C@@]3(C[C@@H]1O)[C@H](CC[C@@H]3C)C2(C)C
REMARK SMILES IDX 13 1 12 2 11 3 10 4 9 5 5 6 4 7 3 8 14 9 15 10 16 11 2 12
REMARK SMILES IDX 1 13 7 14 6 15 8 16
REMARK H PARENT 8 17
REMARK Flexibility Score: inf
ROOT
ATOM      1  C   UNL     1     182.182 186.240 189.980  1.00  0.00     0.008 C 
ATOM      2  C   UNL     1     183.335 187.010 190.638  1.00  0.00    -0.008 C 
ATOM      3  C   UNL     1     184.501 186.089 190.990  1.00  0.00     0.004 C 
ATOM      4  C   UNL     1     185.690 187.019 191.146  1.00  0.00     0.005 C 
ATOM      5  C   UNL     1     185.493 188.077 190.050  1.00  0.00     0.002 C 
ATOM      6  C   UNL     1     183.966 188.168 189.805  1.00  0.00    -0.020 C 
ATOM      7  C   UNL     1     183.574 189.558 190.314  1.00  0.00     0.016 C 
ATOM      8  C   UNL     1     184.762 190.392 189.862  1.00  0.00     0.023 C 
ATOM      9  C   UNL     1     185.989 189.541 190.306  1.00  0.00    -0.025 C 
ATOM     10  C   UNL     1     186.320 189.857 191.788  1.00  0.00     0.012 C 
ATOM     11  C   UNL     1     187.268 189.852 189.490  1.00  0.00     0.012 C 
ATOM     12  C   UNL     1     184.664 190.527 188.342  1.00  0.00    -0.045 C 
ATOM     13  C   UNL     1     184.992 191.688 187.753  1.00  0.00     0.011 C 
ATOM     14  C   UNL     1     184.269 189.331 187.476  1.00  0.00     0.140 C 
ATOM     15  C   UNL     1     183.659 188.136 188.276  1.00  0.00     0.044 C 
ENDROOT
BRANCH  14  16
ATOM     16  O   UNL     1     185.392 188.899 186.752  1.00  0.00    -0.389 OA
ATOM     17  H   UNL     1     185.063 188.576 185.873  1.00  0.00     0.211 HD
ENDBRANCH  14  16
TORSDOF 1
ENDMDL
MODEL 3
REMARK VINA RESULT:    -5.597      1.905      3.991
REMARK INTER + INTRA:          -5.760
REMARK INTER:                  -5.760
REMARK INTRA:                   0.000
REMARK UNBOUND:                 0.000
REMARK SMILES C=C1[C@H]2C[C@@]3(C[C@@H]1O)[C@H](CC[C@@H]3C)C2(C)C
REMARK SMILES IDX 13 1 12 2 11 3 10 4 9 5 5 6 4 7 3 8 14 9 15 10 16 11 2 12
REMARK SMILES IDX 1 13 7 14 6 15 8 16
REMARK H PARENT 8 17
REMARK Flexibility Score: inf
ROOT
ATOM      1  C   UNL     1     184.956 189.632 186.233  1.00  0.00     0.008 C 
ATOM      2  C   UNL     1     185.720 190.485 187.256  1.00  0.00    -0.008 C 
ATOM      3  C   UNL     1     185.339 191.960 187.159  1.00  0.00     0.004 C 
ATOM      4  C   UNL     1     185.762 192.553 188.491  1.00  0.00     0.005 C 
ATOM      5  C   UNL     1     185.433 191.457 189.517  1.00  0.00     0.002 C 
ATOM      6  C   UNL     1     185.528 190.110 188.758  1.00  0.00    -0.020 C 
ATOM      7  C   UNL     1     186.746 189.408 189.364  1.00  0.00     0.016 C 
ATOM      8  C   UNL     1     186.611 189.779 190.832  1.00  0.00     0.023 C 
ATOM      9  C   UNL     1     186.333 191.312 190.792  1.00  0.00    -0.025 C 
ATOM     10  C   UNL     1     187.683 192.073 190.715  1.00  0.00     0.012 C 
ATOM     11  C   UNL     1     185.604 191.828 192.057  1.00  0.00     0.012 C 
ATOM     12  C   UNL     1     185.428 188.986 191.389  1.00  0.00    -0.045 C 
ATOM     13  C   UNL     1     185.491 188.477 192.629  1.00  0.00     0.011 C 
ATOM     14  C   UNL     1     184.142 188.829 190.577  1.00  0.00     0.140 C 
ATOM     15  C   UNL     1     184.284 189.222 189.071  1.00  0.00     0.044 C 
ENDROOT
BRANCH  14  16
ATOM     16  O   UNL     1     183.127 189.590 191.177  1.00  0.00    -0.389 OA
ATOM     17  H   UNL     1     183.373 189.699 192.133  1.00  0.00     0.211 HD
ENDBRANCH  14  16
TORSDOF 1
ENDMDL
MODEL 4
REMARK VINA RESULT:    -5.590      1.616      4.322
REMARK INTER + INTRA:          -5.753
REMARK INTER:                  -5.753
REMARK INTRA:                   0.000
REMARK UNBOUND:                 0.000
REMARK SMILES C=C1[C@H]2C[C@@]3(C[C@@H]1O)[C@H](CC[C@@H]3C)C2(C)C
REMARK SMILES IDX 13 1 12 2 11 3 10 4 9 5 5 6 4 7 3 8 14 9 15 10 16 11 2 12
REMARK SMILES IDX 1 13 7 14 6 15 8 16
REMARK H PARENT 8 17
REMARK Flexibility Score: inf
ROOT
ATOM      1  C   UNL     1     186.204 194.118 190.209  1.00  0.00     0.008 C 
ATOM      2  C   UNL     1     186.059 192.967 189.203  1.00  0.00    -0.008 C 
ATOM      3  C   UNL     1     187.399 192.592 188.577  1.00  0.00     0.004 C 
ATOM      4  C   UNL     1     187.188 191.191 188.032  1.00  0.00     0.005 C 
ATOM      5  C   UNL     1     186.300 190.504 189.081  1.00  0.00     0.002 C 
ATOM      6  C   UNL     1     185.475 191.629 189.754  1.00  0.00    -0.020 C 
ATOM      7  C   UNL     1     184.033 191.373 189.308  1.00  0.00     0.016 C 
ATOM      8  C   UNL     1     183.968 189.854 189.350  1.00  0.00     0.023 C 
ATOM      9  C   UNL     1     185.270 189.418 188.614  1.00  0.00    -0.025 C 
ATOM     10  C   UNL     1     185.009 189.396 187.085  1.00  0.00     0.012 C 
ATOM     11  C   UNL     1     185.739 187.995 189.005  1.00  0.00     0.012 C 
ATOM     12  C   UNL     1     183.965 189.445 190.823  1.00  0.00    -0.045 C 
ATOM     13  C   UNL     1     183.200 188.419 191.229  1.00  0.00     0.011 C 
ATOM     14  C   UNL     1     184.882 190.142 191.829  1.00  0.00     0.140 C 
ATOM     15  C   UNL     1     185.510 191.473 191.306  1.00  0.00     0.044 C 
ENDROOT
BRANCH  14  16
ATOM     16  O   UNL     1     185.896 189.253 192.217  1.00  0.00    -0.389 OA
ATOM     17  H   UNL     1     185.897 189.229 193.209  1.00  0.00     0.211 HD
ENDBRANCH  14  16
TORSDOF 1
ENDMDL
MODEL 5
REMARK VINA RESULT:    -5.506      2.153      4.111
REMARK INTER + INTRA:          -5.666
REMARK INTER:                  -5.666
REMARK INTRA:                   0.000
REMARK UNBOUND:                 0.000
REMARK SMILES C=C1[C@H]2C[C@@]3(C[C@@H]1O)[C@H](CC[C@@H]3C)C2(C)C
REMARK SMILES IDX 13 1 12 2 11 3 10 4 9 5 5 6 4 7 3 8 14 9 15 10 16 11 2 12
REMARK SMILES IDX 1 13 7 14 6 15 8 16
REMARK H PARENT 8 17
REMARK Flexibility Score: inf
ROOT
ATOM      1  C   UNL     1     186.528 194.736 189.245  1.00  0.00     0.008 C 
ATOM      2  C   UNL     1     186.985 193.622 190.198  1.00  0.00    -0.008 C 
ATOM      3  C   UNL     1     186.783 194.012 191.660  1.00  0.00     0.004 C 
ATOM      4  C   UNL     1     186.795 192.694 192.413  1.00  0.00     0.005 C 
ATOM      5  C   UNL     1     186.058 191.718 191.484  1.00  0.00     0.002 C 
ATOM      6  C   UNL     1     186.281 192.239 190.042  1.00  0.00    -0.020 C 
ATOM      7  C   UNL     1     187.171 191.183 189.381  1.00  0.00     0.016 C 
ATOM      8  C   UNL     1     186.595 189.898 189.956  1.00  0.00     0.023 C 
ATOM      9  C   UNL     1     186.476 190.207 191.478  1.00  0.00    -0.025 C 
ATOM     10  C   UNL     1     187.836 189.915 192.165  1.00  0.00     0.012 C 
ATOM     11  C   UNL     1     185.420 189.329 192.193  1.00  0.00     0.012 C 
ATOM     12  C   UNL     1     185.232 189.682 189.296  1.00  0.00    -0.045 C 
ATOM     13  C   UNL     1     184.843 188.442 188.961  1.00  0.00     0.011 C 
ATOM     14  C   UNL     1     184.274 190.854 189.082  1.00  0.00     0.140 C 
ATOM     15  C   UNL     1     184.933 192.260 189.257  1.00  0.00     0.044 C 
ENDROOT
BRANCH  14  16
ATOM     16  O   UNL     1     183.186 190.722 189.959  1.00  0.00    -0.389 OA
ATOM     17  H   UNL     1     182.444 191.264 189.584  1.00  0.00     0.211 HD
ENDBRANCH  14  16
TORSDOF 1
ENDMDL
MODEL 6
REMARK VINA RESULT:    -5.404      1.582      2.793
REMARK INTER + INTRA:          -5.562
REMARK INTER:                  -5.562
REMARK INTRA:                   0.000
REMARK UNBOUND:                 0.000
REMARK SMILES C=C1[C@H]2C[C@@]3(C[C@@H]1O)[C@H](CC[C@@H]3C)C2(C)C
REMARK SMILES IDX 13 1 12 2 11 3 10 4 9 5 5 6 4 7 3 8 14 9 15 10 16 11 2 12
REMARK SMILES IDX 1 13 7 14 6 15 8 16
REMARK H PARENT 8 17
REMARK Flexibility Score: inf
ROOT
ATOM      1  C   UNL     1     183.163 187.636 187.982  1.00  0.00     0.008 C 
ATOM      2  C   UNL     1     184.171 188.056 189.062  1.00  0.00    -0.008 C 
ATOM      3  C   UNL     1     185.395 187.144 189.077  1.00  0.00     0.004 C 
ATOM      4  C   UNL     1     186.461 187.948 189.799  1.00  0.00     0.005 C 
ATOM      5  C   UNL     1     186.243 189.390 189.317  1.00  0.00     0.002 C 
ATOM      6  C   UNL     1     184.740 189.504 188.959  1.00  0.00    -0.020 C 
ATOM      7  C   UNL     1     184.162 190.454 190.012  1.00  0.00     0.016 C 
ATOM      8  C   UNL     1     185.287 191.467 190.157  1.00  0.00     0.023 C 
ATOM      9  C   UNL     1     186.557 190.576 190.293  1.00  0.00    -0.025 C 
ATOM     10  C   UNL     1     186.730 190.157 191.777  1.00  0.00     0.012 C 
ATOM     11  C   UNL     1     187.858 191.310 189.885  1.00  0.00     0.012 C 
ATOM     12  C   UNL     1     185.300 192.310 188.882  1.00  0.00    -0.045 C 
ATOM     13  C   UNL     1     185.548 193.627 188.956  1.00  0.00     0.011 C 
ATOM     14  C   UNL     1     185.107 191.659 187.513  1.00  0.00     0.140 C 
ATOM     15  C   UNL     1     184.564 190.195 187.572  1.00  0.00     0.044 C 
ENDROOT
BRANCH  14  16
ATOM     16  O   UNL     1     186.324 191.691 186.815  1.00  0.00    -0.389 OA
ATOM     17  H   UNL     1     186.743 192.572 187.003  1.00  0.00     0.211 HD
ENDBRANCH  14  16
TORSDOF 1
ENDMDL
MODEL 7
REMARK VINA RESULT:    -5.343      1.715      4.033
REMARK INTER + INTRA:          -5.499
REMARK INTER:                  -5.499
REMARK INTRA:                   0.000
REMARK UNBOUND:                 0.000
REMARK SMILES C=C1[C@H]2C[C@@]3(C[C@@H]1O)[C@H](CC[C@@H]3C)C2(C)C
REMARK SMILES IDX 13 1 12 2 11 3 10 4 9 5 5 6 4 7 3 8 14 9 15 10 16 11 2 12
REMARK SMILES IDX 1 13 7 14 6 15 8 16
REMARK H PARENT 8 17
REMARK Flexibility Score: inf
ROOT
ATOM      1  C   UNL     1     186.831 191.133 186.057  1.00  0.00     0.008 C 
ATOM      2  C   UNL     1     186.531 191.330 187.550  1.00  0.00    -0.008 C 
ATOM      3  C   UNL     1     185.613 192.527 187.789  1.00  0.00     0.004 C 
ATOM      4  C   UNL     1     185.030 192.291 189.170  1.00  0.00     0.005 C 
ATOM      5  C   UNL     1     184.799 190.774 189.233  1.00  0.00     0.002 C 
ATOM      6  C   UNL     1     185.847 190.137 188.287  1.00  0.00    -0.020 C 
ATOM      7  C   UNL     1     186.799 189.379 189.216  1.00  0.00     0.016 C 
ATOM      8  C   UNL     1     185.832 188.814 190.245  1.00  0.00     0.023 C 
ATOM      9  C   UNL     1     184.940 190.038 190.610  1.00  0.00    -0.025 C 
ATOM     10  C   UNL     1     185.643 190.871 191.714  1.00  0.00     0.012 C 
ATOM     11  C   UNL     1     183.556 189.632 191.174  1.00  0.00     0.012 C 
ATOM     12  C   UNL     1     185.043 187.701 189.557  1.00  0.00    -0.045 C 
ATOM     13  C   UNL     1     184.737 186.583 190.234  1.00  0.00     0.011 C 
ATOM     14  C   UNL     1     184.531 187.876 188.126  1.00  0.00     0.140 C 
ATOM     15  C   UNL     1     185.171 189.078 187.361  1.00  0.00     0.044 C 
ENDROOT
BRANCH  14  16
ATOM     16  O   UNL     1     183.135 188.012 188.154  1.00  0.00    -0.389 OA
ATOM     17  H   UNL     1     182.911 188.814 187.611  1.00  0.00     0.211 HD
ENDBRANCH  14  16
TORSDOF 1
ENDMDL
MODEL 8
REMARK VINA RESULT:    -5.290      1.578      3.780
REMARK INTER + INTRA:          -5.445
REMARK INTER:                  -5.445
REMARK INTRA:                   0.000
REMARK UNBOUND:                 0.000
REMARK SMILES C=C1[C@H]2C[C@@]3(C[C@@H]1O)[C@H](CC[C@@H]3C)C2(C)C
REMARK SMILES IDX 13 1 12 2 11 3 10 4 9 5 5 6 4 7 3 8 14 9 15 10 16 11 2 12
REMARK SMILES IDX 1 13 7 14 6 15 8 16
REMARK H PARENT 8 17
REMARK Flexibility Score: inf
ROOT
ATOM      1  C   UNL     1     185.810 194.374 189.938  1.00  0.00     0.008 C 
ATOM      2  C   UNL     1     186.575 193.461 188.969  1.00  0.00    -0.008 C 
ATOM      3  C   UNL     1     188.024 193.260 189.408  1.00  0.00     0.004 C 
ATOM      4  C   UNL     1     188.472 192.003 188.685  1.00  0.00     0.005 C 
ATOM      5  C   UNL     1     187.239 191.087 188.713  1.00  0.00     0.002 C 
ATOM      6  C   UNL     1     186.005 192.022 188.769  1.00  0.00    -0.020 C 
ATOM      7  C   UNL     1     185.313 191.833 187.417  1.00  0.00     0.016 C 
ATOM      8  C   UNL     1     185.489 190.340 187.192  1.00  0.00     0.023 C 
ATOM      9  C   UNL     1     186.993 190.102 187.519  1.00  0.00    -0.025 C 
ATOM     10  C   UNL     1     187.843 190.401 186.255  1.00  0.00     0.012 C 
ATOM     11  C   UNL     1     187.301 188.639 187.924  1.00  0.00     0.012 C 
ATOM     12  C   UNL     1     184.559 189.625 188.173  1.00  0.00    -0.045 C 
ATOM     13  C   UNL     1     183.904 188.519 187.787  1.00  0.00     0.011 C 
ATOM     14  C   UNL     1     184.422 190.113 189.616  1.00  0.00     0.140 C 
ATOM     15  C   UNL     1     185.007 191.540 189.867  1.00  0.00     0.044 C 
ENDROOT
BRANCH  14  16
ATOM     16  O   UNL     1     185.036 189.186 190.473  1.00  0.00    -0.389 OA
ATOM     17  H   UNL     1     185.621 188.614 189.909  1.00  0.00     0.211 HD
ENDBRANCH  14  16
TORSDOF 1
ENDMDL
MODEL 9
REMARK VINA RESULT:    -5.228      1.804      3.625
REMARK INTER + INTRA:          -5.380
REMARK INTER:                  -5.380
REMARK INTRA:                   0.000
REMARK UNBOUND:                 0.000
REMARK SMILES C=C1[C@H]2C[C@@]3(C[C@@H]1O)[C@H](CC[C@@H]3C)C2(C)C
REMARK SMILES IDX 13 1 12 2 11 3 10 4 9 5 5 6 4 7 3 8 14 9 15 10 16 11 2 12
REMARK SMILES IDX 1 13 7 14 6 15 8 16
REMARK H PARENT 8 17
REMARK Flexibility Score: inf
ROOT
ATOM      1  C   UNL     1     186.662 194.872 189.971  1.00  0.00     0.008 C 
ATOM      2  C   UNL     1     187.012 193.412 190.292  1.00  0.00    -0.008 C 
ATOM      3  C   UNL     1     186.478 192.990 191.659  1.00  0.00     0.004 C 
ATOM      4  C   UNL     1     186.455 191.474 191.610  1.00  0.00     0.005 C 
ATOM      5  C   UNL     1     186.016 191.146 190.175  1.00  0.00     0.002 C 
ATOM      6  C   UNL     1     186.483 192.333 189.296  1.00  0.00    -0.020 C 
ATOM      7  C   UNL     1     187.581 191.748 188.405  1.00  0.00     0.016 C 
ATOM      8  C   UNL     1     187.018 190.370 188.095  1.00  0.00     0.023 C 
ATOM      9  C   UNL     1     186.561 189.846 189.489  1.00  0.00    -0.025 C 
ATOM     10  C   UNL     1     187.772 189.198 190.212  1.00  0.00     0.012 C 
ATOM     11  C   UNL     1     185.464 188.756 189.397  1.00  0.00     0.012 C 
ATOM     12  C   UNL     1     185.846 190.570 187.134  1.00  0.00    -0.045 C 
ATOM     13  C   UNL     1     185.647 189.697 186.133  1.00  0.00     0.011 C 
ATOM     14  C   UNL     1     184.850 191.711 187.343  1.00  0.00     0.140 C 
ATOM     15  C   UNL     1     185.329 192.800 188.356  1.00  0.00     0.044 C 
ENDROOT
BRANCH  14  16
ATOM     16  O   UNL     1     183.621 191.175 187.761  1.00  0.00    -0.389 OA
ATOM     17  H   UNL     1     183.683 191.038 188.743  1.00  0.00     0.211 HD
ENDBRANCH  14  16
TORSDOF 1
ENDMDL
