MODEL 1
REMARK VINA RESULT:    -5.137      0.000      0.000
REMARK INTER + INTRA:         -13.072
REMARK INTER:                 -11.143
REMARK INTRA:                  -1.930
REMARK UNBOUND:                -1.930
REMARK SMILES CCCCCCCCCCCCCCCCCCCCCC(=O)[O-]
REMARK SMILES IDX 12 1 11 2 10 3 9 4 8 5 7 6 6 7 5 8 4 9 3 10 2 11 1 12 13 13
REMARK SMILES IDX 14 14 15 15 16 16 17 17 18 18 19 19 20 20 21 21 22 22 23 23
REMARK SMILES IDX 24 24
REMARK H PARENT
REMARK Flexibility Score: inf
ROOT
ATOM      1  C   UNL     1       3.709  58.322  20.314  1.00  0.00     0.000 C 
ENDROOT
BRANCH   1   2
ATOM      2  C   UNL     1       4.302  57.567  21.513  1.00  0.00     0.000 C 
BRANCH   2   3
ATOM      3  C   UNL     1       5.337  56.504  21.101  1.00  0.00     0.000 C 
BRANCH   3   4
ATOM      4  C   UNL     1       6.340  56.950  20.021  1.00  0.00    -0.000 C 
BRANCH   4   5
ATOM      5  C   UNL     1       7.267  55.814  19.559  1.00  0.00    -0.000 C 
BRANCH   5   6
ATOM      6  C   UNL     1       8.431  55.565  20.531  1.00  0.00    -0.000 C 
BRANCH   6   7
ATOM      7  C   UNL     1       8.629  54.076  20.855  1.00  0.00    -0.000 C 
BRANCH   7   8
ATOM      8  C   UNL     1       7.376  53.490  21.522  1.00  0.00    -0.000 C 
BRANCH   8   9
ATOM      9  C   UNL     1       7.217  53.925  22.991  1.00  0.00    -0.000 C 
BRANCH   9  10
ATOM     10  C   UNL     1       8.167  53.225  23.986  1.00  0.00    -0.000 C 
BRANCH  10  11
ATOM     11  C   UNL     1       9.018  54.174  24.850  1.00  0.00    -0.003 C 
ATOM     12  C   UNL     1      10.463  54.283  24.366  1.00  0.00     0.004 C 
ENDBRANCH  10  11
ENDBRANCH   9  10
ENDBRANCH   8   9
ENDBRANCH   7   8
ENDBRANCH   6   7
ENDBRANCH   5   6
ENDBRANCH   4   5
ENDBRANCH   3   4
ENDBRANCH   2   3
ENDBRANCH   1   2
BRANCH   1  13
ATOM     13  C   UNL     1       2.233  58.661  20.558  1.00  0.00     0.000 C 
BRANCH  13  14
ATOM     14  C   UNL     1       2.087  59.760  21.623  1.00  0.00     0.000 C 
BRANCH  14  15
ATOM     15  C   UNL     1       1.056  59.392  22.712  1.00  0.00     0.000 C 
BRANCH  15  16
ATOM     16  C   UNL     1      -0.050  60.447  22.909  1.00  0.00     0.000 C 
BRANCH  16  17
ATOM     17  C   UNL     1      -1.191  60.396  21.879  1.00  0.00     0.000 C 
BRANCH  17  18
ATOM     18  C   UNL     1      -0.991  61.381  20.717  1.00  0.00     0.000 C 
BRANCH  18  19
ATOM     19  C   UNL     1      -1.006  60.650  19.367  1.00  0.00     0.000 C 
BRANCH  19  20
ATOM     20  C   UNL     1       0.148  61.078  18.442  1.00  0.00     0.006 C 
BRANCH  20  21
ATOM     21  C   UNL     1      -0.036  60.675  16.970  1.00  0.00     0.053 C 
BRANCH  21  22
ATOM     22  C   UNL     1       0.947  59.625  16.549  1.00  0.00     0.041 C 
ATOM     23  O   UNL     1       0.685  58.867  15.578  1.00  0.00    -0.550 OA
ATOM     24  O   UNL     1       2.169  59.514  17.200  1.00  0.00    -0.550 OA
ENDBRANCH  21  22
ENDBRANCH  20  21
ENDBRANCH  19  20
ENDBRANCH  18  19
ENDBRANCH  17  18
ENDBRANCH  16  17
ENDBRANCH  15  16
ENDBRANCH  14  15
ENDBRANCH  13  14
ENDBRANCH   1  13
TORSDOF 20
ENDMDL
MODEL 2
REMARK VINA RESULT:    -5.131      1.055      1.633
REMARK INTER + INTRA:         -13.060
REMARK INTER:                 -11.319
REMARK INTRA:                  -1.741
REMARK UNBOUND:                -1.930
REMARK SMILES CCCCCCCCCCCCCCCCCCCCCC(=O)[O-]
REMARK SMILES IDX 12 1 11 2 10 3 9 4 8 5 7 6 6 7 5 8 4 9 3 10 2 11 1 12 13 13
REMARK SMILES IDX 14 14 15 15 16 16 17 17 18 18 19 19 20 20 21 21 22 22 23 23
REMARK SMILES IDX 24 24
REMARK H PARENT
REMARK Flexibility Score: inf
ROOT
ATOM      1  C   UNL     1       2.946  59.498  20.144  1.00  0.00     0.000 C 
ENDROOT
BRANCH   1   2
ATOM      2  C   UNL     1       3.340  58.085  20.603  1.00  0.00     0.000 C 
BRANCH   2   3
ATOM      3  C   UNL     1       4.849  57.809  20.468  1.00  0.00     0.000 C 
BRANCH   3   4
ATOM      4  C   UNL     1       5.361  56.581  21.243  1.00  0.00    -0.000 C 
BRANCH   4   5
ATOM      5  C   UNL     1       6.854  56.302  21.003  1.00  0.00    -0.000 C 
BRANCH   5   6
ATOM      6  C   UNL     1       7.138  55.764  19.592  1.00  0.00    -0.000 C 
BRANCH   6   7
ATOM      7  C   UNL     1       7.940  54.453  19.605  1.00  0.00    -0.000 C 
BRANCH   7   8
ATOM      8  C   UNL     1       8.237  54.006  21.045  1.00  0.00    -0.000 C 
BRANCH   8   9
ATOM      9  C   UNL     1       9.698  53.565  21.249  1.00  0.00    -0.000 C 
BRANCH   9  10
ATOM     10  C   UNL     1      10.208  53.646  22.703  1.00  0.00    -0.000 C 
BRANCH  10  11
ATOM     11  C   UNL     1       9.509  54.701  23.579  1.00  0.00    -0.003 C 
ATOM     12  C   UNL     1       9.313  54.240  25.023  1.00  0.00     0.004 C 
ENDBRANCH  10  11
ENDBRANCH   9  10
ENDBRANCH   8   9
ENDBRANCH   7   8
ENDBRANCH   6   7
ENDBRANCH   5   6
ENDBRANCH   4   5
ENDBRANCH   3   4
ENDBRANCH   2   3
ENDBRANCH   1   2
BRANCH   1  13
ATOM     13  C   UNL     1       2.368  60.309  21.310  1.00  0.00     0.000 C 
BRANCH  13  14
ATOM     14  C   UNL     1       1.641  59.397  22.311  1.00  0.00     0.000 C 
BRANCH  14  15
ATOM     15  C   UNL     1       0.170  59.141  21.916  1.00  0.00     0.000 C 
BRANCH  15  16
ATOM     16  C   UNL     1      -0.578  60.401  21.438  1.00  0.00     0.000 C 
BRANCH  16  17
ATOM     17  C   UNL     1      -1.727  60.141  20.449  1.00  0.00     0.000 C 
BRANCH  17  18
ATOM     18  C   UNL     1      -1.664  61.046  19.209  1.00  0.00     0.000 C 
BRANCH  18  19
ATOM     19  C   UNL     1      -0.220  61.479  18.918  1.00  0.00     0.000 C 
BRANCH  19  20
ATOM     20  C   UNL     1       0.127  61.434  17.419  1.00  0.00     0.006 C 
BRANCH  20  21
ATOM     21  C   UNL     1      -0.307  60.142  16.707  1.00  0.00     0.053 C 
BRANCH  21  22
ATOM     22  C   UNL     1       0.866  59.356  16.206  1.00  0.00     0.041 C 
ATOM     23  O   UNL     1       2.015  59.566  16.677  1.00  0.00    -0.550 OA
ATOM     24  O   UNL     1       0.683  58.362  15.254  1.00  0.00    -0.550 OA
ENDBRANCH  21  22
ENDBRANCH  20  21
ENDBRANCH  19  20
ENDBRANCH  18  19
ENDBRANCH  17  18
ENDBRANCH  16  17
ENDBRANCH  15  16
ENDBRANCH  14  15
ENDBRANCH  13  14
ENDBRANCH   1  13
TORSDOF 20
ENDMDL
MODEL 3
REMARK VINA RESULT:    -5.129      8.022     14.359
REMARK INTER + INTRA:         -13.055
REMARK INTER:                 -11.335
REMARK INTRA:                  -1.720
REMARK UNBOUND:                -1.930
REMARK SMILES CCCCCCCCCCCCCCCCCCCCCC(=O)[O-]
REMARK SMILES IDX 12 1 11 2 10 3 9 4 8 5 7 6 6 7 5 8 4 9 3 10 2 11 1 12 13 13
REMARK SMILES IDX 14 14 15 15 16 16 17 17 18 18 19 19 20 20 21 21 22 22 23 23
REMARK SMILES IDX 24 24
REMARK H PARENT
REMARK Flexibility Score: inf
ROOT
ATOM      1  C   UNL     1      10.339  49.330  22.349  1.00  0.00     0.000 C 
ENDROOT
BRANCH   1   2
ATOM      2  C   UNL     1      10.506  50.822  22.677  1.00  0.00     0.000 C 
BRANCH   2   3
ATOM      3  C   UNL     1       9.874  51.744  21.617  1.00  0.00     0.000 C 
BRANCH   3   4
ATOM      4  C   UNL     1      10.312  53.218  21.687  1.00  0.00    -0.000 C 
BRANCH   4   5
ATOM      5  C   UNL     1      10.177  53.816  23.097  1.00  0.00    -0.000 C 
BRANCH   5   6
ATOM      6  C   UNL     1       9.083  54.893  23.183  1.00  0.00    -0.000 C 
BRANCH   6   7
ATOM      7  C   UNL     1       8.009  54.738  22.095  1.00  0.00    -0.000 C 
BRANCH   7   8
ATOM      8  C   UNL     1       7.871  56.029  21.274  1.00  0.00    -0.000 C 
BRANCH   8   9
ATOM      9  C   UNL     1       7.852  55.778  19.755  1.00  0.00    -0.000 C 
BRANCH   9  10
ATOM     10  C   UNL     1       7.635  54.308  19.339  1.00  0.00    -0.000 C 
BRANCH  10  11
ATOM     11  C   UNL     1       6.585  54.093  18.233  1.00  0.00    -0.003 C 
ATOM     12  C   UNL     1       6.831  54.965  17.003  1.00  0.00     0.004 C 
ENDBRANCH  10  11
ENDBRANCH   9  10
ENDBRANCH   8   9
ENDBRANCH   7   8
ENDBRANCH   6   7
ENDBRANCH   5   6
ENDBRANCH   4   5
ENDBRANCH   3   4
ENDBRANCH   2   3
ENDBRANCH   1   2
BRANCH   1  13
ATOM     13  C   UNL     1      11.144  48.464  23.325  1.00  0.00     0.000 C 
BRANCH  13  14
ATOM     14  C   UNL     1      10.216  47.687  24.271  1.00  0.00     0.000 C 
BRANCH  14  15
ATOM     15  C   UNL     1       9.563  46.467  23.587  1.00  0.00     0.000 C 
BRANCH  15  16
ATOM     16  C   UNL     1      10.563  45.366  23.181  1.00  0.00     0.000 C 
BRANCH  16  17
ATOM     17  C   UNL     1      10.493  44.079  24.020  1.00  0.00     0.000 C 
BRANCH  17  18
ATOM     18  C   UNL     1      11.622  43.981  25.059  1.00  0.00     0.000 C 
BRANCH  18  19
ATOM     19  C   UNL     1      11.276  44.780  26.323  1.00  0.00     0.000 C 
BRANCH  19  20
ATOM     20  C   UNL     1      12.520  45.172  27.141  1.00  0.00     0.006 C 
BRANCH  20  21
ATOM     21  C   UNL     1      13.532  46.042  26.377  1.00  0.00     0.053 C 
BRANCH  21  22
ATOM     22  C   UNL     1      13.421  47.490  26.750  1.00  0.00     0.041 C 
ATOM     23  O   UNL     1      14.421  48.248  26.644  1.00  0.00    -0.550 OA
ATOM     24  O   UNL     1      12.204  48.009  27.172  1.00  0.00    -0.550 OA
ENDBRANCH  21  22
ENDBRANCH  20  21
ENDBRANCH  19  20
ENDBRANCH  18  19
ENDBRANCH  17  18
ENDBRANCH  16  17
ENDBRANCH  15  16
ENDBRANCH  14  15
ENDBRANCH  13  14
ENDBRANCH   1  13
TORSDOF 20
ENDMDL
MODEL 4
REMARK VINA RESULT:    -5.111      6.211     10.647
REMARK INTER + INTRA:         -13.015
REMARK INTER:                 -11.459
REMARK INTRA:                  -1.557
REMARK UNBOUND:                -1.930
REMARK SMILES CCCCCCCCCCCCCCCCCCCCCC(=O)[O-]
REMARK SMILES IDX 12 1 11 2 10 3 9 4 8 5 7 6 6 7 5 8 4 9 3 10 2 11 1 12 13 13
REMARK SMILES IDX 14 14 15 15 16 16 17 17 18 18 19 19 20 20 21 21 22 22 23 23
REMARK SMILES IDX 24 24
REMARK H PARENT
REMARK Flexibility Score: inf
ROOT
ATOM      1  C   UNL     1      10.422  48.823  22.449  1.00  0.00     0.000 C 
ENDROOT
BRANCH   1   2
ATOM      2  C   UNL     1      11.661  47.930  22.616  1.00  0.00     0.000 C 
BRANCH   2   3
ATOM      3  C   UNL     1      11.478  46.846  23.695  1.00  0.00     0.000 C 
BRANCH   3   4
ATOM      4  C   UNL     1      10.113  46.134  23.683  1.00  0.00    -0.000 C 
BRANCH   4   5
ATOM      5  C   UNL     1      10.217  44.636  24.014  1.00  0.00    -0.000 C 
BRANCH   5   6
ATOM      6  C   UNL     1      11.414  44.310  24.921  1.00  0.00    -0.000 C 
BRANCH   6   7
ATOM      7  C   UNL     1      11.135  44.602  26.404  1.00  0.00    -0.000 C 
BRANCH   7   8
ATOM      8  C   UNL     1      12.372  45.205  27.086  1.00  0.00    -0.000 C 
BRANCH   8   9
ATOM      9  C   UNL     1      12.024  46.048  28.328  1.00  0.00    -0.000 C 
BRANCH   9  10
ATOM     10  C   UNL     1      12.442  47.531  28.248  1.00  0.00    -0.000 C 
BRANCH  10  11
ATOM     11  C   UNL     1      12.919  47.999  26.862  1.00  0.00    -0.003 C 
ATOM     12  C   UNL     1      14.350  48.535  26.874  1.00  0.00     0.004 C 
ENDBRANCH  10  11
ENDBRANCH   9  10
ENDBRANCH   8   9
ENDBRANCH   7   8
ENDBRANCH   6   7
ENDBRANCH   5   6
ENDBRANCH   4   5
ENDBRANCH   3   4
ENDBRANCH   2   3
ENDBRANCH   1   2
BRANCH   1  13
ATOM     13  C   UNL     1      10.751  50.283  22.782  1.00  0.00     0.000 C 
BRANCH  13  14
ATOM     14  C   UNL     1       9.809  51.245  22.042  1.00  0.00     0.000 C 
BRANCH  14  15
ATOM     15  C   UNL     1      10.437  52.640  21.831  1.00  0.00     0.000 C 
BRANCH  15  16
ATOM     16  C   UNL     1      10.118  53.647  22.953  1.00  0.00     0.000 C 
BRANCH  16  17
ATOM     17  C   UNL     1       9.015  54.666  22.621  1.00  0.00     0.000 C 
BRANCH  17  18
ATOM     18  C   UNL     1       7.603  54.064  22.691  1.00  0.00     0.000 C 
BRANCH  18  19
ATOM     19  C   UNL     1       6.812  54.368  21.411  1.00  0.00     0.000 C 
BRANCH  19  20
ATOM     20  C   UNL     1       7.715  54.532  20.175  1.00  0.00     0.006 C 
BRANCH  20  21
ATOM     21  C   UNL     1       7.127  55.431  19.075  1.00  0.00     0.053 C 
BRANCH  21  22
ATOM     22  C   UNL     1       6.921  54.685  17.791  1.00  0.00     0.041 C 
ATOM     23  O   UNL     1       6.585  53.472  17.812  1.00  0.00    -0.550 OA
ATOM     24  O   UNL     1       7.057  55.342  16.576  1.00  0.00    -0.550 OA
ENDBRANCH  21  22
ENDBRANCH  20  21
ENDBRANCH  19  20
ENDBRANCH  18  19
ENDBRANCH  17  18
ENDBRANCH  16  17
ENDBRANCH  15  16
ENDBRANCH  14  15
ENDBRANCH  13  14
ENDBRANCH   1  13
TORSDOF 20
ENDMDL
MODEL 5
REMARK VINA RESULT:    -5.048      1.710      2.757
REMARK INTER + INTRA:         -12.880
REMARK INTER:                 -11.023
REMARK INTRA:                  -1.857
REMARK UNBOUND:                -1.930
REMARK SMILES CCCCCCCCCCCCCCCCCCCCCC(=O)[O-]
REMARK SMILES IDX 12 1 11 2 10 3 9 4 8 5 7 6 6 7 5 8 4 9 3 10 2 11 1 12 13 13
REMARK SMILES IDX 14 14 15 15 16 16 17 17 18 18 19 19 20 20 21 21 22 22 23 23
REMARK SMILES IDX 24 24
REMARK H PARENT
REMARK Flexibility Score: inf
ROOT
ATOM      1  C   UNL     1       5.646  55.855  20.669  1.00  0.00     0.000 C 
ENDROOT
BRANCH   1   2
ATOM      2  C   UNL     1       6.829  56.485  19.918  1.00  0.00     0.000 C 
BRANCH   2   3
ATOM      3  C   UNL     1       8.053  55.554  19.838  1.00  0.00     0.000 C 
BRANCH   3   4
ATOM      4  C   UNL     1       8.623  55.104  21.195  1.00  0.00    -0.000 C 
BRANCH   4   5
ATOM      5  C   UNL     1       9.758  54.076  21.056  1.00  0.00    -0.000 C 
BRANCH   5   6
ATOM      6  C   UNL     1       9.509  52.801  21.878  1.00  0.00    -0.000 C 
BRANCH   6   7
ATOM      7  C   UNL     1       8.055  52.679  22.360  1.00  0.00    -0.000 C 
BRANCH   7   8
ATOM      8  C   UNL     1       8.000  52.396  23.870  1.00  0.00    -0.000 C 
BRANCH   8   9
ATOM      9  C   UNL     1       7.604  53.632  24.699  1.00  0.00    -0.000 C 
BRANCH   9  10
ATOM     10  C   UNL     1       8.715  54.690  24.867  1.00  0.00    -0.000 C 
BRANCH  10  11
ATOM     11  C   UNL     1       9.997  54.184  25.552  1.00  0.00    -0.003 C 
ATOM     12  C   UNL     1      11.255  54.437  24.723  1.00  0.00     0.004 C 
ENDBRANCH  10  11
ENDBRANCH   9  10
ENDBRANCH   8   9
ENDBRANCH   7   8
ENDBRANCH   6   7
ENDBRANCH   5   6
ENDBRANCH   4   5
ENDBRANCH   3   4
ENDBRANCH   2   3
ENDBRANCH   1   2
BRANCH   1  13
ATOM     13  C   UNL     1       4.846  56.924  21.422  1.00  0.00     0.000 C 
BRANCH  13  14
ATOM     14  C   UNL     1       4.252  57.957  20.452  1.00  0.00     0.000 C 
BRANCH  14  15
ATOM     15  C   UNL     1       2.853  58.443  20.890  1.00  0.00     0.000 C 
BRANCH  15  16
ATOM     16  C   UNL     1       2.728  59.975  21.000  1.00  0.00     0.000 C 
BRANCH  16  17
ATOM     17  C   UNL     1       2.272  60.686  19.715  1.00  0.00     0.000 C 
BRANCH  17  18
ATOM     18  C   UNL     1       0.761  60.558  19.465  1.00  0.00     0.000 C 
BRANCH  18  19
ATOM     19  C   UNL     1       0.468  60.339  17.973  1.00  0.00     0.000 C 
BRANCH  19  20
ATOM     20  C   UNL     1       1.715  59.916  17.175  1.00  0.00     0.006 C 
BRANCH  20  21
ATOM     21  C   UNL     1       1.413  59.368  15.771  1.00  0.00     0.053 C 
BRANCH  21  22
ATOM     22  C   UNL     1       2.334  59.939  14.736  1.00  0.00     0.041 C 
ATOM     23  O   UNL     1       3.110  59.183  14.094  1.00  0.00    -0.550 OA
ATOM     24  O   UNL     1       2.302  61.298  14.450  1.00  0.00    -0.550 OA
ENDBRANCH  21  22
ENDBRANCH  20  21
ENDBRANCH  19  20
ENDBRANCH  18  19
ENDBRANCH  17  18
ENDBRANCH  16  17
ENDBRANCH  15  16
ENDBRANCH  14  15
ENDBRANCH  13  14
ENDBRANCH   1  13
TORSDOF 20
ENDMDL
MODEL 6
REMARK VINA RESULT:    -5.034      1.547      2.659
REMARK INTER + INTRA:         -12.849
REMARK INTER:                 -11.412
REMARK INTRA:                  -1.436
REMARK UNBOUND:                -1.930
REMARK SMILES CCCCCCCCCCCCCCCCCCCCCC(=O)[O-]
REMARK SMILES IDX 12 1 11 2 10 3 9 4 8 5 7 6 6 7 5 8 4 9 3 10 2 11 1 12 13 13
REMARK SMILES IDX 14 14 15 15 16 16 17 17 18 18 19 19 20 20 21 21 22 22 23 23
REMARK SMILES IDX 24 24
REMARK H PARENT
REMARK Flexibility Score: inf
ROOT
ATOM      1  C   UNL     1       2.767  60.008  21.417  1.00  0.00     0.000 C 
ENDROOT
BRANCH   1   2
ATOM      2  C   UNL     1       2.865  58.483  21.258  1.00  0.00     0.000 C 
BRANCH   2   3
ATOM      3  C   UNL     1       4.131  58.038  20.502  1.00  0.00     0.000 C 
BRANCH   3   4
ATOM      4  C   UNL     1       4.995  56.992  21.229  1.00  0.00    -0.000 C 
BRANCH   4   5
ATOM      5  C   UNL     1       6.260  56.610  20.443  1.00  0.00    -0.000 C 
BRANCH   5   6
ATOM      6  C   UNL     1       6.527  55.096  20.447  1.00  0.00    -0.000 C 
BRANCH   6   7
ATOM      7  C   UNL     1       7.066  54.590  21.795  1.00  0.00    -0.000 C 
BRANCH   7   8
ATOM      8  C   UNL     1       7.974  53.367  21.597  1.00  0.00    -0.000 C 
BRANCH   8   9
ATOM      9  C   UNL     1       9.460  53.672  21.863  1.00  0.00    -0.000 C 
BRANCH   9  10
ATOM     10  C   UNL     1       9.725  54.752  22.932  1.00  0.00    -0.000 C 
BRANCH  10  11
ATOM     11  C   UNL     1      10.301  54.226  24.259  1.00  0.00    -0.003 C 
ATOM     12  C   UNL     1       9.242  54.078  25.351  1.00  0.00     0.004 C 
ENDBRANCH  10  11
ENDBRANCH   9  10
ENDBRANCH   8   9
ENDBRANCH   7   8
ENDBRANCH   6   7
ENDBRANCH   5   6
ENDBRANCH   4   5
ENDBRANCH   3   4
ENDBRANCH   2   3
ENDBRANCH   1   2
BRANCH   1  13
ATOM     13  C   UNL     1       2.224  60.656  20.138  1.00  0.00     0.000 C 
BRANCH  13  14
ATOM     14  C   UNL     1       0.927  59.973  19.680  1.00  0.00     0.000 C 
BRANCH  14  15
ATOM     15  C   UNL     1      -0.333  60.648  20.262  1.00  0.00     0.000 C 
BRANCH  15  16
ATOM     16  C   UNL     1      -1.286  61.224  19.196  1.00  0.00     0.000 C 
BRANCH  16  17
ATOM     17  C   UNL     1      -0.735  61.223  17.760  1.00  0.00     0.000 C 
BRANCH  17  18
ATOM     18  C   UNL     1      -1.471  60.238  16.838  1.00  0.00     0.000 C 
BRANCH  18  19
ATOM     19  C   UNL     1      -0.620  59.898  15.607  1.00  0.00     0.000 C 
BRANCH  19  20
ATOM     20  C   UNL     1       0.579  58.992  15.941  1.00  0.00     0.006 C 
BRANCH  20  21
ATOM     21  C   UNL     1       1.918  59.735  16.074  1.00  0.00     0.053 C 
BRANCH  21  22
ATOM     22  C   UNL     1       2.422  60.225  14.750  1.00  0.00     0.041 C 
ATOM     23  O   UNL     1       3.146  59.482  14.036  1.00  0.00    -0.550 OA
ATOM     24  O   UNL     1       2.057  61.482  14.288  1.00  0.00    -0.550 OA
ENDBRANCH  21  22
ENDBRANCH  20  21
ENDBRANCH  19  20
ENDBRANCH  18  19
ENDBRANCH  17  18
ENDBRANCH  16  17
ENDBRANCH  15  16
ENDBRANCH  14  15
ENDBRANCH  13  14
ENDBRANCH   1  13
TORSDOF 20
ENDMDL
MODEL 7
REMARK VINA RESULT:    -4.952      4.195     10.794
REMARK INTER + INTRA:         -12.670
REMARK INTER:                 -11.197
REMARK INTRA:                  -1.474
REMARK UNBOUND:                -1.930
REMARK SMILES CCCCCCCCCCCCCCCCCCCCCC(=O)[O-]
REMARK SMILES IDX 12 1 11 2 10 3 9 4 8 5 7 6 6 7 5 8 4 9 3 10 2 11 1 12 13 13
REMARK SMILES IDX 14 14 15 15 16 16 17 17 18 18 19 19 20 20 21 21 22 22 23 23
REMARK SMILES IDX 24 24
REMARK H PARENT
REMARK Flexibility Score: inf
ROOT
ATOM      1  C   UNL     1       4.185  58.031  20.460  1.00  0.00     0.000 C 
ENDROOT
BRANCH   1   2
ATOM      2  C   UNL     1       2.781  58.478  20.896  1.00  0.00     0.000 C 
BRANCH   2   3
ATOM      3  C   UNL     1       2.615  60.009  20.907  1.00  0.00     0.000 C 
BRANCH   3   4
ATOM      4  C   UNL     1       2.374  60.651  19.529  1.00  0.00    -0.000 C 
BRANCH   4   5
ATOM      5  C   UNL     1       1.445  59.815  18.633  1.00  0.00    -0.000 C 
BRANCH   5   6
ATOM      6  C   UNL     1       2.019  59.594  17.225  1.00  0.00    -0.000 C 
BRANCH   6   7
ATOM      7  C   UNL     1       0.927  59.430  16.156  1.00  0.00    -0.000 C 
BRANCH   7   8
ATOM      8  C   UNL     1      -0.266  60.354  16.445  1.00  0.00    -0.000 C 
BRANCH   8   9
ATOM      9  C   UNL     1      -1.067  60.714  15.180  1.00  0.00    -0.000 C 
BRANCH   9  10
ATOM     10  C   UNL     1      -1.271  62.225  14.944  1.00  0.00    -0.000 C 
BRANCH  10  11
ATOM     11  C   UNL     1      -0.414  62.829  13.817  1.00  0.00    -0.003 C 
ATOM     12  C   UNL     1       1.085  62.641  14.044  1.00  0.00     0.004 C 
ENDBRANCH  10  11
ENDBRANCH   9  10
ENDBRANCH   8   9
ENDBRANCH   7   8
ENDBRANCH   6   7
ENDBRANCH   5   6
ENDBRANCH   4   5
ENDBRANCH   3   4
ENDBRANCH   2   3
ENDBRANCH   1   2
BRANCH   1  13
ATOM     13  C   UNL     1       4.678  56.862  21.322  1.00  0.00     0.000 C 
BRANCH  13  14
ATOM     14  C   UNL     1       6.207  56.727  21.247  1.00  0.00     0.000 C 
BRANCH  14  15
ATOM     15  C   UNL     1       6.740  56.842  19.803  1.00  0.00     0.000 C 
BRANCH  15  16
ATOM     16  C   UNL     1       7.918  55.897  19.492  1.00  0.00     0.000 C 
BRANCH  16  17
ATOM     17  C   UNL     1       7.526  54.438  19.207  1.00  0.00     0.000 C 
BRANCH  17  18
ATOM     18  C   UNL     1       7.347  53.606  20.486  1.00  0.00     0.000 C 
BRANCH  18  19
ATOM     19  C   UNL     1       8.588  53.705  21.385  1.00  0.00     0.000 C 
BRANCH  19  20
ATOM     20  C   UNL     1       8.255  54.168  22.815  1.00  0.00     0.006 C 
BRANCH  20  21
ATOM     21  C   UNL     1       9.299  55.110  23.436  1.00  0.00     0.053 C 
BRANCH  21  22
ATOM     22  C   UNL     1      10.033  54.463  24.572  1.00  0.00     0.041 C 
ATOM     23  O   UNL     1      11.291  54.414  24.565  1.00  0.00    -0.550 OA
ATOM     24  O   UNL     1       9.329  53.955  25.656  1.00  0.00    -0.550 OA
ENDBRANCH  21  22
ENDBRANCH  20  21
ENDBRANCH  19  20
ENDBRANCH  18  19
ENDBRANCH  17  18
ENDBRANCH  16  17
ENDBRANCH  15  16
ENDBRANCH  14  15
ENDBRANCH  13  14
ENDBRANCH   1  13
TORSDOF 20
ENDMDL
MODEL 8
REMARK VINA RESULT:    -4.932      6.503     11.938
REMARK INTER + INTRA:         -12.628
REMARK INTER:                 -11.828
REMARK INTRA:                  -0.800
REMARK UNBOUND:                -1.930
REMARK SMILES CCCCCCCCCCCCCCCCCCCCCC(=O)[O-]
REMARK SMILES IDX 12 1 11 2 10 3 9 4 8 5 7 6 6 7 5 8 4 9 3 10 2 11 1 12 13 13
REMARK SMILES IDX 14 14 15 15 16 16 17 17 18 18 19 19 20 20 21 21 22 22 23 23
REMARK SMILES IDX 24 24
REMARK H PARENT
REMARK Flexibility Score: inf
ROOT
ATOM      1  C   UNL     1      10.249  48.921  22.705  1.00  0.00     0.000 C 
ENDROOT
BRANCH   1   2
ATOM      2  C   UNL     1      10.841  50.309  22.413  1.00  0.00     0.000 C 
BRANCH   2   3
ATOM      3  C   UNL     1       9.766  51.369  22.111  1.00  0.00     0.000 C 
BRANCH   3   4
ATOM      4  C   UNL     1      10.305  52.775  21.789  1.00  0.00    -0.000 C 
BRANCH   4   5
ATOM      5  C   UNL     1      10.264  53.723  23.000  1.00  0.00    -0.000 C 
BRANCH   5   6
ATOM      6  C   UNL     1       8.919  54.453  23.136  1.00  0.00    -0.000 C 
BRANCH   6   7
ATOM      7  C   UNL     1       8.162  54.561  21.803  1.00  0.00    -0.000 C 
BRANCH   7   8
ATOM      8  C   UNL     1       7.925  56.031  21.424  1.00  0.00    -0.000 C 
BRANCH   8   9
ATOM      9  C   UNL     1       6.851  56.206  20.335  1.00  0.00    -0.000 C 
BRANCH   9  10
ATOM     10  C   UNL     1       7.374  56.135  18.885  1.00  0.00    -0.000 C 
BRANCH  10  11
ATOM     11  C   UNL     1       7.199  54.769  18.197  1.00  0.00    -0.003 C 
ATOM     12  C   UNL     1       6.784  54.890  16.731  1.00  0.00     0.004 C 
ENDBRANCH  10  11
ENDBRANCH   9  10
ENDBRANCH   8   9
ENDBRANCH   7   8
ENDBRANCH   6   7
ENDBRANCH   5   6
ENDBRANCH   4   5
ENDBRANCH   3   4
ENDBRANCH   2   3
ENDBRANCH   1   2
BRANCH   1  13
ATOM     13  C   UNL     1      11.347  47.851  22.719  1.00  0.00     0.000 C 
BRANCH  13  14
ATOM     14  C   UNL     1      10.786  46.489  23.157  1.00  0.00     0.000 C 
BRANCH  14  15
ATOM     15  C   UNL     1       9.337  46.589  23.680  1.00  0.00     0.000 C 
BRANCH  15  16
ATOM     16  C   UNL     1       8.514  45.298  23.497  1.00  0.00     0.000 C 
BRANCH  16  17
ATOM     17  C   UNL     1       7.187  45.254  24.273  1.00  0.00     0.000 C 
BRANCH  17  18
ATOM     18  C   UNL     1       5.996  45.767  23.449  1.00  0.00     0.000 C 
BRANCH  18  19
ATOM     19  C   UNL     1       4.724  45.835  24.306  1.00  0.00     0.000 C 
BRANCH  19  20
ATOM     20  C   UNL     1       3.439  45.920  23.462  1.00  0.00     0.006 C 
BRANCH  20  21
ATOM     21  C   UNL     1       3.221  47.278  22.774  1.00  0.00     0.053 C 
BRANCH  21  22
ATOM     22  C   UNL     1       1.872  47.370  22.128  1.00  0.00     0.041 C 
ATOM     23  O   UNL     1       1.156  48.391  22.302  1.00  0.00    -0.550 OA
ATOM     24  O   UNL     1       1.425  46.348  21.301  1.00  0.00    -0.550 OA
ENDBRANCH  21  22
ENDBRANCH  20  21
ENDBRANCH  19  20
ENDBRANCH  18  19
ENDBRANCH  17  18
ENDBRANCH  16  17
ENDBRANCH  15  16
ENDBRANCH  14  15
ENDBRANCH  13  14
ENDBRANCH   1  13
TORSDOF 20
ENDMDL
MODEL 9
REMARK VINA RESULT:    -4.858      3.728     10.616
REMARK INTER + INTRA:         -12.468
REMARK INTER:                 -11.267
REMARK INTRA:                  -1.201
REMARK UNBOUND:                -1.930
REMARK SMILES CCCCCCCCCCCCCCCCCCCCCC(=O)[O-]
REMARK SMILES IDX 12 1 11 2 10 3 9 4 8 5 7 6 6 7 5 8 4 9 3 10 2 11 1 12 13 13
REMARK SMILES IDX 14 14 15 15 16 16 17 17 18 18 19 19 20 20 21 21 22 22 23 23
REMARK SMILES IDX 24 24
REMARK H PARENT
REMARK Flexibility Score: inf
ROOT
ATOM      1  C   UNL     1       4.464  57.859  20.433  1.00  0.00     0.000 C 
ENDROOT
BRANCH   1   2
ATOM      2  C   UNL     1       3.046  58.239  20.886  1.00  0.00     0.000 C 
BRANCH   2   3
ATOM      3  C   UNL     1       2.827  59.761  20.960  1.00  0.00     0.000 C 
BRANCH   3   4
ATOM      4  C   UNL     1       1.358  60.205  21.090  1.00  0.00    -0.000 C 
BRANCH   4   5
ATOM      5  C   UNL     1       0.765  60.707  19.763  1.00  0.00    -0.000 C 
BRANCH   5   6
ATOM      6  C   UNL     1      -0.769  60.787  19.790  1.00  0.00    -0.000 C 
BRANCH   6   7
ATOM      7  C   UNL     1      -1.355  61.425  18.521  1.00  0.00    -0.000 C 
BRANCH   7   8
ATOM      8  C   UNL     1      -2.068  60.374  17.657  1.00  0.00    -0.000 C 
BRANCH   8   9
ATOM      9  C   UNL     1      -1.552  60.337  16.207  1.00  0.00    -0.000 C 
BRANCH   9  10
ATOM     10  C   UNL     1      -0.420  59.323  15.941  1.00  0.00    -0.000 C 
BRANCH  10  11
ATOM     11  C   UNL     1       0.986  59.796  16.352  1.00  0.00    -0.003 C 
ATOM     12  C   UNL     1       2.012  59.659  15.227  1.00  0.00     0.004 C 
ENDBRANCH  10  11
ENDBRANCH   9  10
ENDBRANCH   8   9
ENDBRANCH   7   8
ENDBRANCH   6   7
ENDBRANCH   5   6
ENDBRANCH   4   5
ENDBRANCH   3   4
ENDBRANCH   2   3
ENDBRANCH   1   2
BRANCH   1  13
ATOM     13  C   UNL     1       5.001  56.677  21.249  1.00  0.00     0.000 C 
BRANCH  13  14
ATOM     14  C   UNL     1       6.536  56.634  21.216  1.00  0.00     0.000 C 
BRANCH  14  15
ATOM     15  C   UNL     1       7.094  56.601  19.777  1.00  0.00     0.000 C 
BRANCH  15  16
ATOM     16  C   UNL     1       7.761  55.265  19.393  1.00  0.00     0.000 C 
BRANCH  16  17
ATOM     17  C   UNL     1       7.091  54.010  19.977  1.00  0.00     0.000 C 
BRANCH  17  18
ATOM     18  C   UNL     1       7.873  53.407  21.154  1.00  0.00     0.000 C 
BRANCH  18  19
ATOM     19  C   UNL     1       9.242  54.084  21.308  1.00  0.00     0.000 C 
BRANCH  19  20
ATOM     20  C   UNL     1      10.074  53.494  22.462  1.00  0.00     0.006 C 
BRANCH  20  21
ATOM     21  C   UNL     1      10.191  54.409  23.692  1.00  0.00     0.053 C 
BRANCH  21  22
ATOM     22  C   UNL     1       9.266  53.988  24.794  1.00  0.00     0.041 C 
ATOM     23  O   UNL     1       9.446  54.412  25.966  1.00  0.00    -0.550 OA
ATOM     24  O   UNL     1       8.182  53.166  24.517  1.00  0.00    -0.550 OA
ENDBRANCH  21  22
ENDBRANCH  20  21
ENDBRANCH  19  20
ENDBRANCH  18  19
ENDBRANCH  17  18
ENDBRANCH  16  17
ENDBRANCH  15  16
ENDBRANCH  14  15
ENDBRANCH  13  14
ENDBRANCH   1  13
TORSDOF 20
ENDMDL
