MODEL 1
REMARK VINA RESULT:    -3.765      0.000      0.000
REMARK INTER + INTRA:          -4.205
REMARK INTER:                  -4.205
REMARK INTRA:                   0.000
REMARK UNBOUND:                 0.000
REMARK SMILES Oc1cc(O)c2c(c1)CCc1cc(O)c(O)cc1-2
REMARK SMILES IDX 10 1 9 2 7 3 6 4 18 5 17 6 15 7 13 8 12 9 11 10 4 11 3 12
REMARK SMILES IDX 2 13 8 14 14 15 5 17 1 19 16 21
REMARK H PARENT 14 16 5 18 1 20 16 22
REMARK Flexibility Score: inf
ROOT
ATOM      1  C   UNL     1     125.120 126.201 122.358  1.00  0.00     0.041 C 
ATOM      2  C   UNL     1     124.315 125.373 121.349  1.00  0.00     0.041 C 
ATOM      3  C   UNL     1     123.163 124.679 122.032  1.00  0.00    -0.032 A 
ATOM      4  C   UNL     1     122.476 125.322 123.091  1.00  0.00     0.027 A 
ATOM      5  C   UNL     1     122.909 126.703 123.477  1.00  0.00    -0.007 A 
ATOM      6  C   UNL     1     122.042 127.626 124.094  1.00  0.00     0.059 A 
ATOM      7  C   UNL     1     122.490 128.907 124.443  1.00  0.00     0.158 A 
ATOM      8  C   UNL     1     123.807 129.292 124.153  1.00  0.00     0.157 A 
ATOM      9  C   UNL     1     124.657 128.406 123.489  1.00  0.00     0.054 A 
ATOM     10  C   UNL     1     124.208 127.130 123.119  1.00  0.00    -0.036 A 
ATOM     11  C   UNL     1     121.466 124.604 123.780  1.00  0.00     0.127 A 
ATOM     12  C   UNL     1     121.077 123.336 123.327  1.00  0.00     0.093 A 
ATOM     13  C   UNL     1     121.709 122.745 122.229  1.00  0.00     0.119 A 
ATOM     14  C   UNL     1     122.754 123.413 121.590  1.00  0.00     0.050 A 
ENDROOT
BRANCH   8  15
ATOM     15  O   UNL     1     124.284 130.554 124.505  1.00  0.00    -0.504 OA
ATOM     16  H   UNL     1     124.566 130.779 125.452  1.00  0.00     0.293 HD
ENDBRANCH   8  15
BRANCH  11  17
ATOM     17  O   UNL     1     120.875 125.120 124.933  1.00  0.00    -0.507 OA
ATOM     18  H   UNL     1     120.231 125.900 124.900  1.00  0.00     0.293 HD
ENDBRANCH  11  17
BRANCH  13  19
ATOM     19  O   UNL     1     121.318 121.488 121.775  1.00  0.00    -0.508 OA
ATOM     20  H   UNL     1     120.388 121.323 121.410  1.00  0.00     0.293 HD
ENDBRANCH  13  19
BRANCH   7  21
ATOM     21  O   UNL     1     121.625 129.804 125.071  1.00  0.00    -0.504 OA
ATOM     22  H   UNL     1     120.694 129.984 124.713  1.00  0.00     0.293 HD
ENDBRANCH   7  21
TORSDOF 4
ENDMDL
MODEL 2
REMARK VINA RESULT:    -3.733      6.552      7.763
REMARK INTER + INTRA:          -4.169
REMARK INTER:                  -4.169
REMARK INTRA:                   0.000
REMARK UNBOUND:                 0.000
REMARK SMILES Oc1cc(O)c2c(c1)CCc1cc(O)c(O)cc1-2
REMARK SMILES IDX 10 1 9 2 7 3 6 4 18 5 17 6 15 7 13 8 12 9 11 10 4 11 3 12
REMARK SMILES IDX 2 13 8 14 14 15 5 17 1 19 16 21
REMARK H PARENT 14 16 5 18 1 20 16 22
REMARK Flexibility Score: inf
ROOT
ATOM      1  C   UNL     1     124.523 123.963 129.661  1.00  0.00     0.041 C 
ATOM      2  C   UNL     1     123.605 123.169 130.599  1.00  0.00     0.041 C 
ATOM      3  C   UNL     1     122.637 124.092 131.298  1.00  0.00    -0.032 A 
ATOM      4  C   UNL     1     122.109 125.215 130.614  1.00  0.00     0.027 A 
ATOM      5  C   UNL     1     122.518 125.428 129.189  1.00  0.00    -0.007 A 
ATOM      6  C   UNL     1     121.718 126.132 128.268  1.00  0.00     0.059 A 
ATOM      7  C   UNL     1     122.140 126.314 126.943  1.00  0.00     0.158 A 
ATOM      8  C   UNL     1     123.359 125.767 126.516  1.00  0.00     0.157 A 
ATOM      9  C   UNL     1     124.131 125.017 127.405  1.00  0.00     0.054 A 
ATOM     10  C   UNL     1     123.704 124.815 128.725  1.00  0.00    -0.036 A 
ATOM     11  C   UNL     1     121.284 126.118 131.329  1.00  0.00     0.127 A 
ATOM     12  C   UNL     1     120.899 125.823 132.645  1.00  0.00     0.093 A 
ATOM     13  C   UNL     1     121.363 124.669 133.282  1.00  0.00     0.119 A 
ATOM     14  C   UNL     1     122.236 123.812 132.611  1.00  0.00     0.050 A 
ENDROOT
BRANCH   8  15
ATOM     15  O   UNL     1     123.812 125.947 125.210  1.00  0.00    -0.504 OA
ATOM     16  H   UNL     1     124.010 125.166 124.595  1.00  0.00     0.293 HD
ENDBRANCH   8  15
BRANCH  11  17
ATOM     17  O   UNL     1     120.875 127.324 130.761  1.00  0.00    -0.507 OA
ATOM     18  H   UNL     1     121.406 127.776 130.026  1.00  0.00     0.293 HD
ENDBRANCH  11  17
BRANCH  13  19
ATOM     19  O   UNL     1     120.977 124.373 134.587  1.00  0.00    -0.508 OA
ATOM     20  H   UNL     1     120.004 124.390 134.867  1.00  0.00     0.293 HD
ENDBRANCH  13  19
BRANCH   7  21
ATOM     21  O   UNL     1     121.347 127.030 126.047  1.00  0.00    -0.504 OA
ATOM     22  H   UNL     1     120.392 127.288 126.271  1.00  0.00     0.293 HD
ENDBRANCH   7  21
TORSDOF 4
ENDMDL
MODEL 3
REMARK VINA RESULT:    -3.638      1.709      2.992
REMARK INTER + INTRA:          -4.063
REMARK INTER:                  -4.063
REMARK INTRA:                   0.000
REMARK UNBOUND:                 0.000
REMARK SMILES Oc1cc(O)c2c(c1)CCc1cc(O)c(O)cc1-2
REMARK SMILES IDX 10 1 9 2 7 3 6 4 18 5 17 6 15 7 13 8 12 9 11 10 4 11 3 12
REMARK SMILES IDX 2 13 8 14 14 15 5 17 1 19 16 21
REMARK H PARENT 14 16 5 18 1 20 16 22
REMARK Flexibility Score: inf
ROOT
ATOM      1  C   UNL     1     121.266 126.723 123.849  1.00  0.00     0.041 C 
ATOM      2  C   UNL     1     121.145 125.285 124.366  1.00  0.00     0.041 C 
ATOM      3  C   UNL     1     121.786 124.319 123.400  1.00  0.00    -0.032 A 
ATOM      4  C   UNL     1     122.954 124.695 122.694  1.00  0.00     0.027 A 
ATOM      5  C   UNL     1     123.534 126.050 122.960  1.00  0.00    -0.007 A 
ATOM      6  C   UNL     1     124.898 126.343 122.764  1.00  0.00     0.059 A 
ATOM      7  C   UNL     1     125.400 127.626 123.022  1.00  0.00     0.158 A 
ATOM      8  C   UNL     1     124.546 128.628 123.508  1.00  0.00     0.157 A 
ATOM      9  C   UNL     1     123.205 128.331 123.761  1.00  0.00     0.054 A 
ATOM     10  C   UNL     1     122.703 127.044 123.525  1.00  0.00    -0.036 A 
ATOM     11  C   UNL     1     123.473 123.806 121.719  1.00  0.00     0.127 A 
ATOM     12  C   UNL     1     122.909 122.532 121.563  1.00  0.00     0.093 A 
ATOM     13  C   UNL     1     121.804 122.143 122.325  1.00  0.00     0.119 A 
ATOM     14  C   UNL     1     121.241 123.038 123.235  1.00  0.00     0.050 A 
ENDROOT
BRANCH   8  15
ATOM     15  O   UNL     1     125.014 129.917 123.755  1.00  0.00    -0.504 OA
ATOM     16  H   UNL     1     124.674 130.722 123.243  1.00  0.00     0.293 HD
ENDBRANCH   8  15
BRANCH  11  17
ATOM     17  O   UNL     1     124.515 124.190 120.876  1.00  0.00    -0.507 OA
ATOM     18  H   UNL     1     125.429 123.757 120.925  1.00  0.00     0.293 HD
ENDBRANCH  11  17
BRANCH  13  19
ATOM     19  O   UNL     1     121.247 120.875 122.175  1.00  0.00    -0.508 OA
ATOM     20  H   UNL     1     120.257 120.749 122.003  1.00  0.00     0.293 HD
ENDBRANCH  13  19
BRANCH   7  21
ATOM     21  O   UNL     1     126.749 127.907 122.805  1.00  0.00    -0.504 OA
ATOM     22  H   UNL     1     127.403 128.003 123.573  1.00  0.00     0.293 HD
ENDBRANCH   7  21
TORSDOF 4
ENDMDL
MODEL 4
REMARK VINA RESULT:    -3.630      9.644     10.845
REMARK INTER + INTRA:          -4.055
REMARK INTER:                  -4.055
REMARK INTRA:                   0.000
REMARK UNBOUND:                 0.000
REMARK SMILES Oc1cc(O)c2c(c1)CCc1cc(O)c(O)cc1-2
REMARK SMILES IDX 10 1 9 2 7 3 6 4 18 5 17 6 15 7 13 8 12 9 11 10 4 11 3 12
REMARK SMILES IDX 2 13 8 14 14 15 5 17 1 19 16 21
REMARK H PARENT 14 16 5 18 1 20 16 22
REMARK Flexibility Score: inf
ROOT
ATOM      1  C   UNL     1     121.547 123.867 134.063  1.00  0.00     0.041 C 
ATOM      2  C   UNL     1     122.130 123.858 132.645  1.00  0.00     0.041 C 
ATOM      3  C   UNL     1     121.732 125.109 131.901  1.00  0.00    -0.032 A 
ATOM      4  C   UNL     1     121.631 126.342 132.590  1.00  0.00     0.027 A 
ATOM      5  C   UNL     1     121.958 126.361 134.052  1.00  0.00    -0.007 A 
ATOM      6  C   UNL     1     122.405 127.522 134.714  1.00  0.00     0.059 A 
ATOM      7  C   UNL     1     122.696 127.497 136.085  1.00  0.00     0.158 A 
ATOM      8  C   UNL     1     122.571 126.301 136.807  1.00  0.00     0.157 A 
ATOM      9  C   UNL     1     122.186 125.132 136.147  1.00  0.00     0.054 A 
ATOM     10  C   UNL     1     121.913 125.146 134.772  1.00  0.00    -0.036 A 
ATOM     11  C   UNL     1     121.156 127.477 131.886  1.00  0.00     0.127 A 
ATOM     12  C   UNL     1     120.921 127.396 130.506  1.00  0.00     0.093 A 
ATOM     13  C   UNL     1     121.103 126.191 129.821  1.00  0.00     0.119 A 
ATOM     14  C   UNL     1     121.499 125.050 130.520  1.00  0.00     0.050 A 
ENDROOT
BRANCH   8  15
ATOM     15  O   UNL     1     122.837 126.252 138.174  1.00  0.00    -0.504 OA
ATOM     16  H   UNL     1     122.618 127.023 138.794  1.00  0.00     0.293 HD
ENDBRANCH   8  15
BRANCH  11  17
ATOM     17  O   UNL     1     120.875 128.670 132.549  1.00  0.00    -0.507 OA
ATOM     18  H   UNL     1     121.203 129.564 132.203  1.00  0.00     0.293 HD
ENDBRANCH  11  17
BRANCH  13  19
ATOM     19  O   UNL     1     120.876 126.112 128.449  1.00  0.00    -0.508 OA
ATOM     20  H   UNL     1     121.473 125.559 127.845  1.00  0.00     0.293 HD
ENDBRANCH  13  19
BRANCH   7  21
ATOM     21  O   UNL     1     123.119 128.659 136.731  1.00  0.00    -0.504 OA
ATOM     22  H   UNL     1     124.095 128.820 136.951  1.00  0.00     0.293 HD
ENDBRANCH   7  21
TORSDOF 4
ENDMDL
MODEL 5
REMARK VINA RESULT:    -3.608      6.904      8.342
REMARK INTER + INTRA:          -4.030
REMARK INTER:                  -4.030
REMARK INTRA:                   0.000
REMARK UNBOUND:                 0.000
REMARK SMILES Oc1cc(O)c2c(c1)CCc1cc(O)c(O)cc1-2
REMARK SMILES IDX 10 1 9 2 7 3 6 4 18 5 17 6 15 7 13 8 12 9 11 10 4 11 3 12
REMARK SMILES IDX 2 13 8 14 14 15 5 17 1 19 16 21
REMARK H PARENT 14 16 5 18 1 20 16 22
REMARK Flexibility Score: inf
ROOT
ATOM      1  C   UNL     1     121.094 127.020 130.544  1.00  0.00     0.041 C 
ATOM      2  C   UNL     1     120.876 126.627 129.077  1.00  0.00     0.041 C 
ATOM      3  C   UNL     1     122.098 125.935 128.527  1.00  0.00    -0.032 A 
ATOM      4  C   UNL     1     122.861 125.078 129.358  1.00  0.00     0.027 A 
ATOM      5  C   UNL     1     122.398 124.866 130.767  1.00  0.00    -0.007 A 
ATOM      6  C   UNL     1     122.709 123.705 131.501  1.00  0.00     0.059 A 
ATOM      7  C   UNL     1     122.259 123.549 132.820  1.00  0.00     0.158 A 
ATOM      8  C   UNL     1     121.467 124.543 133.412  1.00  0.00     0.157 A 
ATOM      9  C   UNL     1     121.104 125.671 132.673  1.00  0.00     0.054 A 
ATOM     10  C   UNL     1     121.533 125.823 131.347  1.00  0.00    -0.036 A 
ATOM     11  C   UNL     1     124.059 124.524 128.843  1.00  0.00     0.127 A 
ATOM     12  C   UNL     1     124.400 124.722 127.497  1.00  0.00     0.093 A 
ATOM     13  C   UNL     1     123.595 125.505 126.666  1.00  0.00     0.119 A 
ATOM     14  C   UNL     1     122.452 126.115 127.183  1.00  0.00     0.050 A 
ENDROOT
BRANCH   8  15
ATOM     15  O   UNL     1     121.021 124.422 134.727  1.00  0.00    -0.504 OA
ATOM     16  H   UNL     1     120.592 123.573 135.075  1.00  0.00     0.293 HD
ENDBRANCH   8  15
BRANCH  11  17
ATOM     17  O   UNL     1     124.935 123.814 129.663  1.00  0.00    -0.507 OA
ATOM     18  H   UNL     1     125.093 124.075 130.629  1.00  0.00     0.293 HD
ENDBRANCH  11  17
BRANCH  13  19
ATOM     19  O   UNL     1     123.930 125.697 125.327  1.00  0.00    -0.508 OA
ATOM     20  H   UNL     1     123.359 126.269 124.716  1.00  0.00     0.293 HD
ENDBRANCH  13  19
BRANCH   7  21
ATOM     21  O   UNL     1     122.591 122.403 133.541  1.00  0.00    -0.504 OA
ATOM     22  H   UNL     1     122.718 121.506 133.086  1.00  0.00     0.293 HD
ENDBRANCH   7  21
TORSDOF 4
ENDMDL
MODEL 6
REMARK VINA RESULT:    -3.596      6.860      8.280
REMARK INTER + INTRA:          -4.017
REMARK INTER:                  -4.017
REMARK INTRA:                   0.000
REMARK UNBOUND:                 0.000
REMARK SMILES Oc1cc(O)c2c(c1)CCc1cc(O)c(O)cc1-2
REMARK SMILES IDX 10 1 9 2 7 3 6 4 18 5 17 6 15 7 13 8 12 9 11 10 4 11 3 12
REMARK SMILES IDX 2 13 8 14 14 15 5 17 1 19 16 21
REMARK H PARENT 14 16 5 18 1 20 16 22
REMARK Flexibility Score: inf
ROOT
ATOM      1  C   UNL     1     120.875 126.418 129.096  1.00  0.00     0.041 C 
ATOM      2  C   UNL     1     120.968 126.819 130.574  1.00  0.00     0.041 C 
ATOM      3  C   UNL     1     121.444 125.657 131.409  1.00  0.00    -0.032 A 
ATOM      4  C   UNL     1     122.401 124.753 130.886  1.00  0.00     0.027 A 
ATOM      5  C   UNL     1     122.933 125.010 129.509  1.00  0.00    -0.007 A 
ATOM      6  C   UNL     1     124.198 124.554 129.088  1.00  0.00     0.059 A 
ATOM      7  C   UNL     1     124.656 124.812 127.788  1.00  0.00     0.158 A 
ATOM      8  C   UNL     1     123.864 125.555 126.901  1.00  0.00     0.157 A 
ATOM      9  C   UNL     1     122.635 126.061 127.328  1.00  0.00     0.054 A 
ATOM     10  C   UNL     1     122.181 125.824 128.633  1.00  0.00    -0.036 A 
ATOM     11  C   UNL     1     122.752 123.615 131.654  1.00  0.00     0.127 A 
ATOM     12  C   UNL     1     122.254 123.471 132.958  1.00  0.00     0.093 A 
ATOM     13  C   UNL     1     121.372 124.414 133.493  1.00  0.00     0.119 A 
ATOM     14  C   UNL     1     120.964 125.499 132.716  1.00  0.00     0.050 A 
ENDROOT
BRANCH   8  15
ATOM     15  O   UNL     1     124.287 125.811 125.597  1.00  0.00    -0.504 OA
ATOM     16  H   UNL     1     125.164 126.278 125.397  1.00  0.00     0.293 HD
ENDBRANCH   8  15
BRANCH  11  17
ATOM     17  O   UNL     1     123.556 122.608 131.124  1.00  0.00    -0.507 OA
ATOM     18  H   UNL     1     123.681 122.495 130.125  1.00  0.00     0.293 HD
ENDBRANCH  11  17
BRANCH  13  19
ATOM     19  O   UNL     1     120.883 124.274 134.789  1.00  0.00    -0.508 OA
ATOM     20  H   UNL     1     120.315 123.479 135.058  1.00  0.00     0.293 HD
ENDBRANCH  13  19
BRANCH   7  21
ATOM     21  O   UNL     1     125.902 124.338 127.379  1.00  0.00    -0.504 OA
ATOM     22  H   UNL     1     126.007 123.434 126.932  1.00  0.00     0.293 HD
ENDBRANCH   7  21
TORSDOF 4
ENDMDL
MODEL 7
REMARK VINA RESULT:    -3.526      9.545     11.219
REMARK INTER + INTRA:          -3.939
REMARK INTER:                  -3.939
REMARK INTRA:                   0.000
REMARK UNBOUND:                 0.000
REMARK SMILES Oc1cc(O)c2c(c1)CCc1cc(O)c(O)cc1-2
REMARK SMILES IDX 10 1 9 2 7 3 6 4 18 5 17 6 15 7 13 8 12 9 11 10 4 11 3 12
REMARK SMILES IDX 2 13 8 14 14 15 5 17 1 19 16 21
REMARK H PARENT 14 16 5 18 1 20 16 22
REMARK Flexibility Score: inf
ROOT
ATOM      1  C   UNL     1     122.038 123.757 132.984  1.00  0.00     0.041 C 
ATOM      2  C   UNL     1     121.378 123.913 134.359  1.00  0.00     0.041 C 
ATOM      3  C   UNL     1     121.804 125.209 135.006  1.00  0.00    -0.032 A 
ATOM      4  C   UNL     1     122.009 126.363 134.212  1.00  0.00     0.027 A 
ATOM      5  C   UNL     1     121.762 126.258 132.738  1.00  0.00    -0.007 A 
ATOM      6  C   UNL     1     121.416 127.370 131.946  1.00  0.00     0.059 A 
ATOM      7  C   UNL     1     121.198 127.228 130.568  1.00  0.00     0.158 A 
ATOM      8  C   UNL     1     121.297 125.964 129.970  1.00  0.00     0.157 A 
ATOM      9  C   UNL     1     121.582 124.846 130.756  1.00  0.00     0.054 A 
ATOM     10  C   UNL     1     121.780 124.978 132.138  1.00  0.00    -0.036 A 
ATOM     11  C   UNL     1     122.506 127.536 134.834  1.00  0.00     0.127 A 
ATOM     12  C   UNL     1     122.660 127.576 136.227  1.00  0.00     0.093 A 
ATOM     13  C   UNL     1     122.377 126.453 137.009  1.00  0.00     0.119 A 
ATOM     14  C   UNL     1     121.958 125.272 136.398  1.00  0.00     0.050 A 
ENDROOT
BRANCH   8  15
ATOM     15  O   UNL     1     121.103 125.797 128.599  1.00  0.00    -0.504 OA
ATOM     16  H   UNL     1     121.514 126.422 127.917  1.00  0.00     0.293 HD
ENDBRANCH   8  15
BRANCH  11  17
ATOM     17  O   UNL     1     122.886 128.645 134.080  1.00  0.00    -0.507 OA
ATOM     18  H   UNL     1     122.937 128.612 133.069  1.00  0.00     0.293 HD
ENDBRANCH  11  17
BRANCH  13  19
ATOM     19  O   UNL     1     122.525 126.495 138.394  1.00  0.00    -0.508 OA
ATOM     20  H   UNL     1     122.943 125.727 138.905  1.00  0.00     0.293 HD
ENDBRANCH  13  19
BRANCH   7  21
ATOM     21  O   UNL     1     120.875 128.342 129.793  1.00  0.00    -0.504 OA
ATOM     22  H   UNL     1     121.283 128.488 128.876  1.00  0.00     0.293 HD
ENDBRANCH   7  21
TORSDOF 4
ENDMDL
MODEL 8
REMARK VINA RESULT:    -3.488      8.421      9.720
REMARK INTER + INTRA:          -3.896
REMARK INTER:                  -3.896
REMARK INTRA:                   0.000
REMARK UNBOUND:                 0.000
REMARK SMILES Oc1cc(O)c2c(c1)CCc1cc(O)c(O)cc1-2
REMARK SMILES IDX 10 1 9 2 7 3 6 4 18 5 17 6 15 7 13 8 12 9 11 10 4 11 3 12
REMARK SMILES IDX 2 13 8 14 14 15 5 17 1 19 16 21
REMARK H PARENT 14 16 5 18 1 20 16 22
REMARK Flexibility Score: inf
ROOT
ATOM      1  C   UNL     1     120.875 125.550 132.429  1.00  0.00     0.041 C 
ATOM      2  C   UNL     1     121.831 125.558 133.628  1.00  0.00     0.041 C 
ATOM      3  C   UNL     1     122.699 124.324 133.621  1.00  0.00    -0.032 A 
ATOM      4  C   UNL     1     123.149 123.781 132.392  1.00  0.00     0.027 A 
ATOM      5  C   UNL     1     122.762 124.484 131.128  1.00  0.00    -0.007 A 
ATOM      6  C   UNL     1     123.524 124.395 129.946  1.00  0.00     0.059 A 
ATOM      7  C   UNL     1     123.124 125.066 128.782  1.00  0.00     0.158 A 
ATOM      8  C   UNL     1     121.967 125.859 128.794  1.00  0.00     0.157 A 
ATOM      9  C   UNL     1     121.237 126.001 129.975  1.00  0.00     0.054 A 
ATOM     10  C   UNL     1     121.644 125.349 131.148  1.00  0.00    -0.036 A 
ATOM     11  C   UNL     1     123.876 122.565 132.413  1.00  0.00     0.127 A 
ATOM     12  C   UNL     1     124.249 121.994 133.638  1.00  0.00     0.093 A 
ATOM     13  C   UNL     1     123.866 122.584 134.846  1.00  0.00     0.119 A 
ATOM     14  C   UNL     1     123.087 123.741 134.835  1.00  0.00     0.050 A 
ENDROOT
BRANCH   8  15
ATOM     15  O   UNL     1     121.535 126.522 127.646  1.00  0.00    -0.504 OA
ATOM     16  H   UNL     1     121.004 127.384 127.688  1.00  0.00     0.293 HD
ENDBRANCH   8  15
BRANCH  11  17
ATOM     17  O   UNL     1     124.197 121.897 131.232  1.00  0.00    -0.507 OA
ATOM     18  H   UNL     1     125.109 121.984 130.801  1.00  0.00     0.293 HD
ENDBRANCH  11  17
BRANCH  13  19
ATOM     19  O   UNL     1     124.241 122.020 136.064  1.00  0.00    -0.508 OA
ATOM     20  H   UNL     1     124.346 121.018 136.173  1.00  0.00     0.293 HD
ENDBRANCH  13  19
BRANCH   7  21
ATOM     21  O   UNL     1     123.878 124.952 127.615  1.00  0.00    -0.504 OA
ATOM     22  H   UNL     1     124.780 124.491 127.607  1.00  0.00     0.293 HD
ENDBRANCH   7  21
TORSDOF 4
ENDMDL
MODEL 9
REMARK VINA RESULT:    -3.477      9.852     11.054
REMARK INTER + INTRA:          -3.883
REMARK INTER:                  -3.883
REMARK INTRA:                   0.000
REMARK UNBOUND:                 0.000
REMARK SMILES Oc1cc(O)c2c(c1)CCc1cc(O)c(O)cc1-2
REMARK SMILES IDX 10 1 9 2 7 3 6 4 18 5 17 6 15 7 13 8 12 9 11 10 4 11 3 12
REMARK SMILES IDX 2 13 8 14 14 15 5 17 1 19 16 21
REMARK H PARENT 14 16 5 18 1 20 16 22
REMARK Flexibility Score: inf
ROOT
ATOM      1  C   UNL     1     124.367 121.654 131.764  1.00  0.00     0.041 C 
ATOM      2  C   UNL     1     124.372 122.907 130.880  1.00  0.00     0.041 C 
ATOM      3  C   UNL     1     123.201 123.798 131.216  1.00  0.00    -0.032 A 
ATOM      4  C   UNL     1     122.759 123.910 132.557  1.00  0.00     0.027 A 
ATOM      5  C   UNL     1     123.504 123.150 133.611  1.00  0.00    -0.007 A 
ATOM      6  C   UNL     1     123.532 123.553 134.960  1.00  0.00     0.059 A 
ATOM      7  C   UNL     1     124.237 122.809 135.917  1.00  0.00     0.158 A 
ATOM      8  C   UNL     1     124.949 121.664 135.528  1.00  0.00     0.157 A 
ATOM      9  C   UNL     1     124.976 121.289 134.183  1.00  0.00     0.054 A 
ATOM     10  C   UNL     1     124.289 122.041 133.219  1.00  0.00    -0.036 A 
ATOM     11  C   UNL     1     121.595 124.673 132.826  1.00  0.00     0.127 A 
ATOM     12  C   UNL     1     120.984 125.402 131.796  1.00  0.00     0.093 A 
ATOM     13  C   UNL     1     121.479 125.346 130.491  1.00  0.00     0.119 A 
ATOM     14  C   UNL     1     122.580 124.539 130.202  1.00  0.00     0.050 A 
ENDROOT
BRANCH   8  15
ATOM     15  O   UNL     1     125.644 120.896 136.460  1.00  0.00    -0.504 OA
ATOM     16  H   UNL     1     126.526 121.198 136.857  1.00  0.00     0.293 HD
ENDBRANCH   8  15
BRANCH  11  17
ATOM     17  O   UNL     1     121.018 124.682 134.095  1.00  0.00    -0.507 OA
ATOM     18  H   UNL     1     120.323 125.369 134.360  1.00  0.00     0.293 HD
ENDBRANCH  11  17
BRANCH  13  19
ATOM     19  O   UNL     1     120.875 126.075 129.469  1.00  0.00    -0.508 OA
ATOM     20  H   UNL     1     120.349 126.919 129.661  1.00  0.00     0.293 HD
ENDBRANCH  13  19
BRANCH   7  21
ATOM     21  O   UNL     1     124.240 123.210 137.252  1.00  0.00    -0.504 OA
ATOM     22  H   UNL     1     124.198 124.188 137.514  1.00  0.00     0.293 HD
ENDBRANCH   7  21
TORSDOF 4
ENDMDL
