MODEL 1
REMARK VINA RESULT:    -5.008      0.000      0.000
REMARK INTER + INTRA:         -10.629
REMARK INTER:                  -9.106
REMARK INTRA:                  -1.523
REMARK UNBOUND:                -1.523
REMARK SMILES CCCCCC=CCC=CCCCCCCCC(=O)[O-]
REMARK SMILES IDX 11 1 12 2 13 3 14 4 15 5 16 6 17 7 18 8 19 9 20 10 10 11
REMARK SMILES IDX 9 12 8 13 7 14 6 15 5 16 4 17 3 18 2 19 1 20
REMARK H PARENT
REMARK Flexibility Score: inf
ROOT
ATOM      1  C   UNL     1      -2.673  13.374 -14.888  1.00  0.00     0.027 C 
ENDROOT
BRANCH   1   2
ATOM      2  C   UNL     1      -3.038  11.886 -14.740  1.00  0.00     0.004 C 
BRANCH   2   3
ATOM      3  C   UNL     1      -3.640  11.246 -16.005  1.00  0.00     0.000 C 
BRANCH   3   4
ATOM      4  C   UNL     1      -2.653  10.314 -16.728  1.00  0.00     0.000 C 
BRANCH   4   5
ATOM      5  C   UNL     1      -2.376  10.750 -18.179  1.00  0.00     0.000 C 
BRANCH   5   6
ATOM      6  C   UNL     1      -3.473  11.625 -18.813  1.00  0.00     0.006 C 
BRANCH   6   7
ATOM      7  C   UNL     1      -4.291  10.880 -19.876  1.00  0.00     0.053 C 
BRANCH   7   8
ATOM      8  C   UNL     1      -5.729  11.289 -19.811  1.00  0.00     0.041 C 
ATOM      9  O   UNL     1      -6.403  11.405 -20.870  1.00  0.00    -0.550 OA
ATOM     10  O   UNL     1      -6.313  11.587 -18.586  1.00  0.00    -0.550 OA
ENDBRANCH   7   8
ENDBRANCH   6   7
ENDBRANCH   5   6
ENDBRANCH   4   5
ENDBRANCH   3   4
ENDBRANCH   2   3
ENDBRANCH   1   2
BRANCH   1  11
ATOM     11  C   UNL     1      -2.673  13.837 -16.320  1.00  0.00    -0.031 C 
ATOM     12  C   UNL     1      -1.606  14.435 -16.866  1.00  0.00    -0.027 C 
BRANCH  12  13
ATOM     13  C   UNL     1      -1.631  14.886 -18.301  1.00  0.00     0.054 C 
BRANCH  13  14
ATOM     14  C   UNL     1      -0.785  16.113 -18.494  1.00  0.00    -0.027 C 
ATOM     15  C   UNL     1       0.526  16.020 -18.763  1.00  0.00    -0.031 C 
BRANCH  15  16
ATOM     16  C   UNL     1       1.376  17.239 -19.003  1.00  0.00     0.027 C 
BRANCH  16  17
ATOM     17  C   UNL     1       0.832  18.078 -20.170  1.00  0.00     0.004 C 
BRANCH  17  18
ATOM     18  C   UNL     1       0.577  19.556 -19.795  1.00  0.00     0.000 C 
BRANCH  18  19
ATOM     19  C   UNL     1       0.168  19.758 -18.326  1.00  0.00    -0.003 C 
ATOM     20  C   UNL     1      -1.344  19.774 -18.121  1.00  0.00     0.004 C 
ENDBRANCH  18  19
ENDBRANCH  17  18
ENDBRANCH  16  17
ENDBRANCH  15  16
ENDBRANCH  13  14
ENDBRANCH  12  13
ENDBRANCH   1  11
TORSDOF 14
ENDMDL
MODEL 2
REMARK VINA RESULT:    -4.998      2.200      3.648
REMARK INTER + INTRA:         -10.611
REMARK INTER:                  -8.863
REMARK INTRA:                  -1.748
REMARK UNBOUND:                -1.523
REMARK SMILES CCCCCC=CCC=CCCCCCCCC(=O)[O-]
REMARK SMILES IDX 11 1 12 2 13 3 14 4 15 5 16 6 17 7 18 8 19 9 20 10 10 11
REMARK SMILES IDX 9 12 8 13 7 14 6 15 5 16 4 17 3 18 2 19 1 20
REMARK H PARENT
REMARK Flexibility Score: inf
ROOT
ATOM      1  C   UNL     1      -2.674  11.411 -18.499  1.00  0.00     0.027 C 
ENDROOT
BRANCH   1   2
ATOM      2  C   UNL     1      -3.903  10.765 -19.163  1.00  0.00     0.004 C 
BRANCH   2   3
ATOM      3  C   UNL     1      -5.029  11.752 -19.521  1.00  0.00     0.000 C 
BRANCH   3   4
ATOM      4  C   UNL     1      -6.175  11.748 -18.494  1.00  0.00     0.000 C 
BRANCH   4   5
ATOM      5  C   UNL     1      -5.889  12.653 -17.281  1.00  0.00     0.000 C 
BRANCH   5   6
ATOM      6  C   UNL     1      -5.319  11.925 -16.050  1.00  0.00     0.006 C 
BRANCH   6   7
ATOM      7  C   UNL     1      -4.197  12.711 -15.358  1.00  0.00     0.053 C 
BRANCH   7   8
ATOM      8  C   UNL     1      -3.220  11.775 -14.719  1.00  0.00     0.041 C 
ATOM      9  O   UNL     1      -2.124  12.210 -14.276  1.00  0.00    -0.550 OA
ATOM     10  O   UNL     1      -3.500  10.415 -14.653  1.00  0.00    -0.550 OA
ENDBRANCH   7   8
ENDBRANCH   6   7
ENDBRANCH   5   6
ENDBRANCH   4   5
ENDBRANCH   3   4
ENDBRANCH   2   3
ENDBRANCH   1   2
BRANCH   1  11
ATOM     11  C   UNL     1      -2.397  12.801 -19.007  1.00  0.00    -0.031 C 
ATOM     12  C   UNL     1      -1.993  13.782 -18.190  1.00  0.00    -0.027 C 
BRANCH  12  13
ATOM     13  C   UNL     1      -1.721  15.162 -18.724  1.00  0.00     0.054 C 
BRANCH  13  14
ATOM     14  C   UNL     1      -0.369  15.651 -18.287  1.00  0.00    -0.027 C 
ATOM     15  C   UNL     1       0.686  15.613 -19.114  1.00  0.00    -0.031 C 
BRANCH  15  16
ATOM     16  C   UNL     1       2.036  16.140 -18.704  1.00  0.00     0.027 C 
BRANCH  16  17
ATOM     17  C   UNL     1       2.121  17.663 -18.896  1.00  0.00     0.004 C 
BRANCH  17  18
ATOM     18  C   UNL     1       1.391  18.162 -20.164  1.00  0.00     0.000 C 
BRANCH  18  19
ATOM     19  C   UNL     1       0.570  19.443 -19.940  1.00  0.00    -0.003 C 
ATOM     20  C   UNL     1      -0.686  19.212 -19.105  1.00  0.00     0.004 C 
ENDBRANCH  18  19
ENDBRANCH  17  18
ENDBRANCH  16  17
ENDBRANCH  15  16
ENDBRANCH  13  14
ENDBRANCH  12  13
ENDBRANCH   1  11
TORSDOF 14
ENDMDL
MODEL 3
REMARK VINA RESULT:    -4.705      3.466      7.439
REMARK INTER + INTRA:         -10.079
REMARK INTER:                  -8.507
REMARK INTRA:                  -1.572
REMARK UNBOUND:                -1.523
REMARK SMILES CCCCCC=CCC=CCCCCCCCC(=O)[O-]
REMARK SMILES IDX 11 1 12 2 13 3 14 4 15 5 16 6 17 7 18 8 19 9 20 10 10 11
REMARK SMILES IDX 9 12 8 13 7 14 6 15 5 16 4 17 3 18 2 19 1 20
REMARK H PARENT
REMARK Flexibility Score: inf
ROOT
ATOM      1  C   UNL     1      -2.399  13.479 -15.392  1.00  0.00     0.027 C 
ENDROOT
BRANCH   1   2
ATOM      2  C   UNL     1      -1.616  14.477 -16.264  1.00  0.00     0.004 C 
BRANCH   2   3
ATOM      3  C   UNL     1      -1.853  14.328 -17.778  1.00  0.00     0.000 C 
BRANCH   3   4
ATOM      4  C   UNL     1      -1.391  15.557 -18.578  1.00  0.00     0.000 C 
BRANCH   4   5
ATOM      5  C   UNL     1       0.120  15.823 -18.443  1.00  0.00     0.000 C 
BRANCH   5   6
ATOM      6  C   UNL     1       0.566  17.243 -18.837  1.00  0.00     0.006 C 
BRANCH   6   7
ATOM      7  C   UNL     1      -0.607  18.144 -19.249  1.00  0.00     0.053 C 
BRANCH   7   8
ATOM      8  C   UNL     1      -0.645  19.374 -18.398  1.00  0.00     0.041 C 
ATOM      9  O   UNL     1       0.427  19.910 -18.010  1.00  0.00    -0.550 OA
ATOM     10  O   UNL     1      -1.865  19.902 -17.994  1.00  0.00    -0.550 OA
ENDBRANCH   7   8
ENDBRANCH   6   7
ENDBRANCH   5   6
ENDBRANCH   4   5
ENDBRANCH   3   4
ENDBRANCH   2   3
ENDBRANCH   1   2
BRANCH   1  11
ATOM     11  C   UNL     1      -3.861  13.416 -15.745  1.00  0.00    -0.031 C 
ATOM     12  C   UNL     1      -4.717  12.642 -15.065  1.00  0.00    -0.027 C 
BRANCH  12  13
ATOM     13  C   UNL     1      -6.174  12.599 -15.437  1.00  0.00     0.054 C 
BRANCH  13  14
ATOM     14  C   UNL     1      -6.390  11.768 -16.670  1.00  0.00    -0.027 C 
ATOM     15  C   UNL     1      -6.104  12.245 -17.890  1.00  0.00    -0.031 C 
BRANCH  15  16
ATOM     16  C   UNL     1      -6.274  11.408 -19.130  1.00  0.00     0.027 C 
BRANCH  16  17
ATOM     17  C   UNL     1      -4.950  11.272 -19.897  1.00  0.00     0.004 C 
BRANCH  17  18
ATOM     18  C   UNL     1      -3.745  11.892 -19.152  1.00  0.00     0.000 C 
BRANCH  18  19
ATOM     19  C   UNL     1      -2.669  10.866 -18.757  1.00  0.00    -0.003 C 
ATOM     20  C   UNL     1      -2.698  10.508 -17.274  1.00  0.00     0.004 C 
ENDBRANCH  18  19
ENDBRANCH  17  18
ENDBRANCH  16  17
ENDBRANCH  15  16
ENDBRANCH  13  14
ENDBRANCH  12  13
ENDBRANCH   1  11
TORSDOF 14
ENDMDL
MODEL 4
REMARK VINA RESULT:    -4.605      3.334      7.931
REMARK INTER + INTRA:          -9.897
REMARK INTER:                  -8.357
REMARK INTRA:                  -1.540
REMARK UNBOUND:                -1.523
REMARK SMILES CCCCCC=CCC=CCCCCCCCC(=O)[O-]
REMARK SMILES IDX 11 1 12 2 13 3 14 4 15 5 16 6 17 7 18 8 19 9 20 10 10 11
REMARK SMILES IDX 9 12 8 13 7 14 6 15 5 16 4 17 3 18 2 19 1 20
REMARK H PARENT
REMARK Flexibility Score: inf
ROOT
ATOM      1  C   UNL     1      -1.624  14.789 -18.587  1.00  0.00     0.027 C 
ENDROOT
BRANCH   1   2
ATOM      2  C   UNL     1      -0.414  15.585 -18.065  1.00  0.00     0.004 C 
BRANCH   2   3
ATOM      3  C   UNL     1       0.742  15.724 -19.073  1.00  0.00     0.000 C 
BRANCH   3   4
ATOM      4  C   UNL     1       1.906  16.573 -18.531  1.00  0.00     0.000 C 
BRANCH   4   5
ATOM      5  C   UNL     1       2.104  17.882 -19.317  1.00  0.00     0.000 C 
BRANCH   5   6
ATOM      6  C   UNL     1       1.004  18.192 -20.348  1.00  0.00     0.006 C 
BRANCH   6   7
ATOM      7  C   UNL     1       0.334  19.553 -20.116  1.00  0.00     0.053 C 
BRANCH   7   8
ATOM      8  C   UNL     1      -0.377  19.568 -18.799  1.00  0.00     0.041 C 
ATOM      9  O   UNL     1      -1.551  19.120 -18.708  1.00  0.00    -0.550 OA
ATOM     10  O   UNL     1       0.239  20.121 -17.683  1.00  0.00    -0.550 OA
ENDBRANCH   7   8
ENDBRANCH   6   7
ENDBRANCH   5   6
ENDBRANCH   4   5
ENDBRANCH   3   4
ENDBRANCH   2   3
ENDBRANCH   1   2
BRANCH   1  11
ATOM     11  C   UNL     1      -2.340  14.033 -17.500  1.00  0.00    -0.031 C 
ATOM     12  C   UNL     1      -1.993  14.155 -16.213  1.00  0.00    -0.027 C 
BRANCH  12  13
ATOM     13  C   UNL     1      -2.727  13.389 -15.145  1.00  0.00     0.054 C 
BRANCH  13  14
ATOM     14  C   UNL     1      -3.744  12.463 -15.750  1.00  0.00    -0.027 C 
ATOM     15  C   UNL     1      -5.052  12.755 -15.728  1.00  0.00    -0.031 C 
BRANCH  15  16
ATOM     16  C   UNL     1      -6.078  11.858 -16.369  1.00  0.00     0.027 C 
BRANCH  16  17
ATOM     17  C   UNL     1      -6.474  12.371 -17.762  1.00  0.00     0.004 C 
BRANCH  17  18
ATOM     18  C   UNL     1      -6.040  11.427 -18.908  1.00  0.00     0.000 C 
BRANCH  18  19
ATOM     19  C   UNL     1      -4.702  11.820 -19.558  1.00  0.00    -0.003 C 
ATOM     20  C   UNL     1      -3.522  11.001 -19.042  1.00  0.00     0.004 C 
ENDBRANCH  18  19
ENDBRANCH  17  18
ENDBRANCH  16  17
ENDBRANCH  15  16
ENDBRANCH  13  14
ENDBRANCH  12  13
ENDBRANCH   1  11
TORSDOF 14
ENDMDL
MODEL 5
REMARK VINA RESULT:    -4.603      1.384      2.540
REMARK INTER + INTRA:          -9.893
REMARK INTER:                  -8.351
REMARK INTRA:                  -1.542
REMARK UNBOUND:                -1.523
REMARK SMILES CCCCCC=CCC=CCCCCCCCC(=O)[O-]
REMARK SMILES IDX 11 1 12 2 13 3 14 4 15 5 16 6 17 7 18 8 19 9 20 10 10 11
REMARK SMILES IDX 9 12 8 13 7 14 6 15 5 16 4 17 3 18 2 19 1 20
REMARK H PARENT
REMARK Flexibility Score: inf
ROOT
ATOM      1  C   UNL     1      -3.049  12.190 -19.137  1.00  0.00     0.027 C 
ENDROOT
BRANCH   1   2
ATOM      2  C   UNL     1      -3.224  10.851 -18.399  1.00  0.00     0.004 C 
BRANCH   2   3
ATOM      3  C   UNL     1      -2.339  10.690 -17.149  1.00  0.00     0.000 C 
BRANCH   3   4
ATOM      4  C   UNL     1      -3.156  10.509 -15.858  1.00  0.00     0.000 C 
BRANCH   4   5
ATOM      5  C   UNL     1      -3.154  11.768 -14.971  1.00  0.00     0.000 C 
BRANCH   5   6
ATOM      6  C   UNL     1      -4.524  12.453 -14.814  1.00  0.00     0.006 C 
BRANCH   6   7
ATOM      7  C   UNL     1      -5.009  13.120 -16.108  1.00  0.00     0.053 C 
BRANCH   7   8
ATOM      8  C   UNL     1      -6.154  12.356 -16.694  1.00  0.00     0.041 C 
ATOM      9  O   UNL     1      -6.280  12.263 -17.944  1.00  0.00    -0.550 OA
ATOM     10  O   UNL     1      -7.109  11.787 -15.861  1.00  0.00    -0.550 OA
ENDBRANCH   7   8
ENDBRANCH   6   7
ENDBRANCH   5   6
ENDBRANCH   4   5
ENDBRANCH   3   4
ENDBRANCH   2   3
ENDBRANCH   1   2
BRANCH   1  11
ATOM     11  C   UNL     1      -2.350  13.231 -18.304  1.00  0.00    -0.031 C 
ATOM     12  C   UNL     1      -1.753  14.293 -18.861  1.00  0.00    -0.027 C 
BRANCH  12  13
ATOM     13  C   UNL     1      -1.063  15.320 -18.005  1.00  0.00     0.054 C 
BRANCH  13  14
ATOM     14  C   UNL     1      -0.260  16.271 -18.848  1.00  0.00    -0.027 C 
ATOM     15  C   UNL     1       1.077  16.324 -18.758  1.00  0.00    -0.031 C 
BRANCH  15  16
ATOM     16  C   UNL     1       1.895  17.240 -19.628  1.00  0.00     0.027 C 
BRANCH  16  17
ATOM     17  C   UNL     1       1.004  18.247 -20.372  1.00  0.00     0.004 C 
BRANCH  17  18
ATOM     18  C   UNL     1       0.853  19.596 -19.630  1.00  0.00     0.000 C 
BRANCH  18  19
ATOM     19  C   UNL     1      -0.609  20.024 -19.418  1.00  0.00    -0.003 C 
ATOM     20  C   UNL     1      -1.081  19.851 -17.978  1.00  0.00     0.004 C 
ENDBRANCH  18  19
ENDBRANCH  17  18
ENDBRANCH  16  17
ENDBRANCH  15  16
ENDBRANCH  13  14
ENDBRANCH  12  13
ENDBRANCH   1  11
TORSDOF 14
ENDMDL
MODEL 6
REMARK VINA RESULT:    -4.530      3.521      7.726
REMARK INTER + INTRA:          -9.760
REMARK INTER:                  -8.730
REMARK INTRA:                  -1.030
REMARK UNBOUND:                -1.523
REMARK SMILES CCCCCC=CCC=CCCCCCCCC(=O)[O-]
REMARK SMILES IDX 11 1 12 2 13 3 14 4 15 5 16 6 17 7 18 8 19 9 20 10 10 11
REMARK SMILES IDX 9 12 8 13 7 14 6 15 5 16 4 17 3 18 2 19 1 20
REMARK H PARENT
REMARK Flexibility Score: inf
ROOT
ATOM      1  C   UNL     1      -2.237  12.086 -18.868  1.00  0.00     0.027 C 
ENDROOT
BRANCH   1   2
ATOM      2  C   UNL     1      -2.202  13.608 -19.095  1.00  0.00     0.004 C 
BRANCH   2   3
ATOM      3  C   UNL     1      -1.610  14.415 -17.925  1.00  0.00     0.000 C 
BRANCH   3   4
ATOM      4  C   UNL     1      -1.064  15.786 -18.362  1.00  0.00     0.000 C 
BRANCH   4   5
ATOM      5  C   UNL     1       0.437  15.747 -18.704  1.00  0.00     0.000 C 
BRANCH   5   6
ATOM      6  C   UNL     1       1.087  17.125 -18.925  1.00  0.00     0.006 C 
BRANCH   6   7
ATOM      7  C   UNL     1       0.128  18.142 -19.558  1.00  0.00     0.053 C 
BRANCH   7   8
ATOM      8  C   UNL     1      -0.123  19.280 -18.620  1.00  0.00     0.041 C 
ATOM      9  O   UNL     1       0.838  19.821 -18.009  1.00  0.00    -0.550 OA
ATOM     10  O   UNL     1      -1.422  19.713 -18.382  1.00  0.00    -0.550 OA
ENDBRANCH   7   8
ENDBRANCH   6   7
ENDBRANCH   5   6
ENDBRANCH   4   5
ENDBRANCH   3   4
ENDBRANCH   2   3
ENDBRANCH   1   2
BRANCH   1  11
ATOM     11  C   UNL     1      -3.630  11.518 -18.923  1.00  0.00    -0.031 C 
ATOM     12  C   UNL     1      -4.517  11.919 -19.843  1.00  0.00    -0.027 C 
BRANCH  12  13
ATOM     13  C   UNL     1      -5.903  11.334 -19.877  1.00  0.00     0.054 C 
BRANCH  13  14
ATOM     14  C   UNL     1      -6.556  11.418 -18.526  1.00  0.00    -0.027 C 
ATOM     15  C   UNL     1      -5.968  12.060 -17.507  1.00  0.00    -0.031 C 
BRANCH  15  16
ATOM     16  C   UNL     1      -6.632  12.189 -16.161  1.00  0.00     0.027 C 
BRANCH  16  17
ATOM     17  C   UNL     1      -5.752  12.980 -15.180  1.00  0.00     0.004 C 
BRANCH  17  18
ATOM     18  C   UNL     1      -4.316  13.219 -15.701  1.00  0.00     0.000 C 
BRANCH  18  19
ATOM     19  C   UNL     1      -3.240  12.443 -14.923  1.00  0.00    -0.003 C 
ATOM     20  C   UNL     1      -3.344  10.931 -15.103  1.00  0.00     0.004 C 
ENDBRANCH  18  19
ENDBRANCH  17  18
ENDBRANCH  16  17
ENDBRANCH  15  16
ENDBRANCH  13  14
ENDBRANCH  12  13
ENDBRANCH   1  11
TORSDOF 14
ENDMDL
MODEL 7
REMARK VINA RESULT:    -4.469      1.311      1.753
REMARK INTER + INTRA:          -9.650
REMARK INTER:                  -8.254
REMARK INTRA:                  -1.396
REMARK UNBOUND:                -1.523
REMARK SMILES CCCCCC=CCC=CCCCCCCCC(=O)[O-]
REMARK SMILES IDX 11 1 12 2 13 3 14 4 15 5 16 6 17 7 18 8 19 9 20 10 10 11
REMARK SMILES IDX 9 12 8 13 7 14 6 15 5 16 4 17 3 18 2 19 1 20
REMARK H PARENT
REMARK Flexibility Score: inf
ROOT
ATOM      1  C   UNL     1      -2.411  13.394 -14.979  1.00  0.00     0.027 C 
ENDROOT
BRANCH   1   2
ATOM      2  C   UNL     1      -2.730  11.909 -15.232  1.00  0.00     0.004 C 
BRANCH   2   3
ATOM      3  C   UNL     1      -4.174  11.498 -14.889  1.00  0.00     0.000 C 
BRANCH   3   4
ATOM      4  C   UNL     1      -5.156  12.681 -14.926  1.00  0.00     0.000 C 
BRANCH   4   5
ATOM      5  C   UNL     1      -5.820  12.861 -16.304  1.00  0.00     0.000 C 
BRANCH   5   6
ATOM      6  C   UNL     1      -5.248  11.968 -17.420  1.00  0.00     0.006 C 
BRANCH   6   7
ATOM      7  C   UNL     1      -6.193  11.836 -18.622  1.00  0.00     0.053 C 
BRANCH   7   8
ATOM      8  C   UNL     1      -5.442  11.369 -19.829  1.00  0.00     0.041 C 
ATOM      9  O   UNL     1      -6.043  11.206 -20.925  1.00  0.00    -0.550 OA
ATOM     10  O   UNL     1      -4.089  11.070 -19.734  1.00  0.00    -0.550 OA
ENDBRANCH   7   8
ENDBRANCH   6   7
ENDBRANCH   5   6
ENDBRANCH   4   5
ENDBRANCH   3   4
ENDBRANCH   2   3
ENDBRANCH   1   2
BRANCH   1  11
ATOM     11  C   UNL     1      -2.083  14.145 -16.242  1.00  0.00    -0.031 C 
ATOM     12  C   UNL     1      -2.270  13.603 -17.452  1.00  0.00    -0.027 C 
BRANCH  12  13
ATOM     13  C   UNL     1      -1.935  14.376 -18.698  1.00  0.00     0.054 C 
BRANCH  13  14
ATOM     14  C   UNL     1      -1.026  15.531 -18.387  1.00  0.00    -0.027 C 
ATOM     15  C   UNL     1       0.227  15.580 -18.863  1.00  0.00    -0.031 C 
BRANCH  15  16
ATOM     16  C   UNL     1       1.132  16.752 -18.595  1.00  0.00     0.027 C 
BRANCH  16  17
ATOM     17  C   UNL     1       1.173  17.711 -19.796  1.00  0.00     0.004 C 
BRANCH  17  18
ATOM     18  C   UNL     1       0.662  19.132 -19.461  1.00  0.00     0.000 C 
BRANCH  18  19
ATOM     19  C   UNL     1      -0.825  19.176 -19.068  1.00  0.00    -0.003 C 
ATOM     20  C   UNL     1      -1.070  19.859 -17.726  1.00  0.00     0.004 C 
ENDBRANCH  18  19
ENDBRANCH  17  18
ENDBRANCH  16  17
ENDBRANCH  15  16
ENDBRANCH  13  14
ENDBRANCH  12  13
ENDBRANCH   1  11
TORSDOF 14
ENDMDL
MODEL 8
REMARK VINA RESULT:    -4.354      3.253      7.099
REMARK INTER + INTRA:          -9.440
REMARK INTER:                  -7.722
REMARK INTRA:                  -1.718
REMARK UNBOUND:                -1.523
REMARK SMILES CCCCCC=CCC=CCCCCCCCC(=O)[O-]
REMARK SMILES IDX 11 1 12 2 13 3 14 4 15 5 16 6 17 7 18 8 19 9 20 10 10 11
REMARK SMILES IDX 9 12 8 13 7 14 6 15 5 16 4 17 3 18 2 19 1 20
REMARK H PARENT
REMARK Flexibility Score: inf
ROOT
ATOM      1  C   UNL     1      -5.811  11.467 -20.143  1.00  0.00     0.027 C 
ENDROOT
BRANCH   1   2
ATOM      2  C   UNL     1      -4.326  11.083 -20.274  1.00  0.00     0.004 C 
BRANCH   2   3
ATOM      3  C   UNL     1      -3.637  10.730 -18.943  1.00  0.00     0.000 C 
BRANCH   3   4
ATOM      4  C   UNL     1      -2.376  11.572 -18.682  1.00  0.00     0.000 C 
BRANCH   4   5
ATOM      5  C   UNL     1      -2.698  13.046 -18.371  1.00  0.00     0.000 C 
BRANCH   5   6
ATOM      6  C   UNL     1      -1.746  14.067 -19.020  1.00  0.00     0.006 C 
BRANCH   6   7
ATOM      7  C   UNL     1      -1.234  15.119 -18.027  1.00  0.00     0.053 C 
BRANCH   7   8
ATOM      8  C   UNL     1      -0.174  15.964 -18.660  1.00  0.00     0.041 C 
ATOM      9  O   UNL     1       0.895  15.438 -19.071  1.00  0.00    -0.550 OA
ATOM     10  O   UNL     1      -0.345  17.340 -18.755  1.00  0.00    -0.550 OA
ENDBRANCH   7   8
ENDBRANCH   6   7
ENDBRANCH   5   6
ENDBRANCH   4   5
ENDBRANCH   3   4
ENDBRANCH   2   3
ENDBRANCH   1   2
BRANCH   1  11
ATOM     11  C   UNL     1      -6.337  11.303 -18.742  1.00  0.00    -0.031 C 
ATOM     12  C   UNL     1      -6.330  12.314 -17.865  1.00  0.00    -0.027 C 
BRANCH  12  13
ATOM     13  C   UNL     1      -6.864  12.124 -16.471  1.00  0.00     0.054 C 
BRANCH  13  14
ATOM     14  C   UNL     1      -5.859  12.567 -15.445  1.00  0.00    -0.027 C 
ATOM     15  C   UNL     1      -4.576  12.781 -15.773  1.00  0.00    -0.031 C 
BRANCH  15  16
ATOM     16  C   UNL     1      -3.569  13.267 -14.765  1.00  0.00     0.027 C 
BRANCH  16  17
ATOM     17  C   UNL     1      -2.410  12.270 -14.610  1.00  0.00     0.004 C 
BRANCH  17  18
ATOM     18  C   UNL     1      -2.706  10.886 -15.233  1.00  0.00     0.000 C 
BRANCH  18  19
ATOM     19  C   UNL     1      -3.529   9.961 -14.319  1.00  0.00    -0.003 C 
ATOM     20  C   UNL     1      -2.961   9.854 -12.907  1.00  0.00     0.004 C 
ENDBRANCH  18  19
ENDBRANCH  17  18
ENDBRANCH  16  17
ENDBRANCH  15  16
ENDBRANCH  13  14
ENDBRANCH  12  13
ENDBRANCH   1  11
TORSDOF 14
ENDMDL
MODEL 9
REMARK VINA RESULT:    -4.244      2.228      4.135
REMARK INTER + INTRA:          -9.240
REMARK INTER:                  -7.798
REMARK INTRA:                  -1.441
REMARK UNBOUND:                -1.523
REMARK SMILES CCCCCC=CCC=CCCCCCCCC(=O)[O-]
REMARK SMILES IDX 11 1 12 2 13 3 14 4 15 5 16 6 17 7 18 8 19 9 20 10 10 11
REMARK SMILES IDX 9 12 8 13 7 14 6 15 5 16 4 17 3 18 2 19 1 20
REMARK H PARENT
REMARK Flexibility Score: inf
ROOT
ATOM      1  C   UNL     1      -6.022  11.388 -19.033  1.00  0.00     0.027 C 
ENDROOT
BRANCH   1   2
ATOM      2  C   UNL     1      -6.845  12.083 -17.933  1.00  0.00     0.004 C 
BRANCH   2   3
ATOM      3  C   UNL     1      -6.296  11.892 -16.507  1.00  0.00     0.000 C 
BRANCH   3   4
ATOM      4  C   UNL     1      -5.672  13.176 -15.931  1.00  0.00     0.000 C 
BRANCH   4   5
ATOM      5  C   UNL     1      -4.723  12.899 -14.750  1.00  0.00     0.000 C 
BRANCH   5   6
ATOM      6  C   UNL     1      -3.224  13.003 -15.086  1.00  0.00     0.006 C 
BRANCH   6   7
ATOM      7  C   UNL     1      -2.367  11.994 -14.310  1.00  0.00     0.053 C 
BRANCH   7   8
ATOM      8  C   UNL     1      -2.926  10.613 -14.454  1.00  0.00     0.041 C 
ATOM      9  O   UNL     1      -3.123  10.126 -15.599  1.00  0.00    -0.550 OA
ATOM     10  O   UNL     1      -3.273   9.882 -13.324  1.00  0.00    -0.550 OA
ENDBRANCH   7   8
ENDBRANCH   6   7
ENDBRANCH   5   6
ENDBRANCH   4   5
ENDBRANCH   3   4
ENDBRANCH   2   3
ENDBRANCH   1   2
BRANCH   1  11
ATOM     11  C   UNL     1      -4.699  12.059 -19.286  1.00  0.00    -0.031 C 
ATOM     12  C   UNL     1      -3.578  11.656 -18.675  1.00  0.00    -0.027 C 
BRANCH  12  13
ATOM     13  C   UNL     1      -2.267  12.343 -18.947  1.00  0.00     0.054 C 
BRANCH  13  14
ATOM     14  C   UNL     1      -2.389  13.829 -18.759  1.00  0.00    -0.027 C 
ATOM     15  C   UNL     1      -1.304  14.604 -18.615  1.00  0.00    -0.031 C 
BRANCH  15  16
ATOM     16  C   UNL     1      -1.410  16.099 -18.470  1.00  0.00     0.027 C 
BRANCH  16  17
ATOM     17  C   UNL     1      -0.058  16.782 -18.732  1.00  0.00     0.004 C 
BRANCH  17  18
ATOM     18  C   UNL     1      -0.196  18.214 -19.299  1.00  0.00     0.000 C 
BRANCH  18  19
ATOM     19  C   UNL     1      -0.293  19.300 -18.215  1.00  0.00    -0.003 C 
ATOM     20  C   UNL     1      -1.673  19.948 -18.137  1.00  0.00     0.004 C 
ENDBRANCH  18  19
ENDBRANCH  17  18
ENDBRANCH  16  17
ENDBRANCH  15  16
ENDBRANCH  13  14
ENDBRANCH  12  13
ENDBRANCH   1  11
TORSDOF 14
ENDMDL
