MODEL 1
REMARK VINA RESULT:    -7.509      0.000      0.000
REMARK INTER + INTRA:          -9.375
REMARK INTER:                  -9.046
REMARK INTRA:                  -0.329
REMARK UNBOUND:                -0.329
REMARK SMILES O=c1c(O)c(-c2ccc(O)c(O)c2)oc2cc(O)cc(O)c12
REMARK SMILES IDX 5 1 3 2 2 3 1 4 22 5 20 6 19 7 17 8 16 9 15 10 14 11 6 12
REMARK SMILES IDX 7 13 8 14 9 15 13 16 11 17 10 18 12 20 4 22 21 24 18 26
REMARK H PARENT 10 19 12 21 4 23 21 25 18 27
REMARK Flexibility Score: inf
ROOT
ATOM      1  C   UNL     1      18.405 -11.310  18.988  1.00  0.00     0.180 A 
ATOM      2  C   UNL     1      17.885 -10.095  18.501  1.00  0.00     0.208 A 
ATOM      3  C   UNL     1      18.000  -8.942  19.294  1.00  0.00     0.238 A 
ATOM      4  O   UNL     1      17.547  -7.846  18.864  1.00  0.00    -0.285 OA
ATOM      5  C   UNL     1      18.612  -9.026  20.561  1.00  0.00     0.111 A 
ATOM      6  C   UNL     1      18.764  -7.913  21.424  1.00  0.00     0.134 A 
ATOM      7  C   UNL     1      19.377  -8.080  22.674  1.00  0.00     0.093 A 
ATOM      8  C   UNL     1      19.838  -9.338  23.079  1.00  0.00     0.123 A 
ATOM      9  C   UNL     1      19.691 -10.437  22.233  1.00  0.00     0.094 A 
ATOM     10  C   UNL     1      19.085 -10.292  20.981  1.00  0.00     0.146 A 
ATOM     11  O   UNL     1      18.963 -11.354  20.194  1.00  0.00    -0.452 OA
ENDROOT
BRANCH   1  12
ATOM     12  C   UNL     1      18.339 -12.564  18.204  1.00  0.00     0.025 A 
ATOM     13  C   UNL     1      17.232 -13.414  18.353  1.00  0.00     0.016 A 
ATOM     14  C   UNL     1      17.159 -14.613  17.639  1.00  0.00     0.051 A 
ATOM     15  C   UNL     1      18.195 -14.987  16.778  1.00  0.00     0.157 A 
ATOM     16  C   UNL     1      19.391 -12.954  17.353  1.00  0.00     0.062 A 
ATOM     17  C   UNL     1      19.320 -14.158  16.638  1.00  0.00     0.158 A 
BRANCH  15  18
ATOM     18  O   UNL     1      18.093 -16.189  16.077  1.00  0.00    -0.504 OA
ATOM     19  H   UNL     1      17.252 -16.754  16.097  1.00  0.00     0.293 HD
ENDBRANCH  15  18
BRANCH  17  20
ATOM     20  O   UNL     1      20.363 -14.532  15.792  1.00  0.00    -0.504 OA
ATOM     21  H   UNL     1      21.299 -14.698  16.144  1.00  0.00     0.293 HD
ENDBRANCH  17  20
ENDBRANCH   1  12
BRANCH   2  22
ATOM     22  O   UNL     1      17.238 -10.049  17.263  1.00  0.00    -0.502 OA
ATOM     23  H   UNL     1      17.041  -9.177  16.786  1.00  0.00     0.293 HD
ENDBRANCH   2  22
BRANCH   6  24
ATOM     24  O   UNL     1      18.313  -6.647  21.048  1.00  0.00    -0.507 OA
ATOM     25  H   UNL     1      18.877  -6.028  20.477  1.00  0.00     0.293 HD
ENDBRANCH   6  24
BRANCH   8  26
ATOM     26  O   UNL     1      20.445  -9.504  24.322  1.00  0.00    -0.508 OA
ATOM     27  H   UNL     1      19.941  -9.343  25.185  1.00  0.00     0.293 HD
ENDBRANCH   8  26
TORSDOF 6
ENDMDL
MODEL 2
REMARK VINA RESULT:    -7.252      0.585      1.426
REMARK INTER + INTRA:          -9.065
REMARK INTER:                  -8.808
REMARK INTRA:                  -0.257
REMARK UNBOUND:                -0.329
REMARK SMILES O=c1c(O)c(-c2ccc(O)c(O)c2)oc2cc(O)cc(O)c12
REMARK SMILES IDX 5 1 3 2 2 3 1 4 22 5 20 6 19 7 17 8 16 9 15 10 14 11 6 12
REMARK SMILES IDX 7 13 8 14 9 15 13 16 11 17 10 18 12 20 4 22 21 24 18 26
REMARK H PARENT 10 19 12 21 4 23 21 25 18 27
REMARK Flexibility Score: inf
ROOT
ATOM      1  C   UNL     1      18.542 -11.340  19.057  1.00  0.00     0.180 A 
ATOM      2  C   UNL     1      18.047 -10.133  18.524  1.00  0.00     0.208 A 
ATOM      3  C   UNL     1      18.144  -8.962  19.293  1.00  0.00     0.238 A 
ATOM      4  O   UNL     1      17.714  -7.874  18.821  1.00  0.00    -0.285 OA
ATOM      5  C   UNL     1      18.712  -9.020  20.581  1.00  0.00     0.111 A 
ATOM      6  C   UNL     1      18.843  -7.887  21.421  1.00  0.00     0.134 A 
ATOM      7  C   UNL     1      19.413  -8.028  22.695  1.00  0.00     0.093 A 
ATOM      8  C   UNL     1      19.851  -9.278  23.145  1.00  0.00     0.123 A 
ATOM      9  C   UNL     1      19.724 -10.397  22.321  1.00  0.00     0.094 A 
ATOM     10  C   UNL     1      19.161 -10.278  21.047  1.00  0.00     0.146 A 
ATOM     11  O   UNL     1      19.058 -11.358  20.282  1.00  0.00    -0.452 OA
ENDROOT
BRANCH   1  12
ATOM     12  C   UNL     1      18.492 -12.612  18.301  1.00  0.00     0.025 A 
ATOM     13  C   UNL     1      19.660 -13.102  17.697  1.00  0.00     0.016 A 
ATOM     14  C   UNL     1      19.632 -14.290  16.961  1.00  0.00     0.051 A 
ATOM     15  C   UNL     1      18.436 -14.996  16.806  1.00  0.00     0.157 A 
ATOM     16  C   UNL     1      17.285 -13.314  18.126  1.00  0.00     0.062 A 
ATOM     17  C   UNL     1      17.255 -14.505  17.385  1.00  0.00     0.158 A 
BRANCH  15  18
ATOM     18  O   UNL     1      18.439 -16.180  16.067  1.00  0.00    -0.504 OA
ATOM     19  H   UNL     1      17.615 -16.512  15.579  1.00  0.00     0.293 HD
ENDBRANCH  15  18
BRANCH  17  20
ATOM     20  O   UNL     1      16.056 -15.197  17.222  1.00  0.00    -0.504 OA
ATOM     21  H   UNL     1      15.237 -14.981  17.780  1.00  0.00     0.293 HD
ENDBRANCH  17  20
ENDBRANCH   1  12
BRANCH   2  22
ATOM     22  O   UNL     1      17.443 -10.113  17.264  1.00  0.00    -0.502 OA
ATOM     23  H   UNL     1      17.585  -9.356  16.606  1.00  0.00     0.293 HD
ENDBRANCH   2  22
BRANCH   6  24
ATOM     24  O   UNL     1      18.415  -6.628  21.000  1.00  0.00    -0.507 OA
ATOM     25  H   UNL     1      19.060  -5.944  20.619  1.00  0.00     0.293 HD
ENDBRANCH   6  24
BRANCH   8  26
ATOM     26  O   UNL     1      20.415  -9.418  24.411  1.00  0.00    -0.508 OA
ATOM     27  H   UNL     1      20.955 -10.237  24.664  1.00  0.00     0.293 HD
ENDBRANCH   8  26
TORSDOF 6
ENDMDL
MODEL 3
REMARK VINA RESULT:    -6.918      1.730      7.295
REMARK INTER + INTRA:          -8.663
REMARK INTER:                  -8.342
REMARK INTRA:                  -0.320
REMARK UNBOUND:                -0.329
REMARK SMILES O=c1c(O)c(-c2ccc(O)c(O)c2)oc2cc(O)cc(O)c12
REMARK SMILES IDX 5 1 3 2 2 3 1 4 22 5 20 6 19 7 17 8 16 9 15 10 14 11 6 12
REMARK SMILES IDX 7 13 8 14 9 15 13 16 11 17 10 18 12 20 4 22 21 24 18 26
REMARK H PARENT 10 19 12 21 4 23 21 25 18 27
REMARK Flexibility Score: inf
ROOT
ATOM      1  C   UNL     1      18.532 -11.498  18.094  1.00  0.00     0.180 A 
ATOM      2  C   UNL     1      17.896 -12.660  18.573  1.00  0.00     0.208 A 
ATOM      3  C   UNL     1      17.939 -13.827  17.793  1.00  0.00     0.238 A 
ATOM      4  O   UNL     1      17.383 -14.877  18.217  1.00  0.00    -0.285 OA
ATOM      5  C   UNL     1      18.595 -13.807  16.545  1.00  0.00     0.111 A 
ATOM      6  C   UNL     1      18.680 -14.937  15.697  1.00  0.00     0.134 A 
ATOM      7  C   UNL     1      19.344 -14.835  14.466  1.00  0.00     0.093 A 
ATOM      8  C   UNL     1      19.921 -13.625  14.066  1.00  0.00     0.123 A 
ATOM      9  C   UNL     1      19.841 -12.508  14.899  1.00  0.00     0.094 A 
ATOM     10  C   UNL     1      19.185 -12.590  16.132  1.00  0.00     0.146 A 
ATOM     11  O   UNL     1      19.129 -11.513  16.906  1.00  0.00    -0.452 OA
ENDROOT
BRANCH   1  12
ATOM     12  C   UNL     1      18.546 -10.235  18.867  1.00  0.00     0.025 A 
ATOM     13  C   UNL     1      17.649  -9.210  18.530  1.00  0.00     0.016 A 
ATOM     14  C   UNL     1      17.660  -8.001  19.231  1.00  0.00     0.051 A 
ATOM     15  C   UNL     1      18.575  -7.793  20.268  1.00  0.00     0.157 A 
ATOM     16  C   UNL     1      19.481 -10.016  19.896  1.00  0.00     0.062 A 
ATOM     17  C   UNL     1      19.494  -8.802  20.599  1.00  0.00     0.158 A 
BRANCH  15  18
ATOM     18  O   UNL     1      18.560  -6.577  20.951  1.00  0.00    -0.504 OA
ATOM     19  H   UNL     1      17.950  -5.815  20.681  1.00  0.00     0.293 HD
ENDBRANCH  15  18
BRANCH  17  20
ATOM     20  O   UNL     1      20.419  -8.597  21.622  1.00  0.00    -0.504 OA
ATOM     21  H   UNL     1      20.551  -9.275  22.364  1.00  0.00     0.293 HD
ENDBRANCH  17  20
ENDBRANCH   1  12
BRANCH   2  22
ATOM     22  O   UNL     1      17.210 -12.639  19.790  1.00  0.00    -0.502 OA
ATOM     23  H   UNL     1      16.844 -13.480  20.221  1.00  0.00     0.293 HD
ENDBRANCH   2  22
BRANCH   6  24
ATOM     24  O   UNL     1      18.113 -16.158  16.068  1.00  0.00    -0.507 OA
ATOM     25  H   UNL     1      17.300 -16.206  16.672  1.00  0.00     0.293 HD
ENDBRANCH   6  24
BRANCH   8  26
ATOM     26  O   UNL     1      20.579 -13.523  12.842  1.00  0.00    -0.508 OA
ATOM     27  H   UNL     1      21.576 -13.354  12.788  1.00  0.00     0.293 HD
ENDBRANCH   8  26
TORSDOF 6
ENDMDL
MODEL 4
REMARK VINA RESULT:    -6.699      1.843      3.747
REMARK INTER + INTRA:          -8.399
REMARK INTER:                  -8.363
REMARK INTRA:                  -0.036
REMARK UNBOUND:                -0.329
REMARK SMILES O=c1c(O)c(-c2ccc(O)c(O)c2)oc2cc(O)cc(O)c12
REMARK SMILES IDX 5 1 3 2 2 3 1 4 22 5 20 6 19 7 17 8 16 9 15 10 14 11 6 12
REMARK SMILES IDX 7 13 8 14 9 15 13 16 11 17 10 18 12 20 4 22 21 24 18 26
REMARK H PARENT 10 19 12 21 4 23 21 25 18 27
REMARK Flexibility Score: inf
ROOT
ATOM      1  C   UNL     1      18.972 -12.345  18.609  1.00  0.00     0.180 A 
ATOM      2  C   UNL     1      19.259 -12.035  19.953  1.00  0.00     0.208 A 
ATOM      3  C   UNL     1      18.786 -10.825  20.485  1.00  0.00     0.238 A 
ATOM      4  O   UNL     1      19.027 -10.542  21.691  1.00  0.00    -0.285 OA
ATOM      5  C   UNL     1      18.056  -9.941  19.665  1.00  0.00     0.111 A 
ATOM      6  C   UNL     1      17.548  -8.701  20.123  1.00  0.00     0.134 A 
ATOM      7  C   UNL     1      16.838  -7.872  19.242  1.00  0.00     0.093 A 
ATOM      8  C   UNL     1      16.629  -8.257  17.914  1.00  0.00     0.123 A 
ATOM      9  C   UNL     1      17.127  -9.479  17.458  1.00  0.00     0.094 A 
ATOM     10  C   UNL     1      17.836 -10.321  18.321  1.00  0.00     0.146 A 
ATOM     11  O   UNL     1      18.293 -11.479  17.861  1.00  0.00    -0.452 OA
ENDROOT
BRANCH   1  12
ATOM     12  C   UNL     1      19.420 -13.608  17.980  1.00  0.00     0.025 A 
ATOM     13  C   UNL     1      20.784 -13.937  17.986  1.00  0.00     0.016 A 
ATOM     14  C   UNL     1      21.232 -15.114  17.380  1.00  0.00     0.051 A 
ATOM     15  C   UNL     1      20.327 -15.971  16.748  1.00  0.00     0.157 A 
ATOM     16  C   UNL     1      18.513 -14.462  17.325  1.00  0.00     0.062 A 
ATOM     17  C   UNL     1      18.961 -15.643  16.714  1.00  0.00     0.158 A 
BRANCH  15  18
ATOM     18  O   UNL     1      20.803 -17.140  16.153  1.00  0.00    -0.504 OA
ATOM     19  H   UNL     1      21.675 -17.572  16.437  1.00  0.00     0.293 HD
ENDBRANCH  15  18
BRANCH  17  20
ATOM     20  O   UNL     1      18.055 -16.486  16.073  1.00  0.00    -0.504 OA
ATOM     21  H   UNL     1      18.125 -16.687  15.082  1.00  0.00     0.293 HD
ENDBRANCH  17  20
ENDBRANCH   1  12
BRANCH   2  22
ATOM     22  O   UNL     1      20.027 -12.906  20.730  1.00  0.00    -0.502 OA
ATOM     23  H   UNL     1      21.010 -12.745  20.914  1.00  0.00     0.293 HD
ENDBRANCH   2  22
BRANCH   6  24
ATOM     24  O   UNL     1      17.742  -8.289  21.442  1.00  0.00    -0.507 OA
ATOM     25  H   UNL     1      17.356  -7.419  21.792  1.00  0.00     0.293 HD
ENDBRANCH   6  24
BRANCH   8  26
ATOM     26  O   UNL     1      15.925  -7.433  17.038  1.00  0.00    -0.508 OA
ATOM     27  H   UNL     1      15.327  -7.814  16.315  1.00  0.00     0.293 HD
ENDBRANCH   8  26
TORSDOF 6
ENDMDL
MODEL 5
REMARK VINA RESULT:    -6.470      1.655      3.110
REMARK INTER + INTRA:          -8.123
REMARK INTER:                  -8.071
REMARK INTRA:                  -0.053
REMARK UNBOUND:                -0.329
REMARK SMILES O=c1c(O)c(-c2ccc(O)c(O)c2)oc2cc(O)cc(O)c12
REMARK SMILES IDX 5 1 3 2 2 3 1 4 22 5 20 6 19 7 17 8 16 9 15 10 14 11 6 12
REMARK SMILES IDX 7 13 8 14 9 15 13 16 11 17 10 18 12 20 4 22 21 24 18 26
REMARK H PARENT 10 19 12 21 4 23 21 25 18 27
REMARK Flexibility Score: inf
ROOT
ATOM      1  C   UNL     1      19.383 -11.658  18.924  1.00  0.00     0.180 A 
ATOM      2  C   UNL     1      19.260 -12.114  20.251  1.00  0.00     0.208 A 
ATOM      3  C   UNL     1      19.347 -11.182  21.298  1.00  0.00     0.238 A 
ATOM      4  O   UNL     1      19.227 -11.577  22.490  1.00  0.00    -0.285 OA
ATOM      5  C   UNL     1      19.573  -9.822  21.004  1.00  0.00     0.111 A 
ATOM      6  C   UNL     1      19.677  -8.821  22.001  1.00  0.00     0.134 A 
ATOM      7  C   UNL     1      19.912  -7.490  21.628  1.00  0.00     0.093 A 
ATOM      8  C   UNL     1      20.047  -7.141  20.280  1.00  0.00     0.123 A 
ATOM      9  C   UNL     1      19.944  -8.123  19.294  1.00  0.00     0.094 A 
ATOM     10  C   UNL     1      19.708  -9.457  19.645  1.00  0.00     0.146 A 
ATOM     11  O   UNL     1      19.610 -10.369  18.686  1.00  0.00    -0.452 OA
ENDROOT
BRANCH   1  12
ATOM     12  C   UNL     1      19.284 -12.575  17.765  1.00  0.00     0.025 A 
ATOM     13  C   UNL     1      20.274 -12.539  16.771  1.00  0.00     0.016 A 
ATOM     14  C   UNL     1      20.191 -13.381  15.658  1.00  0.00     0.051 A 
ATOM     15  C   UNL     1      19.111 -14.257  15.515  1.00  0.00     0.157 A 
ATOM     16  C   UNL     1      18.188 -13.443  17.608  1.00  0.00     0.062 A 
ATOM     17  C   UNL     1      18.101 -14.286  16.491  1.00  0.00     0.158 A 
BRANCH  15  18
ATOM     18  O   UNL     1      19.056 -15.087  14.395  1.00  0.00    -0.504 OA
ATOM     19  H   UNL     1      18.430 -15.883  14.345  1.00  0.00     0.293 HD
ENDBRANCH  15  18
BRANCH  17  20
ATOM     20  O   UNL     1      17.015 -15.147  16.348  1.00  0.00    -0.504 OA
ATOM     21  H   UNL     1      16.987 -16.050  16.807  1.00  0.00     0.293 HD
ENDBRANCH  17  20
ENDBRANCH   1  12
BRANCH   2  22
ATOM     22  O   UNL     1      19.086 -13.474  20.517  1.00  0.00    -0.502 OA
ATOM     23  H   UNL     1      19.114 -14.177  19.788  1.00  0.00     0.293 HD
ENDBRANCH   2  22
BRANCH   6  24
ATOM     24  O   UNL     1      19.548  -9.139  23.354  1.00  0.00    -0.507 OA
ATOM     25  H   UNL     1      18.776  -8.793  23.912  1.00  0.00     0.293 HD
ENDBRANCH   6  24
BRANCH   8  26
ATOM     26  O   UNL     1      20.282  -5.819  19.910  1.00  0.00    -0.508 OA
ATOM     27  H   UNL     1      20.253  -5.526  18.941  1.00  0.00     0.293 HD
ENDBRANCH   8  26
TORSDOF 6
ENDMDL
MODEL 6
REMARK VINA RESULT:    -6.441      1.884      3.363
REMARK INTER + INTRA:          -8.088
REMARK INTER:                  -7.756
REMARK INTRA:                  -0.332
REMARK UNBOUND:                -0.329
REMARK SMILES O=c1c(O)c(-c2ccc(O)c(O)c2)oc2cc(O)cc(O)c12
REMARK SMILES IDX 5 1 3 2 2 3 1 4 22 5 20 6 19 7 17 8 16 9 15 10 14 11 6 12
REMARK SMILES IDX 7 13 8 14 9 15 13 16 11 17 10 18 12 20 4 22 21 24 18 26
REMARK H PARENT 10 19 12 21 4 23 21 25 18 27
REMARK Flexibility Score: inf
ROOT
ATOM      1  C   UNL     1      19.660 -11.873  17.891  1.00  0.00     0.180 A 
ATOM      2  C   UNL     1      20.772 -11.848  18.756  1.00  0.00     0.208 A 
ATOM      3  C   UNL     1      20.747 -10.990  19.867  1.00  0.00     0.238 A 
ATOM      4  O   UNL     1      21.732 -10.967  20.655  1.00  0.00    -0.285 OA
ATOM      5  C   UNL     1      19.626 -10.162  20.084  1.00  0.00     0.111 A 
ATOM      6  C   UNL     1      19.524  -9.267  21.176  1.00  0.00     0.134 A 
ATOM      7  C   UNL     1      18.380  -8.469  21.317  1.00  0.00     0.093 A 
ATOM      8  C   UNL     1      17.337  -8.548  20.387  1.00  0.00     0.123 A 
ATOM      9  C   UNL     1      17.433  -9.429  19.309  1.00  0.00     0.094 A 
ATOM     10  C   UNL     1      18.565 -10.234  19.151  1.00  0.00     0.146 A 
ATOM     11  O   UNL     1      18.627 -11.067  18.119  1.00  0.00    -0.452 OA
ENDROOT
BRANCH   1  12
ATOM     12  C   UNL     1      19.603 -12.764  16.710  1.00  0.00     0.025 A 
ATOM     13  C   UNL     1      19.958 -12.261  15.449  1.00  0.00     0.016 A 
ATOM     14  C   UNL     1      19.891 -13.077  14.317  1.00  0.00     0.051 A 
ATOM     15  C   UNL     1      19.456 -14.401  14.425  1.00  0.00     0.157 A 
ATOM     16  C   UNL     1      19.144 -14.090  16.813  1.00  0.00     0.062 A 
ATOM     17  C   UNL     1      19.075 -14.910  15.677  1.00  0.00     0.158 A 
BRANCH  15  18
ATOM     18  O   UNL     1      19.402 -15.193  13.277  1.00  0.00    -0.504 OA
ATOM     19  H   UNL     1      19.646 -14.832  12.362  1.00  0.00     0.293 HD
ENDBRANCH  15  18
BRANCH  17  20
ATOM     20  O   UNL     1      18.626 -16.225  15.790  1.00  0.00    -0.504 OA
ATOM     21  H   UNL     1      17.662 -16.476  15.604  1.00  0.00     0.293 HD
ENDBRANCH  17  20
ENDBRANCH   1  12
BRANCH   2  22
ATOM     22  O   UNL     1      21.890 -12.642  18.492  1.00  0.00    -0.502 OA
ATOM     23  H   UNL     1      22.755 -12.551  19.012  1.00  0.00     0.293 HD
ENDBRANCH   2  22
BRANCH   6  24
ATOM     24  O   UNL     1      20.548  -9.165  22.119  1.00  0.00    -0.507 OA
ATOM     25  H   UNL     1      21.510  -9.002  21.846  1.00  0.00     0.293 HD
ENDBRANCH   6  24
BRANCH   8  26
ATOM     26  O   UNL     1      16.201  -7.754  20.526  1.00  0.00    -0.508 OA
ATOM     27  H   UNL     1      15.272  -8.156  20.541  1.00  0.00     0.293 HD
ENDBRANCH   8  26
TORSDOF 6
ENDMDL
MODEL 7
REMARK VINA RESULT:    -6.435      1.827      6.923
REMARK INTER + INTRA:          -8.081
REMARK INTER:                  -8.084
REMARK INTRA:                   0.003
REMARK UNBOUND:                -0.329
REMARK SMILES O=c1c(O)c(-c2ccc(O)c(O)c2)oc2cc(O)cc(O)c12
REMARK SMILES IDX 5 1 3 2 2 3 1 4 22 5 20 6 19 7 17 8 16 9 15 10 14 11 6 12
REMARK SMILES IDX 7 13 8 14 9 15 13 16 11 17 10 18 12 20 4 22 21 24 18 26
REMARK H PARENT 10 19 12 21 4 23 21 25 18 27
REMARK Flexibility Score: inf
ROOT
ATOM      1  C   UNL     1      19.428 -11.386  18.265  1.00  0.00     0.180 A 
ATOM      2  C   UNL     1      19.197 -10.868  16.976  1.00  0.00     0.208 A 
ATOM      3  C   UNL     1      19.262 -11.737  15.874  1.00  0.00     0.238 A 
ATOM      4  O   UNL     1      19.046 -11.286  14.716  1.00  0.00    -0.285 OA
ATOM      5  C   UNL     1      19.574 -13.096  16.077  1.00  0.00     0.111 A 
ATOM      6  C   UNL     1      19.663 -14.036  15.021  1.00  0.00     0.134 A 
ATOM      7  C   UNL     1      19.988 -15.371  15.304  1.00  0.00     0.093 A 
ATOM      8  C   UNL     1      20.227 -15.783  16.619  1.00  0.00     0.123 A 
ATOM      9  C   UNL     1      20.139 -14.861  17.663  1.00  0.00     0.094 A 
ATOM     10  C   UNL     1      19.815 -13.526  17.403  1.00  0.00     0.146 A 
ATOM     11  O   UNL     1      19.734 -12.672  18.416  1.00  0.00    -0.452 OA
ENDROOT
BRANCH   1  12
ATOM     12  C   UNL     1      19.359 -10.538  19.477  1.00  0.00     0.025 A 
ATOM     13  C   UNL     1      20.367 -10.640  20.448  1.00  0.00     0.016 A 
ATOM     14  C   UNL     1      20.312  -9.865  21.610  1.00  0.00     0.051 A 
ATOM     15  C   UNL     1      19.243  -8.990  21.825  1.00  0.00     0.157 A 
ATOM     16  C   UNL     1      18.274  -9.673  19.706  1.00  0.00     0.062 A 
ATOM     17  C   UNL     1      18.215  -8.896  20.872  1.00  0.00     0.158 A 
BRANCH  15  18
ATOM     18  O   UNL     1      19.216  -8.227  22.993  1.00  0.00    -0.504 OA
ATOM     19  H   UNL     1      19.168  -8.652  23.912  1.00  0.00     0.293 HD
ENDBRANCH  15  18
BRANCH  17  20
ATOM     20  O   UNL     1      17.139  -8.036  21.086  1.00  0.00    -0.504 OA
ATOM     21  H   UNL     1      16.816  -7.398  20.368  1.00  0.00     0.293 HD
ENDBRANCH  17  20
ENDBRANCH   1  12
BRANCH   2  22
ATOM     22  O   UNL     1      18.939  -9.506  16.798  1.00  0.00    -0.502 OA
ATOM     23  H   UNL     1      18.020  -9.105  16.945  1.00  0.00     0.293 HD
ENDBRANCH   2  22
BRANCH   6  24
ATOM     24  O   UNL     1      19.431 -13.654  13.699  1.00  0.00    -0.507 OA
ATOM     25  H   UNL     1      18.739 -14.120  13.123  1.00  0.00     0.293 HD
ENDBRANCH   6  24
BRANCH   8  26
ATOM     26  O   UNL     1      20.550 -17.109  16.899  1.00  0.00    -0.508 OA
ATOM     27  H   UNL     1      21.513 -17.419  16.958  1.00  0.00     0.293 HD
ENDBRANCH   8  26
TORSDOF 6
ENDMDL
MODEL 8
REMARK VINA RESULT:    -6.403      2.038      7.493
REMARK INTER + INTRA:          -8.043
REMARK INTER:                  -7.774
REMARK INTRA:                  -0.269
REMARK UNBOUND:                -0.329
REMARK SMILES O=c1c(O)c(-c2ccc(O)c(O)c2)oc2cc(O)cc(O)c12
REMARK SMILES IDX 5 1 3 2 2 3 1 4 22 5 20 6 19 7 17 8 16 9 15 10 14 11 6 12
REMARK SMILES IDX 7 13 8 14 9 15 13 16 11 17 10 18 12 20 4 22 21 24 18 26
REMARK H PARENT 10 19 12 21 4 23 21 25 18 27
REMARK Flexibility Score: inf
ROOT
ATOM      1  C   UNL     1      19.150 -11.915  18.129  1.00  0.00     0.180 A 
ATOM      2  C   UNL     1      19.298 -13.130  18.826  1.00  0.00     0.208 A 
ATOM      3  C   UNL     1      19.565 -14.301  18.098  1.00  0.00     0.238 A 
ATOM      4  O   UNL     1      19.711 -15.393  18.713  1.00  0.00    -0.285 OA
ATOM      5  C   UNL     1      19.659 -14.242  16.693  1.00  0.00     0.111 A 
ATOM      6  C   UNL     1      19.922 -15.375  15.886  1.00  0.00     0.134 A 
ATOM      7  C   UNL     1      19.991 -15.236  14.492  1.00  0.00     0.093 A 
ATOM      8  C   UNL     1      19.802 -13.987  13.890  1.00  0.00     0.123 A 
ATOM      9  C   UNL     1      19.544 -12.867  14.681  1.00  0.00     0.094 A 
ATOM     10  C   UNL     1      19.472 -12.984  16.073  1.00  0.00     0.146 A 
ATOM     11  O   UNL     1      19.231 -11.900  16.801  1.00  0.00    -0.452 OA
ENDROOT
BRANCH   1  12
ATOM     12  C   UNL     1      18.885 -10.636  18.826  1.00  0.00     0.025 A 
ATOM     13  C   UNL     1      19.927  -9.997  19.515  1.00  0.00     0.016 A 
ATOM     14  C   UNL     1      19.695  -8.800  20.198  1.00  0.00     0.051 A 
ATOM     15  C   UNL     1      18.418  -8.232  20.214  1.00  0.00     0.157 A 
ATOM     16  C   UNL     1      17.596 -10.073  18.861  1.00  0.00     0.062 A 
ATOM     17  C   UNL     1      17.361  -8.873  19.548  1.00  0.00     0.158 A 
BRANCH  15  18
ATOM     18  O   UNL     1      18.217  -7.035  20.902  1.00  0.00    -0.504 OA
ATOM     19  H   UNL     1      18.278  -6.133  20.443  1.00  0.00     0.293 HD
ENDBRANCH  15  18
BRANCH  17  20
ATOM     20  O   UNL     1      16.081  -8.320  19.572  1.00  0.00    -0.504 OA
ATOM     21  H   UNL     1      15.726  -7.836  20.388  1.00  0.00     0.293 HD
ENDBRANCH  17  20
ENDBRANCH   1  12
BRANCH   2  22
ATOM     22  O   UNL     1      19.151 -13.170  20.215  1.00  0.00    -0.502 OA
ATOM     23  H   UNL     1      18.478 -13.774  20.672  1.00  0.00     0.293 HD
ENDBRANCH   2  22
BRANCH   6  24
ATOM     24  O   UNL     1      20.114 -16.634  16.457  1.00  0.00    -0.507 OA
ATOM     25  H   UNL     1      19.559 -17.436  16.180  1.00  0.00     0.293 HD
ENDBRANCH   6  24
BRANCH   8  26
ATOM     26  O   UNL     1      19.869 -13.849  12.506  1.00  0.00    -0.508 OA
ATOM     27  H   UNL     1      20.542 -14.366  11.953  1.00  0.00     0.293 HD
ENDBRANCH   8  26
TORSDOF 6
ENDMDL
MODEL 9
REMARK VINA RESULT:    -6.083      2.417      3.205
REMARK INTER + INTRA:          -7.657
REMARK INTER:                  -7.365
REMARK INTRA:                  -0.291
REMARK UNBOUND:                -0.329
REMARK SMILES O=c1c(O)c(-c2ccc(O)c(O)c2)oc2cc(O)cc(O)c12
REMARK SMILES IDX 5 1 3 2 2 3 1 4 22 5 20 6 19 7 17 8 16 9 15 10 14 11 6 12
REMARK SMILES IDX 7 13 8 14 9 15 13 16 11 17 10 18 12 20 4 22 21 24 18 26
REMARK H PARENT 10 19 12 21 4 23 21 25 18 27
REMARK Flexibility Score: inf
ROOT
ATOM      1  C   UNL     1      20.195 -11.534  17.406  1.00  0.00     0.180 A 
ATOM      2  C   UNL     1      21.153 -10.610  16.943  1.00  0.00     0.208 A 
ATOM      3  C   UNL     1      21.122  -9.297  17.438  1.00  0.00     0.238 A 
ATOM      4  O   UNL     1      21.982  -8.464  17.039  1.00  0.00    -0.285 OA
ATOM      5  C   UNL     1      20.129  -8.925  18.366  1.00  0.00     0.111 A 
ATOM      6  C   UNL     1      20.026  -7.621  18.910  1.00  0.00     0.134 A 
ATOM      7  C   UNL     1      19.003  -7.327  19.823  1.00  0.00     0.093 A 
ATOM      8  C   UNL     1      18.080  -8.310  20.200  1.00  0.00     0.123 A 
ATOM      9  C   UNL     1      18.178  -9.596  19.668  1.00  0.00     0.094 A 
ATOM     10  C   UNL     1      19.192  -9.910  18.757  1.00  0.00     0.146 A 
ATOM     11  O   UNL     1      19.264 -11.143  18.271  1.00  0.00    -0.452 OA
ENDROOT
BRANCH   1  12
ATOM     12  C   UNL     1      20.173 -12.941  16.945  1.00  0.00     0.025 A 
ATOM     13  C   UNL     1      20.756 -13.938  17.743  1.00  0.00     0.016 A 
ATOM     14  C   UNL     1      20.766 -15.269  17.319  1.00  0.00     0.051 A 
ATOM     15  C   UNL     1      20.208 -15.622  16.087  1.00  0.00     0.157 A 
ATOM     16  C   UNL     1      19.631 -13.295  15.696  1.00  0.00     0.062 A 
ATOM     17  C   UNL     1      19.642 -14.631  15.267  1.00  0.00     0.158 A 
BRANCH  15  18
ATOM     18  O   UNL     1      20.230 -16.959  15.690  1.00  0.00    -0.504 OA
ATOM     19  H   UNL     1      20.381 -17.232  14.726  1.00  0.00     0.293 HD
ENDBRANCH  15  18
BRANCH  17  20
ATOM     20  O   UNL     1      19.096 -14.973  14.031  1.00  0.00    -0.504 OA
ATOM     21  H   UNL     1      19.506 -14.652  13.162  1.00  0.00     0.293 HD
ENDBRANCH  17  20
ENDBRANCH   1  12
BRANCH   2  22
ATOM     22  O   UNL     1      22.096 -10.991  15.985  1.00  0.00    -0.502 OA
ATOM     23  H   UNL     1      21.831 -11.338  15.071  1.00  0.00     0.293 HD
ENDBRANCH   2  22
BRANCH   6  24
ATOM     24  O   UNL     1      20.930  -6.621  18.552  1.00  0.00    -0.507 OA
ATOM     25  H   UNL     1      20.625  -5.753  18.127  1.00  0.00     0.293 HD
ENDBRANCH   6  24
BRANCH   8  26
ATOM     26  O   UNL     1      17.063  -8.017  21.106  1.00  0.00    -0.508 OA
ATOM     27  H   UNL     1      17.261  -7.621  22.016  1.00  0.00     0.293 HD
ENDBRANCH   8  26
TORSDOF 6
ENDMDL
