MODEL 1
REMARK VINA RESULT:    -7.062      0.000      0.000
REMARK INTER + INTRA:          -8.826
REMARK INTER:                  -8.507
REMARK INTRA:                  -0.318
REMARK UNBOUND:                -0.318
REMARK SMILES O=c1c(O)c(-c2ccc(O)c(O)c2)oc2cc(O)cc(O)c12
REMARK SMILES IDX 5 1 3 2 2 3 1 4 22 5 20 6 19 7 17 8 16 9 15 10 14 11 6 12
REMARK SMILES IDX 7 13 8 14 9 15 13 16 11 17 10 18 12 20 4 22 21 24 18 26
REMARK H PARENT 10 19 12 21 4 23 21 25 18 27
REMARK Flexibility Score: inf
ROOT
ATOM      1  C   UNL     1     -38.234   4.828  79.846  1.00  0.00     0.180 A 
ATOM      2  C   UNL     1     -38.847   5.006  81.099  1.00  0.00     0.208 A 
ATOM      3  C   UNL     1     -40.163   4.554  81.282  1.00  0.00     0.238 A 
ATOM      4  O   UNL     1     -40.727   4.765  82.388  1.00  0.00    -0.285 OA
ATOM      5  C   UNL     1     -40.845   3.916  80.217  1.00  0.00     0.111 A 
ATOM      6  C   UNL     1     -42.166   3.384  80.304  1.00  0.00     0.134 A 
ATOM      7  C   UNL     1     -42.788   2.890  79.150  1.00  0.00     0.093 A 
ATOM      8  C   UNL     1     -42.116   2.851  77.930  1.00  0.00     0.123 A 
ATOM      9  C   UNL     1     -40.802   3.314  77.846  1.00  0.00     0.094 A 
ATOM     10  C   UNL     1     -40.167   3.846  78.972  1.00  0.00     0.146 A 
ATOM     11  O   UNL     1     -38.921   4.285  78.849  1.00  0.00    -0.452 OA
ENDROOT
BRANCH   1  12
ATOM     12  C   UNL     1     -36.840   5.256  79.584  1.00  0.00     0.025 A 
ATOM     13  C   UNL     1     -35.746   4.458  79.964  1.00  0.00     0.016 A 
ATOM     14  C   UNL     1     -34.441   4.871  79.683  1.00  0.00     0.051 A 
ATOM     15  C   UNL     1     -34.210   6.077  79.010  1.00  0.00     0.157 A 
ATOM     16  C   UNL     1     -36.603   6.454  78.890  1.00  0.00     0.062 A 
ATOM     17  C   UNL     1     -35.294   6.868  78.609  1.00  0.00     0.158 A 
BRANCH  15  18
ATOM     18  O   UNL     1     -32.909   6.493  78.729  1.00  0.00    -0.504 OA
ATOM     19  H   UNL     1     -32.377   7.046  79.391  1.00  0.00     0.293 HD
ENDBRANCH  15  18
BRANCH  17  20
ATOM     20  O   UNL     1     -35.062   8.065  77.933  1.00  0.00    -0.504 OA
ATOM     21  H   UNL     1     -34.861   8.083  76.940  1.00  0.00     0.293 HD
ENDBRANCH  17  20
ENDBRANCH   1  12
BRANCH   2  22
ATOM     22  O   UNL     1     -38.165   5.658  82.129  1.00  0.00    -0.502 OA
ATOM     23  H   UNL     1     -37.199   5.951  82.043  1.00  0.00     0.293 HD
ENDBRANCH   2  22
BRANCH   6  24
ATOM     24  O   UNL     1     -42.893   3.290  81.495  1.00  0.00    -0.507 OA
ATOM     25  H   UNL     1     -43.439   4.038  81.895  1.00  0.00     0.293 HD
ENDBRANCH   6  24
BRANCH   8  26
ATOM     26  O   UNL     1     -42.761   2.340  76.806  1.00  0.00    -0.508 OA
ATOM     27  H   UNL     1     -43.205   1.428  76.819  1.00  0.00     0.293 HD
ENDBRANCH   8  26
TORSDOF 6
ENDMDL
MODEL 2
REMARK VINA RESULT:    -6.607     10.354     11.961
REMARK INTER + INTRA:          -8.277
REMARK INTER:                  -7.959
REMARK INTRA:                  -0.318
REMARK UNBOUND:                -0.318
REMARK SMILES O=c1c(O)c(-c2ccc(O)c(O)c2)oc2cc(O)cc(O)c12
REMARK SMILES IDX 5 1 3 2 2 3 1 4 22 5 20 6 19 7 17 8 16 9 15 10 14 11 6 12
REMARK SMILES IDX 7 13 8 14 9 15 13 16 11 17 10 18 12 20 4 22 21 24 18 26
REMARK H PARENT 10 19 12 21 4 23 21 25 18 27
REMARK Flexibility Score: inf
ROOT
ATOM      1  C   UNL     1     -46.900   1.904  73.817  1.00  0.00     0.180 A 
ATOM      2  C   UNL     1     -47.479   2.782  74.749  1.00  0.00     0.208 A 
ATOM      3  C   UNL     1     -47.683   4.122  74.386  1.00  0.00     0.238 A 
ATOM      4  O   UNL     1     -48.151   4.917  75.243  1.00  0.00    -0.285 OA
ATOM      5  C   UNL     1     -47.321   4.565  73.090  1.00  0.00     0.111 A 
ATOM      6  C   UNL     1     -47.519   5.891  72.602  1.00  0.00     0.134 A 
ATOM      7  C   UNL     1     -47.004   6.250  71.351  1.00  0.00     0.093 A 
ATOM      8  C   UNL     1     -46.356   5.316  70.544  1.00  0.00     0.123 A 
ATOM      9  C   UNL     1     -46.208   4.001  70.986  1.00  0.00     0.094 A 
ATOM     10  C   UNL     1     -46.680   3.622  72.246  1.00  0.00     0.146 A 
ATOM     11  O   UNL     1     -46.512   2.363  72.634  1.00  0.00    -0.452 OA
ENDROOT
BRANCH   1  12
ATOM     12  C   UNL     1     -46.676   0.470  74.118  1.00  0.00     0.025 A 
ATOM     13  C   UNL     1     -45.454   0.016  74.643  1.00  0.00     0.016 A 
ATOM     14  C   UNL     1     -45.275  -1.338  74.943  1.00  0.00     0.051 A 
ATOM     15  C   UNL     1     -46.316  -2.252  74.737  1.00  0.00     0.157 A 
ATOM     16  C   UNL     1     -47.725  -0.447  73.933  1.00  0.00     0.062 A 
ATOM     17  C   UNL     1     -47.544  -1.804  74.233  1.00  0.00     0.158 A 
BRANCH  15  18
ATOM     18  O   UNL     1     -46.140  -3.602  75.033  1.00  0.00    -0.504 OA
ATOM     19  H   UNL     1     -46.349  -4.324  74.353  1.00  0.00     0.293 HD
ENDBRANCH  15  18
BRANCH  17  20
ATOM     20  O   UNL     1     -48.581  -2.714  74.035  1.00  0.00    -0.504 OA
ATOM     21  H   UNL     1     -49.124  -3.077  74.810  1.00  0.00     0.293 HD
ENDBRANCH  17  20
ENDBRANCH   1  12
BRANCH   2  22
ATOM     22  O   UNL     1     -47.808   2.330  76.030  1.00  0.00    -0.502 OA
ATOM     23  H   UNL     1     -48.696   1.891  76.241  1.00  0.00     0.293 HD
ENDBRANCH   2  22
BRANCH   6  24
ATOM     24  O   UNL     1     -48.234   6.877  73.289  1.00  0.00    -0.507 OA
ATOM     25  H   UNL     1     -48.821   6.708  74.092  1.00  0.00     0.293 HD
ENDBRANCH   6  24
BRANCH   8  26
ATOM     26  O   UNL     1     -45.869   5.705  69.298  1.00  0.00    -0.508 OA
ATOM     27  H   UNL     1     -46.453   6.199  68.632  1.00  0.00     0.293 HD
ENDBRANCH   8  26
TORSDOF 6
ENDMDL
MODEL 3
REMARK VINA RESULT:    -6.490      1.606      7.149
REMARK INTER + INTRA:          -8.137
REMARK INTER:                  -8.031
REMARK INTRA:                  -0.106
REMARK UNBOUND:                -0.318
REMARK SMILES O=c1c(O)c(-c2ccc(O)c(O)c2)oc2cc(O)cc(O)c12
REMARK SMILES IDX 5 1 3 2 2 3 1 4 22 5 20 6 19 7 17 8 16 9 15 10 14 11 6 12
REMARK SMILES IDX 7 13 8 14 9 15 13 16 11 17 10 18 12 20 4 22 21 24 18 26
REMARK H PARENT 10 19 12 21 4 23 21 25 18 27
REMARK Flexibility Score: inf
ROOT
ATOM      1  C   UNL     1     -38.857   4.447  79.293  1.00  0.00     0.180 A 
ATOM      2  C   UNL     1     -38.429   5.383  78.336  1.00  0.00     0.208 A 
ATOM      3  C   UNL     1     -37.100   5.834  78.372  1.00  0.00     0.238 A 
ATOM      4  O   UNL     1     -36.736   6.712  77.547  1.00  0.00    -0.285 OA
ATOM      5  C   UNL     1     -36.212   5.332  79.355  1.00  0.00     0.111 A 
ATOM      6  C   UNL     1     -34.834   5.690  79.459  1.00  0.00     0.134 A 
ATOM      7  C   UNL     1     -34.084   5.231  80.549  1.00  0.00     0.093 A 
ATOM      8  C   UNL     1     -34.641   4.379  81.500  1.00  0.00     0.123 A 
ATOM      9  C   UNL     1     -35.971   3.975  81.376  1.00  0.00     0.094 A 
ATOM     10  C   UNL     1     -36.756   4.445  80.319  1.00  0.00     0.146 A 
ATOM     11  O   UNL     1     -38.019   4.045  80.241  1.00  0.00    -0.452 OA
ENDROOT
BRANCH   1  12
ATOM     12  C   UNL     1     -40.237   3.906  79.304  1.00  0.00     0.025 A 
ATOM     13  C   UNL     1     -40.775   3.256  78.180  1.00  0.00     0.016 A 
ATOM     14  C   UNL     1     -42.070   2.732  78.222  1.00  0.00     0.051 A 
ATOM     15  C   UNL     1     -42.839   2.838  79.388  1.00  0.00     0.157 A 
ATOM     16  C   UNL     1     -41.004   3.991  80.478  1.00  0.00     0.062 A 
ATOM     17  C   UNL     1     -42.302   3.466  80.519  1.00  0.00     0.158 A 
BRANCH  15  18
ATOM     18  O   UNL     1     -44.131   2.318  79.433  1.00  0.00    -0.504 OA
ATOM     19  H   UNL     1     -44.300   1.318  79.430  1.00  0.00     0.293 HD
ENDBRANCH  15  18
BRANCH  17  20
ATOM     20  O   UNL     1     -43.066   3.565  81.681  1.00  0.00    -0.504 OA
ATOM     21  H   UNL     1     -44.073   3.450  81.665  1.00  0.00     0.293 HD
ENDBRANCH  17  20
ENDBRANCH   1  12
BRANCH   2  22
ATOM     22  O   UNL     1     -39.327   5.882  77.389  1.00  0.00    -0.502 OA
ATOM     23  H   UNL     1     -39.041   6.150  76.455  1.00  0.00     0.293 HD
ENDBRANCH   2  22
BRANCH   6  24
ATOM     24  O   UNL     1     -34.154   6.462  78.513  1.00  0.00    -0.507 OA
ATOM     25  H   UNL     1     -33.168   6.387  78.310  1.00  0.00     0.293 HD
ENDBRANCH   6  24
BRANCH   8  26
ATOM     26  O   UNL     1     -33.860   3.931  82.563  1.00  0.00    -0.508 OA
ATOM     27  H   UNL     1     -33.005   3.408  82.409  1.00  0.00     0.293 HD
ENDBRANCH   8  26
TORSDOF 6
ENDMDL
MODEL 4
REMARK VINA RESULT:    -6.321      1.610      7.112
REMARK INTER + INTRA:          -7.932
REMARK INTER:                  -7.608
REMARK INTRA:                  -0.325
REMARK UNBOUND:                -0.318
REMARK SMILES O=c1c(O)c(-c2ccc(O)c(O)c2)oc2cc(O)cc(O)c12
REMARK SMILES IDX 5 1 3 2 2 3 1 4 22 5 20 6 19 7 17 8 16 9 15 10 14 11 6 12
REMARK SMILES IDX 7 13 8 14 9 15 13 16 11 17 10 18 12 20 4 22 21 24 18 26
REMARK H PARENT 10 19 12 21 4 23 21 25 18 27
REMARK Flexibility Score: inf
ROOT
ATOM      1  C   UNL     1     -38.928   5.446  78.566  1.00  0.00     0.180 A 
ATOM      2  C   UNL     1     -39.156   6.746  78.084  1.00  0.00     0.208 A 
ATOM      3  C   UNL     1     -38.059   7.600  77.886  1.00  0.00     0.238 A 
ATOM      4  O   UNL     1     -38.273   8.781  77.506  1.00  0.00    -0.285 OA
ATOM      5  C   UNL     1     -36.748   7.138  78.156  1.00  0.00     0.111 A 
ATOM      6  C   UNL     1     -35.561   7.904  77.953  1.00  0.00     0.134 A 
ATOM      7  C   UNL     1     -34.328   7.392  78.376  1.00  0.00     0.093 A 
ATOM      8  C   UNL     1     -34.231   6.119  78.935  1.00  0.00     0.123 A 
ATOM      9  C   UNL     1     -35.377   5.337  79.085  1.00  0.00     0.094 A 
ATOM     10  C   UNL     1     -36.627   5.835  78.704  1.00  0.00     0.146 A 
ATOM     11  O   UNL     1     -37.694   5.064  78.872  1.00  0.00    -0.452 OA
ENDROOT
BRANCH   1  12
ATOM     12  C   UNL     1     -40.032   4.480  78.778  1.00  0.00     0.025 A 
ATOM     13  C   UNL     1     -40.396   3.556  77.782  1.00  0.00     0.016 A 
ATOM     14  C   UNL     1     -41.423   2.638  78.015  1.00  0.00     0.051 A 
ATOM     15  C   UNL     1     -42.092   2.620  79.245  1.00  0.00     0.157 A 
ATOM     16  C   UNL     1     -40.691   4.444  80.018  1.00  0.00     0.062 A 
ATOM     17  C   UNL     1     -41.722   3.524  80.250  1.00  0.00     0.158 A 
BRANCH  15  18
ATOM     18  O   UNL     1     -43.119   1.707  79.479  1.00  0.00    -0.504 OA
ATOM     19  H   UNL     1     -44.091   1.995  79.488  1.00  0.00     0.293 HD
ENDBRANCH  15  18
BRANCH  17  20
ATOM     20  O   UNL     1     -42.384   3.500  81.476  1.00  0.00    -0.504 OA
ATOM     21  H   UNL     1     -42.952   2.709  81.758  1.00  0.00     0.293 HD
ENDBRANCH  17  20
ENDBRANCH   1  12
BRANCH   2  22
ATOM     22  O   UNL     1     -40.459   7.190  77.846  1.00  0.00    -0.502 OA
ATOM     23  H   UNL     1     -41.262   6.802  78.326  1.00  0.00     0.293 HD
ENDBRANCH   2  22
BRANCH   6  24
ATOM     24  O   UNL     1     -35.535   9.150  77.318  1.00  0.00    -0.507 OA
ATOM     25  H   UNL     1     -35.504   9.286  76.320  1.00  0.00     0.293 HD
ENDBRANCH   6  24
BRANCH   8  26
ATOM     26  O   UNL     1     -32.986   5.636  79.332  1.00  0.00    -0.508 OA
ATOM     27  H   UNL     1     -32.128   5.970  78.907  1.00  0.00     0.293 HD
ENDBRANCH   8  26
TORSDOF 6
ENDMDL
MODEL 5
REMARK VINA RESULT:    -6.283      1.435      6.832
REMARK INTER + INTRA:          -7.887
REMARK INTER:                  -7.941
REMARK INTRA:                   0.054
REMARK UNBOUND:                -0.318
REMARK SMILES O=c1c(O)c(-c2ccc(O)c(O)c2)oc2cc(O)cc(O)c12
REMARK SMILES IDX 5 1 3 2 2 3 1 4 22 5 20 6 19 7 17 8 16 9 15 10 14 11 6 12
REMARK SMILES IDX 7 13 8 14 9 15 13 16 11 17 10 18 12 20 4 22 21 24 18 26
REMARK H PARENT 10 19 12 21 4 23 21 25 18 27
REMARK Flexibility Score: inf
ROOT
ATOM      1  C   UNL     1     -38.501   4.168  79.648  1.00  0.00     0.180 A 
ATOM      2  C   UNL     1     -37.838   3.664  80.780  1.00  0.00     0.208 A 
ATOM      3  C   UNL     1     -36.531   4.096  81.052  1.00  0.00     0.238 A 
ATOM      4  O   UNL     1     -35.923   3.600  82.037  1.00  0.00    -0.285 OA
ATOM      5  C   UNL     1     -35.907   5.038  80.198  1.00  0.00     0.111 A 
ATOM      6  C   UNL     1     -34.601   5.575  80.401  1.00  0.00     0.134 A 
ATOM      7  C   UNL     1     -34.035   6.401  79.422  1.00  0.00     0.093 A 
ATOM      8  C   UNL     1     -34.751   6.762  78.282  1.00  0.00     0.123 A 
ATOM      9  C   UNL     1     -36.052   6.290  78.102  1.00  0.00     0.094 A 
ATOM     10  C   UNL     1     -36.630   5.435  79.044  1.00  0.00     0.146 A 
ATOM     11  O   UNL     1     -37.867   5.000  78.831  1.00  0.00    -0.452 OA
ENDROOT
BRANCH   1  12
ATOM     12  C   UNL     1     -39.890   3.779  79.309  1.00  0.00     0.025 A 
ATOM     13  C   UNL     1     -40.231   3.336  78.019  1.00  0.00     0.016 A 
ATOM     14  C   UNL     1     -41.543   2.950  77.730  1.00  0.00     0.051 A 
ATOM     15  C   UNL     1     -42.527   2.987  78.725  1.00  0.00     0.157 A 
ATOM     16  C   UNL     1     -40.876   3.794  80.310  1.00  0.00     0.062 A 
ATOM     17  C   UNL     1     -42.191   3.407  80.019  1.00  0.00     0.158 A 
BRANCH  15  18
ATOM     18  O   UNL     1     -43.836   2.604  78.440  1.00  0.00    -0.504 OA
ATOM     19  H   UNL     1     -44.264   1.805  78.894  1.00  0.00     0.293 HD
ENDBRANCH  15  18
BRANCH  17  20
ATOM     20  O   UNL     1     -43.170   3.437  81.010  1.00  0.00    -0.504 OA
ATOM     21  H   UNL     1     -43.220   4.191  81.686  1.00  0.00     0.293 HD
ENDBRANCH  17  20
ENDBRANCH   1  12
BRANCH   2  22
ATOM     22  O   UNL     1     -38.463   2.718  81.597  1.00  0.00    -0.502 OA
ATOM     23  H   UNL     1     -39.315   2.242  81.326  1.00  0.00     0.293 HD
ENDBRANCH   2  22
BRANCH   6  24
ATOM     24  O   UNL     1     -33.835   5.352  81.550  1.00  0.00    -0.507 OA
ATOM     25  H   UNL     1     -34.108   4.757  82.317  1.00  0.00     0.293 HD
ENDBRANCH   6  24
BRANCH   8  26
ATOM     26  O   UNL     1     -34.162   7.598  77.336  1.00  0.00    -0.508 OA
ATOM     27  H   UNL     1     -34.179   8.607  77.437  1.00  0.00     0.293 HD
ENDBRANCH   8  26
TORSDOF 6
ENDMDL
MODEL 6
REMARK VINA RESULT:    -6.260      1.585      6.976
REMARK INTER + INTRA:          -7.859
REMARK INTER:                  -7.540
REMARK INTRA:                  -0.319
REMARK UNBOUND:                -0.318
REMARK SMILES O=c1c(O)c(-c2ccc(O)c(O)c2)oc2cc(O)cc(O)c12
REMARK SMILES IDX 5 1 3 2 2 3 1 4 22 5 20 6 19 7 17 8 16 9 15 10 14 11 6 12
REMARK SMILES IDX 7 13 8 14 9 15 13 16 11 17 10 18 12 20 4 22 21 24 18 26
REMARK H PARENT 10 19 12 21 4 23 21 25 18 27
REMARK Flexibility Score: inf
ROOT
ATOM      1  C   UNL     1     -38.847   4.750  78.866  1.00  0.00     0.180 A 
ATOM      2  C   UNL     1     -37.673   4.063  79.225  1.00  0.00     0.208 A 
ATOM      3  C   UNL     1     -36.438   4.719  79.105  1.00  0.00     0.238 A 
ATOM      4  O   UNL     1     -35.387   4.082  79.375  1.00  0.00    -0.285 OA
ATOM      5  C   UNL     1     -36.392   6.057  78.643  1.00  0.00     0.111 A 
ATOM      6  C   UNL     1     -35.199   6.831  78.521  1.00  0.00     0.134 A 
ATOM      7  C   UNL     1     -35.257   8.099  77.930  1.00  0.00     0.093 A 
ATOM      8  C   UNL     1     -36.471   8.647  77.518  1.00  0.00     0.123 A 
ATOM      9  C   UNL     1     -37.652   7.923  77.687  1.00  0.00     0.094 A 
ATOM     10  C   UNL     1     -37.621   6.640  78.240  1.00  0.00     0.146 A 
ATOM     11  O   UNL     1     -38.765   5.980  78.375  1.00  0.00    -0.452 OA
ENDROOT
BRANCH   1  12
ATOM     12  C   UNL     1     -40.188   4.133  78.988  1.00  0.00     0.025 A 
ATOM     13  C   UNL     1     -40.781   3.452  77.910  1.00  0.00     0.016 A 
ATOM     14  C   UNL     1     -42.037   2.857  78.057  1.00  0.00     0.051 A 
ATOM     15  C   UNL     1     -42.711   2.921  79.282  1.00  0.00     0.157 A 
ATOM     16  C   UNL     1     -40.860   4.176  80.221  1.00  0.00     0.062 A 
ATOM     17  C   UNL     1     -42.119   3.580  80.368  1.00  0.00     0.158 A 
BRANCH  15  18
ATOM     18  O   UNL     1     -43.965   2.330  79.432  1.00  0.00    -0.504 OA
ATOM     19  H   UNL     1     -44.258   1.929  80.315  1.00  0.00     0.293 HD
ENDBRANCH  15  18
BRANCH  17  20
ATOM     20  O   UNL     1     -42.789   3.637  81.588  1.00  0.00    -0.504 OA
ATOM     21  H   UNL     1     -42.473   4.239  82.340  1.00  0.00     0.293 HD
ENDBRANCH  17  20
ENDBRANCH   1  12
BRANCH   2  22
ATOM     22  O   UNL     1     -37.739   2.736  79.656  1.00  0.00    -0.502 OA
ATOM     23  H   UNL     1     -36.987   2.076  79.502  1.00  0.00     0.293 HD
ENDBRANCH   2  22
BRANCH   6  24
ATOM     24  O   UNL     1     -33.947   6.415  78.985  1.00  0.00    -0.507 OA
ATOM     25  H   UNL     1     -33.196   6.086  78.398  1.00  0.00     0.293 HD
ENDBRANCH   6  24
BRANCH   8  26
ATOM     26  O   UNL     1     -36.493   9.918  76.948  1.00  0.00    -0.508 OA
ATOM     27  H   UNL     1     -35.637  10.422  76.744  1.00  0.00     0.293 HD
ENDBRANCH   8  26
TORSDOF 6
ENDMDL
MODEL 7
REMARK VINA RESULT:    -6.241      9.339     11.215
REMARK INTER + INTRA:          -7.837
REMARK INTER:                  -7.523
REMARK INTRA:                  -0.314
REMARK UNBOUND:                -0.318
REMARK SMILES O=c1c(O)c(-c2ccc(O)c(O)c2)oc2cc(O)cc(O)c12
REMARK SMILES IDX 5 1 3 2 2 3 1 4 22 5 20 6 19 7 17 8 16 9 15 10 14 11 6 12
REMARK SMILES IDX 7 13 8 14 9 15 13 16 11 17 10 18 12 20 4 22 21 24 18 26
REMARK H PARENT 10 19 12 21 4 23 21 25 18 27
REMARK Flexibility Score: inf
ROOT
ATOM      1  C   UNL     1     -46.406   1.901  73.657  1.00  0.00     0.180 A 
ATOM      2  C   UNL     1     -45.177   1.613  74.275  1.00  0.00     0.208 A 
ATOM      3  C   UNL     1     -44.932   0.306  74.727  1.00  0.00     0.238 A 
ATOM      4  O   UNL     1     -43.852   0.067  75.328  1.00  0.00    -0.285 OA
ATOM      5  C   UNL     1     -45.912  -0.699  74.541  1.00  0.00     0.111 A 
ATOM      6  C   UNL     1     -45.754  -2.065  74.924  1.00  0.00     0.134 A 
ATOM      7  C   UNL     1     -46.838  -2.943  74.810  1.00  0.00     0.093 A 
ATOM      8  C   UNL     1     -48.052  -2.523  74.269  1.00  0.00     0.123 A 
ATOM      9  C   UNL     1     -48.199  -1.204  73.837  1.00  0.00     0.094 A 
ATOM     10  C   UNL     1     -47.146  -0.295  73.971  1.00  0.00     0.146 A 
ATOM     11  O   UNL     1     -47.330   0.953  73.556  1.00  0.00    -0.452 OA
ENDROOT
BRANCH   1  12
ATOM     12  C   UNL     1     -46.727   3.249  73.133  1.00  0.00     0.025 A 
ATOM     13  C   UNL     1     -47.426   4.188  73.911  1.00  0.00     0.016 A 
ATOM     14  C   UNL     1     -47.696   5.463  73.404  1.00  0.00     0.051 A 
ATOM     15  C   UNL     1     -47.261   5.821  72.122  1.00  0.00     0.157 A 
ATOM     16  C   UNL     1     -46.275   3.620  71.856  1.00  0.00     0.062 A 
ATOM     17  C   UNL     1     -46.546   4.898  71.348  1.00  0.00     0.158 A 
BRANCH  15  18
ATOM     18  O   UNL     1     -47.529   7.090  71.613  1.00  0.00    -0.504 OA
ATOM     19  H   UNL     1     -47.724   7.875  72.223  1.00  0.00     0.293 HD
ENDBRANCH  15  18
BRANCH  17  20
ATOM     20  O   UNL     1     -46.108   5.258  70.074  1.00  0.00    -0.504 OA
ATOM     21  H   UNL     1     -46.761   5.459  69.325  1.00  0.00     0.293 HD
ENDBRANCH  17  20
ENDBRANCH   1  12
BRANCH   2  22
ATOM     22  O   UNL     1     -44.233   2.625  74.469  1.00  0.00    -0.502 OA
ATOM     23  H   UNL     1     -44.490   3.602  74.540  1.00  0.00     0.293 HD
ENDBRANCH   2  22
BRANCH   6  24
ATOM     24  O   UNL     1     -44.554  -2.611  75.391  1.00  0.00    -0.507 OA
ATOM     25  H   UNL     1     -43.643  -2.200  75.254  1.00  0.00     0.293 HD
ENDBRANCH   6  24
BRANCH   8  26
ATOM     26  O   UNL     1     -49.105  -3.428  74.158  1.00  0.00    -0.508 OA
ATOM     27  H   UNL     1     -49.333  -3.869  73.273  1.00  0.00     0.293 HD
ENDBRANCH   8  26
TORSDOF 6
ENDMDL
MODEL 8
REMARK VINA RESULT:    -6.193     10.434     11.730
REMARK INTER + INTRA:          -7.778
REMARK INTER:                  -7.553
REMARK INTRA:                  -0.224
REMARK UNBOUND:                -0.318
REMARK SMILES O=c1c(O)c(-c2ccc(O)c(O)c2)oc2cc(O)cc(O)c12
REMARK SMILES IDX 5 1 3 2 2 3 1 4 22 5 20 6 19 7 17 8 16 9 15 10 14 11 6 12
REMARK SMILES IDX 7 13 8 14 9 15 13 16 11 17 10 18 12 20 4 22 21 24 18 26
REMARK H PARENT 10 19 12 21 4 23 21 25 18 27
REMARK Flexibility Score: inf
ROOT
ATOM      1  C   UNL     1     -46.630  -0.268  74.252  1.00  0.00     0.180 A 
ATOM      2  C   UNL     1     -47.797  -1.044  74.139  1.00  0.00     0.208 A 
ATOM      3  C   UNL     1     -47.736  -2.413  74.440  1.00  0.00     0.238 A 
ATOM      4  O   UNL     1     -48.770  -3.114  74.284  1.00  0.00    -0.285 OA
ATOM      5  C   UNL     1     -46.513  -2.988  74.864  1.00  0.00     0.111 A 
ATOM      6  C   UNL     1     -46.346  -4.357  75.233  1.00  0.00     0.134 A 
ATOM      7  C   UNL     1     -45.063  -4.844  75.512  1.00  0.00     0.093 A 
ATOM      8  C   UNL     1     -43.953  -4.000  75.499  1.00  0.00     0.123 A 
ATOM      9  C   UNL     1     -44.114  -2.648  75.198  1.00  0.00     0.094 A 
ATOM     10  C   UNL     1     -45.376  -2.139  74.880  1.00  0.00     0.146 A 
ATOM     11  O   UNL     1     -45.485  -0.849  74.589  1.00  0.00    -0.452 OA
ENDROOT
BRANCH   1  12
ATOM     12  C   UNL     1     -46.622   1.187  73.976  1.00  0.00     0.025 A 
ATOM     13  C   UNL     1     -46.021   1.708  72.817  1.00  0.00     0.016 A 
ATOM     14  C   UNL     1     -46.048   3.083  72.565  1.00  0.00     0.051 A 
ATOM     15  C   UNL     1     -46.685   3.953  73.458  1.00  0.00     0.157 A 
ATOM     16  C   UNL     1     -47.279   2.062  74.858  1.00  0.00     0.062 A 
ATOM     17  C   UNL     1     -47.304   3.440  74.606  1.00  0.00     0.158 A 
BRANCH  15  18
ATOM     18  O   UNL     1     -46.713   5.325  73.212  1.00  0.00    -0.504 OA
ATOM     19  H   UNL     1     -46.638   5.695  72.271  1.00  0.00     0.293 HD
ENDBRANCH  15  18
BRANCH  17  20
ATOM     20  O   UNL     1     -47.944   4.307  75.490  1.00  0.00    -0.504 OA
ATOM     21  H   UNL     1     -48.405   5.151  75.167  1.00  0.00     0.293 HD
ENDBRANCH  17  20
ENDBRANCH   1  12
BRANCH   2  22
ATOM     22  O   UNL     1     -48.988  -0.462  73.697  1.00  0.00    -0.502 OA
ATOM     23  H   UNL     1     -49.530   0.172  74.271  1.00  0.00     0.293 HD
ENDBRANCH   2  22
BRANCH   6  24
ATOM     24  O   UNL     1     -47.401  -5.264  75.366  1.00  0.00    -0.507 OA
ATOM     25  H   UNL     1     -47.346  -6.247  75.146  1.00  0.00     0.293 HD
ENDBRANCH   6  24
BRANCH   8  26
ATOM     26  O   UNL     1     -42.694  -4.517  75.797  1.00  0.00    -0.508 OA
ATOM     27  H   UNL     1     -42.473  -4.875  76.720  1.00  0.00     0.293 HD
ENDBRANCH   8  26
TORSDOF 6
ENDMDL
MODEL 9
REMARK VINA RESULT:    -6.157      9.275     11.705
REMARK INTER + INTRA:          -7.734
REMARK INTER:                  -7.606
REMARK INTRA:                  -0.129
REMARK UNBOUND:                -0.318
REMARK SMILES O=c1c(O)c(-c2ccc(O)c(O)c2)oc2cc(O)cc(O)c12
REMARK SMILES IDX 5 1 3 2 2 3 1 4 22 5 20 6 19 7 17 8 16 9 15 10 14 11 6 12
REMARK SMILES IDX 7 13 8 14 9 15 13 16 11 17 10 18 12 20 4 22 21 24 18 26
REMARK H PARENT 10 19 12 21 4 23 21 25 18 27
REMARK Flexibility Score: inf
ROOT
ATOM      1  C   UNL     1     -46.872   4.469  72.170  1.00  0.00     0.180 A 
ATOM      2  C   UNL     1     -48.000   3.726  71.780  1.00  0.00     0.208 A 
ATOM      3  C   UNL     1     -48.129   2.402  72.228  1.00  0.00     0.238 A 
ATOM      4  O   UNL     1     -49.113   1.723  71.833  1.00  0.00    -0.285 OA
ATOM      5  C   UNL     1     -47.139   1.843  73.073  1.00  0.00     0.111 A 
ATOM      6  C   UNL     1     -47.189   0.525  73.618  1.00  0.00     0.134 A 
ATOM      7  C   UNL     1     -46.092   0.033  74.334  1.00  0.00     0.093 A 
ATOM      8  C   UNL     1     -44.975   0.830  74.580  1.00  0.00     0.123 A 
ATOM      9  C   UNL     1     -44.940   2.140  74.102  1.00  0.00     0.094 A 
ATOM     10  C   UNL     1     -46.005   2.648  73.353  1.00  0.00     0.146 A 
ATOM     11  O   UNL     1     -45.929   3.897  72.908  1.00  0.00    -0.452 OA
ENDROOT
BRANCH   1  12
ATOM     12  C   UNL     1     -46.677   5.879  71.757  1.00  0.00     0.025 A 
ATOM     13  C   UNL     1     -46.595   6.914  72.706  1.00  0.00     0.016 A 
ATOM     14  C   UNL     1     -46.386   8.233  72.294  1.00  0.00     0.051 A 
ATOM     15  C   UNL     1     -46.244   8.535  70.934  1.00  0.00     0.157 A 
ATOM     16  C   UNL     1     -46.512   6.185  70.396  1.00  0.00     0.062 A 
ATOM     17  C   UNL     1     -46.304   7.508  69.984  1.00  0.00     0.158 A 
BRANCH  15  18
ATOM     18  O   UNL     1     -46.037   9.850  70.520  1.00  0.00    -0.504 OA
ATOM     19  H   UNL     1     -46.764  10.551  70.601  1.00  0.00     0.293 HD
ENDBRANCH  15  18
BRANCH  17  20
ATOM     20  O   UNL     1     -46.155   7.810  68.631  1.00  0.00    -0.504 OA
ATOM     21  H   UNL     1     -46.218   8.763  68.290  1.00  0.00     0.293 HD
ENDBRANCH  17  20
ENDBRANCH   1  12
BRANCH   2  22
ATOM     22  O   UNL     1     -48.954   4.289  70.928  1.00  0.00    -0.502 OA
ATOM     23  H   UNL     1     -49.934   4.350  71.174  1.00  0.00     0.293 HD
ENDBRANCH   2  22
BRANCH   6  24
ATOM     24  O   UNL     1     -48.296  -0.323  73.510  1.00  0.00    -0.507 OA
ATOM     25  H   UNL     1     -48.732  -0.801  74.283  1.00  0.00     0.293 HD
ENDBRANCH   6  24
BRANCH   8  26
ATOM     26  O   UNL     1     -43.908   0.312  75.309  1.00  0.00    -0.508 OA
ATOM     27  H   UNL     1     -42.957   0.630  75.157  1.00  0.00     0.293 HD
ENDBRANCH   8  26
TORSDOF 6
ENDMDL
