MODEL 1
REMARK VINA RESULT:     0.697      0.000      0.000
REMARK INTER + INTRA:          22.246
REMARK INTER:                   1.146
REMARK INTRA:                  21.100
REMARK UNBOUND:                21.100
REMARK SMILES C[C@@H]1O[C@H](OC[C@H]2O[C@@H](Oc3c(-c4ccc(O)c(O)c4)oc4cc(O)cc(O)c4c3=O)[C@@H](O)[C@H](O)[C@H]2O)[C@@H](O)[C@@H](O)[C@H]1O
REMARK SMILES IDX 7 1 36 2 34 3 32 4 9 5 8 6 6 7 5 8 4 9 1 10 2 11 42 12 3 13
REMARK SMILES IDX 40 14 38 15 43 16 41 18 39 20 37 22 35 24 10 26 11 27 12 28
REMARK SMILES IDX 30 29 21 30 29 31 31 32 22 33 27 34 23 35 26 36 24 37 13 38
REMARK SMILES IDX 20 39 14 40 18 41 15 42 16 43 19 44 17 46 28 48 25 50 33 52
REMARK H PARENT 43 17 41 19 39 21 37 23 35 25 19 45 17 47 28 49 25 51 33 53
REMARK Flexibility Score: inf
ROOT
ATOM      1  C   UNL     1     -46.450  93.628  25.861  1.00  0.00     0.180 C 
ATOM      2  C   UNL     1     -45.036  93.504  25.227  1.00  0.00     0.177 C 
ATOM      3  C   UNL     1     -45.068  93.796  23.730  1.00  0.00     0.180 C 
ATOM      4  C   UNL     1     -46.107  92.879  23.077  1.00  0.00     0.214 C 
ATOM      5  C   UNL     1     -47.474  93.093  23.753  1.00  0.00     0.339 C 
ATOM      6  O   UNL     1     -47.438  92.875  25.162  1.00  0.00    -0.332 OA
ENDROOT
BRANCH   1   7
ATOM      7  C   UNL     1     -46.923  95.078  26.169  1.00  0.00     0.198 C 
BRANCH   7   8
ATOM      8  O   UNL     1     -46.643  95.413  27.518  1.00  0.00    -0.347 OA
BRANCH   8   9
ATOM      9  C   UNL     1     -45.331  95.035  27.887  1.00  0.00     0.281 C 
ATOM     10  C   UNL     1     -42.558  97.178  28.983  1.00  0.00     0.041 C 
ATOM     11  C   UNL     1     -43.285  95.875  28.643  1.00  0.00     0.150 C 
ATOM     12  C   UNL     1     -43.222  94.889  29.835  1.00  0.00     0.174 C 
ATOM     13  O   UNL     1     -44.633  96.188  28.324  1.00  0.00    -0.344 OA
ATOM     14  C   UNL     1     -44.020  93.612  29.504  1.00  0.00     0.179 C 
ATOM     15  C   UNL     1     -45.429  94.009  29.029  1.00  0.00     0.202 C 
BRANCH  12  16
ATOM     16  O   UNL     1     -41.887  94.569  30.124  1.00  0.00    -0.388 OA
ATOM     17  H   UNL     1     -41.533  95.302  30.694  1.00  0.00     0.211 HD
ENDBRANCH  12  16
BRANCH  14  18
ATOM     18  O   UNL     1     -43.370  92.876  28.498  1.00  0.00    -0.387 OA
ATOM     19  H   UNL     1     -43.843  93.069  27.647  1.00  0.00     0.211 HD
ENDBRANCH  14  18
BRANCH  15  20
ATOM     20  O   UNL     1     -46.130  92.875  28.584  1.00  0.00    -0.385 OA
ATOM     21  H   UNL     1     -45.540  92.408  27.936  1.00  0.00     0.211 HD
ENDBRANCH  15  20
ENDBRANCH   8   9
ENDBRANCH   7   8
ENDBRANCH   1   7
BRANCH   2  22
ATOM     22  O   UNL     1     -44.123  94.370  25.852  1.00  0.00    -0.387 OA
ATOM     23  H   UNL     1     -44.077  95.196  25.304  1.00  0.00     0.211 HD
ENDBRANCH   2  22
BRANCH   3  24
ATOM     24  O   UNL     1     -43.799  93.549  23.185  1.00  0.00    -0.387 OA
ATOM     25  H   UNL     1     -43.940  93.074  22.323  1.00  0.00     0.211 HD
ENDBRANCH   3  24
BRANCH   5  26
ATOM     26  O   UNL     1     -47.964  94.395  23.433  1.00  0.00    -0.454 OA
BRANCH  26  27
ATOM     27  C   UNL     1     -47.170  95.549  23.341  1.00  0.00     0.214 A 
ATOM     28  C   UNL     1     -46.752  95.988  22.071  1.00  0.00     0.180 A 
ATOM     29  C   UNL     1     -46.790  96.292  24.472  1.00  0.00     0.239 A 
ATOM     30  O   UNL     1     -46.060  97.116  21.951  1.00  0.00    -0.452 OA
ATOM     31  C   UNL     1     -46.044  97.478  24.306  1.00  0.00     0.111 A 
ATOM     32  O   UNL     1     -47.100  95.882  25.624  1.00  0.00    -0.285 OA
ATOM     33  C   UNL     1     -45.700  97.863  22.990  1.00  0.00     0.146 A 
ATOM     34  C   UNL     1     -45.631  98.291  25.392  1.00  0.00     0.134 A 
ATOM     35  C   UNL     1     -44.974  99.035  22.765  1.00  0.00     0.094 A 
ATOM     36  C   UNL     1     -44.896  99.461  25.144  1.00  0.00     0.093 A 
ATOM     37  C   UNL     1     -44.572  99.835  23.837  1.00  0.00     0.123 A 
BRANCH  28  38
ATOM     38  C   UNL     1     -47.109  95.248  20.839  1.00  0.00     0.025 A 
ATOM     39  C   UNL     1     -46.801  95.756  19.564  1.00  0.00     0.062 A 
ATOM     40  C   UNL     1     -47.791  94.026  20.944  1.00  0.00     0.016 A 
ATOM     41  C   UNL     1     -47.131  95.033  18.412  1.00  0.00     0.158 A 
ATOM     42  C   UNL     1     -48.125  93.305  19.795  1.00  0.00     0.051 A 
ATOM     43  C   UNL     1     -47.795  93.799  18.527  1.00  0.00     0.157 A 
BRANCH  41  44
ATOM     44  O   UNL     1     -46.794  95.556  17.165  1.00  0.00    -0.504 OA
ATOM     45  H   UNL     1     -46.755  96.554  16.991  1.00  0.00     0.293 HD
ENDBRANCH  41  44
BRANCH  43  46
ATOM     46  O   UNL     1     -48.124  93.073  17.384  1.00  0.00    -0.504 OA
ATOM     47  H   UNL     1     -47.929  93.432  16.455  1.00  0.00     0.293 HD
ENDBRANCH  43  46
ENDBRANCH  28  38
BRANCH  34  48
ATOM     48  O   UNL     1     -45.946  97.944  26.707  1.00  0.00    -0.507 OA
ATOM     49  H   UNL     1     -46.620  98.469  27.252  1.00  0.00     0.293 HD
ENDBRANCH  34  48
BRANCH  37  50
ATOM     50  O   UNL     1     -43.847 101.004  23.615  1.00  0.00    -0.508 OA
ATOM     51  H   UNL     1     -43.647 101.335  22.680  1.00  0.00     0.293 HD
ENDBRANCH  37  50
ENDBRANCH  26  27
ENDBRANCH   5  26
BRANCH   4  52
ATOM     52  O   UNL     1     -46.191  93.175  21.705  1.00  0.00    -0.384 OA
ATOM     53  H   UNL     1     -45.317  92.923  21.303  1.00  0.00     0.211 HD
ENDBRANCH   4  52
TORSDOF 16
ENDMDL
MODEL 2
REMARK VINA RESULT:     2.702      1.370      5.152
REMARK INTER + INTRA:          25.540
REMARK INTER:                   8.426
REMARK INTRA:                  17.114
REMARK UNBOUND:                21.100
REMARK SMILES C[C@@H]1O[C@H](OC[C@H]2O[C@@H](Oc3c(-c4ccc(O)c(O)c4)oc4cc(O)cc(O)c4c3=O)[C@@H](O)[C@H](O)[C@H]2O)[C@@H](O)[C@@H](O)[C@H]1O
REMARK SMILES IDX 7 1 36 2 34 3 32 4 9 5 8 6 6 7 5 8 4 9 1 10 2 11 42 12 3 13
REMARK SMILES IDX 40 14 38 15 43 16 41 18 39 20 37 22 35 24 10 26 11 27 12 28
REMARK SMILES IDX 30 29 21 30 29 31 31 32 22 33 27 34 23 35 26 36 24 37 13 38
REMARK SMILES IDX 20 39 14 40 18 41 15 42 16 43 19 44 17 46 28 48 25 50 33 52
REMARK H PARENT 43 17 41 19 39 21 37 23 35 25 19 45 17 47 28 49 25 51 33 53
REMARK Flexibility Score: inf
ROOT
ATOM      1  C   UNL     1     -44.887  94.882  25.905  1.00  0.00     0.180 C 
ATOM      2  C   UNL     1     -44.111  94.046  24.850  1.00  0.00     0.177 C 
ATOM      3  C   UNL     1     -44.939  93.834  23.586  1.00  0.00     0.180 C 
ATOM      4  C   UNL     1     -46.282  93.213  23.982  1.00  0.00     0.214 C 
ATOM      5  C   UNL     1     -46.984  94.124  25.006  1.00  0.00     0.339 C 
ATOM      6  O   UNL     1     -46.191  94.371  26.166  1.00  0.00    -0.332 OA
ENDROOT
BRANCH   1   7
ATOM      7  C   UNL     1     -44.894  96.421  25.669  1.00  0.00     0.198 C 
BRANCH   7   8
ATOM      8  O   UNL     1     -44.074  97.071  26.626  1.00  0.00    -0.347 OA
BRANCH   8   9
ATOM      9  C   UNL     1     -43.841  96.251  27.756  1.00  0.00     0.281 C 
ATOM     10  C   UNL     1     -46.110  93.829  29.328  1.00  0.00     0.041 C 
ATOM     11  C   UNL     1     -44.814  94.614  29.111  1.00  0.00     0.150 C 
ATOM     12  C   UNL     1     -43.613  93.648  28.956  1.00  0.00     0.174 C 
ATOM     13  O   UNL     1     -44.967  95.412  27.947  1.00  0.00    -0.344 OA
ATOM     14  C   UNL     1     -42.328  94.451  28.664  1.00  0.00     0.179 C 
ATOM     15  C   UNL     1     -42.587  95.403  27.484  1.00  0.00     0.202 C 
BRANCH  12  16
ATOM     16  O   UNL     1     -43.456  92.884  30.121  1.00  0.00    -0.388 OA
ATOM     17  H   UNL     1     -42.536  92.510  30.098  1.00  0.00     0.211 HD
ENDBRANCH  12  16
BRANCH  14  18
ATOM     18  O   UNL     1     -41.946  95.191  29.797  1.00  0.00    -0.387 OA
ATOM     19  H   UNL     1     -41.288  95.869  29.491  1.00  0.00     0.211 HD
ENDBRANCH  14  18
BRANCH  15  20
ATOM     20  O   UNL     1     -41.481  96.248  27.288  1.00  0.00    -0.385 OA
ATOM     21  H   UNL     1     -41.443  96.452  26.317  1.00  0.00     0.211 HD
ENDBRANCH  15  20
ENDBRANCH   8   9
ENDBRANCH   7   8
ENDBRANCH   1   7
BRANCH   2  22
ATOM     22  O   UNL     1     -42.893  94.661  24.513  1.00  0.00    -0.387 OA
ATOM     23  H   UNL     1     -42.238  93.937  24.330  1.00  0.00     0.211 HD
ENDBRANCH   2  22
BRANCH   3  24
ATOM     24  O   UNL     1     -44.247  92.972  22.721  1.00  0.00    -0.387 OA
ATOM     25  H   UNL     1     -44.707  93.014  21.840  1.00  0.00     0.211 HD
ENDBRANCH   3  24
BRANCH   5  26
ATOM     26  O   UNL     1     -47.379  95.338  24.370  1.00  0.00    -0.454 OA
BRANCH  26  27
ATOM     27  C   UNL     1     -47.139  95.651  23.022  1.00  0.00     0.214 A 
ATOM     28  C   UNL     1     -46.518  96.874  22.707  1.00  0.00     0.180 A 
ATOM     29  C   UNL     1     -47.483  94.779  21.975  1.00  0.00     0.239 A 
ATOM     30  O   UNL     1     -46.217  97.162  21.445  1.00  0.00    -0.452 OA
ATOM     31  C   UNL     1     -47.158  95.124  20.647  1.00  0.00     0.111 A 
ATOM     32  O   UNL     1     -48.097  93.707  22.230  1.00  0.00    -0.285 OA
ATOM     33  C   UNL     1     -46.501  96.357  20.428  1.00  0.00     0.146 A 
ATOM     34  C   UNL     1     -47.459  94.296  19.536  1.00  0.00     0.134 A 
ATOM     35  C   UNL     1     -46.144  96.744  19.134  1.00  0.00     0.094 A 
ATOM     36  C   UNL     1     -47.097  94.709  18.244  1.00  0.00     0.093 A 
ATOM     37  C   UNL     1     -46.439  95.924  18.042  1.00  0.00     0.123 A 
BRANCH  28  38
ATOM     38  C   UNL     1     -46.138  97.843  23.760  1.00  0.00     0.025 A 
ATOM     39  C   UNL     1     -46.623  97.724  25.075  1.00  0.00     0.062 A 
ATOM     40  C   UNL     1     -45.296  98.918  23.435  1.00  0.00     0.016 A 
ATOM     41  C   UNL     1     -46.240  98.640  26.060  1.00  0.00     0.158 A 
ATOM     42  C   UNL     1     -44.915  99.836  24.416  1.00  0.00     0.051 A 
ATOM     43  C   UNL     1     -45.378  99.701  25.732  1.00  0.00     0.157 A 
BRANCH  41  44
ATOM     44  O   UNL     1     -46.723  98.481  27.358  1.00  0.00    -0.504 OA
ATOM     45  H   UNL     1     -46.400  99.056  28.128  1.00  0.00     0.293 HD
ENDBRANCH  41  44
BRANCH  43  46
ATOM     46  O   UNL     1     -44.989 100.616  26.709  1.00  0.00    -0.504 OA
ATOM     47  H   UNL     1     -45.005 100.374  27.695  1.00  0.00     0.293 HD
ENDBRANCH  43  46
ENDBRANCH  28  38
BRANCH  34  48
ATOM     48  O   UNL     1     -48.112  93.074  19.709  1.00  0.00    -0.507 OA
ATOM     49  H   UNL     1     -49.123  93.002  19.700  1.00  0.00     0.293 HD
ENDBRANCH  34  48
BRANCH  37  50
ATOM     50  O   UNL     1     -46.083  96.309  16.751  1.00  0.00    -0.508 OA
ATOM     51  H   UNL     1     -46.532  95.912  15.936  1.00  0.00     0.293 HD
ENDBRANCH  37  50
ENDBRANCH  26  27
ENDBRANCH   5  26
BRANCH   4  52
ATOM     52  O   UNL     1     -47.081  93.064  22.835  1.00  0.00    -0.384 OA
ATOM     53  H   UNL     1     -46.479  92.769  22.101  1.00  0.00     0.211 HD
ENDBRANCH   4  52
TORSDOF 16
ENDMDL
