MODEL 1
REMARK VINA RESULT:    -3.168      0.000      0.000
REMARK INTER + INTRA:          -7.153
REMARK INTER:                  -5.483
REMARK INTRA:                  -1.671
REMARK UNBOUND:                -1.671
REMARK SMILES CCCCCCCCCCCCCCO
REMARK SMILES IDX 8 1 7 2 6 3 5 4 4 5 3 6 2 7 1 8 9 9 10 10 11 11 12 12 13 13
REMARK SMILES IDX 14 14 15 15
REMARK H PARENT 15 16
REMARK Flexibility Score: inf
ROOT
ATOM      1  C   UNL     1       7.759 -40.700  45.871  1.00  0.00     0.000 C 
ENDROOT
BRANCH   1   2
ATOM      2  C   UNL     1       9.128 -40.845  45.194  1.00  0.00    -0.000 C 
BRANCH   2   3
ATOM      3  C   UNL     1       9.967 -39.571  45.371  1.00  0.00    -0.000 C 
BRANCH   3   4
ATOM      4  C   UNL     1      10.945 -39.656  46.557  1.00  0.00    -0.000 C 
BRANCH   4   5
ATOM      5  C   UNL     1      10.864 -38.483  47.552  1.00  0.00    -0.000 C 
BRANCH   5   6
ATOM      6  C   UNL     1      10.440 -37.164  46.890  1.00  0.00    -0.000 C 
BRANCH   6   7
ATOM      7  C   UNL     1       9.495 -36.373  47.802  1.00  0.00    -0.003 C 
ATOM      8  C   UNL     1      10.127 -35.053  48.239  1.00  0.00     0.004 C 
ENDBRANCH   6   7
ENDBRANCH   5   6
ENDBRANCH   4   5
ENDBRANCH   3   4
ENDBRANCH   2   3
ENDBRANCH   1   2
BRANCH   1   9
ATOM      9  C   UNL     1       7.356 -39.222  45.987  1.00  0.00     0.000 C 
BRANCH   9  10
ATOM     10  C   UNL     1       6.764 -38.873  47.362  1.00  0.00     0.000 C 
BRANCH  10  11
ATOM     11  C   UNL     1       7.500 -39.575  48.517  1.00  0.00     0.000 C 
BRANCH  11  12
ATOM     12  C   UNL     1       7.606 -38.692  49.772  1.00  0.00     0.002 C 
BRANCH  12  13
ATOM     13  C   UNL     1       6.910 -39.313  50.994  1.00  0.00     0.028 C 
BRANCH  13  14
ATOM     14  C   UNL     1       5.391 -39.356  50.817  1.00  0.00     0.156 C 
BRANCH  14  15
ATOM     15  O   UNL     1       4.860 -38.062  50.879  1.00  0.00    -0.396 OA
ATOM     16  H   UNL     1       4.028 -38.131  51.415  1.00  0.00     0.210 HD
ENDBRANCH  14  15
ENDBRANCH  13  14
ENDBRANCH  12  13
ENDBRANCH  11  12
ENDBRANCH  10  11
ENDBRANCH   9  10
ENDBRANCH   1   9
TORSDOF 13
ENDMDL
MODEL 2
REMARK VINA RESULT:    -3.146     13.915     16.061
REMARK INTER + INTRA:          -7.115
REMARK INTER:                  -5.072
REMARK INTRA:                  -2.043
REMARK UNBOUND:                -1.671
REMARK SMILES CCCCCCCCCCCCCCO
REMARK SMILES IDX 8 1 7 2 6 3 5 4 4 5 3 6 2 7 1 8 9 9 10 10 11 11 12 12 13 13
REMARK SMILES IDX 14 14 15 15
REMARK H PARENT 15 16
REMARK Flexibility Score: inf
ROOT
ATOM      1  C   UNL     1      16.552 -31.635  62.458  1.00  0.00     0.000 C 
ENDROOT
BRANCH   1   2
ATOM      2  C   UNL     1      17.832 -31.805  61.630  1.00  0.00    -0.000 C 
BRANCH   2   3
ATOM      3  C   UNL     1      18.391 -33.229  61.765  1.00  0.00    -0.000 C 
BRANCH   3   4
ATOM      4  C   UNL     1      18.184 -34.078  60.498  1.00  0.00    -0.000 C 
BRANCH   4   5
ATOM      5  C   UNL     1      17.023 -35.087  60.573  1.00  0.00    -0.000 C 
BRANCH   5   6
ATOM      6  C   UNL     1      16.264 -35.228  59.245  1.00  0.00    -0.000 C 
BRANCH   6   7
ATOM      7  C   UNL     1      15.939 -33.853  58.651  1.00  0.00    -0.003 C 
ATOM      8  C   UNL     1      14.532 -33.825  58.059  1.00  0.00     0.004 C 
ENDBRANCH   6   7
ENDBRANCH   5   6
ENDBRANCH   4   5
ENDBRANCH   3   4
ENDBRANCH   2   3
ENDBRANCH   1   2
BRANCH   1   9
ATOM      9  C   UNL     1      15.332 -31.428  61.548  1.00  0.00     0.000 C 
BRANCH   9  10
ATOM     10  C   UNL     1      14.155 -32.347  61.915  1.00  0.00     0.000 C 
BRANCH  10  11
ATOM     11  C   UNL     1      14.552 -33.444  62.918  1.00  0.00     0.000 C 
BRANCH  11  12
ATOM     12  C   UNL     1      13.825 -34.773  62.658  1.00  0.00     0.002 C 
BRANCH  12  13
ATOM     13  C   UNL     1      12.956 -34.735  61.390  1.00  0.00     0.028 C 
BRANCH  13  14
ATOM     14  C   UNL     1      12.985 -36.071  60.645  1.00  0.00     0.156 C 
BRANCH  14  15
ATOM     15  O   UNL     1      11.702 -36.399  60.190  1.00  0.00    -0.396 OA
ATOM     16  H   UNL     1      11.341 -37.060  60.836  1.00  0.00     0.210 HD
ENDBRANCH  14  15
ENDBRANCH  13  14
ENDBRANCH  12  13
ENDBRANCH  11  12
ENDBRANCH  10  11
ENDBRANCH   9  10
ENDBRANCH   1   9
TORSDOF 13
ENDMDL
MODEL 3
REMARK VINA RESULT:    -3.129      2.198      3.686
REMARK INTER + INTRA:          -7.086
REMARK INTER:                  -5.067
REMARK INTRA:                  -2.019
REMARK UNBOUND:                -1.671
REMARK SMILES CCCCCCCCCCCCCCO
REMARK SMILES IDX 8 1 7 2 6 3 5 4 4 5 3 6 2 7 1 8 9 9 10 10 11 11 12 12 13 13
REMARK SMILES IDX 14 14 15 15
REMARK H PARENT 15 16
REMARK Flexibility Score: inf
ROOT
ATOM      1  C   UNL     1      10.893 -39.118  47.850  1.00  0.00     0.000 C 
ENDROOT
BRANCH   1   2
ATOM      2  C   UNL     1      10.444 -38.720  46.439  1.00  0.00    -0.000 C 
BRANCH   2   3
ATOM      3  C   UNL     1      10.253 -37.200  46.330  1.00  0.00    -0.000 C 
BRANCH   3   4
ATOM      4  C   UNL     1       9.453 -36.609  47.506  1.00  0.00    -0.000 C 
BRANCH   4   5
ATOM      5  C   UNL     1      10.159 -35.471  48.266  1.00  0.00    -0.000 C 
BRANCH   5   6
ATOM      6  C   UNL     1       9.894 -35.506  49.779  1.00  0.00    -0.000 C 
BRANCH   6   7
ATOM      7  C   UNL     1       9.128 -36.774  50.172  1.00  0.00    -0.003 C 
ATOM      8  C   UNL     1       9.870 -37.555  51.253  1.00  0.00     0.004 C 
ENDBRANCH   6   7
ENDBRANCH   5   6
ENDBRANCH   4   5
ENDBRANCH   3   4
ENDBRANCH   2   3
ENDBRANCH   1   2
BRANCH   1   9
ATOM      9  C   UNL     1       9.899 -40.101  48.487  1.00  0.00     0.000 C 
BRANCH   9  10
ATOM     10  C   UNL     1       8.609 -40.257  47.666  1.00  0.00     0.000 C 
BRANCH  10  11
ATOM     11  C   UNL     1       7.358 -39.803  48.439  1.00  0.00     0.000 C 
BRANCH  11  12
ATOM     12  C   UNL     1       6.567 -38.714  47.696  1.00  0.00     0.002 C 
BRANCH  12  13
ATOM     13  C   UNL     1       6.556 -38.925  46.173  1.00  0.00     0.028 C 
BRANCH  13  14
ATOM     14  C   UNL     1       6.536 -37.594  45.419  1.00  0.00     0.156 C 
BRANCH  14  15
ATOM     15  O   UNL     1       5.259 -37.354  44.896  1.00  0.00    -0.396 OA
ATOM     16  H   UNL     1       4.633 -37.909  45.430  1.00  0.00     0.210 HD
ENDBRANCH  14  15
ENDBRANCH  13  14
ENDBRANCH  12  13
ENDBRANCH  11  12
ENDBRANCH  10  11
ENDBRANCH   9  10
ENDBRANCH   1   9
TORSDOF 13
ENDMDL
MODEL 4
REMARK VINA RESULT:    -3.099      1.192      3.257
REMARK INTER + INTRA:          -7.034
REMARK INTER:                  -5.445
REMARK INTRA:                  -1.589
REMARK UNBOUND:                -1.671
REMARK SMILES CCCCCCCCCCCCCCO
REMARK SMILES IDX 8 1 7 2 6 3 5 4 4 5 3 6 2 7 1 8 9 9 10 10 11 11 12 12 13 13
REMARK SMILES IDX 14 14 15 15
REMARK H PARENT 15 16
REMARK Flexibility Score: inf
ROOT
ATOM      1  C   UNL     1      10.347 -37.377  46.843  1.00  0.00     0.000 C 
ENDROOT
BRANCH   1   2
ATOM      2  C   UNL     1       9.749 -38.167  45.671  1.00  0.00    -0.000 C 
BRANCH   2   3
ATOM      3  C   UNL     1      10.445 -39.527  45.513  1.00  0.00    -0.000 C 
BRANCH   3   4
ATOM      4  C   UNL     1       9.621 -40.694  46.088  1.00  0.00    -0.000 C 
BRANCH   4   5
ATOM      5  C   UNL     1       8.194 -40.823  45.525  1.00  0.00    -0.000 C 
BRANCH   5   6
ATOM      6  C   UNL     1       7.107 -40.592  46.585  1.00  0.00    -0.000 C 
BRANCH   6   7
ATOM      7  C   UNL     1       5.933 -39.796  46.003  1.00  0.00    -0.003 C 
ATOM      8  C   UNL     1       6.227 -38.298  46.005  1.00  0.00     0.004 C 
ENDBRANCH   6   7
ENDBRANCH   5   6
ENDBRANCH   4   5
ENDBRANCH   3   4
ENDBRANCH   2   3
ENDBRANCH   1   2
BRANCH   1   9
ATOM      9  C   UNL     1       9.277 -37.069  47.901  1.00  0.00     0.000 C 
BRANCH   9  10
ATOM     10  C   UNL     1       8.997 -38.261  48.829  1.00  0.00     0.000 C 
BRANCH  10  11
ATOM     11  C   UNL     1       8.908 -37.849  50.309  1.00  0.00     0.000 C 
BRANCH  11  12
ATOM     12  C   UNL     1       7.574 -38.257  50.956  1.00  0.00     0.002 C 
BRANCH  12  13
ATOM     13  C   UNL     1       6.824 -39.325  50.145  1.00  0.00     0.028 C 
BRANCH  13  14
ATOM     14  C   UNL     1       5.402 -38.878  49.800  1.00  0.00     0.156 C 
BRANCH  14  15
ATOM     15  O   UNL     1       4.850 -38.157  50.867  1.00  0.00    -0.396 OA
ATOM     16  H   UNL     1       5.606 -37.935  51.470  1.00  0.00     0.210 HD
ENDBRANCH  14  15
ENDBRANCH  13  14
ENDBRANCH  12  13
ENDBRANCH  11  12
ENDBRANCH  10  11
ENDBRANCH   9  10
ENDBRANCH   1   9
TORSDOF 13
ENDMDL
MODEL 5
REMARK VINA RESULT:    -3.084      1.764      3.869
REMARK INTER + INTRA:          -7.008
REMARK INTER:                  -5.349
REMARK INTRA:                  -1.659
REMARK UNBOUND:                -1.671
REMARK SMILES CCCCCCCCCCCCCCO
REMARK SMILES IDX 8 1 7 2 6 3 5 4 4 5 3 6 2 7 1 8 9 9 10 10 11 11 12 12 13 13
REMARK SMILES IDX 14 14 15 15
REMARK H PARENT 15 16
REMARK Flexibility Score: inf
ROOT
ATOM      1  C   UNL     1      10.871 -38.529  47.547  1.00  0.00     0.000 C 
ENDROOT
BRANCH   1   2
ATOM      2  C   UNL     1      10.877 -39.779  46.657  1.00  0.00    -0.000 C 
BRANCH   2   3
ATOM      3  C   UNL     1       9.971 -39.587  45.432  1.00  0.00    -0.000 C 
BRANCH   3   4
ATOM      4  C   UNL     1       8.980 -40.748  45.230  1.00  0.00    -0.000 C 
BRANCH   4   5
ATOM      5  C   UNL     1       7.582 -40.522  45.834  1.00  0.00    -0.000 C 
BRANCH   5   6
ATOM      6  C   UNL     1       7.260 -39.037  46.062  1.00  0.00    -0.000 C 
BRANCH   6   7
ATOM      7  C   UNL     1       6.749 -38.800  47.487  1.00  0.00    -0.003 C 
ATOM      8  C   UNL     1       7.426 -39.742  48.480  1.00  0.00     0.004 C 
ENDBRANCH   6   7
ENDBRANCH   5   6
ENDBRANCH   4   5
ENDBRANCH   3   4
ENDBRANCH   2   3
ENDBRANCH   1   2
BRANCH   1   9
ATOM      9  C   UNL     1      10.348 -37.308  46.775  1.00  0.00     0.000 C 
BRANCH   9  10
ATOM     10  C   UNL     1       9.740 -36.238  47.697  1.00  0.00     0.000 C 
BRANCH  10  11
ATOM     11  C   UNL     1       9.462 -36.769  49.115  1.00  0.00     0.000 C 
BRANCH  11  12
ATOM     12  C   UNL     1      10.202 -35.969  50.200  1.00  0.00     0.002 C 
BRANCH  12  13
ATOM     13  C   UNL     1       9.255 -35.107  51.050  1.00  0.00     0.028 C 
BRANCH  13  14
ATOM     14  C   UNL     1       8.531 -35.941  52.109  1.00  0.00     0.156 C 
BRANCH  14  15
ATOM     15  O   UNL     1       7.400 -35.257  52.573  1.00  0.00    -0.396 OA
ATOM     16  H   UNL     1       7.322 -35.475  53.538  1.00  0.00     0.210 HD
ENDBRANCH  14  15
ENDBRANCH  13  14
ENDBRANCH  12  13
ENDBRANCH  11  12
ENDBRANCH  10  11
ENDBRANCH   9  10
ENDBRANCH   1   9
TORSDOF 13
ENDMDL
MODEL 6
REMARK VINA RESULT:    -3.083     14.800     17.083
REMARK INTER + INTRA:          -7.007
REMARK INTER:                  -5.022
REMARK INTRA:                  -1.985
REMARK UNBOUND:                -1.671
REMARK SMILES CCCCCCCCCCCCCCO
REMARK SMILES IDX 8 1 7 2 6 3 5 4 4 5 3 6 2 7 1 8 9 9 10 10 11 11 12 12 13 13
REMARK SMILES IDX 14 14 15 15
REMARK H PARENT 15 16
REMARK Flexibility Score: inf
ROOT
ATOM      1  C   UNL     1      14.357 -31.996  61.943  1.00  0.00     0.000 C 
ENDROOT
BRANCH   1   2
ATOM      2  C   UNL     1      14.712 -32.907  63.125  1.00  0.00    -0.000 C 
BRANCH   2   3
ATOM      3  C   UNL     1      14.421 -34.378  62.793  1.00  0.00    -0.000 C 
BRANCH   3   4
ATOM      4  C   UNL     1      14.040 -34.596  61.317  1.00  0.00    -0.000 C 
BRANCH   4   5
ATOM      5  C   UNL     1      15.087 -35.355  60.481  1.00  0.00    -0.000 C 
BRANCH   5   6
ATOM      6  C   UNL     1      15.773 -34.468  59.431  1.00  0.00    -0.000 C 
BRANCH   6   7
ATOM      7  C   UNL     1      14.737 -33.702  58.600  1.00  0.00    -0.003 C 
ATOM      8  C   UNL     1      15.325 -33.251  57.265  1.00  0.00     0.004 C 
ENDBRANCH   6   7
ENDBRANCH   5   6
ENDBRANCH   4   5
ENDBRANCH   3   4
ENDBRANCH   2   3
ENDBRANCH   1   2
BRANCH   1   9
ATOM      9  C   UNL     1      15.606 -31.284  61.402  1.00  0.00     0.000 C 
BRANCH   9  10
ATOM     10  C   UNL     1      16.880 -31.642  62.186  1.00  0.00     0.000 C 
BRANCH  10  11
ATOM     11  C   UNL     1      18.129 -31.696  61.289  1.00  0.00     0.000 C 
BRANCH  11  12
ATOM     12  C   UNL     1      18.695 -33.119  61.152  1.00  0.00     0.002 C 
BRANCH  12  13
ATOM     13  C   UNL     1      18.241 -34.050  62.288  1.00  0.00     0.028 C 
BRANCH  13  14
ATOM     14  C   UNL     1      18.610 -35.507  62.005  1.00  0.00     0.156 C 
BRANCH  14  15
ATOM     15  O   UNL     1      19.690 -35.897  62.806  1.00  0.00    -0.396 OA
ATOM     16  H   UNL     1      19.552 -36.859  63.006  1.00  0.00     0.210 HD
ENDBRANCH  14  15
ENDBRANCH  13  14
ENDBRANCH  12  13
ENDBRANCH  11  12
ENDBRANCH  10  11
ENDBRANCH   9  10
ENDBRANCH   1   9
TORSDOF 13
ENDMDL
MODEL 7
REMARK VINA RESULT:    -3.063      2.140      4.239
REMARK INTER + INTRA:          -6.973
REMARK INTER:                  -5.130
REMARK INTRA:                  -1.842
REMARK UNBOUND:                -1.671
REMARK SMILES CCCCCCCCCCCCCCO
REMARK SMILES IDX 8 1 7 2 6 3 5 4 4 5 3 6 2 7 1 8 9 9 10 10 11 11 12 12 13 13
REMARK SMILES IDX 14 14 15 15
REMARK H PARENT 15 16
REMARK Flexibility Score: inf
ROOT
ATOM      1  C   UNL     1      10.518 -39.017  46.560  1.00  0.00     0.000 C 
ENDROOT
BRANCH   1   2
ATOM      2  C   UNL     1      10.369 -37.512  46.302  1.00  0.00    -0.000 C 
BRANCH   2   3
ATOM      3  C   UNL     1       9.559 -36.839  47.420  1.00  0.00    -0.000 C 
BRANCH   3   4
ATOM      4  C   UNL     1       9.692 -37.559  48.774  1.00  0.00    -0.000 C 
BRANCH   4   5
ATOM      5  C   UNL     1       8.359 -37.908  49.460  1.00  0.00    -0.000 C 
BRANCH   5   6
ATOM      6  C   UNL     1       8.387 -39.271  50.167  1.00  0.00    -0.000 C 
BRANCH   6   7
ATOM      7  C   UNL     1       9.766 -39.927  50.038  1.00  0.00    -0.003 C 
ATOM      8  C   UNL     1      10.039 -40.873  51.205  1.00  0.00     0.004 C 
ENDBRANCH   6   7
ENDBRANCH   5   6
ENDBRANCH   4   5
ENDBRANCH   3   4
ENDBRANCH   2   3
ENDBRANCH   1   2
BRANCH   1   9
ATOM      9  C   UNL     1      10.221 -39.825  45.287  1.00  0.00     0.000 C 
BRANCH   9  10
ATOM     10  C   UNL     1       9.033 -40.786  45.457  1.00  0.00     0.000 C 
BRANCH  10  11
ATOM     11  C   UNL     1       8.211 -40.491  46.724  1.00  0.00     0.000 C 
BRANCH  11  12
ATOM     12  C   UNL     1       6.755 -40.113  46.408  1.00  0.00     0.002 C 
BRANCH  12  13
ATOM     13  C   UNL     1       6.564 -38.601  46.211  1.00  0.00     0.028 C 
BRANCH  13  14
ATOM     14  C   UNL     1       5.486 -38.299  45.168  1.00  0.00     0.156 C 
BRANCH  14  15
ATOM     15  O   UNL     1       5.290 -36.916  45.061  1.00  0.00    -0.396 OA
ATOM     16  H   UNL     1       4.310 -36.773  45.106  1.00  0.00     0.210 HD
ENDBRANCH  14  15
ENDBRANCH  13  14
ENDBRANCH  12  13
ENDBRANCH  11  12
ENDBRANCH  10  11
ENDBRANCH   9  10
ENDBRANCH   1   9
TORSDOF 13
ENDMDL
MODEL 8
REMARK VINA RESULT:    -3.044      2.580      4.196
REMARK INTER + INTRA:          -6.939
REMARK INTER:                  -5.578
REMARK INTRA:                  -1.361
REMARK UNBOUND:                -1.671
REMARK SMILES CCCCCCCCCCCCCCO
REMARK SMILES IDX 8 1 7 2 6 3 5 4 4 5 3 6 2 7 1 8 9 9 10 10 11 11 12 12 13 13
REMARK SMILES IDX 14 14 15 15
REMARK H PARENT 15 16
REMARK Flexibility Score: inf
ROOT
ATOM      1  C   UNL     1       9.581 -36.613  47.642  1.00  0.00     0.000 C 
ENDROOT
BRANCH   1   2
ATOM      2  C   UNL     1      10.620 -37.155  46.652  1.00  0.00    -0.000 C 
BRANCH   2   3
ATOM      3  C   UNL     1      11.385 -38.344  47.253  1.00  0.00    -0.000 C 
BRANCH   3   4
ATOM      4  C   UNL     1      10.926 -39.701  46.687  1.00  0.00    -0.000 C 
BRANCH   4   5
ATOM      5  C   UNL     1      10.055 -39.617  45.420  1.00  0.00    -0.000 C 
BRANCH   5   6
ATOM      6  C   UNL     1       8.710 -40.344  45.567  1.00  0.00    -0.000 C 
BRANCH   6   7
ATOM      7  C   UNL     1       7.883 -39.740  46.707  1.00  0.00    -0.003 C 
ATOM      8  C   UNL     1       6.886 -38.711  46.179  1.00  0.00     0.004 C 
ENDBRANCH   6   7
ENDBRANCH   5   6
ENDBRANCH   4   5
ENDBRANCH   3   4
ENDBRANCH   2   3
ENDBRANCH   1   2
BRANCH   1   9
ATOM      9  C   UNL     1       9.953 -36.980  49.086  1.00  0.00     0.000 C 
BRANCH   9  10
ATOM     10  C   UNL     1       8.815 -37.698  49.830  1.00  0.00     0.000 C 
BRANCH  10  11
ATOM     11  C   UNL     1       8.535 -37.085  51.214  1.00  0.00     0.000 C 
BRANCH  11  12
ATOM     12  C   UNL     1       9.160 -35.690  51.379  1.00  0.00     0.002 C 
BRANCH  12  13
ATOM     13  C   UNL     1       8.247 -34.719  52.144  1.00  0.00     0.028 C 
BRANCH  13  14
ATOM     14  C   UNL     1       8.550 -34.720  53.643  1.00  0.00     0.156 C 
BRANCH  14  15
ATOM     15  O   UNL     1       7.609 -35.501  54.327  1.00  0.00    -0.396 OA
ATOM     16  H   UNL     1       6.958 -35.807  53.644  1.00  0.00     0.210 HD
ENDBRANCH  14  15
ENDBRANCH  13  14
ENDBRANCH  12  13
ENDBRANCH  11  12
ENDBRANCH  10  11
ENDBRANCH   9  10
ENDBRANCH   1   9
TORSDOF 13
ENDMDL
MODEL 9
REMARK VINA RESULT:    -2.968     14.926     17.190
REMARK INTER + INTRA:          -6.808
REMARK INTER:                  -4.556
REMARK INTRA:                  -2.252
REMARK UNBOUND:                -1.671
REMARK SMILES CCCCCCCCCCCCCCO
REMARK SMILES IDX 8 1 7 2 6 3 5 4 4 5 3 6 2 7 1 8 9 9 10 10 11 11 12 12 13 13
REMARK SMILES IDX 14 14 15 15
REMARK H PARENT 15 16
REMARK Flexibility Score: inf
ROOT
ATOM      1  C   UNL     1      16.601 -31.661  62.479  1.00  0.00     0.000 C 
ENDROOT
BRANCH   1   2
ATOM      2  C   UNL     1      15.372 -31.220  61.674  1.00  0.00    -0.000 C 
BRANCH   2   3
ATOM      3  C   UNL     1      14.140 -32.056  62.047  1.00  0.00    -0.000 C 
BRANCH   3   4
ATOM      4  C   UNL     1      14.488 -33.291  62.899  1.00  0.00    -0.000 C 
BRANCH   4   5
ATOM      5  C   UNL     1      14.262 -34.646  62.204  1.00  0.00    -0.000 C 
BRANCH   5   6
ATOM      6  C   UNL     1      14.043 -34.514  60.689  1.00  0.00    -0.000 C 
BRANCH   6   7
ATOM      7  C   UNL     1      15.337 -34.806  59.921  1.00  0.00    -0.003 C 
ATOM      8  C   UNL     1      15.633 -33.709  58.902  1.00  0.00     0.004 C 
ENDBRANCH   6   7
ENDBRANCH   5   6
ENDBRANCH   4   5
ENDBRANCH   3   4
ENDBRANCH   2   3
ENDBRANCH   1   2
BRANCH   1   9
ATOM      9  C   UNL     1      17.867 -31.636  61.609  1.00  0.00     0.000 C 
BRANCH   9  10
ATOM     10  C   UNL     1      18.412 -33.043  61.313  1.00  0.00     0.000 C 
BRANCH  10  11
ATOM     11  C   UNL     1      18.087 -34.049  62.431  1.00  0.00     0.000 C 
BRANCH  11  12
ATOM     12  C   UNL     1      18.323 -35.506  62.000  1.00  0.00     0.002 C 
BRANCH  12  13
ATOM     13  C   UNL     1      17.417 -36.499  62.747  1.00  0.00     0.028 C 
BRANCH  13  14
ATOM     14  C   UNL     1      17.081 -37.716  61.884  1.00  0.00     0.156 C 
BRANCH  14  15
ATOM     15  O   UNL     1      15.693 -37.830  61.728  1.00  0.00    -0.396 OA
ATOM     16  H   UNL     1      15.440 -37.170  61.032  1.00  0.00     0.210 HD
ENDBRANCH  14  15
ENDBRANCH  13  14
ENDBRANCH  12  13
ENDBRANCH  11  12
ENDBRANCH  10  11
ENDBRANCH   9  10
ENDBRANCH   1   9
TORSDOF 13
ENDMDL
