MODEL 1
REMARK VINA RESULT:    -3.973      0.000      0.000
REMARK INTER + INTRA:          -6.556
REMARK INTER:                  -5.831
REMARK INTRA:                  -0.725
REMARK UNBOUND:                -0.725
REMARK SMILES O=C([O-])CCCCCCCC(=O)[O-]
REMARK SMILES IDX 7 1 6 2 5 3 4 4 2 5 1 6 3 7 8 8 9 9 10 10 11 11 12 12 13 13
REMARK H PARENT
REMARK Flexibility Score: inf
ROOT
ATOM      1  C   UNL     1      18.182  11.754  -5.632  1.00  0.00     0.000 C 
ENDROOT
BRANCH   1   2
ATOM      2  C   UNL     1      18.335  11.473  -7.135  1.00  0.00     0.000 C 
BRANCH   2   3
ATOM      3  C   UNL     1      17.413  12.350  -7.997  1.00  0.00     0.006 C 
BRANCH   3   4
ATOM      4  C   UNL     1      16.017  12.523  -7.384  1.00  0.00     0.053 C 
BRANCH   4   5
ATOM      5  C   UNL     1      15.077  13.118  -8.384  1.00  0.00     0.041 C 
ATOM      6  O   UNL     1      14.149  13.880  -8.006  1.00  0.00    -0.550 OA
ATOM      7  O   UNL     1      15.257  12.872  -9.739  1.00  0.00    -0.550 OA
ENDBRANCH   4   5
ENDBRANCH   3   4
ENDBRANCH   2   3
ENDBRANCH   1   2
BRANCH   1   8
ATOM      8  C   UNL     1      19.436  12.442  -5.072  1.00  0.00     0.000 C 
BRANCH   8   9
ATOM      9  C   UNL     1      19.195  13.912  -4.684  1.00  0.00     0.006 C 
BRANCH   9  10
ATOM     10  C   UNL     1      17.707  14.290  -4.561  1.00  0.00     0.053 C 
BRANCH  10  11
ATOM     11  C   UNL     1      17.297  15.350  -5.537  1.00  0.00     0.041 C 
ATOM     12  O   UNL     1      17.952  15.526  -6.598  1.00  0.00    -0.550 OA
ATOM     13  O   UNL     1      16.208  16.167  -5.259  1.00  0.00    -0.550 OA
ENDBRANCH  10  11
ENDBRANCH   9  10
ENDBRANCH   8   9
ENDBRANCH   1   8
TORSDOF 8
ENDMDL
MODEL 2
REMARK VINA RESULT:    -3.944      2.210      5.107
REMARK INTER + INTRA:          -6.514
REMARK INTER:                  -5.983
REMARK INTRA:                  -0.531
REMARK UNBOUND:                -0.725
REMARK SMILES O=C([O-])CCCCCCCC(=O)[O-]
REMARK SMILES IDX 7 1 6 2 5 3 4 4 2 5 1 6 3 7 8 8 9 9 10 10 11 11 12 12 13 13
REMARK H PARENT
REMARK Flexibility Score: inf
ROOT
ATOM      1  C   UNL     1      15.526  13.632  -6.737  1.00  0.00     0.000 C 
ENDROOT
BRANCH   1   2
ATOM      2  C   UNL     1      16.415  12.442  -6.343  1.00  0.00     0.000 C 
BRANCH   2   3
ATOM      3  C   UNL     1      17.716  12.879  -5.650  1.00  0.00     0.006 C 
BRANCH   3   4
ATOM      4  C   UNL     1      17.567  14.208  -4.897  1.00  0.00     0.053 C 
BRANCH   4   5
ATOM      5  C   UNL     1      18.796  14.494  -4.094  1.00  0.00     0.041 C 
ATOM      6  O   UNL     1      19.269  15.661  -4.053  1.00  0.00    -0.550 OA
ATOM      7  O   UNL     1      19.392  13.483  -3.351  1.00  0.00    -0.550 OA
ENDBRANCH   4   5
ENDBRANCH   3   4
ENDBRANCH   2   3
ENDBRANCH   1   2
BRANCH   1   8
ATOM      8  C   UNL     1      14.557  13.243  -7.863  1.00  0.00     0.000 C 
BRANCH   8   9
ATOM      9  C   UNL     1      15.275  12.796  -9.150  1.00  0.00     0.006 C 
BRANCH   9  10
ATOM     10  C   UNL     1      16.043  13.926  -9.861  1.00  0.00     0.053 C 
BRANCH  10  11
ATOM     11  C   UNL     1      17.529  13.741  -9.802  1.00  0.00     0.041 C 
ATOM     12  O   UNL     1      18.019  12.642  -9.433  1.00  0.00    -0.550 OA
ATOM     13  O   UNL     1      18.373  14.796 -10.125  1.00  0.00    -0.550 OA
ENDBRANCH  10  11
ENDBRANCH   9  10
ENDBRANCH   8   9
ENDBRANCH   1   8
TORSDOF 8
ENDMDL
MODEL 3
REMARK VINA RESULT:    -3.917      0.239      3.931
REMARK INTER + INTRA:          -6.474
REMARK INTER:                  -5.755
REMARK INTRA:                  -0.719
REMARK UNBOUND:                -0.725
REMARK SMILES O=C([O-])CCCCCCCC(=O)[O-]
REMARK SMILES IDX 7 1 6 2 5 3 4 4 2 5 1 6 3 7 8 8 9 9 10 10 11 11 12 12 13 13
REMARK H PARENT
REMARK Flexibility Score: inf
ROOT
ATOM      1  C   UNL     1      18.287  11.894  -5.637  1.00  0.00     0.000 C 
ENDROOT
BRANCH   1   2
ATOM      2  C   UNL     1      19.500  12.601  -5.012  1.00  0.00     0.000 C 
BRANCH   2   3
ATOM      3  C   UNL     1      19.281  14.113  -4.842  1.00  0.00     0.006 C 
BRANCH   3   4
ATOM      4  C   UNL     1      17.836  14.462  -4.462  1.00  0.00     0.053 C 
BRANCH   4   5
ATOM      5  C   UNL     1      17.214  15.325  -5.514  1.00  0.00     0.041 C 
ATOM      6  O   UNL     1      16.119  15.906  -5.290  1.00  0.00    -0.550 OA
ATOM      7  O   UNL     1      17.868  15.529  -6.722  1.00  0.00    -0.550 OA
ENDBRANCH   4   5
ENDBRANCH   3   4
ENDBRANCH   2   3
ENDBRANCH   1   2
BRANCH   1   8
ATOM      8  C   UNL     1      18.511  11.640  -7.134  1.00  0.00     0.000 C 
BRANCH   8   9
ATOM      9  C   UNL     1      17.449  12.311  -8.025  1.00  0.00     0.006 C 
BRANCH   9  10
ATOM     10  C   UNL     1      16.085  12.502  -7.335  1.00  0.00     0.053 C 
BRANCH  10  11
ATOM     11  C   UNL     1      15.034  13.025  -8.267  1.00  0.00     0.041 C 
ATOM     12  O   UNL     1      14.251  13.937  -7.894  1.00  0.00    -0.550 OA
ATOM     13  O   UNL     1      14.900  12.481  -9.538  1.00  0.00    -0.550 OA
ENDBRANCH  10  11
ENDBRANCH   9  10
ENDBRANCH   8   9
ENDBRANCH   1   8
TORSDOF 8
ENDMDL
MODEL 4
REMARK VINA RESULT:    -3.847      2.200      3.140
REMARK INTER + INTRA:          -6.371
REMARK INTER:                  -5.899
REMARK INTRA:                  -0.472
REMARK UNBOUND:                -0.725
REMARK SMILES O=C([O-])CCCCCCCC(=O)[O-]
REMARK SMILES IDX 7 1 6 2 5 3 4 4 2 5 1 6 3 7 8 8 9 9 10 10 11 11 12 12 13 13
REMARK H PARENT
REMARK Flexibility Score: inf
ROOT
ATOM      1  C   UNL     1      15.660  13.338  -6.643  1.00  0.00     0.000 C 
ENDROOT
BRANCH   1   2
ATOM      2  C   UNL     1      14.772  13.231  -7.893  1.00  0.00     0.000 C 
BRANCH   2   3
ATOM      3  C   UNL     1      15.573  12.886  -9.159  1.00  0.00     0.006 C 
BRANCH   3   4
ATOM      4  C   UNL     1      16.022  14.133  -9.933  1.00  0.00     0.053 C 
BRANCH   4   5
ATOM      5  C   UNL     1      17.484  14.376  -9.727  1.00  0.00     0.041 C 
ATOM      6  O   UNL     1      17.903  15.537  -9.475  1.00  0.00    -0.550 OA
ATOM      7  O   UNL     1      18.377  13.314  -9.764  1.00  0.00    -0.550 OA
ENDBRANCH   4   5
ENDBRANCH   3   4
ENDBRANCH   2   3
ENDBRANCH   1   2
BRANCH   1   8
ATOM      8  C   UNL     1      16.843  12.363  -6.725  1.00  0.00     0.000 C 
BRANCH   8   9
ATOM      9  C   UNL     1      17.849  12.537  -5.573  1.00  0.00     0.006 C 
BRANCH   9  10
ATOM     10  C   UNL     1      17.699  13.865  -4.808  1.00  0.00     0.053 C 
BRANCH  10  11
ATOM     11  C   UNL     1      18.936  14.238  -4.048  1.00  0.00     0.041 C 
ATOM     12  O   UNL     1      19.570  13.366  -3.398  1.00  0.00    -0.550 OA
ATOM     13  O   UNL     1      19.370  15.558  -4.032  1.00  0.00    -0.550 OA
ENDBRANCH  10  11
ENDBRANCH   9  10
ENDBRANCH   8   9
ENDBRANCH   1   8
TORSDOF 8
ENDMDL
MODEL 5
REMARK VINA RESULT:    -3.728      2.270      4.914
REMARK INTER + INTRA:          -6.197
REMARK INTER:                  -5.696
REMARK INTRA:                  -0.501
REMARK UNBOUND:                -0.725
REMARK SMILES O=C([O-])CCCCCCCC(=O)[O-]
REMARK SMILES IDX 7 1 6 2 5 3 4 4 2 5 1 6 3 7 8 8 9 9 10 10 11 11 12 12 13 13
REMARK H PARENT
REMARK Flexibility Score: inf
ROOT
ATOM      1  C   UNL     1      16.313  14.866  -5.965  1.00  0.00     0.000 C 
ENDROOT
BRANCH   1   2
ATOM      2  C   UNL     1      17.745  15.043  -5.435  1.00  0.00     0.000 C 
BRANCH   2   3
ATOM      3  C   UNL     1      18.174  13.902  -4.498  1.00  0.00     0.006 C 
BRANCH   3   4
ATOM      4  C   UNL     1      19.623  13.456  -4.735  1.00  0.00     0.053 C 
BRANCH   4   5
ATOM      5  C   UNL     1      19.655  12.199  -5.545  1.00  0.00     0.041 C 
ATOM      6  O   UNL     1      19.485  12.245  -6.792  1.00  0.00    -0.550 OA
ATOM      7  O   UNL     1      19.923  10.982  -4.931  1.00  0.00    -0.550 OA
ENDBRANCH   4   5
ENDBRANCH   3   4
ENDBRANCH   2   3
ENDBRANCH   1   2
BRANCH   1   8
ATOM      8  C   UNL     1      16.129  13.479  -6.597  1.00  0.00     0.000 C 
BRANCH   8   9
ATOM      9  C   UNL     1      14.889  13.390  -7.505  1.00  0.00     0.006 C 
BRANCH   9  10
ATOM     10  C   UNL     1      15.181  12.826  -8.908  1.00  0.00     0.053 C 
BRANCH  10  11
ATOM     11  C   UNL     1      16.333  13.511  -9.579  1.00  0.00     0.041 C 
ATOM     12  O   UNL     1      16.195  14.669 -10.054  1.00  0.00    -0.550 OA
ATOM     13  O   UNL     1      17.551  12.856  -9.707  1.00  0.00    -0.550 OA
ENDBRANCH  10  11
ENDBRANCH   9  10
ENDBRANCH   8   9
ENDBRANCH   1   8
TORSDOF 8
ENDMDL
MODEL 6
REMARK VINA RESULT:    -3.624     10.323     11.852
REMARK INTER + INTRA:          -6.043
REMARK INTER:                  -5.714
REMARK INTRA:                  -0.330
REMARK UNBOUND:                -0.725
REMARK SMILES O=C([O-])CCCCCCCC(=O)[O-]
REMARK SMILES IDX 7 1 6 2 5 3 4 4 2 5 1 6 3 7 8 8 9 9 10 10 11 11 12 12 13 13
REMARK H PARENT
REMARK Flexibility Score: inf
ROOT
ATOM      1  C   UNL     1      17.680   3.009  -3.592  1.00  0.00     0.000 C 
ENDROOT
BRANCH   1   2
ATOM      2  C   UNL     1      17.474   2.732  -2.095  1.00  0.00     0.000 C 
BRANCH   2   3
ATOM      3  C   UNL     1      16.825   3.916  -1.358  1.00  0.00     0.006 C 
BRANCH   3   4
ATOM      4  C   UNL     1      17.038   3.856   0.160  1.00  0.00     0.053 C 
BRANCH   4   5
ATOM      5  C   UNL     1      16.081   2.889   0.783  1.00  0.00     0.041 C 
ATOM      6  O   UNL     1      16.486   2.061   1.641  1.00  0.00    -0.550 OA
ATOM      7  O   UNL     1      14.733   2.934   0.452  1.00  0.00    -0.550 OA
ENDBRANCH   4   5
ENDBRANCH   3   4
ENDBRANCH   2   3
ENDBRANCH   1   2
BRANCH   1   8
ATOM      8  C   UNL     1      17.119   1.861  -4.445  1.00  0.00     0.000 C 
BRANCH   8   9
ATOM      9  C   UNL     1      17.054   2.201  -5.945  1.00  0.00     0.006 C 
BRANCH   9  10
ATOM     10  C   UNL     1      15.727   2.848  -6.383  1.00  0.00     0.053 C 
BRANCH  10  11
ATOM     11  C   UNL     1      15.809   4.342  -6.458  1.00  0.00     0.041 C 
ATOM     12  O   UNL     1      16.926   4.914  -6.559  1.00  0.00    -0.550 OA
ATOM     13  O   UNL     1      14.651   5.106  -6.383  1.00  0.00    -0.550 OA
ENDBRANCH  10  11
ENDBRANCH   9  10
ENDBRANCH   8   9
ENDBRANCH   1   8
TORSDOF 8
ENDMDL
MODEL 7
REMARK VINA RESULT:    -3.617     10.408     11.332
REMARK INTER + INTRA:          -6.033
REMARK INTER:                  -5.736
REMARK INTRA:                  -0.298
REMARK UNBOUND:                -0.725
REMARK SMILES O=C([O-])CCCCCCCC(=O)[O-]
REMARK SMILES IDX 7 1 6 2 5 3 4 4 2 5 1 6 3 7 8 8 9 9 10 10 11 11 12 12 13 13
REMARK H PARENT
REMARK Flexibility Score: inf
ROOT
ATOM      1  C   UNL     1      17.731   2.870  -3.840  1.00  0.00     0.000 C 
ENDROOT
BRANCH   1   2
ATOM      2  C   UNL     1      17.087   1.810  -4.747  1.00  0.00     0.000 C 
BRANCH   2   3
ATOM      3  C   UNL     1      16.897   2.304  -6.191  1.00  0.00     0.006 C 
BRANCH   3   4
ATOM      4  C   UNL     1      15.533   2.970  -6.413  1.00  0.00     0.053 C 
BRANCH   4   5
ATOM      5  C   UNL     1      15.683   4.458  -6.475  1.00  0.00     0.041 C 
ATOM      6  O   UNL     1      16.822   4.973  -6.625  1.00  0.00    -0.550 OA
ATOM      7  O   UNL     1      14.560   5.273  -6.418  1.00  0.00    -0.550 OA
ENDBRANCH   4   5
ENDBRANCH   3   4
ENDBRANCH   2   3
ENDBRANCH   1   2
BRANCH   1   8
ATOM      8  C   UNL     1      17.821   2.371  -2.390  1.00  0.00     0.000 C 
BRANCH   8   9
ATOM      9  C   UNL     1      17.036   3.251  -1.400  1.00  0.00     0.006 C 
BRANCH   9  10
ATOM     10  C   UNL     1      17.246   2.870   0.077  1.00  0.00     0.053 C 
BRANCH  10  11
ATOM     11  C   UNL     1      15.957   2.748   0.832  1.00  0.00     0.041 C 
ATOM     12  O   UNL     1      14.875   3.118   0.307  1.00  0.00    -0.550 OA
ATOM     13  O   UNL     1      15.957   2.253   2.130  1.00  0.00    -0.550 OA
ENDBRANCH  10  11
ENDBRANCH   9  10
ENDBRANCH   8   9
ENDBRANCH   1   8
TORSDOF 8
ENDMDL
MODEL 8
REMARK VINA RESULT:    -3.589      2.160      2.894
REMARK INTER + INTRA:          -5.993
REMARK INTER:                  -5.420
REMARK INTRA:                  -0.572
REMARK UNBOUND:                -0.725
REMARK SMILES O=C([O-])CCCCCCCC(=O)[O-]
REMARK SMILES IDX 7 1 6 2 5 3 4 4 2 5 1 6 3 7 8 8 9 9 10 10 11 11 12 12 13 13
REMARK H PARENT
REMARK Flexibility Score: inf
ROOT
ATOM      1  C   UNL     1      18.203  15.482  -8.616  1.00  0.00     0.000 C 
ENDROOT
BRANCH   1   2
ATOM      2  C   UNL     1      17.825  14.315  -9.541  1.00  0.00     0.000 C 
BRANCH   2   3
ATOM      3  C   UNL     1      16.372  14.398 -10.036  1.00  0.00     0.006 C 
BRANCH   3   4
ATOM      4  C   UNL     1      15.585  13.105  -9.780  1.00  0.00     0.053 C 
BRANCH   4   5
ATOM      5  C   UNL     1      15.289  12.955  -8.321  1.00  0.00     0.041 C 
ATOM      6  O   UNL     1      14.207  13.390  -7.847  1.00  0.00    -0.550 OA
ATOM      7  O   UNL     1      16.186  12.290  -7.495  1.00  0.00    -0.550 OA
ENDBRANCH   4   5
ENDBRANCH   3   4
ENDBRANCH   2   3
ENDBRANCH   1   2
BRANCH   1   8
ATOM      8  C   UNL     1      18.454  14.988  -7.184  1.00  0.00     0.000 C 
BRANCH   8   9
ATOM      9  C   UNL     1      17.348  15.408  -6.198  1.00  0.00     0.006 C 
BRANCH   9  10
ATOM     10  C   UNL     1      17.195  14.464  -4.991  1.00  0.00     0.053 C 
BRANCH  10  11
ATOM     11  C   UNL     1      18.503  14.152  -4.331  1.00  0.00     0.041 C 
ATOM     12  O   UNL     1      18.971  12.984  -4.367  1.00  0.00    -0.550 OA
ATOM     13  O   UNL     1      19.191  15.146  -3.646  1.00  0.00    -0.550 OA
ENDBRANCH  10  11
ENDBRANCH   9  10
ENDBRANCH   8   9
ENDBRANCH   1   8
TORSDOF 8
ENDMDL
MODEL 9
REMARK VINA RESULT:    -3.543     12.041     13.377
REMARK INTER + INTRA:          -5.925
REMARK INTER:                  -5.174
REMARK INTRA:                  -0.751
REMARK UNBOUND:                -0.725
REMARK SMILES O=C([O-])CCCCCCCC(=O)[O-]
REMARK SMILES IDX 7 1 6 2 5 3 4 4 2 5 1 6 3 7 8 8 9 9 10 10 11 11 12 12 13 13
REMARK H PARENT
REMARK Flexibility Score: inf
ROOT
ATOM      1  C   UNL     1      18.205   6.138   0.985  1.00  0.00     0.000 C 
ENDROOT
BRANCH   1   2
ATOM      2  C   UNL     1      19.452   5.821   1.825  1.00  0.00     0.000 C 
BRANCH   2   3
ATOM      3  C   UNL     1      19.155   4.854   2.983  1.00  0.00     0.006 C 
BRANCH   3   4
ATOM      4  C   UNL     1      17.653   4.603   3.173  1.00  0.00     0.053 C 
BRANCH   4   5
ATOM      5  C   UNL     1      17.431   3.447   4.097  1.00  0.00     0.041 C 
ATOM      6  O   UNL     1      18.229   3.234   5.048  1.00  0.00    -0.550 OA
ATOM      7  O   UNL     1      16.315   2.636   3.939  1.00  0.00    -0.550 OA
ENDBRANCH   4   5
ENDBRANCH   3   4
ENDBRANCH   2   3
ENDBRANCH   1   2
BRANCH   1   8
ATOM      8  C   UNL     1      18.443   5.809  -0.496  1.00  0.00     0.000 C 
BRANCH   8   9
ATOM      9  C   UNL     1      18.039   4.370  -0.867  1.00  0.00     0.006 C 
BRANCH   9  10
ATOM     10  C   UNL     1      16.526   4.100  -0.766  1.00  0.00     0.053 C 
BRANCH  10  11
ATOM     11  C   UNL     1      16.198   3.001   0.199  1.00  0.00     0.041 C 
ATOM     12  O   UNL     1      15.011   2.819   0.576  1.00  0.00    -0.550 OA
ATOM     13  O   UNL     1      17.211   2.197   0.706  1.00  0.00    -0.550 OA
ENDBRANCH  10  11
ENDBRANCH   9  10
ENDBRANCH   8   9
ENDBRANCH   1   8
TORSDOF 8
ENDMDL
