MODEL 1
REMARK VINA RESULT:    -4.297      0.000      0.000
REMARK INTER + INTRA:          -4.576
REMARK INTER:                  -4.549
REMARK INTRA:                  -0.028
REMARK UNBOUND:                -0.028
REMARK SMILES O=C([O-])[C@H]1CCC[NH2+]1
REMARK SMILES IDX 4 1 8 2 7 3 5 4 6 5 2 8 1 9 3 10
REMARK H PARENT 8 6 8 7
REMARK Flexibility Score: inf
ROOT
ATOM      1  C   UNL     1      14.611  75.515  70.921  1.00  0.00     0.229 C 
ATOM      2  N   UNL     1      13.836  75.121  72.100  1.00  0.00    -0.339 N 
ATOM      3  C   UNL     1      14.731  75.296  73.248  1.00  0.00     0.261 C 
ATOM      4  C   UNL     1      15.575  76.597  71.381  1.00  0.00     0.077 C 
ATOM      5  C   UNL     1      15.841  76.262  72.837  1.00  0.00     0.068 C 
ATOM      6  H   UNL     1      12.998  75.736  72.225  1.00  0.00     0.346 HD
ATOM      7  H   UNL     1      13.529  74.122  72.021  1.00  0.00     0.346 HD
ENDROOT
BRANCH   1   8
ATOM      8  C   UNL     1      13.725  75.981  69.796  1.00  0.00     0.099 C 
ATOM      9  O   UNL     1      13.520  77.212  69.624  1.00  0.00    -0.544 OA
ATOM     10  O   UNL     1      13.127  75.063  68.941  1.00  0.00    -0.544 OA
ENDBRANCH   1   8
TORSDOF 1
ENDMDL
MODEL 2
REMARK VINA RESULT:    -4.240      1.554      1.867
REMARK INTER + INTRA:          -4.516
REMARK INTER:                  -4.496
REMARK INTRA:                  -0.020
REMARK UNBOUND:                -0.028
REMARK SMILES O=C([O-])[C@H]1CCC[NH2+]1
REMARK SMILES IDX 4 1 8 2 7 3 5 4 6 5 2 8 1 9 3 10
REMARK H PARENT 8 6 8 7
REMARK Flexibility Score: inf
ROOT
ATOM      1  C   UNL     1      14.323  74.346  70.202  1.00  0.00     0.229 C 
ATOM      2  N   UNL     1      13.657  75.241  71.151  1.00  0.00    -0.339 N 
ATOM      3  C   UNL     1      14.524  75.295  72.331  1.00  0.00     0.261 C 
ATOM      4  C   UNL     1      15.817  74.504  70.435  1.00  0.00     0.077 C 
ATOM      5  C   UNL     1      15.927  74.861  71.906  1.00  0.00     0.068 C 
ATOM      6  H   UNL     1      13.560  76.206  70.756  1.00  0.00     0.346 HD
ATOM      7  H   UNL     1      12.710  74.870  71.405  1.00  0.00     0.346 HD
ENDROOT
BRANCH   1   8
ATOM      8  C   UNL     1      13.933  74.645  68.778  1.00  0.00     0.099 C 
ATOM      9  O   UNL     1      14.731  74.386  67.838  1.00  0.00    -0.544 OA
ATOM     10  O   UNL     1      12.696  75.208  68.488  1.00  0.00    -0.544 OA
ENDBRANCH   1   8
TORSDOF 1
ENDMDL
MODEL 3
REMARK VINA RESULT:    -4.196      2.470      3.423
REMARK INTER + INTRA:          -4.469
REMARK INTER:                  -4.443
REMARK INTRA:                  -0.026
REMARK UNBOUND:                -0.028
REMARK SMILES O=C([O-])[C@H]1CCC[NH2+]1
REMARK SMILES IDX 4 1 8 2 7 3 5 4 6 5 2 8 1 9 3 10
REMARK H PARENT 8 6 8 7
REMARK Flexibility Score: inf
ROOT
ATOM      1  C   UNL     1      14.848  75.798  71.229  1.00  0.00     0.229 C 
ATOM      2  N   UNL     1      13.421  76.033  70.994  1.00  0.00    -0.339 N 
ATOM      3  C   UNL     1      13.090  75.304  69.766  1.00  0.00     0.261 C 
ATOM      4  C   UNL     1      15.152  74.412  70.683  1.00  0.00     0.077 C 
ATOM      5  C   UNL     1      14.158  74.234  69.550  1.00  0.00     0.068 C 
ATOM      6  H   UNL     1      12.841  75.656  71.780  1.00  0.00     0.346 HD
ATOM      7  H   UNL     1      13.231  77.057  70.878  1.00  0.00     0.346 HD
ENDROOT
BRANCH   1   8
ATOM      8  C   UNL     1      15.206  75.928  72.687  1.00  0.00     0.099 C 
ATOM      9  O   UNL     1      16.076  76.764  73.050  1.00  0.00    -0.544 OA
ATOM     10  O   UNL     1      14.585  75.131  73.640  1.00  0.00    -0.544 OA
ENDBRANCH   1   8
TORSDOF 1
ENDMDL
MODEL 4
REMARK VINA RESULT:    -4.193      2.509      3.098
REMARK INTER + INTRA:          -4.466
REMARK INTER:                  -4.435
REMARK INTRA:                  -0.031
REMARK UNBOUND:                -0.028
REMARK SMILES O=C([O-])[C@H]1CCC[NH2+]1
REMARK SMILES IDX 4 1 8 2 7 3 5 4 6 5 2 8 1 9 3 10
REMARK H PARENT 8 6 8 7
REMARK Flexibility Score: inf
ROOT
ATOM      1  C   UNL     1      14.309  73.745  69.609  1.00  0.00     0.229 C 
ATOM      2  N   UNL     1      13.379  74.844  69.340  1.00  0.00    -0.339 N 
ATOM      3  C   UNL     1      13.268  75.595  70.595  1.00  0.00     0.261 C 
ATOM      4  C   UNL     1      15.292  74.256  70.650  1.00  0.00     0.077 C 
ATOM      5  C   UNL     1      14.492  75.270  71.449  1.00  0.00     0.068 C 
ATOM      6  H   UNL     1      13.751  75.480  68.596  1.00  0.00     0.346 HD
ATOM      7  H   UNL     1      12.444  74.473  69.048  1.00  0.00     0.346 HD
ENDROOT
BRANCH   1   8
ATOM      8  C   UNL     1      14.999  73.272  68.356  1.00  0.00     0.099 C 
ATOM      9  O   UNL     1      15.261  74.090  67.435  1.00  0.00    -0.544 OA
ATOM     10  O   UNL     1      15.351  71.937  68.205  1.00  0.00    -0.544 OA
ENDBRANCH   1   8
TORSDOF 1
ENDMDL
MODEL 5
REMARK VINA RESULT:    -4.190      2.627      3.683
REMARK INTER + INTRA:          -4.463
REMARK INTER:                  -4.441
REMARK INTRA:                  -0.022
REMARK UNBOUND:                -0.028
REMARK SMILES O=C([O-])[C@H]1CCC[NH2+]1
REMARK SMILES IDX 4 1 8 2 7 3 5 4 6 5 2 8 1 9 3 10
REMARK H PARENT 8 6 8 7
REMARK Flexibility Score: inf
ROOT
ATOM      1  C   UNL     1      14.734  74.966  69.460  1.00  0.00     0.229 C 
ATOM      2  N   UNL     1      14.930  74.982  68.008  1.00  0.00    -0.339 N 
ATOM      3  C   UNL     1      15.362  73.629  67.645  1.00  0.00     0.261 C 
ATOM      4  C   UNL     1      14.285  73.558  69.818  1.00  0.00     0.077 C 
ATOM      5  C   UNL     1      14.938  72.681  68.766  1.00  0.00     0.068 C 
ATOM      6  H   UNL     1      14.036  75.199  67.508  1.00  0.00     0.346 HD
ATOM      7  H   UNL     1      15.660  75.686  67.743  1.00  0.00     0.346 HD
ENDROOT
BRANCH   1   8
ATOM      8  C   UNL     1      13.744  76.011  69.904  1.00  0.00     0.099 C 
ATOM      9  O   UNL     1      12.782  75.690  70.652  1.00  0.00    -0.544 OA
ATOM     10  O   UNL     1      13.881  77.332  69.496  1.00  0.00    -0.544 OA
ENDBRANCH   1   8
TORSDOF 1
ENDMDL
MODEL 6
REMARK VINA RESULT:    -4.166      2.383      3.565
REMARK INTER + INTRA:          -4.438
REMARK INTER:                  -4.406
REMARK INTRA:                  -0.032
REMARK UNBOUND:                -0.028
REMARK SMILES O=C([O-])[C@H]1CCC[NH2+]1
REMARK SMILES IDX 4 1 8 2 7 3 5 4 6 5 2 8 1 9 3 10
REMARK H PARENT 8 6 8 7
REMARK Flexibility Score: inf
ROOT
ATOM      1  C   UNL     1      14.386  74.905  70.834  1.00  0.00     0.229 C 
ATOM      2  N   UNL     1      15.370  74.671  69.774  1.00  0.00    -0.339 N 
ATOM      3  C   UNL     1      14.602  74.547  68.531  1.00  0.00     0.261 C 
ATOM      4  C   UNL     1      13.237  75.670  70.194  1.00  0.00     0.077 C 
ATOM      5  C   UNL     1      13.240  75.205  68.750  1.00  0.00     0.068 C 
ATOM      6  H   UNL     1      16.030  75.479  69.686  1.00  0.00     0.346 HD
ATOM      7  H   UNL     1      15.912  73.795  69.962  1.00  0.00     0.346 HD
ENDROOT
BRANCH   1   8
ATOM      8  C   UNL     1      14.983  75.643  72.002  1.00  0.00     0.099 C 
ATOM      9  O   UNL     1      15.724  76.642  71.805  1.00  0.00    -0.544 OA
ATOM     10  O   UNL     1      14.724  75.231  73.304  1.00  0.00    -0.544 OA
ENDBRANCH   1   8
TORSDOF 1
ENDMDL
MODEL 7
REMARK VINA RESULT:    -4.022      2.376      3.136
REMARK INTER + INTRA:          -4.285
REMARK INTER:                  -4.253
REMARK INTRA:                  -0.032
REMARK UNBOUND:                -0.028
REMARK SMILES O=C([O-])[C@H]1CCC[NH2+]1
REMARK SMILES IDX 4 1 8 2 7 3 5 4 6 5 2 8 1 9 3 10
REMARK H PARENT 8 6 8 7
REMARK Flexibility Score: inf
ROOT
ATOM      1  C   UNL     1      14.915  74.870  69.221  1.00  0.00     0.229 C 
ATOM      2  N   UNL     1      15.320  74.954  70.626  1.00  0.00    -0.339 N 
ATOM      3  C   UNL     1      14.712  76.181  71.149  1.00  0.00     0.261 C 
ATOM      4  C   UNL     1      13.541  75.516  69.130  1.00  0.00     0.077 C 
ATOM      5  C   UNL     1      13.546  76.556  70.235  1.00  0.00     0.068 C 
ATOM      6  H   UNL     1      14.961  74.136  71.173  1.00  0.00     0.346 HD
ATOM      7  H   UNL     1      16.364  74.996  70.705  1.00  0.00     0.346 HD
ENDROOT
BRANCH   1   8
ATOM      8  C   UNL     1      14.911  73.449  68.720  1.00  0.00     0.099 C 
ATOM      9  O   UNL     1      14.194  72.583  69.288  1.00  0.00    -0.544 OA
ATOM     10  O   UNL     1      15.696  73.081  67.634  1.00  0.00    -0.544 OA
ENDBRANCH   1   8
TORSDOF 1
ENDMDL
MODEL 8
REMARK VINA RESULT:    -3.952      9.049      9.893
REMARK INTER + INTRA:          -4.211
REMARK INTER:                  -4.184
REMARK INTRA:                  -0.026
REMARK UNBOUND:                -0.028
REMARK SMILES O=C([O-])[C@H]1CCC[NH2+]1
REMARK SMILES IDX 4 1 8 2 7 3 5 4 6 5 2 8 1 9 3 10
REMARK H PARENT 8 6 8 7
REMARK Flexibility Score: inf
ROOT
ATOM      1  C   UNL     1       5.793  77.092  66.834  1.00  0.00     0.229 C 
ATOM      2  N   UNL     1       5.514  76.394  65.576  1.00  0.00    -0.339 N 
ATOM      3  C   UNL     1       6.135  77.200  64.521  1.00  0.00     0.261 C 
ATOM      4  C   UNL     1       7.135  77.784  66.654  1.00  0.00     0.077 C 
ATOM      5  C   UNL     1       7.203  78.081  65.168  1.00  0.00     0.068 C 
ATOM      6  H   UNL     1       5.943  75.438  65.571  1.00  0.00     0.346 HD
ATOM      7  H   UNL     1       4.481  76.315  65.421  1.00  0.00     0.346 HD
ENDROOT
BRANCH   1   8
ATOM      8  C   UNL     1       5.788  76.153  68.011  1.00  0.00     0.099 C 
ATOM      9  O   UNL     1       6.876  75.774  68.520  1.00  0.00    -0.544 OA
ATOM     10  O   UNL     1       4.589  75.695  68.545  1.00  0.00    -0.544 OA
ENDBRANCH   1   8
TORSDOF 1
ENDMDL
MODEL 9
REMARK VINA RESULT:    -3.941      1.884      2.455
REMARK INTER + INTRA:          -4.199
REMARK INTER:                  -4.168
REMARK INTRA:                  -0.031
REMARK UNBOUND:                -0.028
REMARK SMILES O=C([O-])[C@H]1CCC[NH2+]1
REMARK SMILES IDX 4 1 8 2 7 3 5 4 6 5 2 8 1 9 3 10
REMARK H PARENT 8 6 8 7
REMARK Flexibility Score: inf
ROOT
ATOM      1  C   UNL     1      14.833  76.370  69.949  1.00  0.00     0.229 C 
ATOM      2  N   UNL     1      15.353  75.214  69.215  1.00  0.00    -0.339 N 
ATOM      3  C   UNL     1      15.749  74.236  70.232  1.00  0.00     0.261 C 
ATOM      4  C   UNL     1      14.207  75.826  71.223  1.00  0.00     0.077 C 
ATOM      5  C   UNL     1      15.011  74.574  71.526  1.00  0.00     0.068 C 
ATOM      6  H   UNL     1      14.615  74.790  68.605  1.00  0.00     0.346 HD
ATOM      7  H   UNL     1      16.176  75.490  68.628  1.00  0.00     0.346 HD
ENDROOT
BRANCH   1   8
ATOM      8  C   UNL     1      13.853  77.165  69.126  1.00  0.00     0.099 C 
ATOM      9  O   UNL     1      13.050  76.572  68.358  1.00  0.00    -0.544 OA
ATOM     10  O   UNL     1      13.826  78.552  69.204  1.00  0.00    -0.544 OA
ENDBRANCH   1   8
TORSDOF 1
ENDMDL
