MODEL 1
REMARK VINA RESULT:    -5.246      0.000      0.000
REMARK INTER + INTRA:         -15.844
REMARK INTER:                 -11.994
REMARK INTRA:                  -3.850
REMARK UNBOUND:                -3.850
REMARK SMILES CCCCCCCCCCCCCCCCCCCCCCCC(=O)[O-]
REMARK SMILES IDX 13 1 14 2 15 3 16 4 17 5 18 6 19 7 20 8 21 9 22 10 23 11
REMARK SMILES IDX 24 12 25 13 26 14 12 15 11 16 10 17 9 18 8 19 7 20 6 21 5 22
REMARK SMILES IDX 4 23 3 24 2 25 1 26
REMARK H PARENT
REMARK Flexibility Score: inf
ROOT
ATOM      1  C   UNL     1     -16.475  54.811  -1.057  1.00  0.00     0.000 C 
ENDROOT
BRANCH   1   2
ATOM      2  C   UNL     1     -16.619  56.205  -0.425  1.00  0.00     0.000 C 
BRANCH   2   3
ATOM      3  C   UNL     1     -17.485  56.193   0.847  1.00  0.00     0.000 C 
BRANCH   3   4
ATOM      4  C   UNL     1     -18.530  57.330   0.849  1.00  0.00     0.000 C 
BRANCH   4   5
ATOM      5  C   UNL     1     -19.985  56.837   0.777  1.00  0.00     0.000 C 
BRANCH   5   6
ATOM      6  C   UNL     1     -20.978  57.792   1.455  1.00  0.00     0.000 C 
BRANCH   6   7
ATOM      7  C   UNL     1     -22.350  57.130   1.631  1.00  0.00     0.000 C 
BRANCH   7   8
ATOM      8  C   UNL     1     -23.271  58.002   2.498  1.00  0.00     0.000 C 
BRANCH   8   9
ATOM      9  C   UNL     1     -24.512  58.490   1.731  1.00  0.00     0.000 C 
BRANCH   9  10
ATOM     10  C   UNL     1     -24.840  57.600   0.519  1.00  0.00     0.006 C 
BRANCH  10  11
ATOM     11  C   UNL     1     -25.868  58.250  -0.418  1.00  0.00     0.053 C 
BRANCH  11  12
ATOM     12  C   UNL     1     -25.569  57.967  -1.858  1.00  0.00     0.041 C 
ATOM     13  O   UNL     1     -24.853  58.759  -2.524  1.00  0.00    -0.550 OA
ATOM     14  O   UNL     1     -26.130  56.857  -2.479  1.00  0.00    -0.550 OA
ENDBRANCH  11  12
ENDBRANCH  10  11
ENDBRANCH   9  10
ENDBRANCH   8   9
ENDBRANCH   7   8
ENDBRANCH   6   7
ENDBRANCH   5   6
ENDBRANCH   4   5
ENDBRANCH   3   4
ENDBRANCH   2   3
ENDBRANCH   1   2
BRANCH   1  15
ATOM     15  C   UNL     1     -17.006  54.753  -2.497  1.00  0.00     0.000 C 
BRANCH  15  16
ATOM     16  C   UNL     1     -16.967  56.145  -3.148  1.00  0.00     0.000 C 
BRANCH  16  17
ATOM     17  C   UNL     1     -18.318  56.560  -3.753  1.00  0.00     0.000 C 
BRANCH  17  18
ATOM     18  C   UNL     1     -19.500  56.258  -2.816  1.00  0.00    -0.000 C 
BRANCH  18  19
ATOM     19  C   UNL     1     -20.864  56.634  -3.424  1.00  0.00    -0.000 C 
BRANCH  19  20
ATOM     20  C   UNL     1     -22.071  56.501  -2.476  1.00  0.00    -0.000 C 
BRANCH  20  21
ATOM     21  C   UNL     1     -23.028  55.364  -2.872  1.00  0.00    -0.000 C 
BRANCH  21  22
ATOM     22  C   UNL     1     -23.397  54.454  -1.687  1.00  0.00    -0.000 C 
BRANCH  22  23
ATOM     23  C   UNL     1     -22.468  54.563  -0.461  1.00  0.00    -0.000 C 
BRANCH  23  24
ATOM     24  C   UNL     1     -21.649  53.296  -0.143  1.00  0.00    -0.000 C 
BRANCH  24  25
ATOM     25  C   UNL     1     -20.200  53.320  -0.660  1.00  0.00    -0.003 C 
ATOM     26  C   UNL     1     -20.063  52.741  -2.069  1.00  0.00     0.004 C 
ENDBRANCH  24  25
ENDBRANCH  23  24
ENDBRANCH  22  23
ENDBRANCH  21  22
ENDBRANCH  20  21
ENDBRANCH  19  20
ENDBRANCH  18  19
ENDBRANCH  17  18
ENDBRANCH  16  17
ENDBRANCH  15  16
ENDBRANCH   1  15
TORSDOF 22
ENDMDL
MODEL 2
REMARK VINA RESULT:    -5.172      1.398      4.299
REMARK INTER + INTRA:         -15.674
REMARK INTER:                 -11.657
REMARK INTRA:                  -4.017
REMARK UNBOUND:                -3.850
REMARK SMILES CCCCCCCCCCCCCCCCCCCCCCCC(=O)[O-]
REMARK SMILES IDX 13 1 14 2 15 3 16 4 17 5 18 6 19 7 20 8 21 9 22 10 23 11
REMARK SMILES IDX 24 12 25 13 26 14 12 15 11 16 10 17 9 18 8 19 7 20 6 21 5 22
REMARK SMILES IDX 4 23 3 24 2 25 1 26
REMARK H PARENT
REMARK Flexibility Score: inf
ROOT
ATOM      1  C   UNL     1     -18.029  56.002  -3.977  1.00  0.00     0.000 C 
ENDROOT
BRANCH   1   2
ATOM      2  C   UNL     1     -19.302  56.566  -3.326  1.00  0.00     0.000 C 
BRANCH   2   3
ATOM      3  C   UNL     1     -20.300  55.466  -2.921  1.00  0.00     0.000 C 
BRANCH   3   4
ATOM      4  C   UNL     1     -19.679  54.056  -3.016  1.00  0.00     0.000 C 
BRANCH   4   5
ATOM      5  C   UNL     1     -19.826  53.224  -1.731  1.00  0.00     0.000 C 
BRANCH   5   6
ATOM      6  C   UNL     1     -21.286  52.881  -1.400  1.00  0.00     0.000 C 
BRANCH   6   7
ATOM      7  C   UNL     1     -21.730  53.552  -0.095  1.00  0.00     0.000 C 
BRANCH   7   8
ATOM      8  C   UNL     1     -22.860  54.559  -0.354  1.00  0.00     0.000 C 
BRANCH   8   9
ATOM      9  C   UNL     1     -23.978  54.474   0.700  1.00  0.00     0.000 C 
BRANCH   9  10
ATOM     10  C   UNL     1     -25.052  55.559   0.505  1.00  0.00     0.006 C 
BRANCH  10  11
ATOM     11  C   UNL     1     -26.108  55.153  -0.532  1.00  0.00     0.053 C 
BRANCH  11  12
ATOM     12  C   UNL     1     -25.986  55.947  -1.796  1.00  0.00     0.041 C 
ATOM     13  O   UNL     1     -25.278  55.521  -2.746  1.00  0.00    -0.550 OA
ATOM     14  O   UNL     1     -26.608  57.184  -1.902  1.00  0.00    -0.550 OA
ENDBRANCH  11  12
ENDBRANCH  10  11
ENDBRANCH   9  10
ENDBRANCH   8   9
ENDBRANCH   7   8
ENDBRANCH   6   7
ENDBRANCH   5   6
ENDBRANCH   4   5
ENDBRANCH   3   4
ENDBRANCH   2   3
ENDBRANCH   1   2
BRANCH   1  15
ATOM     15  C   UNL     1     -16.747  56.444  -3.257  1.00  0.00     0.000 C 
BRANCH  15  16
ATOM     16  C   UNL     1     -17.025  56.721  -1.771  1.00  0.00     0.000 C 
BRANCH  16  17
ATOM     17  C   UNL     1     -16.887  55.466  -0.894  1.00  0.00     0.000 C 
BRANCH  17  18
ATOM     18  C   UNL     1     -17.837  55.487   0.316  1.00  0.00    -0.000 C 
BRANCH  18  19
ATOM     19  C   UNL     1     -18.582  56.824   0.476  1.00  0.00    -0.000 C 
BRANCH  19  20
ATOM     20  C   UNL     1     -20.111  56.715   0.630  1.00  0.00    -0.000 C 
BRANCH  20  21
ATOM     21  C   UNL     1     -20.695  57.753   1.604  1.00  0.00    -0.000 C 
BRANCH  21  22
ATOM     22  C   UNL     1     -22.216  57.605   1.793  1.00  0.00    -0.000 C 
BRANCH  22  23
ATOM     23  C   UNL     1     -23.013  58.926   1.760  1.00  0.00    -0.000 C 
BRANCH  23  24
ATOM     24  C   UNL     1     -23.487  59.372   0.363  1.00  0.00    -0.000 C 
BRANCH  24  25
ATOM     25  C   UNL     1     -23.374  58.293  -0.730  1.00  0.00    -0.003 C 
ATOM     26  C   UNL     1     -23.476  58.867  -2.144  1.00  0.00     0.004 C 
ENDBRANCH  24  25
ENDBRANCH  23  24
ENDBRANCH  22  23
ENDBRANCH  21  22
ENDBRANCH  20  21
ENDBRANCH  19  20
ENDBRANCH  18  19
ENDBRANCH  17  18
ENDBRANCH  16  17
ENDBRANCH  15  16
ENDBRANCH   1  15
TORSDOF 22
ENDMDL
MODEL 3
REMARK VINA RESULT:    -5.156      1.489      3.731
REMARK INTER + INTRA:         -15.638
REMARK INTER:                 -11.750
REMARK INTRA:                  -3.888
REMARK UNBOUND:                -3.850
REMARK SMILES CCCCCCCCCCCCCCCCCCCCCCCC(=O)[O-]
REMARK SMILES IDX 13 1 14 2 15 3 16 4 17 5 18 6 19 7 20 8 21 9 22 10 23 11
REMARK SMILES IDX 24 12 25 13 26 14 12 15 11 16 10 17 9 18 8 19 7 20 6 21 5 22
REMARK SMILES IDX 4 23 3 24 2 25 1 26
REMARK H PARENT
REMARK Flexibility Score: inf
ROOT
ATOM      1  C   UNL     1     -16.976  55.452  -0.872  1.00  0.00     0.000 C 
ENDROOT
BRANCH   1   2
ATOM      2  C   UNL     1     -17.036  56.729  -1.725  1.00  0.00     0.000 C 
BRANCH   2   3
ATOM      3  C   UNL     1     -17.323  56.439  -3.209  1.00  0.00     0.000 C 
BRANCH   3   4
ATOM      4  C   UNL     1     -18.817  56.610  -3.556  1.00  0.00     0.000 C 
BRANCH   4   5
ATOM      5  C   UNL     1     -19.706  55.454  -3.069  1.00  0.00     0.000 C 
BRANCH   5   6
ATOM      6  C   UNL     1     -21.193  55.663  -3.388  1.00  0.00     0.000 C 
BRANCH   6   7
ATOM      7  C   UNL     1     -21.723  56.947  -2.740  1.00  0.00     0.000 C 
BRANCH   7   8
ATOM      8  C   UNL     1     -23.211  56.808  -2.384  1.00  0.00     0.000 C 
BRANCH   8   9
ATOM      9  C   UNL     1     -23.738  55.380  -2.608  1.00  0.00     0.000 C 
BRANCH   9  10
ATOM     10  C   UNL     1     -25.208  55.224  -2.179  1.00  0.00     0.006 C 
BRANCH  10  11
ATOM     11  C   UNL     1     -25.805  56.538  -1.658  1.00  0.00     0.053 C 
BRANCH  11  12
ATOM     12  C   UNL     1     -26.316  56.404  -0.257  1.00  0.00     0.041 C 
ATOM     13  O   UNL     1     -26.540  55.265   0.230  1.00  0.00    -0.550 OA
ATOM     14  O   UNL     1     -26.599  57.540   0.491  1.00  0.00    -0.550 OA
ENDBRANCH  11  12
ENDBRANCH  10  11
ENDBRANCH   9  10
ENDBRANCH   8   9
ENDBRANCH   7   8
ENDBRANCH   6   7
ENDBRANCH   5   6
ENDBRANCH   4   5
ENDBRANCH   3   4
ENDBRANCH   2   3
ENDBRANCH   1   2
BRANCH   1  15
ATOM     15  C   UNL     1     -17.768  55.575   0.439  1.00  0.00     0.000 C 
BRANCH  15  16
ATOM     16  C   UNL     1     -18.506  56.921   0.504  1.00  0.00     0.000 C 
BRANCH  16  17
ATOM     17  C   UNL     1     -20.035  56.761   0.554  1.00  0.00     0.000 C 
BRANCH  17  18
ATOM     18  C   UNL     1     -20.697  57.736   1.542  1.00  0.00    -0.000 C 
BRANCH  18  19
ATOM     19  C   UNL     1     -22.181  57.419   1.800  1.00  0.00    -0.000 C 
BRANCH  19  20
ATOM     20  C   UNL     1     -22.787  56.317   0.910  1.00  0.00    -0.000 C 
BRANCH  20  21
ATOM     21  C   UNL     1     -23.470  55.198   1.714  1.00  0.00    -0.000 C 
BRANCH  21  22
ATOM     22  C   UNL     1     -23.399  53.830   1.013  1.00  0.00    -0.000 C 
BRANCH  22  23
ATOM     23  C   UNL     1     -22.002  53.425   0.501  1.00  0.00    -0.000 C 
BRANCH  23  24
ATOM     24  C   UNL     1     -21.894  53.224  -1.024  1.00  0.00    -0.000 C 
BRANCH  24  25
ATOM     25  C   UNL     1     -20.668  52.414  -1.482  1.00  0.00    -0.003 C 
ATOM     26  C   UNL     1     -19.477  52.551  -0.532  1.00  0.00     0.004 C 
ENDBRANCH  24  25
ENDBRANCH  23  24
ENDBRANCH  22  23
ENDBRANCH  21  22
ENDBRANCH  20  21
ENDBRANCH  19  20
ENDBRANCH  18  19
ENDBRANCH  17  18
ENDBRANCH  16  17
ENDBRANCH  15  16
ENDBRANCH   1  15
TORSDOF 22
ENDMDL
MODEL 4
REMARK VINA RESULT:    -5.119      2.524      6.183
REMARK INTER + INTRA:         -15.554
REMARK INTER:                 -11.780
REMARK INTRA:                  -3.774
REMARK UNBOUND:                -3.850
REMARK SMILES CCCCCCCCCCCCCCCCCCCCCCCC(=O)[O-]
REMARK SMILES IDX 13 1 14 2 15 3 16 4 17 5 18 6 19 7 20 8 21 9 22 10 23 11
REMARK SMILES IDX 24 12 25 13 26 14 12 15 11 16 10 17 9 18 8 19 7 20 6 21 5 22
REMARK SMILES IDX 4 23 3 24 2 25 1 26
REMARK H PARENT
REMARK Flexibility Score: inf
ROOT
ATOM      1  C   UNL     1     -23.284  57.924   1.472  1.00  0.00     0.000 C 
ENDROOT
BRANCH   1   2
ATOM      2  C   UNL     1     -23.463  58.565   0.086  1.00  0.00     0.000 C 
BRANCH   2   3
ATOM      3  C   UNL     1     -24.810  58.205  -0.566  1.00  0.00     0.000 C 
BRANCH   3   4
ATOM      4  C   UNL     1     -25.913  57.950   0.484  1.00  0.00     0.000 C 
BRANCH   4   5
ATOM      5  C   UNL     1     -26.796  56.730   0.174  1.00  0.00     0.000 C 
BRANCH   5   6
ATOM      6  C   UNL     1     -25.996  55.520  -0.330  1.00  0.00     0.000 C 
BRANCH   6   7
ATOM      7  C   UNL     1     -25.413  54.717   0.838  1.00  0.00     0.000 C 
BRANCH   7   8
ATOM      8  C   UNL     1     -23.905  54.492   0.650  1.00  0.00     0.000 C 
BRANCH   8   9
ATOM      9  C   UNL     1     -23.418  54.913  -0.747  1.00  0.00     0.000 C 
BRANCH   9  10
ATOM     10  C   UNL     1     -22.427  53.902  -1.352  1.00  0.00     0.006 C 
BRANCH  10  11
ATOM     11  C   UNL     1     -21.208  53.672  -0.448  1.00  0.00     0.053 C 
BRANCH  11  12
ATOM     12  C   UNL     1     -20.367  52.527  -0.924  1.00  0.00     0.041 C 
ATOM     13  O   UNL     1     -20.002  51.631  -0.118  1.00  0.00    -0.550 OA
ATOM     14  O   UNL     1     -19.939  52.480  -2.245  1.00  0.00    -0.550 OA
ENDBRANCH  11  12
ENDBRANCH  10  11
ENDBRANCH   9  10
ENDBRANCH   8   9
ENDBRANCH   7   8
ENDBRANCH   6   7
ENDBRANCH   5   6
ENDBRANCH   4   5
ENDBRANCH   3   4
ENDBRANCH   2   3
ENDBRANCH   1   2
BRANCH   1  15
ATOM     15  C   UNL     1     -21.837  58.002   1.981  1.00  0.00     0.000 C 
BRANCH  15  16
ATOM     16  C   UNL     1     -20.897  57.190   1.076  1.00  0.00     0.000 C 
BRANCH  16  17
ATOM     17  C   UNL     1     -19.420  57.581   1.245  1.00  0.00     0.000 C 
BRANCH  17  18
ATOM     18  C   UNL     1     -18.520  56.966   0.160  1.00  0.00    -0.000 C 
BRANCH  18  19
ATOM     19  C   UNL     1     -17.579  55.874   0.704  1.00  0.00    -0.000 C 
BRANCH  19  20
ATOM     20  C   UNL     1     -17.614  54.534  -0.054  1.00  0.00    -0.000 C 
BRANCH  20  21
ATOM     21  C   UNL     1     -16.556  54.441  -1.167  1.00  0.00    -0.000 C 
BRANCH  21  22
ATOM     22  C   UNL     1     -17.159  54.573  -2.577  1.00  0.00    -0.000 C 
BRANCH  22  23
ATOM     23  C   UNL     1     -17.087  55.985  -3.193  1.00  0.00    -0.000 C 
BRANCH  23  24
ATOM     24  C   UNL     1     -18.443  56.591  -3.607  1.00  0.00    -0.000 C 
BRANCH  24  25
ATOM     25  C   UNL     1     -19.665  55.974  -2.904  1.00  0.00    -0.003 C 
ATOM     26  C   UNL     1     -20.983  56.627  -3.321  1.00  0.00     0.004 C 
ENDBRANCH  24  25
ENDBRANCH  23  24
ENDBRANCH  22  23
ENDBRANCH  21  22
ENDBRANCH  20  21
ENDBRANCH  19  20
ENDBRANCH  18  19
ENDBRANCH  17  18
ENDBRANCH  16  17
ENDBRANCH  15  16
ENDBRANCH   1  15
TORSDOF 22
ENDMDL
MODEL 5
REMARK VINA RESULT:    -5.111      3.081      6.352
REMARK INTER + INTRA:         -15.534
REMARK INTER:                 -11.564
REMARK INTRA:                  -3.970
REMARK UNBOUND:                -3.850
REMARK SMILES CCCCCCCCCCCCCCCCCCCCCCCC(=O)[O-]
REMARK SMILES IDX 13 1 14 2 15 3 16 4 17 5 18 6 19 7 20 8 21 9 22 10 23 11
REMARK SMILES IDX 24 12 25 13 26 14 12 15 11 16 10 17 9 18 8 19 7 20 6 21 5 22
REMARK SMILES IDX 4 23 3 24 2 25 1 26
REMARK H PARENT
REMARK Flexibility Score: inf
ROOT
ATOM      1  C   UNL     1     -21.345  57.025  -2.728  1.00  0.00     0.000 C 
ENDROOT
BRANCH   1   2
ATOM      2  C   UNL     1     -20.327  56.375  -3.679  1.00  0.00     0.000 C 
BRANCH   2   3
ATOM      3  C   UNL     1     -18.870  56.691  -3.296  1.00  0.00     0.000 C 
BRANCH   3   4
ATOM      4  C   UNL     1     -17.885  55.632  -3.837  1.00  0.00     0.000 C 
BRANCH   4   5
ATOM      5  C   UNL     1     -17.484  54.568  -2.801  1.00  0.00     0.000 C 
BRANCH   5   6
ATOM      6  C   UNL     1     -18.691  53.859  -2.170  1.00  0.00     0.000 C 
BRANCH   6   7
ATOM      7  C   UNL     1     -18.363  53.363  -0.757  1.00  0.00     0.000 C 
BRANCH   7   8
ATOM      8  C   UNL     1     -17.833  54.510   0.117  1.00  0.00     0.000 C 
BRANCH   8   9
ATOM      9  C   UNL     1     -18.869  55.630   0.309  1.00  0.00     0.000 C 
BRANCH   9  10
ATOM     10  C   UNL     1     -18.240  57.033   0.226  1.00  0.00     0.006 C 
BRANCH  10  11
ATOM     11  C   UNL     1     -16.765  56.984  -0.197  1.00  0.00     0.053 C 
BRANCH  11  12
ATOM     12  C   UNL     1     -15.935  57.980   0.552  1.00  0.00     0.041 C 
ATOM     13  O   UNL     1     -16.242  58.303   1.730  1.00  0.00    -0.550 OA
ATOM     14  O   UNL     1     -14.856  58.594  -0.071  1.00  0.00    -0.550 OA
ENDBRANCH  11  12
ENDBRANCH  10  11
ENDBRANCH   9  10
ENDBRANCH   8   9
ENDBRANCH   7   8
ENDBRANCH   6   7
ENDBRANCH   5   6
ENDBRANCH   4   5
ENDBRANCH   3   4
ENDBRANCH   2   3
ENDBRANCH   1   2
BRANCH   1  15
ATOM     15  C   UNL     1     -22.325  56.009  -2.123  1.00  0.00     0.000 C 
BRANCH  15  16
ATOM     16  C   UNL     1     -21.917  54.573  -2.490  1.00  0.00     0.000 C 
BRANCH  16  17
ATOM     17  C   UNL     1     -22.128  53.579  -1.336  1.00  0.00     0.000 C 
BRANCH  17  18
ATOM     18  C   UNL     1     -22.191  54.274   0.035  1.00  0.00    -0.000 C 
BRANCH  18  19
ATOM     19  C   UNL     1     -23.187  53.609   1.003  1.00  0.00    -0.000 C 
BRANCH  19  20
ATOM     20  C   UNL     1     -24.424  54.454   1.363  1.00  0.00    -0.000 C 
BRANCH  20  21
ATOM     21  C   UNL     1     -25.157  55.008   0.130  1.00  0.00    -0.000 C 
BRANCH  21  22
ATOM     22  C   UNL     1     -25.575  56.480   0.295  1.00  0.00    -0.000 C 
BRANCH  22  23
ATOM     23  C   UNL     1     -24.424  57.504   0.208  1.00  0.00    -0.000 C 
BRANCH  23  24
ATOM     24  C   UNL     1     -23.928  58.049   1.562  1.00  0.00    -0.000 C 
BRANCH  24  25
ATOM     25  C   UNL     1     -22.638  57.394   2.087  1.00  0.00    -0.003 C 
ATOM     26  C   UNL     1     -21.378  58.167   1.697  1.00  0.00     0.004 C 
ENDBRANCH  24  25
ENDBRANCH  23  24
ENDBRANCH  22  23
ENDBRANCH  21  22
ENDBRANCH  20  21
ENDBRANCH  19  20
ENDBRANCH  18  19
ENDBRANCH  17  18
ENDBRANCH  16  17
ENDBRANCH  15  16
ENDBRANCH   1  15
TORSDOF 22
ENDMDL
MODEL 6
REMARK VINA RESULT:    -5.085      2.358      5.738
REMARK INTER + INTRA:         -15.476
REMARK INTER:                 -11.697
REMARK INTRA:                  -3.780
REMARK UNBOUND:                -3.850
REMARK SMILES CCCCCCCCCCCCCCCCCCCCCCCC(=O)[O-]
REMARK SMILES IDX 13 1 14 2 15 3 16 4 17 5 18 6 19 7 20 8 21 9 22 10 23 11
REMARK SMILES IDX 24 12 25 13 26 14 12 15 11 16 10 17 9 18 8 19 7 20 6 21 5 22
REMARK SMILES IDX 4 23 3 24 2 25 1 26
REMARK H PARENT
REMARK Flexibility Score: inf
ROOT
ATOM      1  C   UNL     1     -25.095  56.453  -2.141  1.00  0.00     0.000 C 
ENDROOT
BRANCH   1   2
ATOM      2  C   UNL     1     -25.896  56.545  -0.832  1.00  0.00     0.000 C 
BRANCH   2   3
ATOM      3  C   UNL     1     -25.976  57.981  -0.285  1.00  0.00     0.000 C 
BRANCH   3   4
ATOM      4  C   UNL     1     -24.765  58.835  -0.716  1.00  0.00     0.000 C 
BRANCH   4   5
ATOM      5  C   UNL     1     -23.478  58.531   0.069  1.00  0.00     0.000 C 
BRANCH   5   6
ATOM      6  C   UNL     1     -23.710  58.411   1.582  1.00  0.00     0.000 C 
BRANCH   6   7
ATOM      7  C   UNL     1     -23.012  57.170   2.152  1.00  0.00     0.000 C 
BRANCH   7   8
ATOM      8  C   UNL     1     -22.744  56.137   1.047  1.00  0.00     0.000 C 
BRANCH   8   9
ATOM      9  C   UNL     1     -23.518  54.826   1.267  1.00  0.00     0.000 C 
BRANCH   9  10
ATOM     10  C   UNL     1     -22.776  53.604   0.698  1.00  0.00     0.006 C 
BRANCH  10  11
ATOM     11  C   UNL     1     -21.637  54.004  -0.250  1.00  0.00     0.053 C 
BRANCH  11  12
ATOM     12  C   UNL     1     -20.745  52.846  -0.574  1.00  0.00     0.041 C 
ATOM     13  O   UNL     1     -20.354  52.072   0.339  1.00  0.00    -0.550 OA
ATOM     14  O   UNL     1     -20.299  52.655  -1.876  1.00  0.00    -0.550 OA
ENDBRANCH  11  12
ENDBRANCH  10  11
ENDBRANCH   9  10
ENDBRANCH   8   9
ENDBRANCH   7   8
ENDBRANCH   6   7
ENDBRANCH   5   6
ENDBRANCH   4   5
ENDBRANCH   3   4
ENDBRANCH   2   3
ENDBRANCH   1   2
BRANCH   1  15
ATOM     15  C   UNL     1     -24.480  55.063  -2.365  1.00  0.00     0.000 C 
BRANCH  15  16
ATOM     16  C   UNL     1     -23.112  55.178  -3.056  1.00  0.00     0.000 C 
BRANCH  16  17
ATOM     17  C   UNL     1     -22.301  56.393  -2.575  1.00  0.00     0.000 C 
BRANCH  17  18
ATOM     18  C   UNL     1     -21.077  56.673  -3.463  1.00  0.00    -0.000 C 
BRANCH  18  19
ATOM     19  C   UNL     1     -19.780  56.050  -2.916  1.00  0.00    -0.000 C 
BRANCH  19  20
ATOM     20  C   UNL     1     -18.493  56.433  -3.671  1.00  0.00    -0.000 C 
BRANCH  20  21
ATOM     21  C   UNL     1     -17.222  55.843  -3.035  1.00  0.00    -0.000 C 
BRANCH  21  22
ATOM     22  C   UNL     1     -17.505  54.591  -2.186  1.00  0.00    -0.000 C 
BRANCH  22  23
ATOM     23  C   UNL     1     -16.648  54.454  -0.911  1.00  0.00    -0.000 C 
BRANCH  23  24
ATOM     24  C   UNL     1     -17.420  54.587   0.416  1.00  0.00    -0.000 C 
BRANCH  24  25
ATOM     25  C   UNL     1     -18.485  55.698   0.433  1.00  0.00    -0.003 C 
ATOM     26  C   UNL     1     -17.879  57.101   0.511  1.00  0.00     0.004 C 
ENDBRANCH  24  25
ENDBRANCH  23  24
ENDBRANCH  22  23
ENDBRANCH  21  22
ENDBRANCH  20  21
ENDBRANCH  19  20
ENDBRANCH  18  19
ENDBRANCH  17  18
ENDBRANCH  16  17
ENDBRANCH  15  16
ENDBRANCH   1  15
TORSDOF 22
ENDMDL
MODEL 7
REMARK VINA RESULT:    -5.065      2.344      6.477
REMARK INTER + INTRA:         -15.431
REMARK INTER:                 -11.250
REMARK INTRA:                  -4.181
REMARK UNBOUND:                -3.850
REMARK SMILES CCCCCCCCCCCCCCCCCCCCCCCC(=O)[O-]
REMARK SMILES IDX 13 1 14 2 15 3 16 4 17 5 18 6 19 7 20 8 21 9 22 10 23 11
REMARK SMILES IDX 24 12 25 13 26 14 12 15 11 16 10 17 9 18 8 19 7 20 6 21 5 22
REMARK SMILES IDX 4 23 3 24 2 25 1 26
REMARK H PARENT
REMARK Flexibility Score: inf
ROOT
ATOM      1  C   UNL     1     -23.787  55.140  -2.521  1.00  0.00     0.000 C 
ENDROOT
BRANCH   1   2
ATOM      2  C   UNL     1     -23.141  56.535  -2.501  1.00  0.00     0.000 C 
BRANCH   2   3
ATOM      3  C   UNL     1     -21.640  56.490  -2.169  1.00  0.00     0.000 C 
BRANCH   3   4
ATOM      4  C   UNL     1     -20.761  56.611  -3.432  1.00  0.00     0.000 C 
BRANCH   4   5
ATOM      5  C   UNL     1     -19.493  55.741  -3.393  1.00  0.00     0.000 C 
BRANCH   5   6
ATOM      6  C   UNL     1     -18.211  56.533  -3.689  1.00  0.00     0.000 C 
BRANCH   6   7
ATOM      7  C   UNL     1     -16.988  55.865  -3.049  1.00  0.00     0.000 C 
BRANCH   7   8
ATOM      8  C   UNL     1     -17.408  54.663  -2.189  1.00  0.00     0.000 C 
BRANCH   8   9
ATOM      9  C   UNL     1     -16.646  54.600  -0.854  1.00  0.00     0.000 C 
BRANCH   9  10
ATOM     10  C   UNL     1     -17.578  54.761   0.361  1.00  0.00     0.006 C 
BRANCH  10  11
ATOM     11  C   UNL     1     -18.762  55.691   0.066  1.00  0.00     0.053 C 
BRANCH  11  12
ATOM     12  C   UNL     1     -18.559  57.057   0.645  1.00  0.00     0.041 C 
ATOM     13  O   UNL     1     -19.515  57.657   1.203  1.00  0.00    -0.550 OA
ATOM     14  O   UNL     1     -17.329  57.691   0.517  1.00  0.00    -0.550 OA
ENDBRANCH  11  12
ENDBRANCH  10  11
ENDBRANCH   9  10
ENDBRANCH   8   9
ENDBRANCH   7   8
ENDBRANCH   6   7
ENDBRANCH   5   6
ENDBRANCH   4   5
ENDBRANCH   3   4
ENDBRANCH   2   3
ENDBRANCH   1   2
BRANCH   1  15
ATOM     15  C   UNL     1     -25.204  55.133  -1.929  1.00  0.00     0.000 C 
BRANCH  15  16
ATOM     16  C   UNL     1     -25.886  56.495  -2.132  1.00  0.00     0.000 C 
BRANCH  16  17
ATOM     17  C   UNL     1     -26.798  56.888  -0.958  1.00  0.00     0.000 C 
BRANCH  17  18
ATOM     18  C   UNL     1     -26.013  57.118   0.345  1.00  0.00    -0.000 C 
BRANCH  18  19
ATOM     19  C   UNL     1     -25.137  58.383   0.306  1.00  0.00    -0.000 C 
BRANCH  19  20
ATOM     20  C   UNL     1     -23.636  58.157   0.566  1.00  0.00    -0.000 C 
BRANCH  20  21
ATOM     21  C   UNL     1     -23.363  57.107   1.656  1.00  0.00    -0.000 C 
BRANCH  21  22
ATOM     22  C   UNL     1     -22.671  55.845   1.111  1.00  0.00    -0.000 C 
BRANCH  22  23
ATOM     23  C   UNL     1     -23.476  54.537   1.261  1.00  0.00    -0.000 C 
BRANCH  23  24
ATOM     24  C   UNL     1     -22.835  53.295   0.612  1.00  0.00    -0.000 C 
BRANCH  24  25
ATOM     25  C   UNL     1     -21.406  53.509   0.082  1.00  0.00    -0.003 C 
ATOM     26  C   UNL     1     -21.217  52.994  -1.345  1.00  0.00     0.004 C 
ENDBRANCH  24  25
ENDBRANCH  23  24
ENDBRANCH  22  23
ENDBRANCH  21  22
ENDBRANCH  20  21
ENDBRANCH  19  20
ENDBRANCH  18  19
ENDBRANCH  17  18
ENDBRANCH  16  17
ENDBRANCH  15  16
ENDBRANCH   1  15
TORSDOF 22
ENDMDL
MODEL 8
REMARK VINA RESULT:    -5.038      2.250      5.262
REMARK INTER + INTRA:         -15.367
REMARK INTER:                 -12.071
REMARK INTRA:                  -3.296
REMARK UNBOUND:                -3.850
REMARK SMILES CCCCCCCCCCCCCCCCCCCCCCCC(=O)[O-]
REMARK SMILES IDX 13 1 14 2 15 3 16 4 17 5 18 6 19 7 20 8 21 9 22 10 23 11
REMARK SMILES IDX 24 12 25 13 26 14 12 15 11 16 10 17 9 18 8 19 7 20 6 21 5 22
REMARK SMILES IDX 4 23 3 24 2 25 1 26
REMARK H PARENT
REMARK Flexibility Score: inf
ROOT
ATOM      1  C   UNL     1     -21.514  52.970   0.003  1.00  0.00     0.000 C 
ENDROOT
BRANCH   1   2
ATOM      2  C   UNL     1     -22.543  54.110  -0.061  1.00  0.00     0.000 C 
BRANCH   2   3
ATOM      3  C   UNL     1     -21.920  55.447  -0.500  1.00  0.00     0.000 C 
BRANCH   3   4
ATOM      4  C   UNL     1     -22.522  55.961  -1.825  1.00  0.00     0.000 C 
BRANCH   4   5
ATOM      5  C   UNL     1     -23.594  55.035  -2.422  1.00  0.00     0.000 C 
BRANCH   5   6
ATOM      6  C   UNL     1     -24.986  55.681  -2.476  1.00  0.00     0.000 C 
BRANCH   6   7
ATOM      7  C   UNL     1     -25.912  55.091  -1.405  1.00  0.00     0.000 C 
BRANCH   7   8
ATOM      8  C   UNL     1     -26.353  56.171  -0.406  1.00  0.00     0.000 C 
BRANCH   8   9
ATOM      9  C   UNL     1     -25.238  56.544   0.587  1.00  0.00     0.000 C 
BRANCH   9  10
ATOM     10  C   UNL     1     -25.139  58.064   0.813  1.00  0.00     0.006 C 
BRANCH  10  11
ATOM     11  C   UNL     1     -23.688  58.562   0.788  1.00  0.00     0.053 C 
BRANCH  11  12
ATOM     12  C   UNL     1     -22.969  58.256   2.066  1.00  0.00     0.041 C 
ATOM     13  O   UNL     1     -23.548  58.414   3.172  1.00  0.00    -0.550 OA
ATOM     14  O   UNL     1     -21.640  57.851   2.035  1.00  0.00    -0.550 OA
ENDBRANCH  11  12
ENDBRANCH  10  11
ENDBRANCH   9  10
ENDBRANCH   8   9
ENDBRANCH   7   8
ENDBRANCH   6   7
ENDBRANCH   5   6
ENDBRANCH   4   5
ENDBRANCH   3   4
ENDBRANCH   2   3
ENDBRANCH   1   2
BRANCH   1  15
ATOM     15  C   UNL     1     -20.169  53.346  -0.637  1.00  0.00     0.000 C 
BRANCH  15  16
ATOM     16  C   UNL     1     -20.089  52.825  -2.080  1.00  0.00     0.000 C 
BRANCH  16  17
ATOM     17  C   UNL     1     -18.965  53.490  -2.893  1.00  0.00     0.000 C 
BRANCH  17  18
ATOM     18  C   UNL     1     -19.356  54.888  -3.403  1.00  0.00    -0.000 C 
BRANCH  18  19
ATOM     19  C   UNL     1     -18.173  55.874  -3.425  1.00  0.00    -0.000 C 
BRANCH  19  20
ATOM     20  C   UNL     1     -17.419  56.032  -2.092  1.00  0.00    -0.000 C 
BRANCH  20  21
ATOM     21  C   UNL     1     -18.299  56.595  -0.963  1.00  0.00    -0.000 C 
BRANCH  21  22
ATOM     22  C   UNL     1     -17.897  56.069   0.427  1.00  0.00    -0.000 C 
BRANCH  22  23
ATOM     23  C   UNL     1     -16.932  56.975   1.218  1.00  0.00    -0.000 C 
BRANCH  23  24
ATOM     24  C   UNL     1     -15.692  57.454   0.437  1.00  0.00    -0.000 C 
BRANCH  24  25
ATOM     25  C   UNL     1     -15.363  58.949   0.605  1.00  0.00    -0.003 C 
ATOM     26  C   UNL     1     -13.987  59.187   1.230  1.00  0.00     0.004 C 
ENDBRANCH  24  25
ENDBRANCH  23  24
ENDBRANCH  22  23
ENDBRANCH  21  22
ENDBRANCH  20  21
ENDBRANCH  19  20
ENDBRANCH  18  19
ENDBRANCH  17  18
ENDBRANCH  16  17
ENDBRANCH  15  16
ENDBRANCH   1  15
TORSDOF 22
ENDMDL
MODEL 9
REMARK VINA RESULT:    -5.035      2.223      5.238
REMARK INTER + INTRA:         -15.362
REMARK INTER:                 -11.045
REMARK INTRA:                  -4.317
REMARK UNBOUND:                -3.850
REMARK SMILES CCCCCCCCCCCCCCCCCCCCCCCC(=O)[O-]
REMARK SMILES IDX 13 1 14 2 15 3 16 4 17 5 18 6 19 7 20 8 21 9 22 10 23 11
REMARK SMILES IDX 24 12 25 13 26 14 12 15 11 16 10 17 9 18 8 19 7 20 6 21 5 22
REMARK SMILES IDX 4 23 3 24 2 25 1 26
REMARK H PARENT
REMARK Flexibility Score: inf
ROOT
ATOM      1  C   UNL     1     -22.228  55.455   0.281  1.00  0.00     0.000 C 
ENDROOT
BRANCH   1   2
ATOM      2  C   UNL     1     -23.433  55.548   1.231  1.00  0.00     0.000 C 
BRANCH   2   3
ATOM      3  C   UNL     1     -24.601  54.644   0.798  1.00  0.00     0.000 C 
BRANCH   3   4
ATOM      4  C   UNL     1     -25.823  55.461   0.327  1.00  0.00     0.000 C 
BRANCH   4   5
ATOM      5  C   UNL     1     -26.306  55.098  -1.088  1.00  0.00     0.000 C 
BRANCH   5   6
ATOM      6  C   UNL     1     -25.559  55.860  -2.192  1.00  0.00     0.000 C 
BRANCH   6   7
ATOM      7  C   UNL     1     -25.334  57.325  -1.799  1.00  0.00     0.000 C 
BRANCH   7   8
ATOM      8  C   UNL     1     -23.899  57.766  -2.127  1.00  0.00     0.000 C 
BRANCH   8   9
ATOM      9  C   UNL     1     -23.346  58.773  -1.105  1.00  0.00     0.000 C 
BRANCH   9  10
ATOM     10  C   UNL     1     -24.253  58.913   0.131  1.00  0.00     0.006 C 
BRANCH  10  11
ATOM     11  C   UNL     1     -23.515  59.531   1.327  1.00  0.00     0.053 C 
BRANCH  11  12
ATOM     12  C   UNL     1     -24.169  59.183   2.629  1.00  0.00     0.041 C 
ATOM     13  O   UNL     1     -25.241  59.747   2.969  1.00  0.00    -0.550 OA
ATOM     14  O   UNL     1     -23.563  58.277   3.491  1.00  0.00    -0.550 OA
ENDBRANCH  11  12
ENDBRANCH  10  11
ENDBRANCH   9  10
ENDBRANCH   8   9
ENDBRANCH   7   8
ENDBRANCH   6   7
ENDBRANCH   5   6
ENDBRANCH   4   5
ENDBRANCH   3   4
ENDBRANCH   2   3
ENDBRANCH   1   2
BRANCH   1  15
ATOM     15  C   UNL     1     -22.238  54.175  -0.569  1.00  0.00     0.000 C 
BRANCH  15  16
ATOM     16  C   UNL     1     -22.183  54.517  -2.066  1.00  0.00     0.000 C 
BRANCH  16  17
ATOM     17  C   UNL     1     -20.766  54.871  -2.546  1.00  0.00     0.000 C 
BRANCH  17  18
ATOM     18  C   UNL     1     -20.652  56.332  -3.016  1.00  0.00    -0.000 C 
BRANCH  18  19
ATOM     19  C   UNL     1     -19.258  56.680  -3.569  1.00  0.00    -0.000 C 
BRANCH  19  20
ATOM     20  C   UNL     1     -18.308  55.485  -3.771  1.00  0.00    -0.000 C 
BRANCH  20  21
ATOM     21  C   UNL     1     -16.996  55.615  -2.977  1.00  0.00    -0.000 C 
BRANCH  21  22
ATOM     22  C   UNL     1     -16.801  54.479  -1.957  1.00  0.00    -0.000 C 
BRANCH  22  23
ATOM     23  C   UNL     1     -16.815  54.916  -0.478  1.00  0.00    -0.000 C 
BRANCH  23  24
ATOM     24  C   UNL     1     -18.216  55.090   0.142  1.00  0.00    -0.000 C 
BRANCH  24  25
ATOM     25  C   UNL     1     -18.732  56.540   0.169  1.00  0.00    -0.003 C 
ATOM     26  C   UNL     1     -17.731  57.515   0.789  1.00  0.00     0.004 C 
ENDBRANCH  24  25
ENDBRANCH  23  24
ENDBRANCH  22  23
ENDBRANCH  21  22
ENDBRANCH  20  21
ENDBRANCH  19  20
ENDBRANCH  18  19
ENDBRANCH  17  18
ENDBRANCH  16  17
ENDBRANCH  15  16
ENDBRANCH   1  15
TORSDOF 22
ENDMDL
