MODEL 1
REMARK VINA RESULT:    -3.690      0.000      0.000
REMARK INTER + INTRA:          -4.399
REMARK INTER:                  -4.337
REMARK INTRA:                  -0.061
REMARK UNBOUND:                -0.061
REMARK SMILES O=C([O-])CCC(=O)[O-]
REMARK SMILES IDX 4 1 2 2 1 3 3 4 5 5 6 6 7 7 8 8
REMARK H PARENT
REMARK Flexibility Score: inf
ROOT
ATOM      1  C   UNL     1     -38.765  18.986 -28.720  1.00  0.00     0.059 C 
ENDROOT
BRANCH   1   2
ATOM      2  C   UNL     1     -40.074  19.699 -28.595  1.00  0.00     0.042 C 
ATOM      3  O   UNL     1     -40.225  20.842 -29.103  1.00  0.00    -0.550 OA
ATOM      4  O   UNL     1     -41.144  19.082 -27.959  1.00  0.00    -0.550 OA
ENDBRANCH   1   2
BRANCH   1   5
ATOM      5  C   UNL     1     -38.444  18.712 -30.190  1.00  0.00     0.059 C 
BRANCH   5   6
ATOM      6  C   UNL     1     -38.504  17.244 -30.474  1.00  0.00     0.042 C 
ATOM      7  O   UNL     1     -37.577  16.484 -30.084  1.00  0.00    -0.550 OA
ATOM      8  O   UNL     1     -39.558  16.720 -31.211  1.00  0.00    -0.550 OA
ENDBRANCH   5   6
ENDBRANCH   1   5
TORSDOF 3
ENDMDL
MODEL 2
REMARK VINA RESULT:    -3.681      0.085      1.148
REMARK INTER + INTRA:          -4.387
REMARK INTER:                  -4.323
REMARK INTRA:                  -0.064
REMARK UNBOUND:                -0.061
REMARK SMILES O=C([O-])CCC(=O)[O-]
REMARK SMILES IDX 4 1 2 2 1 3 3 4 5 5 6 6 7 7 8 8
REMARK H PARENT
REMARK Flexibility Score: inf
ROOT
ATOM      1  C   UNL     1     -38.770  19.013 -28.791  1.00  0.00     0.059 C 
ENDROOT
BRANCH   1   2
ATOM      2  C   UNL     1     -40.074  19.724 -28.618  1.00  0.00     0.042 C 
ATOM      3  O   UNL     1     -40.246  20.866 -29.121  1.00  0.00    -0.550 OA
ATOM      4  O   UNL     1     -41.119  19.107 -27.942  1.00  0.00    -0.550 OA
ENDBRANCH   1   2
BRANCH   1   5
ATOM      5  C   UNL     1     -38.523  18.702 -30.269  1.00  0.00     0.059 C 
BRANCH   5   6
ATOM      6  C   UNL     1     -38.595  17.227 -30.512  1.00  0.00     0.042 C 
ATOM      7  O   UNL     1     -39.556  16.738 -31.163  1.00  0.00    -0.550 OA
ATOM      8  O   UNL     1     -37.627  16.386 -29.978  1.00  0.00    -0.550 OA
ENDBRANCH   5   6
ENDBRANCH   1   5
TORSDOF 3
ENDMDL
MODEL 3
REMARK VINA RESULT:    -3.679      0.079      1.146
REMARK INTER + INTRA:          -4.386
REMARK INTER:                  -4.323
REMARK INTRA:                  -0.063
REMARK UNBOUND:                -0.061
REMARK SMILES O=C([O-])CCC(=O)[O-]
REMARK SMILES IDX 4 1 2 2 1 3 3 4 5 5 6 6 7 7 8 8
REMARK H PARENT
REMARK Flexibility Score: inf
ROOT
ATOM      1  C   UNL     1     -38.753  18.992 -28.745  1.00  0.00     0.059 C 
ENDROOT
BRANCH   1   2
ATOM      2  C   UNL     1     -40.086  19.660 -28.612  1.00  0.00     0.042 C 
ATOM      3  O   UNL     1     -41.013  19.101 -27.968  1.00  0.00    -0.550 OA
ATOM      4  O   UNL     1     -40.289  20.922 -29.156  1.00  0.00    -0.550 OA
ENDBRANCH   1   2
BRANCH   1   5
ATOM      5  C   UNL     1     -38.451  18.689 -30.214  1.00  0.00     0.059 C 
BRANCH   5   6
ATOM      6  C   UNL     1     -38.480  17.214 -30.460  1.00  0.00     0.042 C 
ATOM      7  O   UNL     1     -37.521  16.489 -30.083  1.00  0.00    -0.550 OA
ATOM      8  O   UNL     1     -39.543  16.645 -31.151  1.00  0.00    -0.550 OA
ENDBRANCH   5   6
ENDBRANCH   1   5
TORSDOF 3
ENDMDL
MODEL 4
REMARK VINA RESULT:    -3.679      0.124      3.881
REMARK INTER + INTRA:          -4.386
REMARK INTER:                  -4.324
REMARK INTRA:                  -0.062
REMARK UNBOUND:                -0.061
REMARK SMILES O=C([O-])CCC(=O)[O-]
REMARK SMILES IDX 4 1 2 2 1 3 3 4 5 5 6 6 7 7 8 8
REMARK H PARENT
REMARK Flexibility Score: inf
ROOT
ATOM      1  C   UNL     1     -38.492  18.681 -30.289  1.00  0.00     0.059 C 
ENDROOT
BRANCH   1   2
ATOM      2  C   UNL     1     -38.569  17.207 -30.532  1.00  0.00     0.042 C 
ATOM      3  O   UNL     1     -39.490  16.729 -31.246  1.00  0.00    -0.550 OA
ATOM      4  O   UNL     1     -37.594  16.364 -30.013  1.00  0.00    -0.550 OA
ENDBRANCH   1   2
BRANCH   1   5
ATOM      5  C   UNL     1     -38.736  18.993 -28.811  1.00  0.00     0.059 C 
BRANCH   5   6
ATOM      6  C   UNL     1     -40.037  19.711 -28.636  1.00  0.00     0.042 C 
ATOM      7  O   UNL     1     -40.979  19.170 -27.997  1.00  0.00    -0.550 OA
ATOM      8  O   UNL     1     -40.228  20.956 -29.221  1.00  0.00    -0.550 OA
ENDBRANCH   5   6
ENDBRANCH   1   5
TORSDOF 3
ENDMDL
MODEL 5
REMARK VINA RESULT:    -3.665      0.148      3.855
REMARK INTER + INTRA:          -4.369
REMARK INTER:                  -4.298
REMARK INTRA:                  -0.071
REMARK UNBOUND:                -0.061
REMARK SMILES O=C([O-])CCC(=O)[O-]
REMARK SMILES IDX 4 1 2 2 1 3 3 4 5 5 6 6 7 7 8 8
REMARK H PARENT
REMARK Flexibility Score: inf
ROOT
ATOM      1  C   UNL     1     -38.327  18.621 -30.248  1.00  0.00     0.059 C 
ENDROOT
BRANCH   1   2
ATOM      2  C   UNL     1     -38.475  17.151 -30.482  1.00  0.00     0.042 C 
ATOM      3  O   UNL     1     -37.669  16.340 -29.953  1.00  0.00    -0.550 OA
ATOM      4  O   UNL     1     -39.534  16.671 -31.243  1.00  0.00    -0.550 OA
ENDBRANCH   1   2
BRANCH   1   5
ATOM      5  C   UNL     1     -38.671  18.970 -28.799  1.00  0.00     0.059 C 
BRANCH   5   6
ATOM      6  C   UNL     1     -39.988  19.677 -28.730  1.00  0.00     0.042 C 
ATOM      7  O   UNL     1     -40.110  20.837 -29.207  1.00  0.00    -0.550 OA
ATOM      8  O   UNL     1     -41.067  19.077 -28.094  1.00  0.00    -0.550 OA
ENDBRANCH   5   6
ENDBRANCH   1   5
TORSDOF 3
ENDMDL
MODEL 6
REMARK VINA RESULT:    -3.464      1.935      3.818
REMARK INTER + INTRA:          -4.133
REMARK INTER:                  -4.027
REMARK INTRA:                  -0.106
REMARK UNBOUND:                -0.061
REMARK SMILES O=C([O-])CCC(=O)[O-]
REMARK SMILES IDX 4 1 2 2 1 3 3 4 5 5 6 6 7 7 8 8
REMARK H PARENT
REMARK Flexibility Score: inf
ROOT
ATOM      1  C   UNL     1     -38.658  18.605 -30.412  1.00  0.00     0.059 C 
ENDROOT
BRANCH   1   2
ATOM      2  C   UNL     1     -38.677  17.121 -30.594  1.00  0.00     0.042 C 
ATOM      3  O   UNL     1     -39.560  16.581 -31.313  1.00  0.00    -0.550 OA
ATOM      4  O   UNL     1     -37.690  16.335 -30.012  1.00  0.00    -0.550 OA
ENDBRANCH   1   2
BRANCH   1   5
ATOM      5  C   UNL     1     -38.938  18.969 -28.953  1.00  0.00     0.059 C 
BRANCH   5   6
ATOM      6  C   UNL     1     -37.667  19.321 -28.248  1.00  0.00     0.042 C 
ATOM      7  O   UNL     1     -37.114  20.434 -28.455  1.00  0.00    -0.550 OA
ATOM      8  O   UNL     1     -37.064  18.401 -27.399  1.00  0.00    -0.550 OA
ENDBRANCH   5   6
ENDBRANCH   1   5
TORSDOF 3
ENDMDL
MODEL 7
REMARK VINA RESULT:    -3.442      1.100      1.759
REMARK INTER + INTRA:          -4.107
REMARK INTER:                  -4.080
REMARK INTRA:                  -0.026
REMARK UNBOUND:                -0.061
REMARK SMILES O=C([O-])CCC(=O)[O-]
REMARK SMILES IDX 4 1 2 2 1 3 3 4 5 5 6 6 7 7 8 8
REMARK H PARENT
REMARK Flexibility Score: inf
ROOT
ATOM      1  C   UNL     1     -39.102  19.192 -29.090  1.00  0.00     0.059 C 
ENDROOT
BRANCH   1   2
ATOM      2  C   UNL     1     -39.215  20.683 -29.047  1.00  0.00     0.042 C 
ATOM      3  O   UNL     1     -38.217  21.386 -28.736  1.00  0.00    -0.550 OA
ATOM      4  O   UNL     1     -40.408  21.301 -29.399  1.00  0.00    -0.550 OA
ENDBRANCH   1   2
BRANCH   1   5
ATOM      5  C   UNL     1     -38.433  18.743 -30.390  1.00  0.00     0.059 C 
BRANCH   5   6
ATOM      6  C   UNL     1     -38.539  17.260 -30.549  1.00  0.00     0.042 C 
ATOM      7  O   UNL     1     -39.527  16.756 -31.148  1.00  0.00    -0.550 OA
ATOM      8  O   UNL     1     -37.575  16.429 -29.993  1.00  0.00    -0.550 OA
ENDBRANCH   5   6
ENDBRANCH   1   5
TORSDOF 3
ENDMDL
MODEL 8
REMARK VINA RESULT:    -3.341     15.674     16.580
REMARK INTER + INTRA:          -3.988
REMARK INTER:                  -3.875
REMARK INTRA:                  -0.112
REMARK UNBOUND:                -0.061
REMARK SMILES O=C([O-])CCC(=O)[O-]
REMARK SMILES IDX 4 1 2 2 1 3 3 4 5 5 6 6 7 7 8 8
REMARK H PARENT
REMARK Flexibility Score: inf
ROOT
ATOM      1  C   UNL     1     -52.989  23.095 -37.139  1.00  0.00     0.059 C 
ENDROOT
BRANCH   1   2
ATOM      2  C   UNL     1     -53.351  21.954 -38.036  1.00  0.00     0.042 C 
ATOM      3  O   UNL     1     -53.057  21.992 -39.260  1.00  0.00    -0.550 OA
ATOM      4  O   UNL     1     -53.968  20.825 -37.512  1.00  0.00    -0.550 OA
ENDBRANCH   1   2
BRANCH   1   5
ATOM      5  C   UNL     1     -52.735  24.361 -37.959  1.00  0.00     0.059 C 
BRANCH   5   6
ATOM      6  C   UNL     1     -51.282  24.717 -37.936  1.00  0.00     0.042 C 
ATOM      7  O   UNL     1     -50.917  25.872 -37.589  1.00  0.00    -0.550 OA
ATOM      8  O   UNL     1     -50.332  23.789 -38.346  1.00  0.00    -0.550 OA
ENDBRANCH   5   6
ENDBRANCH   1   5
TORSDOF 3
ENDMDL
MODEL 9
REMARK VINA RESULT:    -3.302     15.603     16.437
REMARK INTER + INTRA:          -3.942
REMARK INTER:                  -3.834
REMARK INTRA:                  -0.108
REMARK UNBOUND:                -0.061
REMARK SMILES O=C([O-])CCC(=O)[O-]
REMARK SMILES IDX 4 1 2 2 1 3 3 4 5 5 6 6 7 7 8 8
REMARK H PARENT
REMARK Flexibility Score: inf
ROOT
ATOM      1  C   UNL     1     -52.608  24.491 -38.017  1.00  0.00     0.059 C 
ENDROOT
BRANCH   1   2
ATOM      2  C   UNL     1     -51.143  24.778 -37.918  1.00  0.00     0.042 C 
ATOM      3  O   UNL     1     -50.302  23.916 -38.286  1.00  0.00    -0.550 OA
ATOM      4  O   UNL     1     -50.706  26.017 -37.467  1.00  0.00    -0.550 OA
ENDBRANCH   1   2
BRANCH   1   5
ATOM      5  C   UNL     1     -52.980  23.298 -37.134  1.00  0.00     0.059 C 
BRANCH   5   6
ATOM      6  C   UNL     1     -53.266  22.094 -37.975  1.00  0.00     0.042 C 
ATOM      7  O   UNL     1     -53.124  22.146 -39.226  1.00  0.00    -0.550 OA
ATOM      8  O   UNL     1     -53.738  20.929 -37.384  1.00  0.00    -0.550 OA
ENDBRANCH   5   6
ENDBRANCH   1   5
TORSDOF 3
ENDMDL
