MODEL 1
REMARK VINA RESULT:    -6.302      0.000      0.000
REMARK INTER + INTRA:          -6.900
REMARK INTER:                  -6.855
REMARK INTRA:                  -0.045
REMARK UNBOUND:                -0.045
REMARK SMILES COc1cc2ccc(=O)oc2cc1O
REMARK SMILES IDX 3 1 13 2 12 3 11 4 5 5 4 6 6 7 7 8 8 9 9 10 10 11 2 12 1 13
REMARK SMILES IDX 14 14
REMARK H PARENT 14 15
REMARK Flexibility Score: inf
ROOT
ATOM      1  C   UNL     1       9.924  70.818  -0.951  1.00  0.00     0.161 A 
ATOM      2  C   UNL     1       9.463  69.799  -1.799  1.00  0.00     0.161 A 
ATOM      3  C   UNL     1       9.100  68.550  -1.272  1.00  0.00     0.098 A 
ATOM      4  C   UNL     1       9.196  68.309   0.100  1.00  0.00     0.142 A 
ATOM      5  C   UNL     1       9.659  69.329   0.959  1.00  0.00     0.022 A 
ATOM      6  C   UNL     1      10.021  70.576   0.434  1.00  0.00     0.062 A 
ATOM      7  C   UNL     1       9.743  69.058   2.328  1.00  0.00     0.019 A 
ATOM      8  C   UNL     1       9.371  67.801   2.802  1.00  0.00     0.094 A 
ATOM      9  C   UNL     1       8.922  66.839   1.892  1.00  0.00     0.336 A 
ATOM     10  O   UNL     1       8.581  65.697   2.299  1.00  0.00    -0.246 OA
ATOM     11  O   UNL     1       8.851  67.123   0.593  1.00  0.00    -0.423 OA
ENDROOT
BRANCH   1  12
ATOM     12  O   UNL     1      10.276  72.052  -1.521  1.00  0.00    -0.493 OA
ATOM     13  C   UNL     1      10.884  73.125  -0.810  1.00  0.00     0.278 C 
ENDBRANCH   1  12
BRANCH   2  14
ATOM     14  O   UNL     1       9.367  70.035  -3.169  1.00  0.00    -0.504 OA
ATOM     15  H   UNL     1      10.190  70.148  -3.748  1.00  0.00     0.293 HD
ENDBRANCH   2  14
TORSDOF 2
ENDMDL
MODEL 2
REMARK VINA RESULT:    -6.252      1.999      3.463
REMARK INTER + INTRA:          -6.846
REMARK INTER:                  -6.789
REMARK INTRA:                  -0.057
REMARK UNBOUND:                -0.045
REMARK SMILES COc1cc2ccc(=O)oc2cc1O
REMARK SMILES IDX 3 1 13 2 12 3 11 4 5 5 4 6 6 7 7 8 8 9 9 10 10 11 2 12 1 13
REMARK SMILES IDX 14 14
REMARK H PARENT 14 15
REMARK Flexibility Score: inf
ROOT
ATOM      1  C   UNL     1       9.955  70.777   1.123  1.00  0.00     0.161 A 
ATOM      2  C   UNL     1      10.153  69.725   2.030  1.00  0.00     0.161 A 
ATOM      3  C   UNL     1      10.130  68.394   1.586  1.00  0.00     0.098 A 
ATOM      4  C   UNL     1       9.909  68.105   0.237  1.00  0.00     0.142 A 
ATOM      5  C   UNL     1       9.710  69.158  -0.681  1.00  0.00     0.022 A 
ATOM      6  C   UNL     1       9.733  70.487  -0.238  1.00  0.00     0.062 A 
ATOM      7  C   UNL     1       9.491  68.837  -2.024  1.00  0.00     0.019 A 
ATOM      8  C   UNL     1       9.477  67.499  -2.416  1.00  0.00     0.094 A 
ATOM      9  C   UNL     1       9.681  66.508  -1.450  1.00  0.00     0.336 A 
ATOM     10  O   UNL     1       9.672  65.294  -1.782  1.00  0.00    -0.246 OA
ATOM     11  O   UNL     1       9.888  66.841  -0.177  1.00  0.00    -0.423 OA
ENDROOT
BRANCH   1  12
ATOM     12  O   UNL     1       9.987  72.094   1.611  1.00  0.00    -0.493 OA
ATOM     13  C   UNL     1      10.825  73.125   1.098  1.00  0.00     0.278 C 
ENDBRANCH   1  12
BRANCH   2  14
ATOM     14  O   UNL     1      10.373  70.009   3.377  1.00  0.00    -0.504 OA
ATOM     15  H   UNL     1      11.281  69.876   3.806  1.00  0.00     0.293 HD
ENDBRANCH   2  14
TORSDOF 2
ENDMDL
MODEL 3
REMARK VINA RESULT:    -6.111      2.291      3.804
REMARK INTER + INTRA:          -6.692
REMARK INTER:                  -6.656
REMARK INTRA:                  -0.036
REMARK UNBOUND:                -0.045
REMARK SMILES COc1cc2ccc(=O)oc2cc1O
REMARK SMILES IDX 3 1 13 2 12 3 11 4 5 5 4 6 6 7 7 8 8 9 9 10 10 11 2 12 1 13
REMARK SMILES IDX 14 14
REMARK H PARENT 14 15
REMARK Flexibility Score: inf
ROOT
ATOM      1  C   UNL     1       9.500  70.737   2.330  1.00  0.00     0.161 A 
ATOM      2  C   UNL     1       9.996  71.497   1.260  1.00  0.00     0.161 A 
ATOM      3  C   UNL     1      10.090  70.936  -0.023  1.00  0.00     0.098 A 
ATOM      4  C   UNL     1       9.692  69.616  -0.246  1.00  0.00     0.142 A 
ATOM      5  C   UNL     1       9.192  68.845   0.825  1.00  0.00     0.022 A 
ATOM      6  C   UNL     1       9.097  69.405   2.106  1.00  0.00     0.062 A 
ATOM      7  C   UNL     1       8.802  67.527   0.571  1.00  0.00     0.019 A 
ATOM      8  C   UNL     1       8.915  67.016  -0.721  1.00  0.00     0.094 A 
ATOM      9  C   UNL     1       9.420  67.838  -1.734  1.00  0.00     0.336 A 
ATOM     10  O   UNL     1       9.531  67.396  -2.907  1.00  0.00    -0.246 OA
ATOM     11  O   UNL     1       9.785  69.090  -1.465  1.00  0.00    -0.423 OA
ENDROOT
BRANCH   1  12
ATOM     12  O   UNL     1       9.423  71.338   3.596  1.00  0.00    -0.493 OA
ATOM     13  C   UNL     1       8.296  72.065   4.077  1.00  0.00     0.278 C 
ENDBRANCH   1  12
BRANCH   2  14
ATOM     14  O   UNL     1      10.395  72.815   1.478  1.00  0.00    -0.504 OA
ATOM     15  H   UNL     1      10.658  73.423   0.712  1.00  0.00     0.293 HD
ENDBRANCH   2  14
TORSDOF 2
ENDMDL
MODEL 4
REMARK VINA RESULT:    -6.088      1.442      2.355
REMARK INTER + INTRA:          -6.667
REMARK INTER:                  -6.656
REMARK INTRA:                  -0.010
REMARK UNBOUND:                -0.045
REMARK SMILES COc1cc2ccc(=O)oc2cc1O
REMARK SMILES IDX 3 1 13 2 12 3 11 4 5 5 4 6 6 7 7 8 8 9 9 10 10 11 2 12 1 13
REMARK SMILES IDX 14 14
REMARK H PARENT 14 15
REMARK Flexibility Score: inf
ROOT
ATOM      1  C   UNL     1      10.165  70.375  -2.003  1.00  0.00     0.161 A 
ATOM      2  C   UNL     1      10.001  71.284  -0.946  1.00  0.00     0.161 A 
ATOM      3  C   UNL     1       9.751  70.821   0.354  1.00  0.00     0.098 A 
ATOM      4  C   UNL     1       9.662  69.451   0.608  1.00  0.00     0.142 A 
ATOM      5  C   UNL     1       9.826  68.530  -0.448  1.00  0.00     0.022 A 
ATOM      6  C   UNL     1      10.076  68.992  -1.748  1.00  0.00     0.062 A 
ATOM      7  C   UNL     1       9.732  67.164  -0.162  1.00  0.00     0.019 A 
ATOM      8  C   UNL     1       9.482  66.754   1.146  1.00  0.00     0.094 A 
ATOM      9  C   UNL     1       9.330  67.724   2.143  1.00  0.00     0.336 A 
ATOM     10  O   UNL     1       9.103  67.374   3.331  1.00  0.00    -0.246 OA
ATOM     11  O   UNL     1       9.424  69.017   1.844  1.00  0.00    -0.423 OA
ENDROOT
BRANCH   1  12
ATOM     12  O   UNL     1      10.414  70.884  -3.288  1.00  0.00    -0.493 OA
ATOM     13  C   UNL     1      11.703  71.238  -3.779  1.00  0.00     0.278 C 
ENDBRANCH   1  12
BRANCH   2  14
ATOM     14  O   UNL     1      10.088  72.653  -1.196  1.00  0.00    -0.504 OA
ATOM     15  H   UNL     1       9.969  73.032  -2.128  1.00  0.00     0.293 HD
ENDBRANCH   2  14
TORSDOF 2
ENDMDL
MODEL 5
REMARK VINA RESULT:    -6.079      1.471      2.657
REMARK INTER + INTRA:          -6.657
REMARK INTER:                  -6.599
REMARK INTRA:                  -0.057
REMARK UNBOUND:                -0.045
REMARK SMILES COc1cc2ccc(=O)oc2cc1O
REMARK SMILES IDX 3 1 13 2 12 3 11 4 5 5 4 6 6 7 7 8 8 9 9 10 10 11 2 12 1 13
REMARK SMILES IDX 14 14
REMARK H PARENT 14 15
REMARK Flexibility Score: inf
ROOT
ATOM      1  C   UNL     1      10.144  71.843  -0.174  1.00  0.00     0.161 A 
ATOM      2  C   UNL     1      10.113  71.906   1.227  1.00  0.00     0.161 A 
ATOM      3  C   UNL     1       9.815  70.760   1.981  1.00  0.00     0.098 A 
ATOM      4  C   UNL     1       9.546  69.548   1.342  1.00  0.00     0.142 A 
ATOM      5  C   UNL     1       9.576  69.476  -0.067  1.00  0.00     0.022 A 
ATOM      6  C   UNL     1       9.874  70.620  -0.820  1.00  0.00     0.062 A 
ATOM      7  C   UNL     1       9.303  68.248  -0.677  1.00  0.00     0.019 A 
ATOM      8  C   UNL     1       9.012  67.139   0.116  1.00  0.00     0.094 A 
ATOM      9  C   UNL     1       9.000  67.284   1.507  1.00  0.00     0.336 A 
ATOM     10  O   UNL     1       8.739  66.295   2.241  1.00  0.00    -0.246 OA
ATOM     11  O   UNL     1       9.264  68.465   2.062  1.00  0.00    -0.423 OA
ENDROOT
BRANCH   1  12
ATOM     12  O   UNL     1      10.447  73.014  -0.888  1.00  0.00    -0.493 OA
ATOM     13  C   UNL     1      11.491  73.125  -1.850  1.00  0.00     0.278 C 
ENDBRANCH   1  12
BRANCH   2  14
ATOM     14  O   UNL     1      10.380  73.114   1.869  1.00  0.00    -0.504 OA
ATOM     15  H   UNL     1      11.224  73.253   2.411  1.00  0.00     0.293 HD
ENDBRANCH   2  14
TORSDOF 2
ENDMDL
MODEL 6
REMARK VINA RESULT:    -5.956      2.094      4.216
REMARK INTER + INTRA:          -6.523
REMARK INTER:                  -6.464
REMARK INTRA:                  -0.059
REMARK UNBOUND:                -0.045
REMARK SMILES COc1cc2ccc(=O)oc2cc1O
REMARK SMILES IDX 3 1 13 2 12 3 11 4 5 5 4 6 6 7 7 8 8 9 9 10 10 11 2 12 1 13
REMARK SMILES IDX 14 14
REMARK H PARENT 14 15
REMARK Flexibility Score: inf
ROOT
ATOM      1  C   UNL     1       9.558  69.812   2.259  1.00  0.00     0.161 A 
ATOM      2  C   UNL     1       9.507  68.417   2.406  1.00  0.00     0.161 A 
ATOM      3  C   UNL     1       9.439  67.588   1.276  1.00  0.00     0.098 A 
ATOM      4  C   UNL     1       9.421  68.144  -0.005  1.00  0.00     0.142 A 
ATOM      5  C   UNL     1       9.472  69.545  -0.162  1.00  0.00     0.022 A 
ATOM      6  C   UNL     1       9.540  70.374   0.967  1.00  0.00     0.062 A 
ATOM      7  C   UNL     1       9.453  70.072  -1.457  1.00  0.00     0.019 A 
ATOM      8  C   UNL     1       9.385  69.206  -2.547  1.00  0.00     0.094 A 
ATOM      9  C   UNL     1       9.337  67.828  -2.316  1.00  0.00     0.336 A 
ATOM     10  O   UNL     1       9.275  67.029  -3.287  1.00  0.00    -0.246 OA
ATOM     11  O   UNL     1       9.357  67.352  -1.073  1.00  0.00    -0.423 OA
ENDROOT
BRANCH   1  12
ATOM     12  O   UNL     1       9.625  70.602   3.417  1.00  0.00    -0.493 OA
ATOM     13  C   UNL     1       8.671  71.599   3.770  1.00  0.00     0.278 C 
ENDBRANCH   1  12
BRANCH   2  14
ATOM     14  O   UNL     1       9.524  67.858   3.683  1.00  0.00    -0.504 OA
ATOM     15  H   UNL     1       8.826  67.185   3.977  1.00  0.00     0.293 HD
ENDBRANCH   2  14
TORSDOF 2
ENDMDL
MODEL 7
REMARK VINA RESULT:    -5.856      2.106      3.334
REMARK INTER + INTRA:          -6.414
REMARK INTER:                  -6.366
REMARK INTRA:                  -0.048
REMARK UNBOUND:                -0.045
REMARK SMILES COc1cc2ccc(=O)oc2cc1O
REMARK SMILES IDX 3 1 13 2 12 3 11 4 5 5 4 6 6 7 7 8 8 9 9 10 10 11 2 12 1 13
REMARK SMILES IDX 14 14
REMARK H PARENT 14 15
REMARK Flexibility Score: inf
ROOT
ATOM      1  C   UNL     1       9.686  69.139  -1.509  1.00  0.00     0.161 A 
ATOM      2  C   UNL     1       9.749  70.540  -1.470  1.00  0.00     0.161 A 
ATOM      3  C   UNL     1       9.739  71.215  -0.239  1.00  0.00     0.098 A 
ATOM      4  C   UNL     1       9.665  70.498   0.957  1.00  0.00     0.142 A 
ATOM      5  C   UNL     1       9.602  69.088   0.925  1.00  0.00     0.022 A 
ATOM      6  C   UNL     1       9.612  68.414  -0.303  1.00  0.00     0.062 A 
ATOM      7  C   UNL     1       9.529  68.398   2.139  1.00  0.00     0.019 A 
ATOM      8  C   UNL     1       9.522  69.115   3.335  1.00  0.00     0.094 A 
ATOM      9  C   UNL     1       9.587  70.511   3.289  1.00  0.00     0.336 A 
ATOM     10  O   UNL     1       9.582  71.177   4.358  1.00  0.00    -0.246 OA
ATOM     11  O   UNL     1       9.656  71.144   2.120  1.00  0.00    -0.423 OA
ENDROOT
BRANCH   1  12
ATOM     12  O   UNL     1       9.699  68.506  -2.763  1.00  0.00    -0.493 OA
ATOM     13  C   UNL     1       9.042  67.276  -3.052  1.00  0.00     0.278 C 
ENDBRANCH   1  12
BRANCH   2  14
ATOM     14  O   UNL     1       9.822  71.260  -2.661  1.00  0.00    -0.504 OA
ATOM     15  H   UNL     1      10.047  72.248  -2.672  1.00  0.00     0.293 HD
ENDBRANCH   2  14
TORSDOF 2
ENDMDL
MODEL 8
REMARK VINA RESULT:    -5.806      1.752      5.036
REMARK INTER + INTRA:          -6.360
REMARK INTER:                  -6.311
REMARK INTRA:                  -0.049
REMARK UNBOUND:                -0.045
REMARK SMILES COc1cc2ccc(=O)oc2cc1O
REMARK SMILES IDX 3 1 13 2 12 3 11 4 5 5 4 6 6 7 7 8 8 9 9 10 10 11 2 12 1 13
REMARK SMILES IDX 14 14
REMARK H PARENT 14 15
REMARK Flexibility Score: inf
ROOT
ATOM      1  C   UNL     1       9.606  69.269   1.867  1.00  0.00     0.161 A 
ATOM      2  C   UNL     1       9.973  70.618   1.744  1.00  0.00     0.161 A 
ATOM      3  C   UNL     1      10.187  71.181   0.476  1.00  0.00     0.098 A 
ATOM      4  C   UNL     1      10.037  70.403  -0.674  1.00  0.00     0.142 A 
ATOM      5  C   UNL     1       9.668  69.046  -0.558  1.00  0.00     0.022 A 
ATOM      6  C   UNL     1       9.454  68.483   0.707  1.00  0.00     0.062 A 
ATOM      7  C   UNL     1       9.525  68.293  -1.728  1.00  0.00     0.019 A 
ATOM      8  C   UNL     1       9.749  68.898  -2.964  1.00  0.00     0.094 A 
ATOM      9  C   UNL     1      10.112  70.249  -3.001  1.00  0.00     0.336 A 
ATOM     10  O   UNL     1      10.319  70.814  -4.107  1.00  0.00    -0.246 OA
ATOM     11  O   UNL     1      10.241  70.943  -1.873  1.00  0.00    -0.423 OA
ENDROOT
BRANCH   1  12
ATOM     12  O   UNL     1       9.403  68.748   3.155  1.00  0.00    -0.493 OA
ATOM     13  C   UNL     1       9.716  67.414   3.544  1.00  0.00     0.278 C 
ENDBRANCH   1  12
BRANCH   2  14
ATOM     14  O   UNL     1      10.125  71.398   2.890  1.00  0.00    -0.504 OA
ATOM     15  H   UNL     1       9.340  71.879   3.312  1.00  0.00     0.293 HD
ENDBRANCH   2  14
TORSDOF 2
ENDMDL
MODEL 9
REMARK VINA RESULT:    -5.561      1.421      4.826
REMARK INTER + INTRA:          -6.093
REMARK INTER:                  -6.040
REMARK INTRA:                  -0.053
REMARK UNBOUND:                -0.045
REMARK SMILES COc1cc2ccc(=O)oc2cc1O
REMARK SMILES IDX 3 1 13 2 12 3 11 4 5 5 4 6 6 7 7 8 8 9 9 10 10 11 2 12 1 13
REMARK SMILES IDX 14 14
REMARK H PARENT 14 15
REMARK Flexibility Score: inf
ROOT
ATOM      1  C   UNL     1       9.491  68.263   1.526  1.00  0.00     0.161 A 
ATOM      2  C   UNL     1       9.153  67.282   0.581  1.00  0.00     0.161 A 
ATOM      3  C   UNL     1       9.196  67.576  -0.790  1.00  0.00     0.098 A 
ATOM      4  C   UNL     1       9.574  68.847  -1.227  1.00  0.00     0.142 A 
ATOM      5  C   UNL     1       9.915  69.839  -0.283  1.00  0.00     0.022 A 
ATOM      6  C   UNL     1       9.873  69.547   1.087  1.00  0.00     0.062 A 
ATOM      7  C   UNL     1      10.290  71.102  -0.751  1.00  0.00     0.019 A 
ATOM      8  C   UNL     1      10.317  71.345  -2.124  1.00  0.00     0.094 A 
ATOM      9  C   UNL     1       9.965  70.313  -3.001  1.00  0.00     0.336 A 
ATOM     10  O   UNL     1       9.982  70.511  -4.244  1.00  0.00    -0.246 OA
ATOM     11  O   UNL     1       9.612  69.119  -2.529  1.00  0.00    -0.423 OA
ENDROOT
BRANCH   1  12
ATOM     12  O   UNL     1       9.434  67.925   2.888  1.00  0.00    -0.493 OA
ATOM     13  C   UNL     1      10.543  67.458   3.650  1.00  0.00     0.278 C 
ENDBRANCH   1  12
BRANCH   2  14
ATOM     14  O   UNL     1       8.775  66.012   1.013  1.00  0.00    -0.504 OA
ATOM     15  H   UNL     1       8.147  65.432   0.470  1.00  0.00     0.293 HD
ENDBRANCH   2  14
TORSDOF 2
ENDMDL
