MODEL 1
REMARK VINA RESULT:    -2.494      0.000      0.000
REMARK INTER + INTRA:          -3.043
REMARK INTER:                  -2.932
REMARK INTRA:                  -0.111
REMARK UNBOUND:                -0.111
REMARK SMILES CCCCC(=O)[O-]
REMARK SMILES IDX 4 1 5 2 6 3 7 4 3 5 2 6 1 7
REMARK H PARENT
REMARK Flexibility Score: inf
ROOT
ATOM      1  C   UNL     1     -24.908  29.135 -19.782  1.00  0.00     0.053 C 
ENDROOT
BRANCH   1   2
ATOM      2  C   UNL     1     -24.024  29.679 -18.706  1.00  0.00     0.041 C 
ATOM      3  O   UNL     1     -24.430  30.612 -17.963  1.00  0.00    -0.550 OA
ATOM      4  O   UNL     1     -22.770  29.123 -18.488  1.00  0.00    -0.550 OA
ENDBRANCH   1   2
BRANCH   1   5
ATOM      5  C   UNL     1     -24.834  30.014 -21.033  1.00  0.00     0.006 C 
BRANCH   5   6
ATOM      6  C   UNL     1     -23.597  29.675 -21.872  1.00  0.00    -0.003 C 
ATOM      7  C   UNL     1     -23.522  28.180 -22.167  1.00  0.00     0.004 C 
ENDBRANCH   5   6
ENDBRANCH   1   5
TORSDOF 3
ENDMDL
MODEL 2
REMARK VINA RESULT:    -2.463     15.865     17.280
REMARK INTER + INTRA:          -3.005
REMARK INTER:                  -2.910
REMARK INTRA:                  -0.096
REMARK UNBOUND:                -0.111
REMARK SMILES CCCCC(=O)[O-]
REMARK SMILES IDX 4 1 5 2 6 3 7 4 3 5 2 6 1 7
REMARK H PARENT
REMARK Flexibility Score: inf
ROOT
ATOM      1  C   UNL     1     -19.816  13.743 -24.863  1.00  0.00     0.053 C 
ENDROOT
BRANCH   1   2
ATOM      2  C   UNL     1     -18.727  13.234 -23.974  1.00  0.00     0.041 C 
ATOM      3  O   UNL     1     -18.588  13.699 -22.812  1.00  0.00    -0.550 OA
ATOM      4  O   UNL     1     -17.896  12.209 -24.408  1.00  0.00    -0.550 OA
ENDBRANCH   1   2
BRANCH   1   5
ATOM      5  C   UNL     1     -21.042  12.831 -24.787  1.00  0.00     0.006 C 
BRANCH   5   6
ATOM      6  C   UNL     1     -21.927  13.194 -23.590  1.00  0.00    -0.003 C 
ATOM      7  C   UNL     1     -22.215  14.692 -23.550  1.00  0.00     0.004 C 
ENDBRANCH   5   6
ENDBRANCH   1   5
TORSDOF 3
ENDMDL
MODEL 3
REMARK VINA RESULT:    -2.412      2.366      3.705
REMARK INTER + INTRA:          -2.946
REMARK INTER:                  -2.856
REMARK INTRA:                  -0.091
REMARK UNBOUND:                -0.111
REMARK SMILES CCCCC(=O)[O-]
REMARK SMILES IDX 4 1 5 2 6 3 7 4 3 5 2 6 1 7
REMARK H PARENT
REMARK Flexibility Score: inf
ROOT
ATOM      1  C   UNL     1     -23.591  29.523 -21.572  1.00  0.00     0.053 C 
ENDROOT
BRANCH   1   2
ATOM      2  C   UNL     1     -23.089  28.227 -22.122  1.00  0.00     0.041 C 
ATOM      3  O   UNL     1     -22.248  27.547 -21.476  1.00  0.00    -0.550 OA
ATOM      4  O   UNL     1     -23.588  27.741 -23.324  1.00  0.00    -0.550 OA
ENDBRANCH   1   2
BRANCH   1   5
ATOM      5  C   UNL     1     -25.032  29.376 -21.078  1.00  0.00     0.006 C 
BRANCH   5   6
ATOM      6  C   UNL     1     -25.069  28.931 -19.611  1.00  0.00    -0.003 C 
ATOM      7  C   UNL     1     -24.329  29.919 -18.715  1.00  0.00     0.004 C 
ENDBRANCH   5   6
ENDBRANCH   1   5
TORSDOF 3
ENDMDL
MODEL 4
REMARK VINA RESULT:    -2.373      2.282      3.657
REMARK INTER + INTRA:          -2.900
REMARK INTER:                  -2.853
REMARK INTRA:                  -0.047
REMARK UNBOUND:                -0.111
REMARK SMILES CCCCC(=O)[O-]
REMARK SMILES IDX 4 1 5 2 6 3 7 4 3 5 2 6 1 7
REMARK H PARENT
REMARK Flexibility Score: inf
ROOT
ATOM      1  C   UNL     1     -24.947  29.012 -21.397  1.00  0.00     0.053 C 
ENDROOT
BRANCH   1   2
ATOM      2  C   UNL     1     -23.636  28.678 -22.033  1.00  0.00     0.041 C 
ATOM      3  O   UNL     1     -23.585  27.858 -22.986  1.00  0.00    -0.550 OA
ATOM      4  O   UNL     1     -22.475  29.311 -21.607  1.00  0.00    -0.550 OA
ENDBRANCH   1   2
BRANCH   1   5
ATOM      5  C   UNL     1     -24.748  29.993 -20.239  1.00  0.00     0.006 C 
BRANCH   5   6
ATOM      6  C   UNL     1     -24.729  29.261 -18.893  1.00  0.00    -0.003 C 
ATOM      7  C   UNL     1     -24.396  30.214 -17.749  1.00  0.00     0.004 C 
ENDBRANCH   5   6
ENDBRANCH   1   5
TORSDOF 3
ENDMDL
MODEL 5
REMARK VINA RESULT:    -2.347     14.678     15.934
REMARK INTER + INTRA:          -2.870
REMARK INTER:                  -2.767
REMARK INTRA:                  -0.103
REMARK UNBOUND:                -0.111
REMARK SMILES CCCCC(=O)[O-]
REMARK SMILES IDX 4 1 5 2 6 3 7 4 3 5 2 6 1 7
REMARK H PARENT
REMARK Flexibility Score: inf
ROOT
ATOM      1  C   UNL     1     -21.891  14.677 -23.513  1.00  0.00     0.053 C 
ENDROOT
BRANCH   1   2
ATOM      2  C   UNL     1     -21.706  15.039 -22.075  1.00  0.00     0.041 C 
ATOM      3  O   UNL     1     -22.242  16.079 -21.609  1.00  0.00    -0.550 OA
ATOM      4  O   UNL     1     -20.984  14.202 -21.234  1.00  0.00    -0.550 OA
ENDBRANCH   1   2
BRANCH   1   5
ATOM      5  C   UNL     1     -21.829  13.159 -23.698  1.00  0.00     0.006 C 
BRANCH   5   6
ATOM      6  C   UNL     1     -20.857  12.780 -24.821  1.00  0.00    -0.003 C 
ATOM      7  C   UNL     1     -19.415  13.090 -24.432  1.00  0.00     0.004 C 
ENDBRANCH   5   6
ENDBRANCH   1   5
TORSDOF 3
ENDMDL
MODEL 6
REMARK VINA RESULT:    -2.341     15.734     16.881
REMARK INTER + INTRA:          -2.863
REMARK INTER:                  -2.815
REMARK INTRA:                  -0.048
REMARK UNBOUND:                -0.111
REMARK SMILES CCCCC(=O)[O-]
REMARK SMILES IDX 4 1 5 2 6 3 7 4 3 5 2 6 1 7
REMARK H PARENT
REMARK Flexibility Score: inf
ROOT
ATOM      1  C   UNL     1     -20.942  14.204 -24.757  1.00  0.00     0.053 C 
ENDROOT
BRANCH   1   2
ATOM      2  C   UNL     1     -21.943  14.137 -23.648  1.00  0.00     0.041 C 
ATOM      3  O   UNL     1     -21.848  13.248 -22.762  1.00  0.00    -0.550 OA
ATOM      4  O   UNL     1     -22.952  15.088 -23.563  1.00  0.00    -0.550 OA
ENDBRANCH   1   2
BRANCH   1   5
ATOM      5  C   UNL     1     -19.961  13.033 -24.666  1.00  0.00     0.006 C 
BRANCH   5   6
ATOM      6  C   UNL     1     -18.569  13.512 -24.238  1.00  0.00    -0.003 C 
ATOM      7  C   UNL     1     -17.531  12.405 -24.392  1.00  0.00     0.004 C 
ENDBRANCH   5   6
ENDBRANCH   1   5
TORSDOF 3
ENDMDL
MODEL 7
REMARK VINA RESULT:    -2.334      2.140      3.400
REMARK INTER + INTRA:          -2.855
REMARK INTER:                  -2.747
REMARK INTRA:                  -0.108
REMARK UNBOUND:                -0.111
REMARK SMILES CCCCC(=O)[O-]
REMARK SMILES IDX 4 1 5 2 6 3 7 4 3 5 2 6 1 7
REMARK H PARENT
REMARK Flexibility Score: inf
ROOT
ATOM      1  C   UNL     1     -23.422  28.173 -21.831  1.00  0.00     0.053 C 
ENDROOT
BRANCH   1   2
ATOM      2  C   UNL     1     -21.983  27.870 -21.562  1.00  0.00     0.041 C 
ATOM      3  O   UNL     1     -21.296  28.644 -20.845  1.00  0.00    -0.550 OA
ATOM      4  O   UNL     1     -21.412  26.706 -22.060  1.00  0.00    -0.550 OA
ENDBRANCH   1   2
BRANCH   1   5
ATOM      5  C   UNL     1     -23.662  29.685 -21.834  1.00  0.00     0.006 C 
BRANCH   5   6
ATOM      6  C   UNL     1     -24.834  30.058 -20.920  1.00  0.00    -0.003 C 
ATOM      7  C   UNL     1     -24.509  29.769 -19.457  1.00  0.00     0.004 C 
ENDBRANCH   5   6
ENDBRANCH   1   5
TORSDOF 3
ENDMDL
MODEL 8
REMARK VINA RESULT:    -2.244      1.109      1.551
REMARK INTER + INTRA:          -2.748
REMARK INTER:                  -2.643
REMARK INTRA:                  -0.105
REMARK UNBOUND:                -0.111
REMARK SMILES CCCCC(=O)[O-]
REMARK SMILES IDX 4 1 5 2 6 3 7 4 3 5 2 6 1 7
REMARK H PARENT
REMARK Flexibility Score: inf
ROOT
ATOM      1  C   UNL     1     -24.379  30.022 -18.584  1.00  0.00     0.053 C 
ENDROOT
BRANCH   1   2
ATOM      2  C   UNL     1     -23.246  29.310 -17.917  1.00  0.00     0.041 C 
ATOM      3  O   UNL     1     -23.343  28.952 -16.714  1.00  0.00    -0.550 OA
ATOM      4  O   UNL     1     -22.101  28.996 -18.639  1.00  0.00    -0.550 OA
ENDBRANCH   1   2
BRANCH   1   5
ATOM      5  C   UNL     1     -24.922  29.194 -19.751  1.00  0.00     0.006 C 
BRANCH   5   6
ATOM      6  C   UNL     1     -24.846  29.979 -21.065  1.00  0.00    -0.003 C 
ATOM      7  C   UNL     1     -23.553  29.674 -21.816  1.00  0.00     0.004 C 
ENDBRANCH   5   6
ENDBRANCH   1   5
TORSDOF 3
ENDMDL
