MODEL 1
REMARK VINA RESULT:    -4.617      0.000      0.000
REMARK INTER + INTRA:          -5.349
REMARK INTER:                  -5.157
REMARK INTRA:                  -0.191
REMARK UNBOUND:                -0.191
REMARK SMILES O=C([O-])c1ccccc1C(=O)[O-]
REMARK SMILES IDX 4 1 9 2 5 3 8 4 6 5 7 6 2 7 1 8 3 9 10 10 11 11 12 12
REMARK H PARENT
REMARK Flexibility Score: inf
ROOT
ATOM      1  C   UNL     1      -3.577  -8.165   3.425  1.00  0.00     0.006 A 
ATOM      2  C   UNL     1      -2.313  -7.973   4.050  1.00  0.00     0.006 A 
ATOM      3  C   UNL     1      -4.400  -9.222   3.856  1.00  0.00     0.010 A 
ATOM      4  C   UNL     1      -1.891  -8.885   5.036  1.00  0.00     0.010 A 
ATOM      5  C   UNL     1      -3.970 -10.101   4.851  1.00  0.00     0.001 A 
ATOM      6  C   UNL     1      -2.714  -9.940   5.431  1.00  0.00     0.001 A 
ENDROOT
BRANCH   1   7
ATOM      7  C   UNL     1      -4.050  -7.342   2.287  1.00  0.00     0.072 C 
ATOM      8  O   UNL     1      -4.648  -6.251   2.485  1.00  0.00    -0.545 OA
ATOM      9  O   UNL     1      -3.778  -7.736   0.983  1.00  0.00    -0.545 OA
ENDBRANCH   1   7
BRANCH   2  10
ATOM     10  C   UNL     1      -1.438  -6.813   3.762  1.00  0.00     0.072 C 
ATOM     11  O   UNL     1      -1.348  -5.855   4.574  1.00  0.00    -0.545 OA
ATOM     12  O   UNL     1      -0.649  -6.803   2.617  1.00  0.00    -0.545 OA
ENDBRANCH   2  10
TORSDOF 2
ENDMDL
MODEL 2
REMARK VINA RESULT:    -4.596     12.305     14.284
REMARK INTER + INTRA:          -5.325
REMARK INTER:                  -5.240
REMARK INTRA:                  -0.084
REMARK UNBOUND:                -0.191
REMARK SMILES O=C([O-])c1ccccc1C(=O)[O-]
REMARK SMILES IDX 4 1 9 2 5 3 8 4 6 5 7 6 2 7 1 8 3 9 10 10 11 11 12 12
REMARK H PARENT
REMARK Flexibility Score: inf
ROOT
ATOM      1  C   UNL     1      -9.211   1.880  -5.033  1.00  0.00     0.006 A 
ATOM      2  C   UNL     1      -8.243   2.119  -4.016  1.00  0.00     0.006 A 
ATOM      3  C   UNL     1     -10.125   2.898  -5.360  1.00  0.00     0.010 A 
ATOM      4  C   UNL     1      -8.269   3.342  -3.321  1.00  0.00     0.010 A 
ATOM      5  C   UNL     1     -10.117   4.112  -4.672  1.00  0.00     0.001 A 
ATOM      6  C   UNL     1      -9.199   4.329  -3.648  1.00  0.00     0.001 A 
ENDROOT
BRANCH   1   7
ATOM      7  C   UNL     1      -9.351   0.577  -5.725  1.00  0.00     0.072 C 
ATOM      8  O   UNL     1      -8.870   0.403  -6.876  1.00  0.00    -0.545 OA
ATOM      9  O   UNL     1      -9.960  -0.492  -5.080  1.00  0.00    -0.545 OA
ENDBRANCH   1   7
BRANCH   2  10
ATOM     10  C   UNL     1      -7.157   1.163  -3.695  1.00  0.00     0.072 C 
ATOM     11  O   UNL     1      -6.337   0.798  -4.578  1.00  0.00    -0.545 OA
ATOM     12  O   UNL     1      -6.990   0.712  -2.391  1.00  0.00    -0.545 OA
ENDBRANCH   2  10
TORSDOF 2
ENDMDL
MODEL 3
REMARK VINA RESULT:    -4.588      0.100      3.018
REMARK INTER + INTRA:          -5.316
REMARK INTER:                  -5.173
REMARK INTRA:                  -0.143
REMARK UNBOUND:                -0.191
REMARK SMILES O=C([O-])c1ccccc1C(=O)[O-]
REMARK SMILES IDX 4 1 9 2 5 3 8 4 6 5 7 6 2 7 1 8 3 9 10 10 11 11 12 12
REMARK H PARENT
REMARK Flexibility Score: inf
ROOT
ATOM      1  C   UNL     1      -2.288  -7.976   3.995  1.00  0.00     0.006 A 
ATOM      2  C   UNL     1      -3.541  -8.164   3.347  1.00  0.00     0.006 A 
ATOM      3  C   UNL     1      -1.878  -8.900   4.974  1.00  0.00     0.010 A 
ATOM      4  C   UNL     1      -4.367  -9.230   3.751  1.00  0.00     0.010 A 
ATOM      5  C   UNL     1      -2.704  -9.963   5.342  1.00  0.00     0.001 A 
ATOM      6  C   UNL     1      -3.949 -10.121   4.740  1.00  0.00     0.001 A 
ENDROOT
BRANCH   1   7
ATOM      7  C   UNL     1      -1.412  -6.809   3.737  1.00  0.00     0.072 C 
ATOM      8  O   UNL     1      -0.722  -6.740   2.685  1.00  0.00    -0.545 OA
ATOM      9  O   UNL     1      -1.392  -5.742   4.627  1.00  0.00    -0.545 OA
ENDBRANCH   1   7
BRANCH   2  10
ATOM     10  C   UNL     1      -3.998  -7.327   2.213  1.00  0.00     0.072 C 
ATOM     11  O   UNL     1      -4.521  -6.199   2.413  1.00  0.00    -0.545 OA
ATOM     12  O   UNL     1      -3.789  -7.751   0.906  1.00  0.00    -0.545 OA
ENDBRANCH   2  10
TORSDOF 2
ENDMDL
MODEL 4
REMARK VINA RESULT:    -4.577     12.314     14.584
REMARK INTER + INTRA:          -5.304
REMARK INTER:                  -5.319
REMARK INTRA:                   0.015
REMARK UNBOUND:                -0.191
REMARK SMILES O=C([O-])c1ccccc1C(=O)[O-]
REMARK SMILES IDX 4 1 9 2 5 3 8 4 6 5 7 6 2 7 1 8 3 9 10 10 11 11 12 12
REMARK H PARENT
REMARK Flexibility Score: inf
ROOT
ATOM      1  C   UNL     1      -8.303   2.117  -3.950  1.00  0.00     0.006 A 
ATOM      2  C   UNL     1      -9.244   1.970  -5.009  1.00  0.00     0.006 A 
ATOM      3  C   UNL     1      -8.312   3.299  -3.187  1.00  0.00     0.010 A 
ATOM      4  C   UNL     1     -10.112   3.037  -5.306  1.00  0.00     0.010 A 
ATOM      5  C   UNL     1      -9.198   4.335  -3.486  1.00  0.00     0.001 A 
ATOM      6  C   UNL     1     -10.087   4.209  -4.550  1.00  0.00     0.001 A 
ENDROOT
BRANCH   1   7
ATOM      7  C   UNL     1      -7.261   1.108  -3.649  1.00  0.00     0.072 C 
ATOM      8  O   UNL     1      -6.487   0.691  -4.552  1.00  0.00    -0.545 OA
ATOM      9  O   UNL     1      -7.083   0.658  -2.347  1.00  0.00    -0.545 OA
ENDBRANCH   1   7
BRANCH   2  10
ATOM     10  C   UNL     1      -9.403   0.714  -5.778  1.00  0.00     0.072 C 
ATOM     11  O   UNL     1      -9.101   0.662  -6.999  1.00  0.00    -0.545 OA
ATOM     12  O   UNL     1      -9.826  -0.446  -5.139  1.00  0.00    -0.545 OA
ENDBRANCH   2  10
TORSDOF 2
ENDMDL
MODEL 5
REMARK VINA RESULT:    -4.523      2.273      3.183
REMARK INTER + INTRA:          -5.243
REMARK INTER:                  -5.028
REMARK INTRA:                  -0.215
REMARK UNBOUND:                -0.191
REMARK SMILES O=C([O-])c1ccccc1C(=O)[O-]
REMARK SMILES IDX 4 1 9 2 5 3 8 4 6 5 7 6 2 7 1 8 3 9 10 10 11 11 12 12
REMARK H PARENT
REMARK Flexibility Score: inf
ROOT
ATOM      1  C   UNL     1      -4.076  -7.493   4.491  1.00  0.00     0.006 A 
ATOM      2  C   UNL     1      -3.109  -7.693   3.467  1.00  0.00     0.006 A 
ATOM      3  C   UNL     1      -3.683  -6.876   5.693  1.00  0.00     0.010 A 
ATOM      4  C   UNL     1      -1.771  -7.328   3.709  1.00  0.00     0.010 A 
ATOM      5  C   UNL     1      -2.355  -6.502   5.902  1.00  0.00     0.001 A 
ATOM      6  C   UNL     1      -1.400  -6.738   4.917  1.00  0.00     0.001 A 
ENDROOT
BRANCH   1   7
ATOM      7  C   UNL     1      -5.476  -7.967   4.384  1.00  0.00     0.072 C 
ATOM      8  O   UNL     1      -6.409  -7.166   4.112  1.00  0.00    -0.545 OA
ATOM      9  O   UNL     1      -5.767  -9.319   4.517  1.00  0.00    -0.545 OA
ENDBRANCH   1   7
BRANCH   2  10
ATOM     10  C   UNL     1      -3.452  -8.209   2.121  1.00  0.00     0.072 C 
ATOM     11  O   UNL     1      -3.835  -7.429   1.210  1.00  0.00    -0.545 OA
ATOM     12  O   UNL     1      -3.288  -9.558   1.829  1.00  0.00    -0.545 OA
ENDBRANCH   2  10
TORSDOF 2
ENDMDL
MODEL 6
REMARK VINA RESULT:    -4.519      2.270      3.453
REMARK INTER + INTRA:          -5.238
REMARK INTER:                  -5.019
REMARK INTRA:                  -0.219
REMARK UNBOUND:                -0.191
REMARK SMILES O=C([O-])c1ccccc1C(=O)[O-]
REMARK SMILES IDX 4 1 9 2 5 3 8 4 6 5 7 6 2 7 1 8 3 9 10 10 11 11 12 12
REMARK H PARENT
REMARK Flexibility Score: inf
ROOT
ATOM      1  C   UNL     1      -3.097  -7.682   3.478  1.00  0.00     0.006 A 
ATOM      2  C   UNL     1      -4.057  -7.485   4.510  1.00  0.00     0.006 A 
ATOM      3  C   UNL     1      -1.758  -7.313   3.708  1.00  0.00     0.010 A 
ATOM      4  C   UNL     1      -3.655  -6.865   5.708  1.00  0.00     0.010 A 
ATOM      5  C   UNL     1      -1.379  -6.719   4.913  1.00  0.00     0.001 A 
ATOM      6  C   UNL     1      -2.327  -6.486   5.905  1.00  0.00     0.001 A 
ENDROOT
BRANCH   1   7
ATOM      7  C   UNL     1      -3.449  -8.200   2.135  1.00  0.00     0.072 C 
ATOM      8  O   UNL     1      -3.834  -7.421   1.224  1.00  0.00    -0.545 OA
ATOM      9  O   UNL     1      -3.294  -9.551   1.847  1.00  0.00    -0.545 OA
ENDBRANCH   1   7
BRANCH   2  10
ATOM     10  C   UNL     1      -5.456  -7.964   4.414  1.00  0.00     0.072 C 
ATOM     11  O   UNL     1      -6.389  -7.173   4.120  1.00  0.00    -0.545 OA
ATOM     12  O   UNL     1      -5.742  -9.314   4.583  1.00  0.00    -0.545 OA
ENDBRANCH   2  10
TORSDOF 2
ENDMDL
MODEL 7
REMARK VINA RESULT:    -4.487     10.862     12.287
REMARK INTER + INTRA:          -5.203
REMARK INTER:                  -4.985
REMARK INTRA:                  -0.218
REMARK UNBOUND:                -0.191
REMARK SMILES O=C([O-])c1ccccc1C(=O)[O-]
REMARK SMILES IDX 4 1 9 2 5 3 8 4 6 5 7 6 2 7 1 8 3 9 10 10 11 11 12 12
REMARK H PARENT
REMARK Flexibility Score: inf
ROOT
ATOM      1  C   UNL     1      -8.180  -1.144  -4.104  1.00  0.00     0.006 A 
ATOM      2  C   UNL     1      -8.079  -1.586  -5.453  1.00  0.00     0.006 A 
ATOM      3  C   UNL     1      -8.621  -2.047  -3.119  1.00  0.00     0.010 A 
ATOM      4  C   UNL     1      -8.486  -2.894  -5.777  1.00  0.00     0.010 A 
ATOM      5  C   UNL     1      -8.997  -3.347  -3.460  1.00  0.00     0.001 A 
ATOM      6  C   UNL     1      -8.941  -3.765  -4.787  1.00  0.00     0.001 A 
ENDROOT
BRANCH   1   7
ATOM      7  C   UNL     1      -7.907   0.252  -3.688  1.00  0.00     0.072 C 
ATOM      8  O   UNL     1      -6.813   0.561  -3.146  1.00  0.00    -0.545 OA
ATOM      9  O   UNL     1      -8.834   1.253  -3.954  1.00  0.00    -0.545 OA
ENDBRANCH   1   7
BRANCH   2  10
ATOM     10  C   UNL     1      -7.500  -0.754  -6.534  1.00  0.00     0.072 C 
ATOM     11  O   UNL     1      -6.259  -0.748  -6.748  1.00  0.00    -0.545 OA
ATOM     12  O   UNL     1      -8.333  -0.022  -7.372  1.00  0.00    -0.545 OA
ENDBRANCH   2  10
TORSDOF 2
ENDMDL
MODEL 8
REMARK VINA RESULT:    -4.456     10.847     12.135
REMARK INTER + INTRA:          -5.169
REMARK INTER:                  -4.945
REMARK INTRA:                  -0.223
REMARK UNBOUND:                -0.191
REMARK SMILES O=C([O-])c1ccccc1C(=O)[O-]
REMARK SMILES IDX 4 1 9 2 5 3 8 4 6 5 7 6 2 7 1 8 3 9 10 10 11 11 12 12
REMARK H PARENT
REMARK Flexibility Score: inf
ROOT
ATOM      1  C   UNL     1      -8.106  -1.587  -5.431  1.00  0.00     0.006 A 
ATOM      2  C   UNL     1      -8.193  -1.171  -4.073  1.00  0.00     0.006 A 
ATOM      3  C   UNL     1      -8.514  -2.889  -5.775  1.00  0.00     0.010 A 
ATOM      4  C   UNL     1      -8.622  -2.093  -3.100  1.00  0.00     0.010 A 
ATOM      5  C   UNL     1      -8.957  -3.780  -4.797  1.00  0.00     0.001 A 
ATOM      6  C   UNL     1      -9.000  -3.387  -3.462  1.00  0.00     0.001 A 
ENDROOT
BRANCH   1   7
ATOM      7  C   UNL     1      -7.539  -0.735  -6.503  1.00  0.00     0.072 C 
ATOM      8  O   UNL     1      -6.303  -0.736  -6.742  1.00  0.00    -0.545 OA
ATOM      9  O   UNL     1      -8.380   0.029  -7.303  1.00  0.00    -0.545 OA
ENDBRANCH   1   7
BRANCH   2  10
ATOM     10  C   UNL     1      -7.918   0.218  -3.635  1.00  0.00     0.072 C 
ATOM     11  O   UNL     1      -6.791   0.537  -3.173  1.00  0.00    -0.545 OA
ATOM     12  O   UNL     1      -8.885   1.203  -3.795  1.00  0.00    -0.545 OA
ENDBRANCH   2  10
TORSDOF 2
ENDMDL
MODEL 9
REMARK VINA RESULT:    -4.246     19.178     20.478
REMARK INTER + INTRA:          -4.934
REMARK INTER:                  -4.728
REMARK INTRA:                  -0.206
REMARK UNBOUND:                -0.191
REMARK SMILES O=C([O-])c1ccccc1C(=O)[O-]
REMARK SMILES IDX 4 1 9 2 5 3 8 4 6 5 7 6 2 7 1 8 3 9 10 10 11 11 12 12
REMARK H PARENT
REMARK Flexibility Score: inf
ROOT
ATOM      1  C   UNL     1       3.437   8.387  -6.734  1.00  0.00     0.006 A 
ATOM      2  C   UNL     1       2.109   8.171  -7.201  1.00  0.00     0.006 A 
ATOM      3  C   UNL     1       4.497   8.376  -7.659  1.00  0.00     0.010 A 
ATOM      4  C   UNL     1       1.901   7.886  -8.564  1.00  0.00     0.010 A 
ATOM      5  C   UNL     1       4.264   8.114  -9.010  1.00  0.00     0.001 A 
ATOM      6  C   UNL     1       2.971   7.858  -9.458  1.00  0.00     0.001 A 
ENDROOT
BRANCH   1   7
ATOM      7  C   UNL     1       3.771   8.559  -5.301  1.00  0.00     0.072 C 
ATOM      8  O   UNL     1       4.074   9.691  -4.841  1.00  0.00    -0.545 OA
ATOM      9  O   UNL     1       3.690   7.477  -4.432  1.00  0.00    -0.545 OA
ENDBRANCH   1   7
BRANCH   2  10
ATOM     10  C   UNL     1       0.917   8.297  -6.331  1.00  0.00     0.072 C 
ATOM     11  O   UNL     1       0.347   7.276  -5.864  1.00  0.00    -0.545 OA
ATOM     12  O   UNL     1       0.453   9.555  -5.963  1.00  0.00    -0.545 OA
ENDBRANCH   2  10
TORSDOF 2
ENDMDL
