MODEL 1
REMARK VINA RESULT:    -5.126      0.000      0.000
REMARK INTER + INTRA:          -5.126
REMARK INTER:                  -5.126
REMARK INTRA:                   0.000
REMARK UNBOUND:                 0.000
REMARK SMILES C=C1CCC[C@]2(C)CC(=O)C(=C(C)C)C[C@@H]12
REMARK SMILES IDX 13 1 12 2 11 3 15 4 16 5 2 6 1 7 3 8 4 9 5 10 6 11 8 12 9 13
REMARK SMILES IDX 10 14 7 15 14 16
REMARK H PARENT
REMARK Flexibility Score: inf
ROOT
ATOM      1  C   UNL     1      67.894 -16.670   8.989  1.00  0.00     0.039 C 
ATOM      2  C   UNL     1      68.678 -16.688  10.280  1.00  0.00    -0.070 C 
ATOM      3  C   UNL     1      68.105 -16.360  11.476  1.00  0.00    -0.006 C 
ATOM      4  C   UNL     1      68.897 -16.444  12.775  1.00  0.00     0.047 C 
ATOM      5  C   UNL     1      68.014 -16.720  14.021  1.00  0.00     0.025 C 
ATOM      6  C   UNL     1      68.766 -16.694  15.355  1.00  0.00    -0.073 C 
ATOM      7  C   UNL     1      70.105 -16.606  15.459  1.00  0.00     0.008 C 
ATOM      8  C   UNL     1      67.958 -16.797  16.629  1.00  0.00     0.031 C 
ATOM      9  C   UNL     1      66.492 -17.124  16.339  1.00  0.00     0.005 C 
ATOM     10  C   UNL     1      65.865 -16.128  15.351  1.00  0.00     0.008 C 
ATOM     11  C   UNL     1      66.761 -15.782  14.101  1.00  0.00    -0.018 C 
ATOM     12  C   UNL     1      65.920 -15.984  12.816  1.00  0.00     0.088 C 
ATOM     13  C   UNL     1      66.733 -15.789  11.570  1.00  0.00     0.159 C 
ATOM     14  O   UNL     1      66.235 -15.121  10.623  1.00  0.00    -0.295 OA
ATOM     15  C   UNL     1      67.190 -14.292  14.202  1.00  0.00     0.012 C 
ATOM     16  C   UNL     1      70.124 -17.124  10.196  1.00  0.00     0.039 C 
ENDROOT
TORSDOF 0
ENDMDL
MODEL 2
REMARK VINA RESULT:    -4.130      1.846      4.764
REMARK INTER + INTRA:          -4.130
REMARK INTER:                  -4.130
REMARK INTRA:                   0.000
REMARK UNBOUND:                 0.000
REMARK SMILES C=C1CCC[C@]2(C)CC(=O)C(=C(C)C)C[C@@H]12
REMARK SMILES IDX 13 1 12 2 11 3 15 4 16 5 2 6 1 7 3 8 4 9 5 10 6 11 8 12 9 13
REMARK SMILES IDX 10 14 7 15 14 16
REMARK H PARENT
REMARK Flexibility Score: inf
ROOT
ATOM      1  C   UNL     1      68.119 -16.870  17.399  1.00  0.00     0.039 C 
ATOM      2  C   UNL     1      68.647 -16.820  15.984  1.00  0.00    -0.070 C 
ATOM      3  C   UNL     1      67.840 -16.516  14.925  1.00  0.00    -0.006 C 
ATOM      4  C   UNL     1      68.404 -16.412  13.513  1.00  0.00     0.047 C 
ATOM      5  C   UNL     1      67.609 -15.443  12.599  1.00  0.00     0.025 C 
ATOM      6  C   UNL     1      68.082 -15.406  11.143  1.00  0.00    -0.073 C 
ATOM      7  C   UNL     1      69.194 -16.022  10.700  1.00  0.00     0.008 C 
ATOM      8  C   UNL     1      67.266 -14.609  10.150  1.00  0.00     0.031 C 
ATOM      9  C   UNL     1      66.181 -13.786  10.847  1.00  0.00     0.005 C 
ATOM     10  C   UNL     1      65.287 -14.656  11.746  1.00  0.00     0.008 C 
ATOM     11  C   UNL     1      66.062 -15.691  12.647  1.00  0.00    -0.018 C 
ATOM     12  C   UNL     1      65.589 -15.526  14.113  1.00  0.00     0.088 C 
ATOM     13  C   UNL     1      66.362 -16.395  15.060  1.00  0.00     0.159 C 
ATOM     14  O   UNL     1      65.731 -17.026  15.951  1.00  0.00    -0.295 OA
ATOM     15  C   UNL     1      65.716 -17.125  12.157  1.00  0.00     0.012 C 
ATOM     16  C   UNL     1      70.124 -17.087  15.796  1.00  0.00     0.039 C 
ENDROOT
TORSDOF 0
ENDMDL
MODEL 3
REMARK VINA RESULT:    -4.009     21.408     23.504
REMARK INTER + INTRA:          -4.009
REMARK INTER:                  -4.009
REMARK INTRA:                   0.000
REMARK UNBOUND:                 0.000
REMARK SMILES C=C1CCC[C@]2(C)CC(=O)C(=C(C)C)C[C@@H]12
REMARK SMILES IDX 13 1 12 2 11 3 15 4 16 5 2 6 1 7 3 8 4 9 5 10 6 11 8 12 9 13
REMARK SMILES IDX 10 14 7 15 14 16
REMARK H PARENT
REMARK Flexibility Score: inf
ROOT
ATOM      1  C   UNL     1      51.078   1.427  21.710  1.00  0.00     0.039 C 
ATOM      2  C   UNL     1      52.375   0.746  21.340  1.00  0.00    -0.070 C 
ATOM      3  C   UNL     1      53.505   0.891  22.093  1.00  0.00    -0.006 C 
ATOM      4  C   UNL     1      54.786   0.147  21.738  1.00  0.00     0.047 C 
ATOM      5  C   UNL     1      55.692  -0.143  22.964  1.00  0.00     0.025 C 
ATOM      6  C   UNL     1      57.040  -0.787  22.623  1.00  0.00    -0.073 C 
ATOM      7  C   UNL     1      57.371  -1.227  21.395  1.00  0.00     0.008 C 
ATOM      8  C   UNL     1      58.048  -0.960  23.737  1.00  0.00     0.031 C 
ATOM      9  C   UNL     1      57.438  -0.631  25.101  1.00  0.00     0.005 C 
ATOM     10  C   UNL     1      56.803   0.769  25.125  1.00  0.00     0.008 C 
ATOM     11  C   UNL     1      55.921   1.117  23.866  1.00  0.00    -0.018 C 
ATOM     12  C   UNL     1      54.540   1.624  24.352  1.00  0.00     0.088 C 
ATOM     13  C   UNL     1      53.592   1.867  23.215  1.00  0.00     0.159 C 
ATOM     14  O   UNL     1      52.894   2.918  23.226  1.00  0.00    -0.295 OA
ATOM     15  C   UNL     1      56.628   2.249  23.069  1.00  0.00     0.012 C 
ATOM     16  C   UNL     1      52.356  -0.140  20.114  1.00  0.00     0.039 C 
ENDROOT
TORSDOF 0
ENDMDL
MODEL 4
REMARK VINA RESULT:    -3.974     15.975     17.913
REMARK INTER + INTRA:          -3.974
REMARK INTER:                  -3.974
REMARK INTRA:                   0.000
REMARK UNBOUND:                 0.000
REMARK SMILES C=C1CCC[C@]2(C)CC(=O)C(=C(C)C)C[C@@H]12
REMARK SMILES IDX 13 1 12 2 11 3 15 4 16 5 2 6 1 7 3 8 4 9 5 10 6 11 8 12 9 13
REMARK SMILES IDX 10 14 7 15 14 16
REMARK H PARENT
REMARK Flexibility Score: inf
ROOT
ATOM      1  C   UNL     1      69.295   2.978  12.905  1.00  0.00     0.039 C 
ATOM      2  C   UNL     1      69.455   1.592  12.326  1.00  0.00    -0.070 C 
ATOM      3  C   UNL     1      69.050   1.290  11.057  1.00  0.00    -0.006 C 
ATOM      4  C   UNL     1      69.275  -0.097  10.469  1.00  0.00     0.047 C 
ATOM      5  C   UNL     1      69.415  -0.099   8.923  1.00  0.00     0.025 C 
ATOM      6  C   UNL     1      69.527  -1.491   8.294  1.00  0.00    -0.073 C 
ATOM      7  C   UNL     1      69.662  -2.626   9.005  1.00  0.00     0.008 C 
ATOM      8  C   UNL     1      69.509  -1.593   6.785  1.00  0.00     0.031 C 
ATOM      9  C   UNL     1      69.587  -0.213   6.129  1.00  0.00     0.005 C 
ATOM     10  C   UNL     1      68.491   0.733   6.645  1.00  0.00     0.008 C 
ATOM     11  C   UNL     1      68.285   0.717   8.207  1.00  0.00    -0.018 C 
ATOM     12  C   UNL     1      68.332   2.175   8.730  1.00  0.00     0.088 C 
ATOM     13  C   UNL     1      68.261   2.244  10.227  1.00  0.00     0.159 C 
ATOM     14  O   UNL     1      67.511   3.108  10.756  1.00  0.00    -0.295 OA
ATOM     15  C   UNL     1      66.887   0.111   8.512  1.00  0.00     0.012 C 
ATOM     16  C   UNL     1      70.122   0.556  13.204  1.00  0.00     0.039 C 
ENDROOT
TORSDOF 0
ENDMDL
MODEL 5
REMARK VINA RESULT:    -3.893     14.899     16.308
REMARK INTER + INTRA:          -3.893
REMARK INTER:                  -3.893
REMARK INTRA:                   0.000
REMARK UNBOUND:                 0.000
REMARK SMILES C=C1CCC[C@]2(C)CC(=O)C(=C(C)C)C[C@@H]12
REMARK SMILES IDX 13 1 12 2 11 3 15 4 16 5 2 6 1 7 3 8 4 9 5 10 6 11 8 12 9 13
REMARK SMILES IDX 10 14 7 15 14 16
REMARK H PARENT
REMARK Flexibility Score: inf
ROOT
ATOM      1  C   UNL     1      69.681  -3.412   5.417  1.00  0.00     0.039 C 
ATOM      2  C   UNL     1      69.751  -3.215   6.913  1.00  0.00    -0.070 C 
ATOM      3  C   UNL     1      69.461  -2.014   7.496  1.00  0.00    -0.006 C 
ATOM      4  C   UNL     1      69.478  -1.852   9.010  1.00  0.00     0.047 C 
ATOM      5  C   UNL     1      68.516  -0.748   9.525  1.00  0.00     0.025 C 
ATOM      6  C   UNL     1      68.597  -0.483  11.032  1.00  0.00    -0.073 C 
ATOM      7  C   UNL     1      69.309  -1.238  11.889  1.00  0.00     0.008 C 
ATOM      8  C   UNL     1      67.811   0.681  11.592  1.00  0.00     0.031 C 
ATOM      9  C   UNL     1      66.880   1.288  10.541  1.00  0.00     0.005 C 
ATOM     10  C   UNL     1      67.635   1.679   9.260  1.00  0.00     0.008 C 
ATOM     11  C   UNL     1      68.662   0.601   8.742  1.00  0.00    -0.018 C 
ATOM     12  C   UNL     1      68.379   0.326   7.244  1.00  0.00     0.088 C 
ATOM     13  C   UNL     1      69.237  -0.777   6.698  1.00  0.00     0.159 C 
ATOM     14  O   UNL     1      69.771  -0.621   5.566  1.00  0.00    -0.295 OA
ATOM     15  C   UNL     1      70.097   1.178   8.893  1.00  0.00     0.012 C 
ATOM     16  C   UNL     1      70.123  -4.422   7.745  1.00  0.00     0.039 C 
ENDROOT
TORSDOF 0
ENDMDL
MODEL 6
REMARK VINA RESULT:    -3.867     22.586     24.758
REMARK INTER + INTRA:          -3.867
REMARK INTER:                  -3.867
REMARK INTRA:                   0.000
REMARK UNBOUND:                 0.000
REMARK SMILES C=C1CCC[C@]2(C)CC(=O)C(=C(C)C)C[C@@H]12
REMARK SMILES IDX 13 1 12 2 11 3 15 4 16 5 2 6 1 7 3 8 4 9 5 10 6 11 8 12 9 13
REMARK SMILES IDX 10 14 7 15 14 16
REMARK H PARENT
REMARK Flexibility Score: inf
ROOT
ATOM      1  C   UNL     1      56.630   1.400  22.890  1.00  0.00     0.039 C 
ATOM      2  C   UNL     1      55.502   0.471  22.504  1.00  0.00    -0.070 C 
ATOM      3  C   UNL     1      54.276   0.943  22.130  1.00  0.00    -0.006 C 
ATOM      4  C   UNL     1      53.171  -0.007  21.686  1.00  0.00     0.047 C 
ATOM      5  C   UNL     1      52.167   0.634  20.691  1.00  0.00     0.025 C 
ATOM      6  C   UNL     1      50.981  -0.260  20.317  1.00  0.00    -0.073 C 
ATOM      7  C   UNL     1      50.876  -1.554  20.672  1.00  0.00     0.008 C 
ATOM      8  C   UNL     1      49.875   0.340  19.478  1.00  0.00     0.031 C 
ATOM      9  C   UNL     1      50.252   1.731  18.964  1.00  0.00     0.005 C 
ATOM     10  C   UNL     1      50.671   2.672  20.106  1.00  0.00     0.008 C 
ATOM     11  C   UNL     1      51.647   2.033  21.166  1.00  0.00    -0.018 C 
ATOM     12  C   UNL     1      52.868   2.970  21.345  1.00  0.00     0.088 C 
ATOM     13  C   UNL     1      53.907   2.381  22.252  1.00  0.00     0.159 C 
ATOM     14  O   UNL     1      54.439   3.123  23.122  1.00  0.00    -0.295 OA
ATOM     15  C   UNL     1      50.892   1.914  22.519  1.00  0.00     0.012 C 
ATOM     16  C   UNL     1      55.804  -1.011  22.513  1.00  0.00     0.039 C 
ENDROOT
TORSDOF 0
ENDMDL
MODEL 7
REMARK VINA RESULT:    -3.710     15.321     16.899
REMARK INTER + INTRA:          -3.710
REMARK INTER:                  -3.710
REMARK INTRA:                   0.000
REMARK UNBOUND:                 0.000
REMARK SMILES C=C1CCC[C@]2(C)CC(=O)C(=C(C)C)C[C@@H]12
REMARK SMILES IDX 13 1 12 2 11 3 15 4 16 5 2 6 1 7 3 8 4 9 5 10 6 11 8 12 9 13
REMARK SMILES IDX 10 14 7 15 14 16
REMARK H PARENT
REMARK Flexibility Score: inf
ROOT
ATOM      1  C   UNL     1      69.780  -3.814   7.521  1.00  0.00     0.039 C 
ATOM      2  C   UNL     1      69.732  -2.312   7.363  1.00  0.00    -0.070 C 
ATOM      3  C   UNL     1      69.384  -1.490   8.396  1.00  0.00    -0.006 C 
ATOM      4  C   UNL     1      69.400   0.025   8.234  1.00  0.00     0.047 C 
ATOM      5  C   UNL     1      69.665   0.787   9.559  1.00  0.00     0.025 C 
ATOM      6  C   UNL     1      69.572   2.312   9.449  1.00  0.00    -0.073 C 
ATOM      7  C   UNL     1      69.438   2.972   8.284  1.00  0.00     0.008 C 
ATOM      8  C   UNL     1      69.660   3.124  10.722  1.00  0.00     0.031 C 
ATOM      9  C   UNL     1      70.043   2.251  11.918  1.00  0.00     0.005 C 
ATOM     10  C   UNL     1      69.100   1.048  12.079  1.00  0.00     0.008 C 
ATOM     11  C   UNL     1      68.765   0.286  10.741  1.00  0.00    -0.018 C 
ATOM     12  C   UNL     1      69.035  -1.226  10.949  1.00  0.00     0.088 C 
ATOM     13  C   UNL     1      68.855  -2.014   9.686  1.00  0.00     0.159 C 
ATOM     14  O   UNL     1      68.233  -3.110   9.742  1.00  0.00    -0.295 OA
ATOM     15  C   UNL     1      67.260   0.496  10.419  1.00  0.00     0.012 C 
ATOM     16  C   UNL     1      70.123  -1.755   6.012  1.00  0.00     0.039 C 
ENDROOT
TORSDOF 0
ENDMDL
MODEL 8
REMARK VINA RESULT:    -3.528     22.877     25.045
REMARK INTER + INTRA:          -3.528
REMARK INTER:                  -3.528
REMARK INTRA:                   0.000
REMARK UNBOUND:                 0.000
REMARK SMILES C=C1CCC[C@]2(C)CC(=O)C(=C(C)C)C[C@@H]12
REMARK SMILES IDX 13 1 12 2 11 3 15 4 16 5 2 6 1 7 3 8 4 9 5 10 6 11 8 12 9 13
REMARK SMILES IDX 10 14 7 15 14 16
REMARK H PARENT
REMARK Flexibility Score: inf
ROOT
ATOM      1  C   UNL     1      56.698   1.765  23.671  1.00  0.00     0.039 C 
ATOM      2  C   UNL     1      55.838   1.022  22.675  1.00  0.00    -0.070 C 
ATOM      3  C   UNL     1      54.484   1.195  22.622  1.00  0.00    -0.006 C 
ATOM      4  C   UNL     1      53.642   0.483  21.571  1.00  0.00     0.047 C 
ATOM      5  C   UNL     1      52.348   1.250  21.191  1.00  0.00     0.025 C 
ATOM      6  C   UNL     1      51.424   0.504  20.223  1.00  0.00    -0.073 C 
ATOM      7  C   UNL     1      51.756  -0.646  19.607  1.00  0.00     0.008 C 
ATOM      8  C   UNL     1      50.071   1.109  19.923  1.00  0.00     0.031 C 
ATOM      9  C   UNL     1      49.943   2.516  20.508  1.00  0.00     0.005 C 
ATOM     10  C   UNL     1      50.253   2.544  22.014  1.00  0.00     0.008 C 
ATOM     11  C   UNL     1      51.532   1.726  22.441  1.00  0.00    -0.018 C 
ATOM     12  C   UNL     1      52.443   2.640  23.297  1.00  0.00     0.088 C 
ATOM     13  C   UNL     1      53.742   1.977  23.649  1.00  0.00     0.159 C 
ATOM     14  O   UNL     1      54.173   2.084  24.830  1.00  0.00    -0.295 OA
ATOM     15  C   UNL     1      51.075   0.513  23.298  1.00  0.00     0.012 C 
ATOM     16  C   UNL     1      56.551   0.102  21.709  1.00  0.00     0.039 C 
ENDROOT
TORSDOF 0
ENDMDL
MODEL 9
REMARK VINA RESULT:    -3.402     12.126     14.124
REMARK INTER + INTRA:          -3.402
REMARK INTER:                  -3.402
REMARK INTRA:                   0.000
REMARK UNBOUND:                 0.000
REMARK SMILES C=C1CCC[C@]2(C)CC(=O)C(=C(C)C)C[C@@H]12
REMARK SMILES IDX 13 1 12 2 11 3 15 4 16 5 2 6 1 7 3 8 4 9 5 10 6 11 8 12 9 13
REMARK SMILES IDX 10 14 7 15 14 16
REMARK H PARENT
REMARK Flexibility Score: inf
ROOT
ATOM      1  C   UNL     1      51.641 -16.910   5.780  1.00  0.00     0.039 C 
ATOM      2  C   UNL     1      52.388 -16.845   7.091  1.00  0.00    -0.070 C 
ATOM      3  C   UNL     1      53.717 -16.534   7.149  1.00  0.00    -0.006 C 
ATOM      4  C   UNL     1      54.438 -16.414   8.486  1.00  0.00     0.047 C 
ATOM      5  C   UNL     1      55.645 -15.439   8.452  1.00  0.00     0.025 C 
ATOM      6  C   UNL     1      56.459 -15.386   9.748  1.00  0.00    -0.073 C 
ATOM      7  C   UNL     1      56.089 -15.994  10.891  1.00  0.00     0.008 C 
ATOM      8  C   UNL     1      57.741 -14.584   9.751  1.00  0.00     0.031 C 
ATOM      9  C   UNL     1      57.897 -13.772   8.464  1.00  0.00     0.005 C 
ATOM     10  C   UNL     1      57.784 -14.654   7.210  1.00  0.00     0.008 C 
ATOM     11  C   UNL     1      56.601 -15.694   7.237  1.00  0.00    -0.018 C 
ATOM     12  C   UNL     1      55.779 -15.545   5.932  1.00  0.00     0.088 C 
ATOM     13  C   UNL     1      54.560 -16.420   5.926  1.00  0.00     0.159 C 
ATOM     14  O   UNL     1      54.283 -17.062   4.877  1.00  0.00    -0.295 OA
ATOM     15  C   UNL     1      57.206 -17.124   7.298  1.00  0.00     0.012 C 
ATOM     16  C   UNL     1      51.586 -17.103   8.348  1.00  0.00     0.039 C 
ENDROOT
TORSDOF 0
ENDMDL
