MODEL 1
REMARK VINA RESULT:    -4.687      0.000      0.000
REMARK INTER + INTRA:         -14.186
REMARK INTER:                 -10.714
REMARK INTRA:                  -3.472
REMARK UNBOUND:                -3.472
REMARK SMILES CCCCCCCCCCCCCCCCCCCCCCCC(=O)[O-]
REMARK SMILES IDX 13 1 14 2 15 3 16 4 17 5 18 6 19 7 20 8 21 9 22 10 23 11
REMARK SMILES IDX 24 12 25 13 26 14 12 15 11 16 10 17 9 18 8 19 7 20 6 21 5 22
REMARK SMILES IDX 4 23 3 24 2 25 1 26
REMARK H PARENT
REMARK Flexibility Score: inf
ROOT
ATOM      1  C   UNL     1      -2.923   1.602   9.986  1.00  0.00     0.000 C 
ENDROOT
BRANCH   1   2
ATOM      2  C   UNL     1      -4.186   2.216  10.609  1.00  0.00     0.000 C 
BRANCH   2   3
ATOM      3  C   UNL     1      -3.981   2.480  12.108  1.00  0.00     0.000 C 
BRANCH   3   4
ATOM      4  C   UNL     1      -4.867   1.592  12.998  1.00  0.00     0.000 C 
BRANCH   4   5
ATOM      5  C   UNL     1      -4.545   1.655  14.505  1.00  0.00     0.000 C 
BRANCH   5   6
ATOM      6  C   UNL     1      -3.563   2.769  14.920  1.00  0.00     0.000 C 
BRANCH   6   7
ATOM      7  C   UNL     1      -4.172   3.878  15.796  1.00  0.00     0.000 C 
BRANCH   7   8
ATOM      8  C   UNL     1      -4.210   5.244  15.091  1.00  0.00     0.000 C 
BRANCH   8   9
ATOM      9  C   UNL     1      -5.234   5.277  13.936  1.00  0.00     0.000 C 
BRANCH   9  10
ATOM     10  C   UNL     1      -6.670   5.583  14.398  1.00  0.00     0.006 C 
BRANCH  10  11
ATOM     11  C   UNL     1      -7.547   4.336  14.584  1.00  0.00     0.053 C 
BRANCH  11  12
ATOM     12  C   UNL     1      -7.697   3.965  16.029  1.00  0.00     0.041 C 
ATOM     13  O   UNL     1      -7.508   2.778  16.402  1.00  0.00    -0.550 OA
ATOM     14  O   UNL     1      -8.036   4.934  16.966  1.00  0.00    -0.550 OA
ENDBRANCH  11  12
ENDBRANCH  10  11
ENDBRANCH   9  10
ENDBRANCH   8   9
ENDBRANCH   7   8
ENDBRANCH   6   7
ENDBRANCH   5   6
ENDBRANCH   4   5
ENDBRANCH   3   4
ENDBRANCH   2   3
ENDBRANCH   1   2
BRANCH   1  15
ATOM     15  C   UNL     1      -3.209   0.291   9.235  1.00  0.00     0.000 C 
BRANCH  15  16
ATOM     16  C   UNL     1      -1.965  -0.255   8.516  1.00  0.00     0.000 C 
BRANCH  16  17
ATOM     17  C   UNL     1      -1.975  -1.789   8.383  1.00  0.00     0.000 C 
BRANCH  17  18
ATOM     18  C   UNL     1      -3.361  -2.449   8.520  1.00  0.00    -0.000 C 
BRANCH  18  19
ATOM     19  C   UNL     1      -3.351  -3.901   9.036  1.00  0.00    -0.000 C 
BRANCH  19  20
ATOM     20  C   UNL     1      -4.182  -4.150  10.308  1.00  0.00    -0.000 C 
BRANCH  20  21
ATOM     21  C   UNL     1      -3.601  -3.443  11.544  1.00  0.00    -0.000 C 
BRANCH  21  22
ATOM     22  C   UNL     1      -2.142  -3.845  11.833  1.00  0.00    -0.000 C 
BRANCH  22  23
ATOM     23  C   UNL     1      -1.181  -2.674  12.126  1.00  0.00    -0.000 C 
BRANCH  23  24
ATOM     24  C   UNL     1      -1.823  -1.276  12.087  1.00  0.00    -0.000 C 
BRANCH  24  25
ATOM     25  C   UNL     1      -0.794  -0.145  12.230  1.00  0.00    -0.003 C 
ATOM     26  C   UNL     1      -0.992   0.614  13.539  1.00  0.00     0.004 C 
ENDBRANCH  24  25
ENDBRANCH  23  24
ENDBRANCH  22  23
ENDBRANCH  21  22
ENDBRANCH  20  21
ENDBRANCH  19  20
ENDBRANCH  18  19
ENDBRANCH  17  18
ENDBRANCH  16  17
ENDBRANCH  15  16
ENDBRANCH   1  15
TORSDOF 22
ENDMDL
MODEL 2
REMARK VINA RESULT:    -4.649      1.264      3.537
REMARK INTER + INTRA:         -14.099
REMARK INTER:                 -10.807
REMARK INTRA:                  -3.292
REMARK UNBOUND:                -3.472
REMARK SMILES CCCCCCCCCCCCCCCCCCCCCCCC(=O)[O-]
REMARK SMILES IDX 13 1 14 2 15 3 16 4 17 5 18 6 19 7 20 8 21 9 22 10 23 11
REMARK SMILES IDX 24 12 25 13 26 14 12 15 11 16 10 17 9 18 8 19 7 20 6 21 5 22
REMARK SMILES IDX 4 23 3 24 2 25 1 26
REMARK H PARENT
REMARK Flexibility Score: inf
ROOT
ATOM      1  C   UNL     1      -2.882  -2.299   8.245  1.00  0.00     0.000 C 
ENDROOT
BRANCH   1   2
ATOM      2  C   UNL     1      -2.412  -0.855   8.475  1.00  0.00     0.000 C 
BRANCH   2   3
ATOM      3  C   UNL     1      -3.476  -0.050   9.237  1.00  0.00     0.000 C 
BRANCH   3   4
ATOM      4  C   UNL     1      -2.930   1.268   9.812  1.00  0.00     0.000 C 
BRANCH   4   5
ATOM      5  C   UNL     1      -3.648   1.771  11.081  1.00  0.00     0.000 C 
BRANCH   5   6
ATOM      6  C   UNL     1      -4.156   0.666  12.028  1.00  0.00     0.000 C 
BRANCH   6   7
ATOM      7  C   UNL     1      -5.418   1.028  12.831  1.00  0.00     0.000 C 
BRANCH   7   8
ATOM      8  C   UNL     1      -5.119   1.345  14.305  1.00  0.00     0.000 C 
BRANCH   8   9
ATOM      9  C   UNL     1      -5.009   2.863  14.566  1.00  0.00     0.000 C 
BRANCH   9  10
ATOM     10  C   UNL     1      -5.372   3.267  16.007  1.00  0.00     0.006 C 
BRANCH  10  11
ATOM     11  C   UNL     1      -6.802   2.889  16.421  1.00  0.00     0.053 C 
BRANCH  11  12
ATOM     12  C   UNL     1      -7.784   3.979  16.109  1.00  0.00     0.041 C 
ATOM     13  O   UNL     1      -8.568   3.866  15.131  1.00  0.00    -0.550 OA
ATOM     14  O   UNL     1      -7.838   5.116  16.907  1.00  0.00    -0.550 OA
ENDBRANCH  11  12
ENDBRANCH  10  11
ENDBRANCH   9  10
ENDBRANCH   8   9
ENDBRANCH   7   8
ENDBRANCH   6   7
ENDBRANCH   5   6
ENDBRANCH   4   5
ENDBRANCH   3   4
ENDBRANCH   2   3
ENDBRANCH   1   2
BRANCH   1  15
ATOM     15  C   UNL     1      -4.121  -2.660   9.081  1.00  0.00     0.000 C 
BRANCH  15  16
ATOM     16  C   UNL     1      -4.093  -4.117   9.570  1.00  0.00     0.000 C 
BRANCH  16  17
ATOM     17  C   UNL     1      -3.690  -4.244  11.051  1.00  0.00     0.000 C 
BRANCH  17  18
ATOM     18  C   UNL     1      -3.088  -2.970  11.677  1.00  0.00    -0.000 C 
BRANCH  18  19
ATOM     19  C   UNL     1      -1.614  -3.085  12.113  1.00  0.00    -0.000 C 
BRANCH  19  20
ATOM     20  C   UNL     1      -0.650  -2.101  11.424  1.00  0.00    -0.000 C 
BRANCH  20  21
ATOM     21  C   UNL     1      -0.698  -0.693  12.040  1.00  0.00    -0.000 C 
BRANCH  21  22
ATOM     22  C   UNL     1       0.475  -0.419  13.000  1.00  0.00    -0.000 C 
BRANCH  22  23
ATOM     23  C   UNL     1       0.325   0.835  13.885  1.00  0.00    -0.000 C 
BRANCH  23  24
ATOM     24  C   UNL     1      -1.107   1.390  13.993  1.00  0.00    -0.000 C 
BRANCH  24  25
ATOM     25  C   UNL     1      -1.694   1.249  15.405  1.00  0.00    -0.003 C 
ATOM     26  C   UNL     1      -0.591   1.064  16.442  1.00  0.00     0.004 C 
ENDBRANCH  24  25
ENDBRANCH  23  24
ENDBRANCH  22  23
ENDBRANCH  21  22
ENDBRANCH  20  21
ENDBRANCH  19  20
ENDBRANCH  18  19
ENDBRANCH  17  18
ENDBRANCH  16  17
ENDBRANCH  15  16
ENDBRANCH   1  15
TORSDOF 22
ENDMDL
MODEL 3
REMARK VINA RESULT:    -4.636      1.146      3.943
REMARK INTER + INTRA:         -14.070
REMARK INTER:                 -10.572
REMARK INTRA:                  -3.498
REMARK UNBOUND:                -3.472
REMARK SMILES CCCCCCCCCCCCCCCCCCCCCCCC(=O)[O-]
REMARK SMILES IDX 13 1 14 2 15 3 16 4 17 5 18 6 19 7 20 8 21 9 22 10 23 11
REMARK SMILES IDX 24 12 25 13 26 14 12 15 11 16 10 17 9 18 8 19 7 20 6 21 5 22
REMARK SMILES IDX 4 23 3 24 2 25 1 26
REMARK H PARENT
REMARK Flexibility Score: inf
ROOT
ATOM      1  C   UNL     1      -1.967  -3.499  12.239  1.00  0.00     0.000 C 
ENDROOT
BRANCH   1   2
ATOM      2  C   UNL     1      -0.974  -2.870  11.251  1.00  0.00     0.000 C 
BRANCH   2   3
ATOM      3  C   UNL     1      -0.304  -1.632  11.866  1.00  0.00     0.000 C 
BRANCH   3   4
ATOM      4  C   UNL     1      -1.306  -0.687  12.549  1.00  0.00     0.000 C 
BRANCH   4   5
ATOM      5  C   UNL     1      -0.704   0.633  13.071  1.00  0.00     0.000 C 
BRANCH   5   6
ATOM      6  C   UNL     1      -0.939   0.913  14.569  1.00  0.00     0.000 C 
BRANCH   6   7
ATOM      7  C   UNL     1      -2.371   1.344  14.933  1.00  0.00     0.000 C 
BRANCH   7   8
ATOM      8  C   UNL     1      -2.464   2.825  15.338  1.00  0.00     0.000 C 
BRANCH   8   9
ATOM      9  C   UNL     1      -3.275   3.658  14.321  1.00  0.00     0.000 C 
BRANCH   9  10
ATOM     10  C   UNL     1      -4.555   4.275  14.914  1.00  0.00     0.006 C 
BRANCH  10  11
ATOM     11  C   UNL     1      -5.143   3.484  16.091  1.00  0.00     0.053 C 
BRANCH  11  12
ATOM     12  C   UNL     1      -6.597   3.176  15.892  1.00  0.00     0.041 C 
ATOM     13  O   UNL     1      -7.252   2.592  16.794  1.00  0.00    -0.550 OA
ATOM     14  O   UNL     1      -7.231   3.545  14.711  1.00  0.00    -0.550 OA
ENDBRANCH  11  12
ENDBRANCH  10  11
ENDBRANCH   9  10
ENDBRANCH   8   9
ENDBRANCH   7   8
ENDBRANCH   6   7
ENDBRANCH   5   6
ENDBRANCH   4   5
ENDBRANCH   3   4
ENDBRANCH   2   3
ENDBRANCH   1   2
BRANCH   1  15
ATOM     15  C   UNL     1      -3.431  -3.317  11.806  1.00  0.00     0.000 C 
BRANCH  15  16
ATOM     16  C   UNL     1      -4.000  -4.571  11.121  1.00  0.00     0.000 C 
BRANCH  16  17
ATOM     17  C   UNL     1      -4.411  -4.320   9.659  1.00  0.00     0.000 C 
BRANCH  17  18
ATOM     18  C   UNL     1      -3.292  -3.775   8.749  1.00  0.00    -0.000 C 
BRANCH  18  19
ATOM     19  C   UNL     1      -3.374  -2.268   8.437  1.00  0.00    -0.000 C 
BRANCH  19  20
ATOM     20  C   UNL     1      -2.045  -1.614   8.014  1.00  0.00    -0.000 C 
BRANCH  20  21
ATOM     21  C   UNL     1      -1.840  -0.226   8.642  1.00  0.00    -0.000 C 
BRANCH  21  22
ATOM     22  C   UNL     1      -3.122   0.336   9.285  1.00  0.00    -0.000 C 
BRANCH  22  23
ATOM     23  C   UNL     1      -2.946   1.655  10.065  1.00  0.00    -0.000 C 
BRANCH  23  24
ATOM     24  C   UNL     1      -4.030   1.940  11.120  1.00  0.00    -0.000 C 
BRANCH  24  25
ATOM     25  C   UNL     1      -4.472   0.677  11.874  1.00  0.00    -0.003 C 
ATOM     26  C   UNL     1      -5.435   1.022  13.006  1.00  0.00     0.004 C 
ENDBRANCH  24  25
ENDBRANCH  23  24
ENDBRANCH  22  23
ENDBRANCH  21  22
ENDBRANCH  20  21
ENDBRANCH  19  20
ENDBRANCH  18  19
ENDBRANCH  17  18
ENDBRANCH  16  17
ENDBRANCH  15  16
ENDBRANCH   1  15
TORSDOF 22
ENDMDL
MODEL 4
REMARK VINA RESULT:    -4.604      1.439      3.501
REMARK INTER + INTRA:         -13.996
REMARK INTER:                 -10.280
REMARK INTRA:                  -3.716
REMARK UNBOUND:                -3.472
REMARK SMILES CCCCCCCCCCCCCCCCCCCCCCCC(=O)[O-]
REMARK SMILES IDX 13 1 14 2 15 3 16 4 17 5 18 6 19 7 20 8 21 9 22 10 23 11
REMARK SMILES IDX 24 12 25 13 26 14 12 15 11 16 10 17 9 18 8 19 7 20 6 21 5 22
REMARK SMILES IDX 4 23 3 24 2 25 1 26
REMARK H PARENT
REMARK Flexibility Score: inf
ROOT
ATOM      1  C   UNL     1      -4.039   1.849  10.153  1.00  0.00     0.000 C 
ENDROOT
BRANCH   1   2
ATOM      2  C   UNL     1      -3.605   3.314  10.307  1.00  0.00     0.000 C 
BRANCH   2   3
ATOM      3  C   UNL     1      -3.219   3.618  11.762  1.00  0.00     0.000 C 
BRANCH   3   4
ATOM      4  C   UNL     1      -1.702   3.548  12.005  1.00  0.00     0.000 C 
BRANCH   4   5
ATOM      5  C   UNL     1      -1.286   3.394  13.482  1.00  0.00     0.000 C 
BRANCH   5   6
ATOM      6  C   UNL     1      -1.386   1.961  14.045  1.00  0.00     0.000 C 
BRANCH   6   7
ATOM      7  C   UNL     1      -2.216   1.826  15.333  1.00  0.00     0.000 C 
BRANCH   7   8
ATOM      8  C   UNL     1      -3.484   2.697  15.322  1.00  0.00     0.000 C 
BRANCH   8   9
ATOM      9  C   UNL     1      -4.732   1.905  14.873  1.00  0.00     0.000 C 
BRANCH   9  10
ATOM     10  C   UNL     1      -6.026   2.739  14.889  1.00  0.00     0.006 C 
BRANCH  10  11
ATOM     11  C   UNL     1      -6.500   3.131  16.295  1.00  0.00     0.053 C 
BRANCH  11  12
ATOM     12  C   UNL     1      -7.547   4.204  16.257  1.00  0.00     0.041 C 
ATOM     13  O   UNL     1      -8.581   4.058  15.555  1.00  0.00    -0.550 OA
ATOM     14  O   UNL     1      -7.385   5.363  17.008  1.00  0.00    -0.550 OA
ENDBRANCH  11  12
ENDBRANCH  10  11
ENDBRANCH   9  10
ENDBRANCH   8   9
ENDBRANCH   7   8
ENDBRANCH   6   7
ENDBRANCH   5   6
ENDBRANCH   4   5
ENDBRANCH   3   4
ENDBRANCH   2   3
ENDBRANCH   1   2
BRANCH   1  15
ATOM     15  C   UNL     1      -4.551   1.240  11.468  1.00  0.00     0.000 C 
BRANCH  15  16
ATOM     16  C   UNL     1      -3.875  -0.101  11.796  1.00  0.00     0.000 C 
BRANCH  16  17
ATOM     17  C   UNL     1      -2.381  -0.126  11.425  1.00  0.00     0.000 C 
BRANCH  17  18
ATOM     18  C   UNL     1      -1.591  -1.331  11.971  1.00  0.00    -0.000 C 
BRANCH  18  19
ATOM     19  C   UNL     1      -0.417  -1.802  11.091  1.00  0.00    -0.000 C 
BRANCH  19  20
ATOM     20  C   UNL     1      -0.337  -1.145   9.700  1.00  0.00    -0.000 C 
BRANCH  20  21
ATOM     21  C   UNL     1      -0.919  -2.035   8.589  1.00  0.00    -0.000 C 
BRANCH  21  22
ATOM     22  C   UNL     1      -2.317  -1.582   8.130  1.00  0.00    -0.000 C 
BRANCH  22  23
ATOM     23  C   UNL     1      -3.497  -2.377   8.725  1.00  0.00    -0.000 C 
BRANCH  23  24
ATOM     24  C   UNL     1      -3.156  -3.806   9.187  1.00  0.00    -0.000 C 
BRANCH  24  25
ATOM     25  C   UNL     1      -4.233  -4.409  10.099  1.00  0.00    -0.003 C 
ATOM     26  C   UNL     1      -3.943  -4.105  11.566  1.00  0.00     0.004 C 
ENDBRANCH  24  25
ENDBRANCH  23  24
ENDBRANCH  22  23
ENDBRANCH  21  22
ENDBRANCH  20  21
ENDBRANCH  19  20
ENDBRANCH  18  19
ENDBRANCH  17  18
ENDBRANCH  16  17
ENDBRANCH  15  16
ENDBRANCH   1  15
TORSDOF 22
ENDMDL
MODEL 5
REMARK VINA RESULT:    -4.582      3.359      7.896
REMARK INTER + INTRA:         -13.946
REMARK INTER:                  -9.631
REMARK INTRA:                  -4.314
REMARK UNBOUND:                -3.472
REMARK SMILES CCCCCCCCCCCCCCCCCCCCCCCC(=O)[O-]
REMARK SMILES IDX 13 1 14 2 15 3 16 4 17 5 18 6 19 7 20 8 21 9 22 10 23 11
REMARK SMILES IDX 24 12 25 13 26 14 12 15 11 16 10 17 9 18 8 19 7 20 6 21 5 22
REMARK SMILES IDX 4 23 3 24 2 25 1 26
REMARK H PARENT
REMARK Flexibility Score: inf
ROOT
ATOM      1  C   UNL     1      -3.922   2.609  11.093  1.00  0.00     0.000 C 
ENDROOT
BRANCH   1   2
ATOM      2  C   UNL     1      -2.610   2.448  10.311  1.00  0.00     0.000 C 
BRANCH   2   3
ATOM      3  C   UNL     1      -1.409   2.879  11.165  1.00  0.00     0.000 C 
BRANCH   3   4
ATOM      4  C   UNL     1      -1.740   2.956  12.666  1.00  0.00     0.000 C 
BRANCH   4   5
ATOM      5  C   UNL     1      -1.057   1.883  13.538  1.00  0.00     0.000 C 
BRANCH   5   6
ATOM      6  C   UNL     1      -1.577   0.445  13.336  1.00  0.00     0.000 C 
BRANCH   6   7
ATOM      7  C   UNL     1      -0.582  -0.518  12.667  1.00  0.00     0.000 C 
BRANCH   7   8
ATOM      8  C   UNL     1      -0.918  -0.796  11.192  1.00  0.00     0.000 C 
BRANCH   8   9
ATOM      9  C   UNL     1      -2.329  -1.399  11.018  1.00  0.00     0.000 C 
BRANCH   9  10
ATOM     10  C   UNL     1      -2.843  -1.350   9.568  1.00  0.00     0.006 C 
BRANCH  10  11
ATOM     11  C   UNL     1      -4.029  -2.286   9.292  1.00  0.00     0.053 C 
BRANCH  11  12
ATOM     12  C   UNL     1      -3.641  -3.731   9.394  1.00  0.00     0.041 C 
ATOM     13  O   UNL     1      -2.606  -4.153   8.815  1.00  0.00    -0.550 OA
ATOM     14  O   UNL     1      -4.419  -4.610  10.139  1.00  0.00    -0.550 OA
ENDBRANCH  11  12
ENDBRANCH  10  11
ENDBRANCH   9  10
ENDBRANCH   8   9
ENDBRANCH   7   8
ENDBRANCH   6   7
ENDBRANCH   5   6
ENDBRANCH   4   5
ENDBRANCH   3   4
ENDBRANCH   2   3
ENDBRANCH   1   2
BRANCH   1  15
ATOM     15  C   UNL     1      -4.730   1.303  11.170  1.00  0.00     0.000 C 
BRANCH  15  16
ATOM     16  C   UNL     1      -5.037   0.889  12.618  1.00  0.00     0.000 C 
BRANCH  16  17
ATOM     17  C   UNL     1      -5.286   2.093  13.546  1.00  0.00     0.000 C 
BRANCH  17  18
ATOM     18  C   UNL     1      -4.636   1.990  14.940  1.00  0.00    -0.000 C 
BRANCH  18  19
ATOM     19  C   UNL     1      -5.175   2.979  15.992  1.00  0.00    -0.000 C 
BRANCH  19  20
ATOM     20  C   UNL     1      -6.659   2.798  16.361  1.00  0.00    -0.000 C 
BRANCH  20  21
ATOM     21  C   UNL     1      -7.475   4.090  16.191  1.00  0.00    -0.000 C 
BRANCH  21  22
ATOM     22  C   UNL     1      -7.881   4.355  14.729  1.00  0.00    -0.000 C 
BRANCH  22  23
ATOM     23  C   UNL     1      -7.102   5.482  14.021  1.00  0.00    -0.000 C 
BRANCH  23  24
ATOM     24  C   UNL     1      -6.246   6.366  14.947  1.00  0.00    -0.000 C 
BRANCH  24  25
ATOM     25  C   UNL     1      -4.762   6.378  14.553  1.00  0.00    -0.003 C 
ATOM     26  C   UNL     1      -4.533   5.612  13.253  1.00  0.00     0.004 C 
ENDBRANCH  24  25
ENDBRANCH  23  24
ENDBRANCH  22  23
ENDBRANCH  21  22
ENDBRANCH  20  21
ENDBRANCH  19  20
ENDBRANCH  18  19
ENDBRANCH  17  18
ENDBRANCH  16  17
ENDBRANCH  15  16
ENDBRANCH   1  15
TORSDOF 22
ENDMDL
MODEL 6
REMARK VINA RESULT:    -4.557      3.354      8.084
REMARK INTER + INTRA:         -13.890
REMARK INTER:                 -10.308
REMARK INTRA:                  -3.581
REMARK UNBOUND:                -3.472
REMARK SMILES CCCCCCCCCCCCCCCCCCCCCCCC(=O)[O-]
REMARK SMILES IDX 13 1 14 2 15 3 16 4 17 5 18 6 19 7 20 8 21 9 22 10 23 11
REMARK SMILES IDX 24 12 25 13 26 14 12 15 11 16 10 17 9 18 8 19 7 20 6 21 5 22
REMARK SMILES IDX 4 23 3 24 2 25 1 26
REMARK H PARENT
REMARK Flexibility Score: inf
ROOT
ATOM      1  C   UNL     1      -3.631   5.569  14.233  1.00  0.00     0.000 C 
ENDROOT
BRANCH   1   2
ATOM      2  C   UNL     1      -3.985   5.505  12.740  1.00  0.00     0.000 C 
BRANCH   2   3
ATOM      3  C   UNL     1      -3.949   4.056  12.233  1.00  0.00     0.000 C 
BRANCH   3   4
ATOM      4  C   UNL     1      -3.647   3.957  10.727  1.00  0.00     0.000 C 
BRANCH   4   5
ATOM      5  C   UNL     1      -4.057   2.625  10.068  1.00  0.00     0.000 C 
BRANCH   5   6
ATOM      6  C   UNL     1      -4.493   1.515  11.046  1.00  0.00     0.000 C 
BRANCH   6   7
ATOM      7  C   UNL     1      -3.690   0.207  10.944  1.00  0.00     0.000 C 
BRANCH   7   8
ATOM      8  C   UNL     1      -2.703   0.202   9.766  1.00  0.00     0.000 C 
BRANCH   8   9
ATOM      9  C   UNL     1      -3.245  -0.584   8.551  1.00  0.00     0.000 C 
BRANCH   9  10
ATOM     10  C   UNL     1      -4.214  -1.717   8.936  1.00  0.00     0.006 C 
BRANCH  10  11
ATOM     11  C   UNL     1      -3.554  -3.100   9.031  1.00  0.00     0.053 C 
BRANCH  11  12
ATOM     12  C   UNL     1      -4.246  -3.987  10.023  1.00  0.00     0.041 C 
ATOM     13  O   UNL     1      -3.768  -4.142  11.177  1.00  0.00    -0.550 OA
ATOM     14  O   UNL     1      -5.426  -4.634   9.674  1.00  0.00    -0.550 OA
ENDBRANCH  11  12
ENDBRANCH  10  11
ENDBRANCH   9  10
ENDBRANCH   8   9
ENDBRANCH   7   8
ENDBRANCH   6   7
ENDBRANCH   5   6
ENDBRANCH   4   5
ENDBRANCH   3   4
ENDBRANCH   2   3
ENDBRANCH   1   2
BRANCH   1  15
ATOM     15  C   UNL     1      -4.673   6.340  15.058  1.00  0.00     0.000 C 
BRANCH  15  16
ATOM     16  C   UNL     1      -4.765   5.834  16.507  1.00  0.00     0.000 C 
BRANCH  16  17
ATOM     17  C   UNL     1      -6.046   6.299  17.225  1.00  0.00     0.000 C 
BRANCH  17  18
ATOM     18  C   UNL     1      -7.323   5.521  16.853  1.00  0.00    -0.000 C 
BRANCH  18  19
ATOM     19  C   UNL     1      -7.103   4.049  16.453  1.00  0.00    -0.000 C 
BRANCH  19  20
ATOM     20  C   UNL     1      -7.430   3.713  14.986  1.00  0.00    -0.000 C 
BRANCH  20  21
ATOM     21  C   UNL     1      -6.360   2.827  14.327  1.00  0.00    -0.000 C 
BRANCH  21  22
ATOM     22  C   UNL     1      -5.251   2.398  15.307  1.00  0.00    -0.000 C 
BRANCH  22  23
ATOM     23  C   UNL     1      -4.164   1.480  14.711  1.00  0.00    -0.000 C 
BRANCH  23  24
ATOM     24  C   UNL     1      -2.715   1.911  15.002  1.00  0.00    -0.000 C 
BRANCH  24  25
ATOM     25  C   UNL     1      -1.683   1.108  14.195  1.00  0.00    -0.003 C 
ATOM     26  C   UNL     1      -1.134   1.931  13.034  1.00  0.00     0.004 C 
ENDBRANCH  24  25
ENDBRANCH  23  24
ENDBRANCH  22  23
ENDBRANCH  21  22
ENDBRANCH  20  21
ENDBRANCH  19  20
ENDBRANCH  18  19
ENDBRANCH  17  18
ENDBRANCH  16  17
ENDBRANCH  15  16
ENDBRANCH   1  15
TORSDOF 22
ENDMDL
MODEL 7
REMARK VINA RESULT:    -4.552      3.391      7.808
REMARK INTER + INTRA:         -13.879
REMARK INTER:                  -9.655
REMARK INTRA:                  -4.224
REMARK UNBOUND:                -3.472
REMARK SMILES CCCCCCCCCCCCCCCCCCCCCCCC(=O)[O-]
REMARK SMILES IDX 13 1 14 2 15 3 16 4 17 5 18 6 19 7 20 8 21 9 22 10 23 11
REMARK SMILES IDX 24 12 25 13 26 14 12 15 11 16 10 17 9 18 8 19 7 20 6 21 5 22
REMARK SMILES IDX 4 23 3 24 2 25 1 26
REMARK H PARENT
REMARK Flexibility Score: inf
ROOT
ATOM      1  C   UNL     1      -4.717   1.237  14.181  1.00  0.00     0.000 C 
ENDROOT
BRANCH   1   2
ATOM      2  C   UNL     1      -4.206   2.409  15.032  1.00  0.00     0.000 C 
BRANCH   2   3
ATOM      3  C   UNL     1      -2.694   2.288  15.276  1.00  0.00     0.000 C 
BRANCH   3   4
ATOM      4  C   UNL     1      -2.096   0.997  14.691  1.00  0.00     0.000 C 
BRANCH   4   5
ATOM      5  C   UNL     1      -1.003   1.211  13.625  1.00  0.00     0.000 C 
BRANCH   5   6
ATOM      6  C   UNL     1      -0.574  -0.059  12.863  1.00  0.00     0.000 C 
BRANCH   6   7
ATOM      7  C   UNL     1      -0.684   0.034  11.331  1.00  0.00     0.000 C 
BRANCH   7   8
ATOM      8  C   UNL     1      -1.568  -1.070  10.727  1.00  0.00     0.000 C 
BRANCH   8   9
ATOM      9  C   UNL     1      -2.328  -1.867  11.809  1.00  0.00     0.000 C 
BRANCH   9  10
ATOM     10  C   UNL     1      -2.268  -3.392  11.603  1.00  0.00     0.006 C 
BRANCH  10  11
ATOM     11  C   UNL     1      -3.645  -4.061  11.480  1.00  0.00     0.053 C 
BRANCH  11  12
ATOM     12  C   UNL     1      -4.028  -4.299  10.049  1.00  0.00     0.041 C 
ATOM     13  O   UNL     1      -5.199  -4.657   9.756  1.00  0.00    -0.550 OA
ATOM     14  O   UNL     1      -3.092  -4.116   9.038  1.00  0.00    -0.550 OA
ENDBRANCH  11  12
ENDBRANCH  10  11
ENDBRANCH   9  10
ENDBRANCH   8   9
ENDBRANCH   7   8
ENDBRANCH   6   7
ENDBRANCH   5   6
ENDBRANCH   4   5
ENDBRANCH   3   4
ENDBRANCH   2   3
ENDBRANCH   1   2
BRANCH   1  15
ATOM     15  C   UNL     1      -5.178   1.677  12.782  1.00  0.00     0.000 C 
BRANCH  15  16
ATOM     16  C   UNL     1      -4.207   1.230  11.677  1.00  0.00     0.000 C 
BRANCH  16  17
ATOM     17  C   UNL     1      -4.389   2.016  10.365  1.00  0.00     0.000 C 
BRANCH  17  18
ATOM     18  C   UNL     1      -3.810   3.444  10.372  1.00  0.00    -0.000 C 
BRANCH  18  19
ATOM     19  C   UNL     1      -2.473   3.608  11.121  1.00  0.00    -0.000 C 
BRANCH  19  20
ATOM     20  C   UNL     1      -2.521   4.534  12.351  1.00  0.00    -0.000 C 
BRANCH  20  21
ATOM     21  C   UNL     1      -3.909   5.155  12.573  1.00  0.00    -0.000 C 
BRANCH  21  22
ATOM     22  C   UNL     1      -3.978   6.031  13.838  1.00  0.00    -0.000 C 
BRANCH  22  23
ATOM     23  C   UNL     1      -5.307   5.963  14.617  1.00  0.00    -0.000 C 
BRANCH  23  24
ATOM     24  C   UNL     1      -6.466   5.277  13.873  1.00  0.00    -0.000 C 
BRANCH  24  25
ATOM     25  C   UNL     1      -7.315   4.384  14.789  1.00  0.00    -0.003 C 
ATOM     26  C   UNL     1      -6.939   4.586  16.254  1.00  0.00     0.004 C 
ENDBRANCH  24  25
ENDBRANCH  23  24
ENDBRANCH  22  23
ENDBRANCH  21  22
ENDBRANCH  20  21
ENDBRANCH  19  20
ENDBRANCH  18  19
ENDBRANCH  17  18
ENDBRANCH  16  17
ENDBRANCH  15  16
ENDBRANCH   1  15
TORSDOF 22
ENDMDL
MODEL 8
REMARK VINA RESULT:    -4.550      1.457      3.620
REMARK INTER + INTRA:         -13.874
REMARK INTER:                 -10.294
REMARK INTRA:                  -3.580
REMARK UNBOUND:                -3.472
REMARK SMILES CCCCCCCCCCCCCCCCCCCCCCCC(=O)[O-]
REMARK SMILES IDX 13 1 14 2 15 3 16 4 17 5 18 6 19 7 20 8 21 9 22 10 23 11
REMARK SMILES IDX 24 12 25 13 26 14 12 15 11 16 10 17 9 18 8 19 7 20 6 21 5 22
REMARK SMILES IDX 4 23 3 24 2 25 1 26
REMARK H PARENT
REMARK Flexibility Score: inf
ROOT
ATOM      1  C   UNL     1      -1.841   3.567  11.744  1.00  0.00     0.000 C 
ENDROOT
BRANCH   1   2
ATOM      2  C   UNL     1      -0.878   2.806  10.821  1.00  0.00     0.000 C 
BRANCH   2   3
ATOM      3  C   UNL     1      -0.431   1.486  11.469  1.00  0.00     0.000 C 
BRANCH   3   4
ATOM      4  C   UNL     1      -0.386   1.559  13.005  1.00  0.00     0.000 C 
BRANCH   4   5
ATOM      5  C   UNL     1      -1.367   0.617  13.731  1.00  0.00     0.000 C 
BRANCH   5   6
ATOM      6  C   UNL     1      -1.998   1.192  15.015  1.00  0.00     0.000 C 
BRANCH   6   7
ATOM      7  C   UNL     1      -3.438   1.711  14.854  1.00  0.00     0.000 C 
BRANCH   7   8
ATOM      8  C   UNL     1      -3.524   3.246  14.865  1.00  0.00     0.000 C 
BRANCH   8   9
ATOM      9  C   UNL     1      -4.976   3.749  15.020  1.00  0.00     0.000 C 
BRANCH   9  10
ATOM     10  C   UNL     1      -5.987   2.624  15.311  1.00  0.00     0.006 C 
BRANCH  10  11
ATOM     11  C   UNL     1      -6.976   2.949  16.440  1.00  0.00     0.053 C 
BRANCH  11  12
ATOM     12  C   UNL     1      -7.851   4.119  16.102  1.00  0.00     0.041 C 
ATOM     13  O   UNL     1      -7.846   5.147  16.828  1.00  0.00    -0.550 OA
ATOM     14  O   UNL     1      -8.667   4.076  14.977  1.00  0.00    -0.550 OA
ENDBRANCH  11  12
ENDBRANCH  10  11
ENDBRANCH   9  10
ENDBRANCH   8   9
ENDBRANCH   7   8
ENDBRANCH   6   7
ENDBRANCH   5   6
ENDBRANCH   4   5
ENDBRANCH   3   4
ENDBRANCH   2   3
ENDBRANCH   1   2
BRANCH   1  15
ATOM     15  C   UNL     1      -3.157   3.946  11.045  1.00  0.00     0.000 C 
BRANCH  15  16
ATOM     16  C   UNL     1      -3.787   2.759  10.299  1.00  0.00     0.000 C 
BRANCH  16  17
ATOM     17  C   UNL     1      -4.425   1.726  11.246  1.00  0.00     0.000 C 
BRANCH  17  18
ATOM     18  C   UNL     1      -3.875   0.292  11.117  1.00  0.00    -0.000 C 
BRANCH  18  19
ATOM     19  C   UNL     1      -3.896  -0.295   9.692  1.00  0.00    -0.000 C 
BRANCH  19  20
ATOM     20  C   UNL     1      -2.553  -0.235   8.940  1.00  0.00    -0.000 C 
BRANCH  20  21
ATOM     21  C   UNL     1      -2.273  -1.506   8.122  1.00  0.00    -0.000 C 
BRANCH  21  22
ATOM     22  C   UNL     1      -1.316  -2.479   8.837  1.00  0.00    -0.000 C 
BRANCH  22  23
ATOM     23  C   UNL     1      -1.967  -3.771   9.373  1.00  0.00    -0.000 C 
BRANCH  23  24
ATOM     24  C   UNL     1      -3.439  -3.975   8.973  1.00  0.00    -0.000 C 
BRANCH  24  25
ATOM     25  C   UNL     1      -4.351  -4.245  10.179  1.00  0.00    -0.003 C 
ATOM     26  C   UNL     1      -3.679  -3.818  11.480  1.00  0.00     0.004 C 
ENDBRANCH  24  25
ENDBRANCH  23  24
ENDBRANCH  22  23
ENDBRANCH  21  22
ENDBRANCH  20  21
ENDBRANCH  19  20
ENDBRANCH  18  19
ENDBRANCH  17  18
ENDBRANCH  16  17
ENDBRANCH  15  16
ENDBRANCH   1  15
TORSDOF 22
ENDMDL
MODEL 9
REMARK VINA RESULT:    -4.522      0.938      2.839
REMARK INTER + INTRA:         -13.810
REMARK INTER:                  -9.453
REMARK INTRA:                  -4.357
REMARK UNBOUND:                -3.472
REMARK SMILES CCCCCCCCCCCCCCCCCCCCCCCC(=O)[O-]
REMARK SMILES IDX 13 1 14 2 15 3 16 4 17 5 18 6 19 7 20 8 21 9 22 10 23 11
REMARK SMILES IDX 24 12 25 13 26 14 12 15 11 16 10 17 9 18 8 19 7 20 6 21 5 22
REMARK SMILES IDX 4 23 3 24 2 25 1 26
REMARK H PARENT
REMARK Flexibility Score: inf
ROOT
ATOM      1  C   UNL     1      -2.035   3.118  11.038  1.00  0.00     0.000 C 
ENDROOT
BRANCH   1   2
ATOM      2  C   UNL     1      -3.492   3.038  10.556  1.00  0.00     0.000 C 
BRANCH   2   3
ATOM      3  C   UNL     1      -4.002   1.590  10.601  1.00  0.00     0.000 C 
BRANCH   3   4
ATOM      4  C   UNL     1      -5.090   1.373  11.667  1.00  0.00     0.000 C 
BRANCH   4   5
ATOM      5  C   UNL     1      -4.573   0.879  13.033  1.00  0.00     0.000 C 
BRANCH   5   6
ATOM      6  C   UNL     1      -4.865   1.817  14.222  1.00  0.00     0.000 C 
BRANCH   6   7
ATOM      7  C   UNL     1      -3.657   2.630  14.720  1.00  0.00     0.000 C 
BRANCH   7   8
ATOM      8  C   UNL     1      -3.897   4.148  14.669  1.00  0.00     0.000 C 
BRANCH   8   9
ATOM      9  C   UNL     1      -4.962   4.537  13.620  1.00  0.00     0.000 C 
BRANCH   9  10
ATOM     10  C   UNL     1      -6.079   5.434  14.182  1.00  0.00     0.006 C 
BRANCH  10  11
ATOM     11  C   UNL     1      -7.341   4.670  14.607  1.00  0.00     0.053 C 
BRANCH  11  12
ATOM     12  C   UNL     1      -7.294   4.263  16.049  1.00  0.00     0.041 C 
ATOM     13  O   UNL     1      -7.378   3.048  16.369  1.00  0.00    -0.550 OA
ATOM     14  O   UNL     1      -7.146   5.226  17.040  1.00  0.00    -0.550 OA
ENDBRANCH  11  12
ENDBRANCH  10  11
ENDBRANCH   9  10
ENDBRANCH   8   9
ENDBRANCH   7   8
ENDBRANCH   6   7
ENDBRANCH   5   6
ENDBRANCH   4   5
ENDBRANCH   3   4
ENDBRANCH   2   3
ENDBRANCH   1   2
BRANCH   1  15
ATOM     15  C   UNL     1      -1.377   1.735  11.166  1.00  0.00     0.000 C 
BRANCH  15  16
ATOM     16  C   UNL     1      -0.873   1.456  12.591  1.00  0.00     0.000 C 
BRANCH  16  17
ATOM     17  C   UNL     1      -1.063  -0.011  13.018  1.00  0.00     0.000 C 
BRANCH  17  18
ATOM     18  C   UNL     1      -1.592  -0.950  11.916  1.00  0.00    -0.000 C 
BRANCH  18  19
ATOM     19  C   UNL     1      -0.844  -2.291  11.778  1.00  0.00    -0.000 C 
BRANCH  19  20
ATOM     20  C   UNL     1      -1.732  -3.504  11.445  1.00  0.00    -0.000 C 
BRANCH  20  21
ATOM     21  C   UNL     1      -3.232  -3.167  11.469  1.00  0.00    -0.000 C 
BRANCH  21  22
ATOM     22  C   UNL     1      -3.956  -3.563  10.168  1.00  0.00    -0.000 C 
BRANCH  22  23
ATOM     23  C   UNL     1      -3.350  -2.986   8.873  1.00  0.00    -0.000 C 
BRANCH  23  24
ATOM     24  C   UNL     1      -3.514  -1.466   8.695  1.00  0.00    -0.000 C 
BRANCH  24  25
ATOM     25  C   UNL     1      -2.205  -0.770   8.293  1.00  0.00    -0.003 C 
ATOM     26  C   UNL     1      -1.098  -1.788   8.039  1.00  0.00     0.004 C 
ENDBRANCH  24  25
ENDBRANCH  23  24
ENDBRANCH  22  23
ENDBRANCH  21  22
ENDBRANCH  20  21
ENDBRANCH  19  20
ENDBRANCH  18  19
ENDBRANCH  17  18
ENDBRANCH  16  17
ENDBRANCH  15  16
ENDBRANCH   1  15
TORSDOF 22
ENDMDL
