MODEL 1
REMARK VINA RESULT:    -1.695      0.000      0.000
REMARK INTER + INTRA:          -2.039
REMARK INTER:                  -1.943
REMARK INTRA:                  -0.096
REMARK UNBOUND:                -0.096
REMARK SMILES COc1cc(C(=O)[O-])ccc1O
REMARK SMILES IDX 5 1 9 2 4 3 10 4 3 5 11 6 6 7 7 8 8 9 2 10 1 11 12 12
REMARK H PARENT 12 13
REMARK Flexibility Score: inf
ROOT
ATOM      1  C   UNL     1     184.000 181.233 163.055  1.00  0.00     0.001 A 
ATOM      2  C   UNL     1     183.984 179.830 163.084  1.00  0.00     0.014 A 
ATOM      3  C   UNL     1     184.047 181.941 164.270  1.00  0.00     0.060 A 
ATOM      4  C   UNL     1     184.015 179.146 164.301  1.00  0.00     0.051 A 
ATOM      5  C   UNL     1     184.078 181.256 165.502  1.00  0.00     0.161 A 
ATOM      6  C   UNL     1     184.062 179.854 165.508  1.00  0.00     0.157 A 
ENDROOT
BRANCH   1   7
ATOM      7  C   UNL     1     183.968 181.953 161.762  1.00  0.00     0.072 C 
ATOM      8  O   UNL     1     184.092 183.206 161.722  1.00  0.00    -0.545 OA
ATOM      9  O   UNL     1     183.801 181.254 160.571  1.00  0.00    -0.545 OA
ENDBRANCH   1   7
BRANCH   5  10
ATOM     10  O   UNL     1     184.125 181.928 166.733  1.00  0.00    -0.493 OA
ATOM     11  C   UNL     1     182.983 182.425 167.425  1.00  0.00     0.278 C 
ENDBRANCH   5  10
BRANCH   6  12
ATOM     12  O   UNL     1     184.092 179.170 166.722  1.00  0.00    -0.504 OA
ATOM     13  H   UNL     1     184.641 179.504 167.505  1.00  0.00     0.293 HD
ENDBRANCH   6  12
TORSDOF 3
ENDMDL
MODEL 2
REMARK VINA RESULT:    -1.647      2.525      4.985
REMARK INTER + INTRA:          -1.984
REMARK INTER:                  -1.913
REMARK INTRA:                  -0.071
REMARK UNBOUND:                -0.096
REMARK SMILES COc1cc(C(=O)[O-])ccc1O
REMARK SMILES IDX 5 1 9 2 4 3 10 4 3 5 11 6 6 7 7 8 8 9 2 10 1 11 12 12
REMARK H PARENT 12 13
REMARK Flexibility Score: inf
ROOT
ATOM      1  C   UNL     1     183.284 181.869 163.727  1.00  0.00     0.001 A 
ATOM      2  C   UNL     1     184.118 182.560 162.833  1.00  0.00     0.014 A 
ATOM      3  C   UNL     1     181.911 181.764 163.440  1.00  0.00     0.060 A 
ATOM      4  C   UNL     1     183.590 183.137 161.676  1.00  0.00     0.051 A 
ATOM      5  C   UNL     1     181.374 182.345 162.273  1.00  0.00     0.161 A 
ATOM      6  C   UNL     1     182.223 183.030 161.393  1.00  0.00     0.157 A 
ENDROOT
BRANCH   1   7
ATOM      7  C   UNL     1     183.849 181.259 164.953  1.00  0.00     0.072 C 
ATOM      8  O   UNL     1     184.113 180.029 164.994  1.00  0.00    -0.545 OA
ATOM      9  O   UNL     1     184.094 182.039 166.078  1.00  0.00    -0.545 OA
ENDBRANCH   1   7
BRANCH   5  10
ATOM     10  O   UNL     1     180.010 182.261 161.954  1.00  0.00    -0.493 OA
ATOM     11  C   UNL     1     179.025 183.204 162.366  1.00  0.00     0.278 C 
ENDBRANCH   5  10
BRANCH   6  12
ATOM     12  O   UNL     1     181.699 183.606 160.237  1.00  0.00    -0.504 OA
ATOM     13  H   UNL     1     182.264 184.190 159.632  1.00  0.00     0.293 HD
ENDBRANCH   6  12
TORSDOF 3
ENDMDL
MODEL 3
REMARK VINA RESULT:    -1.593     23.885     25.157
REMARK INTER + INTRA:          -1.922
REMARK INTER:                  -1.827
REMARK INTRA:                  -0.095
REMARK UNBOUND:                -0.096
REMARK SMILES COc1cc(C(=O)[O-])ccc1O
REMARK SMILES IDX 5 1 9 2 4 3 10 4 3 5 11 6 6 7 7 8 8 9 2 10 1 11 12 12
REMARK H PARENT 12 13
REMARK Flexibility Score: inf
ROOT
ATOM      1  C   UNL     1     164.845 164.969 164.075  1.00  0.00     0.001 A 
ATOM      2  C   UNL     1     164.199 163.875 163.478  1.00  0.00     0.014 A 
ATOM      3  C   UNL     1     165.212 166.067 163.275  1.00  0.00     0.060 A 
ATOM      4  C   UNL     1     163.925 163.876 162.109  1.00  0.00     0.051 A 
ATOM      5  C   UNL     1     164.939 166.072 161.892  1.00  0.00     0.161 A 
ATOM      6  C   UNL     1     164.293 164.969 161.315  1.00  0.00     0.157 A 
ENDROOT
BRANCH   1   7
ATOM      7  C   UNL     1     165.132 164.964 165.528  1.00  0.00     0.072 C 
ATOM      8  O   UNL     1     165.372 163.884 166.130  1.00  0.00    -0.545 OA
ATOM      9  O   UNL     1     165.140 166.153 166.248  1.00  0.00    -0.545 OA
ENDBRANCH   1   7
BRANCH   5  10
ATOM     10  O   UNL     1     165.291 167.148 161.063  1.00  0.00    -0.493 OA
ATOM     11  C   UNL     1     164.836 168.486 161.240  1.00  0.00     0.278 C 
ENDBRANCH   5  10
BRANCH   6  12
ATOM     12  O   UNL     1     164.019 164.968 159.949  1.00  0.00    -0.504 OA
ATOM     13  H   UNL     1     163.537 165.740 159.504  1.00  0.00     0.293 HD
ENDBRANCH   6  12
TORSDOF 3
ENDMDL
MODEL 4
REMARK VINA RESULT:    -1.558      3.394      5.360
REMARK INTER + INTRA:          -1.882
REMARK INTER:                  -1.781
REMARK INTRA:                  -0.101
REMARK UNBOUND:                -0.096
REMARK SMILES COc1cc(C(=O)[O-])ccc1O
REMARK SMILES IDX 5 1 9 2 4 3 10 4 3 5 11 6 6 7 7 8 8 9 2 10 1 11 12 12
REMARK H PARENT 12 13
REMARK Flexibility Score: inf
ROOT
ATOM      1  C   UNL     1     180.751 183.046 163.241  1.00  0.00     0.001 A 
ATOM      2  C   UNL     1     180.713 184.006 162.217  1.00  0.00     0.014 A 
ATOM      3  C   UNL     1     181.874 182.205 163.349  1.00  0.00     0.060 A 
ATOM      4  C   UNL     1     181.775 184.125 161.319  1.00  0.00     0.051 A 
ATOM      5  C   UNL     1     182.949 182.321 162.444  1.00  0.00     0.161 A 
ATOM      6  C   UNL     1     182.892 183.287 161.430  1.00  0.00     0.157 A 
ENDROOT
BRANCH   1   7
ATOM      7  C   UNL     1     179.622 182.924 164.191  1.00  0.00     0.072 C 
ATOM      8  O   UNL     1     179.293 181.801 164.656  1.00  0.00    -0.545 OA
ATOM      9  O   UNL     1     178.908 184.051 164.584  1.00  0.00    -0.545 OA
ENDBRANCH   1   7
BRANCH   5  10
ATOM     10  O   UNL     1     184.085 181.501 162.522  1.00  0.00    -0.493 OA
ATOM     11  C   UNL     1     184.124 180.136 162.115  1.00  0.00     0.278 C 
ENDBRANCH   5  10
BRANCH   6  12
ATOM     12  O   UNL     1     183.951 183.407 160.532  1.00  0.00    -0.504 OA
ATOM     13  H   UNL     1     184.758 182.796 160.580  1.00  0.00     0.293 HD
ENDBRANCH   6  12
TORSDOF 3
ENDMDL
MODEL 5
REMARK VINA RESULT:    -1.531      2.528      5.131
REMARK INTER + INTRA:          -1.850
REMARK INTER:                  -1.757
REMARK INTRA:                  -0.093
REMARK UNBOUND:                -0.096
REMARK SMILES COc1cc(C(=O)[O-])ccc1O
REMARK SMILES IDX 5 1 9 2 4 3 10 4 3 5 11 6 6 7 7 8 8 9 2 10 1 11 12 12
REMARK H PARENT 12 13
REMARK Flexibility Score: inf
ROOT
ATOM      1  C   UNL     1     182.047 181.868 164.316  1.00  0.00     0.001 A 
ATOM      2  C   UNL     1     183.437 181.702 164.203  1.00  0.00     0.014 A 
ATOM      3  C   UNL     1     181.357 182.565 163.307  1.00  0.00     0.060 A 
ATOM      4  C   UNL     1     184.124 182.222 163.105  1.00  0.00     0.051 A 
ATOM      5  C   UNL     1     182.047 183.092 162.196  1.00  0.00     0.161 A 
ATOM      6  C   UNL     1     183.435 182.915 162.102  1.00  0.00     0.157 A 
ENDROOT
BRANCH   1   7
ATOM      7  C   UNL     1     181.322 181.314 165.483  1.00  0.00     0.072 C 
ATOM      8  O   UNL     1     181.954 180.860 166.473  1.00  0.00    -0.545 OA
ATOM      9  O   UNL     1     179.932 181.289 165.501  1.00  0.00    -0.545 OA
ENDBRANCH   1   7
BRANCH   5  10
ATOM     10  O   UNL     1     181.393 183.793 161.171  1.00  0.00    -0.493 OA
ATOM     11  C   UNL     1     180.766 183.180 160.048  1.00  0.00     0.278 C 
ENDBRANCH   5  10
BRANCH   6  12
ATOM     12  O   UNL     1     184.122 183.433 161.007  1.00  0.00    -0.504 OA
ATOM     13  H   UNL     1     183.842 184.302 160.566  1.00  0.00     0.293 HD
ENDBRANCH   6  12
TORSDOF 3
ENDMDL
MODEL 6
REMARK VINA RESULT:    -1.501      1.360      3.087
REMARK INTER + INTRA:          -1.816
REMARK INTER:                  -1.724
REMARK INTRA:                  -0.092
REMARK UNBOUND:                -0.096
REMARK SMILES COc1cc(C(=O)[O-])ccc1O
REMARK SMILES IDX 5 1 9 2 4 3 10 4 3 5 11 6 6 7 7 8 8 9 2 10 1 11 12 12
REMARK H PARENT 12 13
REMARK Flexibility Score: inf
ROOT
ATOM      1  C   UNL     1     183.814 181.241 162.433  1.00  0.00     0.001 A 
ATOM      2  C   UNL     1     183.663 181.950 163.636  1.00  0.00     0.014 A 
ATOM      3  C   UNL     1     183.968 179.843 162.479  1.00  0.00     0.060 A 
ATOM      4  C   UNL     1     183.666 181.277 164.859  1.00  0.00     0.051 A 
ATOM      5  C   UNL     1     183.972 179.159 163.712  1.00  0.00     0.161 A 
ATOM      6  C   UNL     1     183.820 179.886 164.901  1.00  0.00     0.157 A 
ENDROOT
BRANCH   1   7
ATOM      7  C   UNL     1     183.809 181.959 161.138  1.00  0.00     0.072 C 
ATOM      8  O   UNL     1     183.571 181.345 160.065  1.00  0.00    -0.545 OA
ATOM      9  O   UNL     1     184.069 183.324 161.090  1.00  0.00    -0.545 OA
ENDBRANCH   1   7
BRANCH   5  10
ATOM     10  O   UNL     1     184.124 177.766 163.796  1.00  0.00    -0.493 OA
ATOM     11  C   UNL     1     183.344 176.824 163.066  1.00  0.00     0.278 C 
ENDBRANCH   5  10
BRANCH   6  12
ATOM     12  O   UNL     1     183.822 179.216 166.123  1.00  0.00    -0.504 OA
ATOM     13  H   UNL     1     184.683 179.033 166.625  1.00  0.00     0.293 HD
ENDBRANCH   6  12
TORSDOF 3
ENDMDL
MODEL 7
REMARK VINA RESULT:    -1.497      2.446      4.016
REMARK INTER + INTRA:          -1.812
REMARK INTER:                  -1.710
REMARK INTRA:                  -0.103
REMARK UNBOUND:                -0.096
REMARK SMILES COc1cc(C(=O)[O-])ccc1O
REMARK SMILES IDX 5 1 9 2 4 3 10 4 3 5 11 6 6 7 7 8 8 9 2 10 1 11 12 12
REMARK H PARENT 12 13
REMARK Flexibility Score: inf
ROOT
ATOM      1  C   UNL     1     183.996 178.631 161.921  1.00  0.00     0.001 A 
ATOM      2  C   UNL     1     183.979 179.410 160.753  1.00  0.00     0.014 A 
ATOM      3  C   UNL     1     184.045 179.275 163.171  1.00  0.00     0.060 A 
ATOM      4  C   UNL     1     184.010 180.804 160.831  1.00  0.00     0.051 A 
ATOM      5  C   UNL     1     184.076 180.682 163.255  1.00  0.00     0.161 A 
ATOM      6  C   UNL     1     184.058 181.441 162.077  1.00  0.00     0.157 A 
ENDROOT
BRANCH   1   7
ATOM      7  C   UNL     1     183.963 177.154 161.833  1.00  0.00     0.072 C 
ATOM      8  O   UNL     1     184.093 176.446 162.867  1.00  0.00    -0.545 OA
ATOM      9  O   UNL     1     183.786 176.526 160.605  1.00  0.00    -0.545 OA
ENDBRANCH   1   7
BRANCH   5  10
ATOM     10  O   UNL     1     184.125 181.359 164.484  1.00  0.00    -0.493 OA
ATOM     11  C   UNL     1     183.043 181.433 165.408  1.00  0.00     0.278 C 
ENDBRANCH   5  10
BRANCH   6  12
ATOM     12  O   UNL     1     184.089 182.832 162.153  1.00  0.00    -0.504 OA
ATOM     13  H   UNL     1     184.917 183.359 161.902  1.00  0.00     0.293 HD
ENDBRANCH   6  12
TORSDOF 3
ENDMDL
