MODEL 1
REMARK VINA RESULT:    37.956      0.000      0.000
REMARK INTER + INTRA:          70.359
REMARK INTER:                  60.145
REMARK INTRA:                  10.214
REMARK UNBOUND:                10.214
REMARK SMILES C[C@@H]1O[C@H](O[C@@H]2CC[C@@]3(C)[C@H](CC[C@@]4(C)[C@@H]3C=C[C@@]35OC[C@]6(CCC(C)(C)C[C@H]63)[C@@H](O)C[C@@]45C)[C@@]2(C)CO)[C@@H](O)[C@@H](O[C@H]2O[C@H](CO)[C@@H](O)[C@H](O)[C@@H]2O)[C@H]1O
REMARK SMILES IDX 1 1 2 2 54 3 41 4 39 5 4 6 3 7 55 8 42 10 43 11 52 12 44 13
REMARK SMILES IDX 50 14 45 15 48 16 53 17 51 19 46 21 47 22 49 24 5 26 6 27
REMARK SMILES IDX 7 28 35 29 8 30 11 31 36 32 9 33 12 34 10 35 16 36 13 37
REMARK SMILES IDX 14 38 17 39 15 40 33 41 18 42 19 43 32 44 34 45 29 46 20 47
REMARK SMILES IDX 30 48 22 49 28 50 21 51 23 52 25 53 24 54 26 55 27 56 37 57
REMARK SMILES IDX 38 58 31 60 40 62
REMARK H PARENT 55 9 53 18 51 20 47 23 49 25 38 59 31 61 40 63
REMARK Flexibility Score: inf
ROOT
ATOM      1  C   UNL     1      38.463 -33.029  10.002  1.00  0.00     0.041 C 
ATOM      2  C   UNL     1      39.038 -32.250  11.200  1.00  0.00     0.150 C 
ATOM      3  C   UNL     1      40.443 -31.670  10.932  1.00  0.00     0.175 C 
ATOM      4  C   UNL     1      40.361 -30.395  10.079  1.00  0.00     0.186 C 
ATOM      5  C   UNL     1      39.345 -29.413  10.681  1.00  0.00     0.202 C 
ATOM      6  C   UNL     1      37.995 -30.110  10.944  1.00  0.00     0.282 C 
ATOM      7  O   UNL     1      38.131 -31.287  11.732  1.00  0.00    -0.344 OA
ENDROOT
BRANCH   3   8
ATOM      8  O   UNL     1      41.060 -31.399  12.166  1.00  0.00    -0.388 OA
ATOM      9  H   UNL     1      40.638 -30.575  12.530  1.00  0.00     0.211 HD
ENDBRANCH   3   8
BRANCH   4  10
ATOM     10  O   UNL     1      41.646 -29.788  10.045  1.00  0.00    -0.341 OA
BRANCH  10  11
ATOM     11  C   UNL     1      42.409 -30.062  11.211  1.00  0.00     0.282 C 
ATOM     12  C   UNL     1      43.687 -29.190  11.264  1.00  0.00     0.202 C 
ATOM     13  O   UNL     1      42.753 -31.438  11.258  1.00  0.00    -0.341 OA
ATOM     14  C   UNL     1      44.621 -29.563  10.105  1.00  0.00     0.179 C 
ATOM     15  C   UNL     1      43.514 -31.836  10.125  1.00  0.00     0.178 C 
ATOM     16  C   UNL     1      44.867 -31.083  10.080  1.00  0.00     0.177 C 
BRANCH  12  17
ATOM     17  O   UNL     1      44.348 -29.385  12.488  1.00  0.00    -0.385 OA
ATOM     18  H   UNL     1      44.365 -30.364  12.651  1.00  0.00     0.211 HD
ENDBRANCH  12  17
BRANCH  14  19
ATOM     19  O   UNL     1      45.839 -28.875  10.251  1.00  0.00    -0.387 OA
ATOM     20  H   UNL     1      46.452 -29.222   9.552  1.00  0.00     0.211 HD
ENDBRANCH  14  19
BRANCH  15  21
ATOM     21  C   UNL     1      43.721 -33.355  10.210  1.00  0.00     0.191 C 
BRANCH  21  22
ATOM     22  O   UNL     1      43.867 -33.763  11.547  1.00  0.00    -0.394 OA
ATOM     23  H   UNL     1      43.257 -33.203  12.093  1.00  0.00     0.210 HD
ENDBRANCH  21  22
ENDBRANCH  15  21
BRANCH  16  24
ATOM     24  O   UNL     1      45.560 -31.422   8.905  1.00  0.00    -0.387 OA
ATOM     25  H   UNL     1      46.429 -30.945   8.933  1.00  0.00     0.211 HD
ENDBRANCH  16  24
ENDBRANCH  10  11
ENDBRANCH   4  10
BRANCH   6  26
ATOM     26  O   UNL     1      37.344 -30.401   9.713  1.00  0.00    -0.346 OA
BRANCH  26  27
ATOM     27  C   UNL     1      36.089 -31.051   9.889  1.00  0.00     0.130 C 
ATOM     28  C   UNL     1      35.948 -31.550  11.345  1.00  0.00     0.033 C 
ATOM     29  C   UNL     1      35.916 -32.160   8.795  1.00  0.00     0.020 C 
ATOM     30  C   UNL     1      35.238 -32.891  11.517  1.00  0.00     0.010 C 
ATOM     31  C   UNL     1      34.507 -32.879   9.006  1.00  0.00     0.006 C 
ATOM     32  C   UNL     1      37.113 -33.152   8.837  1.00  0.00     0.017 C 
ATOM     33  C   UNL     1      34.070 -33.199  10.517  1.00  0.00    -0.022 C 
ATOM     34  C   UNL     1      34.149 -33.956   7.932  1.00  0.00     0.005 C 
ATOM     35  C   UNL     1      32.919 -32.221  10.909  1.00  0.00     0.012 C 
ATOM     36  C   UNL     1      33.663 -34.729  10.789  1.00  0.00     0.024 C 
ATOM     37  C   UNL     1      34.016 -35.406   8.386  1.00  0.00     0.008 C 
ATOM     38  C   UNL     1      33.171 -35.691   9.655  1.00  0.00    -0.017 C 
ATOM     39  C   UNL     1      32.892 -34.986  12.066  1.00  0.00    -0.024 C 
ATOM     40  C   UNL     1      33.630 -37.144  10.096  1.00  0.00     0.013 C 
ATOM     41  C   UNL     1      31.549 -35.704   9.452  1.00  0.00     0.009 C 
ATOM     42  C   UNL     1      31.648 -35.480  12.068  1.00  0.00     0.005 C 
ATOM     43  C   UNL     1      30.750 -35.462  10.849  1.00  0.00     0.096 C 
ATOM     44  C   UNL     1      31.034 -34.657   8.410  1.00  0.00     0.043 C 
ATOM     45  C   UNL     1      31.145 -37.087   8.806  1.00  0.00     0.015 C 
ATOM     46  C   UNL     1      29.939 -34.135  10.864  1.00  0.00     0.037 C 
ATOM     47  O   UNL     1      29.762 -36.464  10.982  1.00  0.00    -0.369 OA
ATOM     48  C   UNL     1      29.478 -34.445   8.429  1.00  0.00     0.124 C 
ATOM     49  C   UNL     1      28.854 -34.513   9.883  1.00  0.00     0.026 C 
ATOM     50  C   UNL     1      29.339 -33.680  12.224  1.00  0.00     0.014 C 
ATOM     51  C   UNL     1      28.600 -35.973  10.336  1.00  0.00     0.171 C 
ATOM     52  C   UNL     1      27.556 -33.648  10.030  1.00  0.00     0.013 C 
ATOM     53  C   UNL     1      28.486 -32.377  12.062  1.00  0.00    -0.035 C 
ATOM     54  C   UNL     1      27.856 -32.270  10.635  1.00  0.00     0.007 C 
ATOM     55  C   UNL     1      27.367 -32.372  13.124  1.00  0.00     0.011 C 
ATOM     56  C   UNL     1      29.378 -31.139  12.299  1.00  0.00     0.011 C 
BRANCH  29  57
ATOM     57  C   UNL     1      35.950 -31.393   7.412  1.00  0.00     0.165 C 
BRANCH  57  58
ATOM     58  O   UNL     1      37.238 -31.244   6.878  1.00  0.00    -0.396 OA
ATOM     59  H   UNL     1      37.679 -32.131   6.911  1.00  0.00     0.210 HD
ENDBRANCH  57  58
ENDBRANCH  29  57
BRANCH  48  60
ATOM     60  O   UNL     1      29.203 -33.199   7.840  1.00  0.00    -0.392 OA
ATOM     61  H   UNL     1      29.819 -33.102   7.068  1.00  0.00     0.210 HD
ENDBRANCH  48  60
ENDBRANCH  26  27
ENDBRANCH   6  26
BRANCH   5  62
ATOM     62  O   UNL     1      39.852 -28.875  11.878  1.00  0.00    -0.385 OA
ATOM     63  H   UNL     1      40.701 -29.354  12.070  1.00  0.00     0.211 HD
ENDBRANCH   5  62
TORSDOF 14
ENDMDL
