MODEL 1
REMARK VINA RESULT:    -3.777      0.000      0.000
REMARK INTER + INTRA:          -6.800
REMARK INTER:                  -5.764
REMARK INTRA:                  -1.036
REMARK UNBOUND:                -1.036
REMARK SMILES O=C([O-])CCCCCCCCC(=O)[O-]
REMARK SMILES IDX 7 1 6 2 5 3 4 4 2 5 1 6 3 7 8 8 9 9 10 10 11 11 12 12 13 13
REMARK SMILES IDX 14 14
REMARK H PARENT
REMARK Flexibility Score: inf
ROOT
ATOM      1  C   UNL     1     -11.089   2.687   7.484  1.00  0.00     0.000 C 
ENDROOT
BRANCH   1   2
ATOM      2  C   UNL     1     -10.599   3.949   6.755  1.00  0.00     0.000 C 
BRANCH   2   3
ATOM      3  C   UNL     1      -9.642   3.626   5.596  1.00  0.00     0.006 C 
BRANCH   3   4
ATOM      4  C   UNL     1      -8.167   3.683   6.017  1.00  0.00     0.053 C 
BRANCH   4   5
ATOM      5  C   UNL     1      -7.576   2.310   6.032  1.00  0.00     0.041 C 
ATOM      6  O   UNL     1      -7.777   1.544   7.011  1.00  0.00    -0.550 OA
ATOM      7  O   UNL     1      -6.841   1.857   4.944  1.00  0.00    -0.550 OA
ENDBRANCH   4   5
ENDBRANCH   3   4
ENDBRANCH   2   3
ENDBRANCH   1   2
BRANCH   1   8
ATOM      8  C   UNL     1     -12.426   2.161   6.930  1.00  0.00     0.000 C 
BRANCH   8   9
ATOM      9  C   UNL     1     -12.320   0.869   6.092  1.00  0.00     0.000 C 
BRANCH   9  10
ATOM     10  C   UNL     1     -10.935   0.199   6.099  1.00  0.00     0.006 C 
BRANCH  10  11
ATOM     11  C   UNL     1     -10.289   0.151   4.708  1.00  0.00     0.053 C 
BRANCH  11  12
ATOM     12  C   UNL     1      -9.154  -0.824   4.694  1.00  0.00     0.041 C 
ATOM     13  O   UNL     1      -9.042  -1.679   5.611  1.00  0.00    -0.550 OA
ATOM     14  O   UNL     1      -8.246  -0.820   3.643  1.00  0.00    -0.550 OA
ENDBRANCH  11  12
ENDBRANCH  10  11
ENDBRANCH   9  10
ENDBRANCH   8   9
ENDBRANCH   1   8
TORSDOF 9
ENDMDL
MODEL 2
REMARK VINA RESULT:    -3.771      0.485      3.783
REMARK INTER + INTRA:          -6.790
REMARK INTER:                  -5.714
REMARK INTRA:                  -1.076
REMARK UNBOUND:                -1.036
REMARK SMILES O=C([O-])CCCCCCCCC(=O)[O-]
REMARK SMILES IDX 7 1 6 2 5 3 4 4 2 5 1 6 3 7 8 8 9 9 10 10 11 11 12 12 13 13
REMARK SMILES IDX 14 14
REMARK H PARENT
REMARK Flexibility Score: inf
ROOT
ATOM      1  C   UNL     1     -11.350   2.380   7.185  1.00  0.00     0.000 C 
ENDROOT
BRANCH   1   2
ATOM      2  C   UNL     1     -11.812   1.483   6.023  1.00  0.00     0.000 C 
BRANCH   2   3
ATOM      3  C   UNL     1     -10.915   0.249   5.840  1.00  0.00     0.006 C 
BRANCH   3   4
ATOM      4  C   UNL     1     -10.236   0.213   4.464  1.00  0.00     0.053 C 
BRANCH   4   5
ATOM      5  C   UNL     1      -9.107  -0.767   4.465  1.00  0.00     0.041 C 
ATOM      6  O   UNL     1      -8.218  -0.711   3.575  1.00  0.00    -0.550 OA
ATOM      7  O   UNL     1      -9.008  -1.714   5.476  1.00  0.00    -0.550 OA
ENDBRANCH   4   5
ENDBRANCH   3   4
ENDBRANCH   2   3
ENDBRANCH   1   2
BRANCH   1   8
ATOM      8  C   UNL     1     -10.873   3.766   6.713  1.00  0.00     0.000 C 
BRANCH   8   9
ATOM      9  C   UNL     1     -10.299   3.805   5.281  1.00  0.00     0.000 C 
BRANCH   9  10
ATOM     10  C   UNL     1      -8.849   4.310   5.173  1.00  0.00     0.006 C 
BRANCH  10  11
ATOM     11  C   UNL     1      -7.950   3.789   6.303  1.00  0.00     0.053 C 
BRANCH  11  12
ATOM     12  C   UNL     1      -7.579   2.361   6.056  1.00  0.00     0.041 C 
ATOM     13  O   UNL     1      -6.988   2.034   4.994  1.00  0.00    -0.550 OA
ATOM     14  O   UNL     1      -7.843   1.397   7.021  1.00  0.00    -0.550 OA
ENDBRANCH  11  12
ENDBRANCH  10  11
ENDBRANCH   9  10
ENDBRANCH   8   9
ENDBRANCH   1   8
TORSDOF 9
ENDMDL
MODEL 3
REMARK VINA RESULT:    -3.549      1.486      4.389
REMARK INTER + INTRA:          -6.452
REMARK INTER:                  -5.726
REMARK INTRA:                  -0.726
REMARK UNBOUND:                -1.036
REMARK SMILES O=C([O-])CCCCCCCCC(=O)[O-]
REMARK SMILES IDX 7 1 6 2 5 3 4 4 2 5 1 6 3 7 8 8 9 9 10 10 11 11 12 12 13 13
REMARK SMILES IDX 14 14
REMARK H PARENT
REMARK Flexibility Score: inf
ROOT
ATOM      1  C   UNL     1     -11.035   3.060   6.069  1.00  0.00     0.000 C 
ENDROOT
BRANCH   1   2
ATOM      2  C   UNL     1     -10.886   1.532   5.978  1.00  0.00     0.000 C 
BRANCH   2   3
ATOM      3  C   UNL     1     -10.671   1.047   4.536  1.00  0.00     0.006 C 
BRANCH   3   4
ATOM      4  C   UNL     1      -9.367   0.256   4.368  1.00  0.00     0.053 C 
BRANCH   4   5
ATOM      5  C   UNL     1      -9.532  -1.137   4.886  1.00  0.00     0.041 C 
ATOM      6  O   UNL     1     -10.024  -2.033   4.151  1.00  0.00    -0.550 OA
ATOM      7  O   UNL     1      -9.097  -1.460   6.165  1.00  0.00    -0.550 OA
ENDBRANCH   4   5
ENDBRANCH   3   4
ENDBRANCH   2   3
ENDBRANCH   1   2
BRANCH   1   8
ATOM      8  C   UNL     1     -10.226   3.803   4.991  1.00  0.00     0.000 C 
BRANCH   8   9
ATOM      9  C   UNL     1      -8.987   4.562   5.512  1.00  0.00     0.000 C 
BRANCH   9  10
ATOM     10  C   UNL     1      -7.656   4.173   4.846  1.00  0.00     0.006 C 
BRANCH  10  11
ATOM     11  C   UNL     1      -7.132   2.808   5.312  1.00  0.00     0.053 C 
BRANCH  11  12
ATOM     12  C   UNL     1      -6.224   2.973   6.490  1.00  0.00     0.041 C 
ATOM     13  O   UNL     1      -5.907   1.975   7.189  1.00  0.00    -0.550 OA
ATOM     14  O   UNL     1      -5.690   4.220   6.788  1.00  0.00    -0.550 OA
ENDBRANCH  11  12
ENDBRANCH  10  11
ENDBRANCH   9  10
ENDBRANCH   8   9
ENDBRANCH   1   8
TORSDOF 9
ENDMDL
MODEL 4
REMARK VINA RESULT:    -3.527      1.827      2.845
REMARK INTER + INTRA:          -6.419
REMARK INTER:                  -5.401
REMARK INTRA:                  -1.018
REMARK UNBOUND:                -1.036
REMARK SMILES O=C([O-])CCCCCCCCC(=O)[O-]
REMARK SMILES IDX 7 1 6 2 5 3 4 4 2 5 1 6 3 7 8 8 9 9 10 10 11 11 12 12 13 13
REMARK SMILES IDX 14 14
REMARK H PARENT
REMARK Flexibility Score: inf
ROOT
ATOM      1  C   UNL     1     -11.286   1.488   5.399  1.00  0.00     0.000 C 
ENDROOT
BRANCH   1   2
ATOM      2  C   UNL     1     -10.423   0.566   4.520  1.00  0.00     0.000 C 
BRANCH   2   3
ATOM      3  C   UNL     1      -8.927   0.908   4.600  1.00  0.00     0.006 C 
BRANCH   3   4
ATOM      4  C   UNL     1      -8.647   2.121   5.498  1.00  0.00     0.053 C 
BRANCH   4   5
ATOM      5  C   UNL     1      -7.236   2.585   5.324  1.00  0.00     0.041 C 
ATOM      6  O   UNL     1      -6.965   3.493   4.495  1.00  0.00    -0.550 OA
ATOM      7  O   UNL     1      -6.225   2.048   6.111  1.00  0.00    -0.550 OA
ENDBRANCH   4   5
ENDBRANCH   3   4
ENDBRANCH   2   3
ENDBRANCH   1   2
BRANCH   1   8
ATOM      8  C   UNL     1     -12.381   0.725   6.166  1.00  0.00     0.000 C 
BRANCH   8   9
ATOM      9  C   UNL     1     -12.335   0.887   7.700  1.00  0.00     0.000 C 
BRANCH   9  10
ATOM     10  C   UNL     1     -10.949   1.223   8.279  1.00  0.00     0.006 C 
BRANCH  10  11
ATOM     11  C   UNL     1     -10.267   0.014   8.933  1.00  0.00     0.053 C 
BRANCH  11  12
ATOM     12  C   UNL     1      -9.095  -0.429   8.116  1.00  0.00     0.041 C 
ATOM     13  O   UNL     1      -7.950   0.042   8.343  1.00  0.00    -0.550 OA
ATOM     14  O   UNL     1      -9.258  -1.398   7.134  1.00  0.00    -0.550 OA
ENDBRANCH  11  12
ENDBRANCH  10  11
ENDBRANCH   9  10
ENDBRANCH   8   9
ENDBRANCH   1   8
TORSDOF 9
ENDMDL
MODEL 5
REMARK VINA RESULT:    -3.503      2.340      4.951
REMARK INTER + INTRA:          -6.383
REMARK INTER:                  -5.913
REMARK INTRA:                  -0.469
REMARK UNBOUND:                -1.036
REMARK SMILES O=C([O-])CCCCCCCCC(=O)[O-]
REMARK SMILES IDX 7 1 6 2 5 3 4 4 2 5 1 6 3 7 8 8 9 9 10 10 11 11 12 12 13 13
REMARK SMILES IDX 14 14
REMARK H PARENT
REMARK Flexibility Score: inf
ROOT
ATOM      1  C   UNL     1      -9.329   3.488   5.299  1.00  0.00     0.000 C 
ENDROOT
BRANCH   1   2
ATOM      2  C   UNL     1     -10.595   2.640   5.512  1.00  0.00     0.000 C 
BRANCH   2   3
ATOM      3  C   UNL     1     -10.690   1.466   4.524  1.00  0.00     0.006 C 
BRANCH   3   4
ATOM      4  C   UNL     1     -10.634   0.101   5.223  1.00  0.00     0.053 C 
BRANCH   4   5
ATOM      5  C   UNL     1      -9.466  -0.691   4.728  1.00  0.00     0.041 C 
ATOM      6  O   UNL     1      -8.993  -1.626   5.426  1.00  0.00    -0.550 OA
ATOM      7  O   UNL     1      -8.928  -0.428   3.474  1.00  0.00    -0.550 OA
ENDBRANCH   4   5
ENDBRANCH   3   4
ENDBRANCH   2   3
ENDBRANCH   1   2
BRANCH   1   8
ATOM      8  C   UNL     1      -8.036   2.655   5.367  1.00  0.00     0.000 C 
BRANCH   8   9
ATOM      9  C   UNL     1      -7.391   2.566   6.766  1.00  0.00     0.000 C 
BRANCH   9  10
ATOM     10  C   UNL     1      -5.883   2.869   6.808  1.00  0.00     0.006 C 
BRANCH  10  11
ATOM     11  C   UNL     1      -5.229   2.457   8.134  1.00  0.00     0.053 C 
BRANCH  11  12
ATOM     12  C   UNL     1      -3.987   1.662   7.877  1.00  0.00     0.041 C 
ATOM     13  O   UNL     1      -3.861   1.013   6.806  1.00  0.00    -0.550 OA
ATOM     14  O   UNL     1      -2.949   1.677   8.800  1.00  0.00    -0.550 OA
ENDBRANCH  11  12
ENDBRANCH  10  11
ENDBRANCH   9  10
ENDBRANCH   8   9
ENDBRANCH   1   8
TORSDOF 9
ENDMDL
MODEL 6
REMARK VINA RESULT:    -3.479     14.338     16.296
REMARK INTER + INTRA:          -6.345
REMARK INTER:                  -5.531
REMARK INTRA:                  -0.814
REMARK UNBOUND:                -1.036
REMARK SMILES O=C([O-])CCCCCCCCC(=O)[O-]
REMARK SMILES IDX 7 1 6 2 5 3 4 4 2 5 1 6 3 7 8 8 9 9 10 10 11 11 12 12 13 13
REMARK SMILES IDX 14 14
REMARK H PARENT
REMARK Flexibility Score: inf
ROOT
ATOM      1  C   UNL     1      -1.729 -10.725   5.897  1.00  0.00     0.000 C 
ENDROOT
BRANCH   1   2
ATOM      2  C   UNL     1      -2.183  -9.469   6.661  1.00  0.00     0.000 C 
BRANCH   2   3
ATOM      3  C   UNL     1      -1.119  -8.360   6.656  1.00  0.00     0.006 C 
BRANCH   3   4
ATOM      4  C   UNL     1       0.303  -8.907   6.844  1.00  0.00     0.053 C 
BRANCH   4   5
ATOM      5  C   UNL     1       0.619  -9.048   8.299  1.00  0.00     0.041 C 
ATOM      6  O   UNL     1       0.315  -8.130   9.105  1.00  0.00    -0.550 OA
ATOM      7  O   UNL     1       1.207 -10.214   8.773  1.00  0.00    -0.550 OA
ENDBRANCH   4   5
ENDBRANCH   3   4
ENDBRANCH   2   3
ENDBRANCH   1   2
BRANCH   1   8
ATOM      8  C   UNL     1      -1.848 -12.008   6.738  1.00  0.00     0.000 C 
BRANCH   8   9
ATOM      9  C   UNL     1      -0.507 -12.700   7.064  1.00  0.00     0.000 C 
BRANCH   9  10
ATOM     10  C   UNL     1       0.617 -12.458   6.041  1.00  0.00     0.006 C 
BRANCH  10  11
ATOM     11  C   UNL     1       1.583 -13.645   5.925  1.00  0.00     0.053 C 
BRANCH  11  12
ATOM     12  C   UNL     1       2.967 -13.230   6.317  1.00  0.00     0.041 C 
ATOM     13  O   UNL     1       3.142 -12.217   7.044  1.00  0.00    -0.550 OA
ATOM     14  O   UNL     1       4.059 -13.990   5.921  1.00  0.00    -0.550 OA
ENDBRANCH  11  12
ENDBRANCH  10  11
ENDBRANCH   9  10
ENDBRANCH   8   9
ENDBRANCH   1   8
TORSDOF 9
ENDMDL
MODEL 7
REMARK VINA RESULT:    -3.478      1.752      2.570
REMARK INTER + INTRA:          -6.343
REMARK INTER:                  -5.576
REMARK INTRA:                  -0.767
REMARK UNBOUND:                -1.036
REMARK SMILES O=C([O-])CCCCCCCCC(=O)[O-]
REMARK SMILES IDX 7 1 6 2 5 3 4 4 2 5 1 6 3 7 8 8 9 9 10 10 11 11 12 12 13 13
REMARK SMILES IDX 14 14
REMARK H PARENT
REMARK Flexibility Score: inf
ROOT
ATOM      1  C   UNL     1      -8.889   4.237   5.822  1.00  0.00     0.000 C 
ENDROOT
BRANCH   1   2
ATOM      2  C   UNL     1      -7.591   3.908   5.065  1.00  0.00     0.000 C 
BRANCH   2   3
ATOM      3  C   UNL     1      -7.006   2.544   5.465  1.00  0.00     0.006 C 
BRANCH   3   4
ATOM      4  C   UNL     1      -6.651   2.470   6.956  1.00  0.00     0.053 C 
BRANCH   4   5
ATOM      5  C   UNL     1      -5.169   2.398   7.137  1.00  0.00     0.041 C 
ATOM      6  O   UNL     1      -4.524   1.411   6.695  1.00  0.00    -0.550 OA
ATOM      7  O   UNL     1      -4.491   3.443   7.750  1.00  0.00    -0.550 OA
ENDBRANCH   4   5
ENDBRANCH   3   4
ENDBRANCH   2   3
ENDBRANCH   1   2
BRANCH   1   8
ATOM      8  C   UNL     1     -10.151   3.994   4.973  1.00  0.00     0.000 C 
BRANCH   8   9
ATOM      9  C   UNL     1     -11.040   2.825   5.448  1.00  0.00     0.000 C 
BRANCH   9  10
ATOM     10  C   UNL     1     -10.813   1.493   4.712  1.00  0.00     0.006 C 
BRANCH  10  11
ATOM     11  C   UNL     1     -10.094   0.449   5.577  1.00  0.00     0.053 C 
BRANCH  11  12
ATOM     12  C   UNL     1      -9.362  -0.529   4.713  1.00  0.00     0.041 C 
ATOM     13  O   UNL     1      -9.072  -1.671   5.156  1.00  0.00    -0.550 OA
ATOM     14  O   UNL     1      -9.042  -0.196   3.403  1.00  0.00    -0.550 OA
ENDBRANCH  11  12
ENDBRANCH  10  11
ENDBRANCH   9  10
ENDBRANCH   8   9
ENDBRANCH   1   8
TORSDOF 9
ENDMDL
MODEL 8
REMARK VINA RESULT:    -3.460     15.191     17.423
REMARK INTER + INTRA:          -6.316
REMARK INTER:                  -5.723
REMARK INTRA:                  -0.594
REMARK UNBOUND:                -1.036
REMARK SMILES O=C([O-])CCCCCCCCC(=O)[O-]
REMARK SMILES IDX 7 1 6 2 5 3 4 4 2 5 1 6 3 7 8 8 9 9 10 10 11 11 12 12 13 13
REMARK SMILES IDX 14 14
REMARK H PARENT
REMARK Flexibility Score: inf
ROOT
ATOM      1  C   UNL     1       0.118 -12.540   6.414  1.00  0.00     0.000 C 
ENDROOT
BRANCH   1   2
ATOM      2  C   UNL     1       0.826 -13.541   5.485  1.00  0.00     0.000 C 
BRANCH   2   3
ATOM      3  C   UNL     1       2.216 -13.943   6.002  1.00  0.00     0.006 C 
BRANCH   3   4
ATOM      4  C   UNL     1       2.943 -12.784   6.698  1.00  0.00     0.053 C 
BRANCH   4   5
ATOM      5  C   UNL     1       4.423 -12.922   6.533  1.00  0.00     0.041 C 
ATOM      6  O   UNL     1       4.901 -13.896   5.894  1.00  0.00    -0.550 OA
ATOM      7  O   UNL     1       5.273 -11.950   7.044  1.00  0.00    -0.550 OA
ENDBRANCH   4   5
ENDBRANCH   3   4
ENDBRANCH   2   3
ENDBRANCH   1   2
BRANCH   1   8
ATOM      8  C   UNL     1      -0.499 -11.354   5.652  1.00  0.00     0.000 C 
BRANCH   8   9
ATOM      9  C   UNL     1      -1.389 -10.423   6.503  1.00  0.00     0.000 C 
BRANCH   9  10
ATOM     10  C   UNL     1      -0.930  -8.955   6.560  1.00  0.00     0.006 C 
BRANCH  10  11
ATOM     11  C   UNL     1       0.549  -8.807   6.941  1.00  0.00     0.053 C 
BRANCH  11  12
ATOM     12  C   UNL     1       0.737  -9.049   8.405  1.00  0.00     0.041 C 
ATOM     13  O   UNL     1       0.420  -8.160   9.239  1.00  0.00    -0.550 OA
ATOM     14  O   UNL     1       1.217 -10.273   8.852  1.00  0.00    -0.550 OA
ENDBRANCH  11  12
ENDBRANCH  10  11
ENDBRANCH   9  10
ENDBRANCH   8   9
ENDBRANCH   1   8
TORSDOF 9
ENDMDL
MODEL 9
REMARK VINA RESULT:    -3.438      1.384      3.889
REMARK INTER + INTRA:          -6.283
REMARK INTER:                  -5.331
REMARK INTRA:                  -0.952
REMARK UNBOUND:                -1.036
REMARK SMILES O=C([O-])CCCCCCCCC(=O)[O-]
REMARK SMILES IDX 7 1 6 2 5 3 4 4 2 5 1 6 3 7 8 8 9 9 10 10 11 11 12 12 13 13
REMARK SMILES IDX 14 14
REMARK H PARENT
REMARK Flexibility Score: inf
ROOT
ATOM      1  C   UNL     1     -10.586   3.602   5.117  1.00  0.00     0.000 C 
ENDROOT
BRANCH   1   2
ATOM      2  C   UNL     1     -10.741   2.095   4.848  1.00  0.00     0.000 C 
BRANCH   2   3
ATOM      3  C   UNL     1     -11.092   1.303   6.117  1.00  0.00     0.006 C 
BRANCH   3   4
ATOM      4  C   UNL     1     -11.023  -0.215   5.902  1.00  0.00     0.053 C 
BRANCH   4   5
ATOM      5  C   UNL     1      -9.645  -0.721   6.186  1.00  0.00     0.041 C 
ATOM      6  O   UNL     1      -9.050  -0.379   7.242  1.00  0.00    -0.550 OA
ATOM      7  O   UNL     1      -9.035  -1.608   5.309  1.00  0.00    -0.550 OA
ENDBRANCH   4   5
ENDBRANCH   3   4
ENDBRANCH   2   3
ENDBRANCH   1   2
BRANCH   1   8
ATOM      8  C   UNL     1     -10.357   3.920   6.606  1.00  0.00     0.000 C 
BRANCH   8   9
ATOM      9  C   UNL     1      -8.892   4.219   6.990  1.00  0.00     0.000 C 
BRANCH   9  10
ATOM     10  C   UNL     1      -8.046   2.984   7.344  1.00  0.00     0.006 C 
BRANCH  10  11
ATOM     11  C   UNL     1      -6.733   2.913   6.552  1.00  0.00     0.053 C 
BRANCH  11  12
ATOM     12  C   UNL     1      -7.012   2.683   5.100  1.00  0.00     0.041 C 
ATOM     13  O   UNL     1      -6.908   3.631   4.278  1.00  0.00    -0.550 OA
ATOM     14  O   UNL     1      -7.341   1.412   4.648  1.00  0.00    -0.550 OA
ENDBRANCH  11  12
ENDBRANCH  10  11
ENDBRANCH   9  10
ENDBRANCH   8   9
ENDBRANCH   1   8
TORSDOF 9
ENDMDL
