MODEL 1
REMARK VINA RESULT:    -6.363      0.000      0.000
REMARK INTER + INTRA:          -7.998
REMARK INTER:                  -8.595
REMARK INTRA:                   0.597
REMARK UNBOUND:                 0.597
REMARK SMILES O=c1c(-c2ccc(O)cc2)coc2c([C@@H]3O[C@H](CO)[C@H](O)[C@@H](O)[C@@H]3O)c(O)ccc12
REMARK SMILES IDX 3 1 11 2 12 3 13 4 30 5 2 6 1 7 29 8 28 9 26 10 14 11 4 12
REMARK SMILES IDX 5 13 6 14 7 15 10 16 9 17 8 18 15 20 24 21 16 22 22 23 17 24
REMARK SMILES IDX 20 25 25 26 23 28 18 30 19 31 21 33 27 35
REMARK H PARENT 8 19 25 27 23 29 19 32 21 34 27 36
REMARK Flexibility Score: inf
ROOT
ATOM      1  C   UNL     1     -27.374  -9.934 -26.535  1.00  0.00     0.065 A 
ATOM      2  C   UNL     1     -27.167 -11.301 -26.301  1.00  0.00     0.208 A 
ATOM      3  O   UNL     1     -27.948 -11.976 -25.466  1.00  0.00    -0.463 OA
ATOM      4  C   UNL     1     -28.959 -11.419 -24.805  1.00  0.00     0.147 A 
ATOM      5  C   UNL     1     -29.232 -10.041 -24.972  1.00  0.00     0.066 A 
ATOM      6  C   UNL     1     -28.422  -9.296 -25.848  1.00  0.00     0.200 A 
ATOM      7  O   UNL     1     -28.620  -8.058 -26.000  1.00  0.00    -0.288 OA
ATOM      8  C   UNL     1     -30.286  -9.452 -24.258  1.00  0.00     0.020 A 
ATOM      9  C   UNL     1     -31.051 -10.215 -23.379  1.00  0.00     0.047 A 
ATOM     10  C   UNL     1     -30.789 -11.578 -23.202  1.00  0.00     0.125 A 
ATOM     11  C   UNL     1     -29.753 -12.205 -23.935  1.00  0.00     0.069 A 
ENDROOT
BRANCH   1  12
ATOM     12  C   UNL     1     -26.492  -9.203 -27.480  1.00  0.00    -0.011 A 
ATOM     13  C   UNL     1     -26.075  -9.804 -28.681  1.00  0.00     0.013 A 
ATOM     14  C   UNL     1     -25.237  -9.114 -29.563  1.00  0.00     0.047 A 
ATOM     15  C   UNL     1     -24.802  -7.819 -29.254  1.00  0.00     0.115 A 
ATOM     16  C   UNL     1     -26.045  -7.906 -27.173  1.00  0.00     0.013 A 
ATOM     17  C   UNL     1     -25.208  -7.219 -28.058  1.00  0.00     0.047 A 
BRANCH  15  18
ATOM     18  O   UNL     1     -23.969  -7.123 -30.125  1.00  0.00    -0.508 OA
ATOM     19  H   UNL     1     -23.740  -6.148 -29.972  1.00  0.00     0.293 HD
ENDBRANCH  15  18
ENDBRANCH   1  12
BRANCH  11  20
ATOM     20  C   UNL     1     -29.429 -13.681 -23.745  1.00  0.00     0.188 C 
ATOM     21  C   UNL     1     -30.670 -14.552 -24.054  1.00  0.00     0.179 C 
ATOM     22  O   UNL     1     -28.329 -14.056 -24.562  1.00  0.00    -0.362 OA
ATOM     23  C   UNL     1     -30.321 -16.048 -23.881  1.00  0.00     0.177 C 
ATOM     24  C   UNL     1     -27.915 -15.381 -24.267  1.00  0.00     0.176 C 
ATOM     25  C   UNL     1     -29.023 -16.393 -24.638  1.00  0.00     0.177 C 
BRANCH  21  26
ATOM     26  O   UNL     1     -31.112 -14.312 -25.366  1.00  0.00    -0.387 OA
ATOM     27  H   UNL     1     -31.595 -13.444 -25.353  1.00  0.00     0.211 HD
ENDBRANCH  21  26
BRANCH  23  28
ATOM     28  O   UNL     1     -30.156 -16.349 -22.517  1.00  0.00    -0.387 OA
ATOM     29  H   UNL     1     -29.523 -15.677 -22.149  1.00  0.00     0.211 HD
ENDBRANCH  23  28
BRANCH  24  30
ATOM     30  C   UNL     1     -26.618 -15.677 -25.029  1.00  0.00     0.191 C 
BRANCH  30  31
ATOM     31  O   UNL     1     -26.769 -15.312 -26.373  1.00  0.00    -0.394 OA
ATOM     32  H   UNL     1     -27.697 -14.971 -26.462  1.00  0.00     0.210 HD
ENDBRANCH  30  31
ENDBRANCH  24  30
BRANCH  25  33
ATOM     33  O   UNL     1     -29.252 -16.365 -26.024  1.00  0.00    -0.388 OA
ATOM     34  H   UNL     1     -28.578 -16.965 -26.439  1.00  0.00     0.211 HD
ENDBRANCH  25  33
ENDBRANCH  11  20
BRANCH  10  35
ATOM     35  O   UNL     1     -31.556 -12.305 -22.291  1.00  0.00    -0.507 OA
ATOM     36  H   UNL     1     -32.491 -12.625 -22.516  1.00  0.00     0.293 HD
ENDBRANCH  10  35
TORSDOF 9
ENDMDL
MODEL 2
REMARK VINA RESULT:    -6.141      1.960      4.185
REMARK INTER + INTRA:          -7.698
REMARK INTER:                  -7.913
REMARK INTRA:                   0.215
REMARK UNBOUND:                 0.597
REMARK SMILES O=c1c(-c2ccc(O)cc2)coc2c([C@@H]3O[C@H](CO)[C@H](O)[C@@H](O)[C@@H]3O)c(O)ccc12
REMARK SMILES IDX 3 1 11 2 12 3 13 4 30 5 2 6 1 7 29 8 28 9 26 10 14 11 4 12
REMARK SMILES IDX 5 13 6 14 7 15 10 16 9 17 8 18 15 20 24 21 16 22 22 23 17 24
REMARK SMILES IDX 20 25 25 26 23 28 18 30 19 31 21 33 27 35
REMARK H PARENT 8 19 25 27 23 29 19 32 21 34 27 36
REMARK Flexibility Score: inf
ROOT
ATOM      1  C   UNL     1     -26.832 -10.259 -27.816  1.00  0.00     0.065 A 
ATOM      2  C   UNL     1     -27.540 -10.052 -26.624  1.00  0.00     0.208 A 
ATOM      3  O   UNL     1     -28.315 -11.002 -26.117  1.00  0.00    -0.463 OA
ATOM      4  C   UNL     1     -28.475 -12.193 -26.689  1.00  0.00     0.147 A 
ATOM      5  C   UNL     1     -27.806 -12.484 -27.901  1.00  0.00     0.066 A 
ATOM      6  C   UNL     1     -26.979 -11.498 -28.467  1.00  0.00     0.200 A 
ATOM      7  O   UNL     1     -26.388 -11.713 -29.562  1.00  0.00    -0.288 OA
ATOM      8  C   UNL     1     -27.993 -13.732 -28.513  1.00  0.00     0.020 A 
ATOM      9  C   UNL     1     -28.841 -14.676 -27.939  1.00  0.00     0.047 A 
ATOM     10  C   UNL     1     -29.511 -14.400 -26.741  1.00  0.00     0.125 A 
ATOM     11  C   UNL     1     -29.315 -13.160 -26.086  1.00  0.00     0.069 A 
ENDROOT
BRANCH   1  12
ATOM     12  C   UNL     1     -25.963  -9.183 -28.358  1.00  0.00    -0.011 A 
ATOM     13  C   UNL     1     -25.012  -9.465 -29.355  1.00  0.00     0.013 A 
ATOM     14  C   UNL     1     -24.191  -8.449 -29.855  1.00  0.00     0.047 A 
ATOM     15  C   UNL     1     -24.307  -7.143 -29.364  1.00  0.00     0.115 A 
ATOM     16  C   UNL     1     -26.069  -7.871 -27.865  1.00  0.00     0.013 A 
ATOM     17  C   UNL     1     -25.247  -6.858 -28.369  1.00  0.00     0.047 A 
BRANCH  15  18
ATOM     18  O   UNL     1     -23.496  -6.124 -29.856  1.00  0.00    -0.508 OA
ATOM     19  H   UNL     1     -23.127  -6.149 -30.799  1.00  0.00     0.293 HD
ENDBRANCH  15  18
ENDBRANCH   1  12
BRANCH  11  20
ATOM     20  C   UNL     1     -30.049 -12.822 -24.795  1.00  0.00     0.188 C 
ATOM     21  C   UNL     1     -29.210 -13.249 -23.567  1.00  0.00     0.179 C 
ATOM     22  O   UNL     1     -30.352 -11.435 -24.745  1.00  0.00    -0.362 OA
ATOM     23  C   UNL     1     -29.955 -12.879 -22.265  1.00  0.00     0.177 C 
ATOM     24  C   UNL     1     -31.180 -11.142 -23.631  1.00  0.00     0.176 C 
ATOM     25  C   UNL     1     -30.428 -11.412 -22.308  1.00  0.00     0.177 C 
BRANCH  21  26
ATOM     26  O   UNL     1     -27.956 -12.617 -23.597  1.00  0.00    -0.387 OA
ATOM     27  H   UNL     1     -27.733 -12.373 -22.661  1.00  0.00     0.211 HD
ENDBRANCH  21  26
BRANCH  23  28
ATOM     28  O   UNL     1     -31.070 -13.719 -22.092  1.00  0.00    -0.387 OA
ATOM     29  H   UNL     1     -31.391 -13.581 -21.162  1.00  0.00     0.211 HD
ENDBRANCH  23  28
BRANCH  24  30
ATOM     30  C   UNL     1     -31.635  -9.681 -23.720  1.00  0.00     0.191 C 
BRANCH  30  31
ATOM     31  O   UNL     1     -31.952  -9.208 -22.441  1.00  0.00    -0.394 OA
ATOM     32  H   UNL     1     -31.136  -9.338 -21.890  1.00  0.00     0.210 HD
ENDBRANCH  30  31
ENDBRANCH  24  30
BRANCH  25  33
ATOM     33  O   UNL     1     -29.324 -10.547 -22.201  1.00  0.00    -0.388 OA
ATOM     34  H   UNL     1     -28.650 -10.858 -22.860  1.00  0.00     0.211 HD
ENDBRANCH  25  33
ENDBRANCH  11  20
BRANCH  10  35
ATOM     35  O   UNL     1     -30.376 -15.356 -26.210  1.00  0.00    -0.507 OA
ATOM     36  H   UNL     1     -31.239 -15.613 -26.675  1.00  0.00     0.293 HD
ENDBRANCH  10  35
TORSDOF 9
ENDMDL
MODEL 3
REMARK VINA RESULT:    -6.056      3.241      6.466
REMARK INTER + INTRA:          -7.583
REMARK INTER:                  -7.718
REMARK INTRA:                   0.135
REMARK UNBOUND:                 0.597
REMARK SMILES O=c1c(-c2ccc(O)cc2)coc2c([C@@H]3O[C@H](CO)[C@H](O)[C@@H](O)[C@@H]3O)c(O)ccc12
REMARK SMILES IDX 3 1 11 2 12 3 13 4 30 5 2 6 1 7 29 8 28 9 26 10 14 11 4 12
REMARK SMILES IDX 5 13 6 14 7 15 10 16 9 17 8 18 15 20 24 21 16 22 22 23 17 24
REMARK SMILES IDX 20 25 25 26 23 28 18 30 19 31 21 33 27 35
REMARK H PARENT 8 19 25 27 23 29 19 32 21 34 27 36
REMARK Flexibility Score: inf
ROOT
ATOM      1  C   UNL     1     -27.375 -15.289 -26.446  1.00  0.00     0.065 A 
ATOM      2  C   UNL     1     -27.403 -13.906 -26.220  1.00  0.00     0.208 A 
ATOM      3  O   UNL     1     -28.267 -13.372 -25.365  1.00  0.00    -0.463 OA
ATOM      4  C   UNL     1     -29.149 -14.092 -24.676  1.00  0.00     0.147 A 
ATOM      5  C   UNL     1     -29.198 -15.494 -24.852  1.00  0.00     0.066 A 
ATOM      6  C   UNL     1     -28.299 -16.093 -25.752  1.00  0.00     0.200 A 
ATOM      7  O   UNL     1     -28.334 -17.339 -25.954  1.00  0.00    -0.288 OA
ATOM      8  C   UNL     1     -30.144 -16.249 -24.141  1.00  0.00     0.020 A 
ATOM      9  C   UNL     1     -31.037 -15.620 -23.277  1.00  0.00     0.047 A 
ATOM     10  C   UNL     1     -31.001 -14.233 -23.097  1.00  0.00     0.125 A 
ATOM     11  C   UNL     1     -30.036 -13.451 -23.777  1.00  0.00     0.069 A 
ENDROOT
BRANCH   1  12
ATOM     12  C   UNL     1     -26.394 -15.864 -27.401  1.00  0.00    -0.011 A 
ATOM     13  C   UNL     1     -25.292 -16.604 -26.937  1.00  0.00     0.013 A 
ATOM     14  C   UNL     1     -24.367 -17.135 -27.840  1.00  0.00     0.047 A 
ATOM     15  C   UNL     1     -24.527 -16.930 -29.216  1.00  0.00     0.115 A 
ATOM     16  C   UNL     1     -26.544 -15.655 -28.783  1.00  0.00     0.013 A 
ATOM     17  C   UNL     1     -25.617 -16.189 -29.684  1.00  0.00     0.047 A 
BRANCH  15  18
ATOM     18  O   UNL     1     -23.612 -17.454 -30.125  1.00  0.00    -0.508 OA
ATOM     19  H   UNL     1     -22.615 -17.309 -30.017  1.00  0.00     0.293 HD
ENDBRANCH  15  18
ENDBRANCH   1  12
BRANCH  11  20
ATOM     20  C   UNL     1     -29.988 -11.937 -23.620  1.00  0.00     0.188 C 
ATOM     21  C   UNL     1     -29.751 -11.257 -24.989  1.00  0.00     0.179 C 
ATOM     22  O   UNL     1     -31.183 -11.463 -23.017  1.00  0.00    -0.362 OA
ATOM     23  C   UNL     1     -29.727  -9.722 -24.819  1.00  0.00     0.177 C 
ATOM     24  C   UNL     1     -31.077 -10.081 -22.713  1.00  0.00     0.176 C 
ATOM     25  C   UNL     1     -30.951  -9.247 -24.008  1.00  0.00     0.177 C 
BRANCH  21  26
ATOM     26  O   UNL     1     -30.764 -11.624 -25.891  1.00  0.00    -0.387 OA
ATOM     27  H   UNL     1     -30.419 -12.393 -26.416  1.00  0.00     0.211 HD
ENDBRANCH  21  26
BRANCH  23  28
ATOM     28  O   UNL     1     -28.552  -9.328 -24.155  1.00  0.00    -0.387 OA
ATOM     29  H   UNL     1     -28.788  -9.215 -23.197  1.00  0.00     0.211 HD
ENDBRANCH  23  28
BRANCH  24  30
ATOM     30  C   UNL     1     -32.305  -9.656 -21.900  1.00  0.00     0.191 C 
BRANCH  30  31
ATOM     31  O   UNL     1     -31.988  -9.653 -20.536  1.00  0.00    -0.394 OA
ATOM     32  H   UNL     1     -31.382  -8.879 -20.397  1.00  0.00     0.210 HD
ENDBRANCH  30  31
ENDBRANCH  24  30
BRANCH  25  33
ATOM     33  O   UNL     1     -32.119  -9.380 -24.779  1.00  0.00    -0.388 OA
ATOM     34  H   UNL     1     -32.356 -10.344 -24.778  1.00  0.00     0.211 HD
ENDBRANCH  25  33
ENDBRANCH  11  20
BRANCH  10  35
ATOM     35  O   UNL     1     -31.930 -13.632 -22.247  1.00  0.00    -0.507 OA
ATOM     36  H   UNL     1     -32.928 -13.727 -22.395  1.00  0.00     0.293 HD
ENDBRANCH  10  35
TORSDOF 9
ENDMDL
MODEL 4
REMARK VINA RESULT:    -5.789      2.582      6.756
REMARK INTER + INTRA:          -7.223
REMARK INTER:                  -7.186
REMARK INTRA:                  -0.036
REMARK UNBOUND:                 0.597
REMARK SMILES O=c1c(-c2ccc(O)cc2)coc2c([C@@H]3O[C@H](CO)[C@H](O)[C@@H](O)[C@@H]3O)c(O)ccc12
REMARK SMILES IDX 3 1 11 2 12 3 13 4 30 5 2 6 1 7 29 8 28 9 26 10 14 11 4 12
REMARK SMILES IDX 5 13 6 14 7 15 10 16 9 17 8 18 15 20 24 21 16 22 22 23 17 24
REMARK SMILES IDX 20 25 25 26 23 28 18 30 19 31 21 33 27 35
REMARK H PARENT 8 19 25 27 23 29 19 32 21 34 27 36
REMARK Flexibility Score: inf
ROOT
ATOM      1  C   UNL     1     -30.420 -12.343 -23.765  1.00  0.00     0.065 A 
ATOM      2  C   UNL     1     -29.788 -11.985 -24.964  1.00  0.00     0.208 A 
ATOM      3  O   UNL     1     -29.150 -12.890 -25.695  1.00  0.00    -0.463 OA
ATOM      4  C   UNL     1     -29.063 -14.173 -25.353  1.00  0.00     0.147 A 
ATOM      5  C   UNL     1     -29.662 -14.619 -24.152  1.00  0.00     0.066 A 
ATOM      6  C   UNL     1     -30.345 -13.686 -23.352  1.00  0.00     0.200 A 
ATOM      7  O   UNL     1     -30.867 -14.045 -22.260  1.00  0.00    -0.288 OA
ATOM      8  C   UNL     1     -29.552 -15.968 -23.783  1.00  0.00     0.020 A 
ATOM      9  C   UNL     1     -28.846 -16.860 -24.586  1.00  0.00     0.047 A 
ATOM     10  C   UNL     1     -28.246 -16.431 -25.775  1.00  0.00     0.125 A 
ATOM     11  C   UNL     1     -28.370 -15.082 -26.188  1.00  0.00     0.069 A 
ENDROOT
BRANCH   1  12
ATOM     12  C   UNL     1     -31.135 -11.313 -22.968  1.00  0.00    -0.011 A 
ATOM     13  C   UNL     1     -32.256 -10.650 -23.498  1.00  0.00     0.013 A 
ATOM     14  C   UNL     1     -32.920  -9.675 -22.747  1.00  0.00     0.047 A 
ATOM     15  C   UNL     1     -32.470  -9.348 -21.461  1.00  0.00     0.115 A 
ATOM     16  C   UNL     1     -30.685 -10.975 -21.681  1.00  0.00     0.013 A 
ATOM     17  C   UNL     1     -31.352 -10.000 -20.932  1.00  0.00     0.047 A 
BRANCH  15  18
ATOM     18  O   UNL     1     -33.124  -8.380 -20.704  1.00  0.00    -0.508 OA
ATOM     19  H   UNL     1     -33.993  -7.962 -21.015  1.00  0.00     0.293 HD
ENDBRANCH  15  18
ENDBRANCH   1  12
BRANCH  11  20
ATOM     20  C   UNL     1     -27.708 -14.579 -27.465  1.00  0.00     0.188 C 
ATOM     21  C   UNL     1     -28.374 -15.217 -28.707  1.00  0.00     0.179 C 
ATOM     22  O   UNL     1     -27.765 -13.162 -27.528  1.00  0.00    -0.362 OA
ATOM     23  C   UNL     1     -27.709 -14.681 -29.995  1.00  0.00     0.177 C 
ATOM     24  C   UNL     1     -27.005 -12.678 -28.624  1.00  0.00     0.176 C 
ATOM     25  C   UNL     1     -27.625 -13.141 -29.963  1.00  0.00     0.177 C 
BRANCH  21  26
ATOM     26  O   UNL     1     -29.748 -14.924 -28.720  1.00  0.00    -0.387 OA
ATOM     27  H   UNL     1     -29.992 -14.647 -27.798  1.00  0.00     0.211 HD
ENDBRANCH  21  26
BRANCH  23  28
ATOM     28  O   UNL     1     -26.413 -15.211 -30.125  1.00  0.00    -0.387 OA
ATOM     29  H   UNL     1     -25.986 -15.148 -29.230  1.00  0.00     0.211 HD
ENDBRANCH  23  28
BRANCH  24  30
ATOM     30  C   UNL     1     -26.939 -11.149 -28.546  1.00  0.00     0.191 C 
BRANCH  30  31
ATOM     31  O   UNL     1     -27.988 -10.672 -27.750  1.00  0.00    -0.394 OA
ATOM     32  H   UNL     1     -28.097  -9.713 -27.984  1.00  0.00     0.210 HD
ENDBRANCH  30  31
ENDBRANCH  24  30
BRANCH  25  33
ATOM     33  O   UNL     1     -28.908 -12.587 -30.113  1.00  0.00    -0.388 OA
ATOM     34  H   UNL     1     -29.551 -13.247 -29.745  1.00  0.00     0.211 HD
ENDBRANCH  25  33
ENDBRANCH  11  20
BRANCH  10  35
ATOM     35  O   UNL     1     -27.521 -17.345 -26.541  1.00  0.00    -0.507 OA
ATOM     36  H   UNL     1     -27.613 -18.345 -26.406  1.00  0.00     0.293 HD
ENDBRANCH  10  35
TORSDOF 9
ENDMDL
MODEL 5
REMARK VINA RESULT:    -5.758     12.785     17.152
REMARK INTER + INTRA:          -7.180
REMARK INTER:                  -6.598
REMARK INTRA:                  -0.582
REMARK UNBOUND:                 0.597
REMARK SMILES O=c1c(-c2ccc(O)cc2)coc2c([C@@H]3O[C@H](CO)[C@H](O)[C@@H](O)[C@@H]3O)c(O)ccc12
REMARK SMILES IDX 3 1 11 2 12 3 13 4 30 5 2 6 1 7 29 8 28 9 26 10 14 11 4 12
REMARK SMILES IDX 5 13 6 14 7 15 10 16 9 17 8 18 15 20 24 21 16 22 22 23 17 24
REMARK SMILES IDX 20 25 25 26 23 28 18 30 19 31 21 33 27 35
REMARK H PARENT 8 19 25 27 23 29 19 32 21 34 27 36
REMARK Flexibility Score: inf
ROOT
ATOM      1  C   UNL     1     -25.943 -23.640 -17.093  1.00  0.00     0.065 A 
ATOM      2  C   UNL     1     -26.049 -23.280 -15.742  1.00  0.00     0.208 A 
ATOM      3  O   UNL     1     -25.049 -23.500 -14.898  1.00  0.00    -0.463 OA
ATOM      4  C   UNL     1     -23.900 -24.065 -15.260  1.00  0.00     0.147 A 
ATOM      5  C   UNL     1     -23.712 -24.470 -16.603  1.00  0.00     0.066 A 
ATOM      6  C   UNL     1     -24.753 -24.254 -17.524  1.00  0.00     0.200 A 
ATOM      7  O   UNL     1     -24.629 -24.628 -18.723  1.00  0.00    -0.288 OA
ATOM      8  C   UNL     1     -22.508 -25.084 -16.979  1.00  0.00     0.020 A 
ATOM      9  C   UNL     1     -21.509 -25.306 -16.034  1.00  0.00     0.047 A 
ATOM     10  C   UNL     1     -21.684 -24.913 -14.702  1.00  0.00     0.125 A 
ATOM     11  C   UNL     1     -22.876 -24.262 -14.303  1.00  0.00     0.069 A 
ENDROOT
BRANCH   1  12
ATOM     12  C   UNL     1     -27.072 -23.376 -18.021  1.00  0.00    -0.011 A 
ATOM     13  C   UNL     1     -28.209 -24.204 -18.019  1.00  0.00     0.013 A 
ATOM     14  C   UNL     1     -29.265 -23.956 -18.900  1.00  0.00     0.047 A 
ATOM     15  C   UNL     1     -29.198 -22.883 -19.797  1.00  0.00     0.115 A 
ATOM     16  C   UNL     1     -27.009 -22.305 -18.928  1.00  0.00     0.013 A 
ATOM     17  C   UNL     1     -28.067 -22.059 -19.808  1.00  0.00     0.047 A 
BRANCH  15  18
ATOM     18  O   UNL     1     -30.244 -22.626 -20.679  1.00  0.00    -0.508 OA
ATOM     19  H   UNL     1     -31.153 -22.325 -20.348  1.00  0.00     0.293 HD
ENDBRANCH  15  18
ENDBRANCH   1  12
BRANCH  11  20
ATOM     20  C   UNL     1     -23.105 -23.844 -12.856  1.00  0.00     0.188 C 
ATOM     21  C   UNL     1     -22.591 -22.404 -12.620  1.00  0.00     0.179 C 
ATOM     22  O   UNL     1     -24.480 -23.955 -12.520  1.00  0.00    -0.362 OA
ATOM     23  C   UNL     1     -22.851 -21.985 -11.156  1.00  0.00     0.177 C 
ATOM     24  C   UNL     1     -24.677 -23.731 -11.133  1.00  0.00     0.176 C 
ATOM     25  C   UNL     1     -24.312 -22.276 -10.759  1.00  0.00     0.177 C 
BRANCH  21  26
ATOM     26  O   UNL     1     -23.236 -21.513 -13.495  1.00  0.00    -0.387 OA
ATOM     27  H   UNL     1     -23.957 -22.025 -13.948  1.00  0.00     0.211 HD
ENDBRANCH  21  26
BRANCH  23  28
ATOM     28  O   UNL     1     -21.989 -22.686 -10.294  1.00  0.00    -0.387 OA
ATOM     29  H   UNL     1     -22.040 -23.643 -10.553  1.00  0.00     0.211 HD
ENDBRANCH  23  28
BRANCH  24  30
ATOM     30  C   UNL     1     -26.136 -24.043 -10.781  1.00  0.00     0.191 C 
BRANCH  30  31
ATOM     31  O   UNL     1     -26.964 -23.690 -11.854  1.00  0.00    -0.394 OA
ATOM     32  H   UNL     1     -27.000 -22.698 -11.858  1.00  0.00     0.210 HD
ENDBRANCH  30  31
ENDBRANCH  24  30
BRANCH  25  33
ATOM     33  O   UNL     1     -25.177 -21.383 -11.415  1.00  0.00    -0.388 OA
ATOM     34  H   UNL     1     -24.644 -20.573 -11.630  1.00  0.00     0.211 HD
ENDBRANCH  25  33
ENDBRANCH  11  20
BRANCH  10  35
ATOM     35  O   UNL     1     -20.674 -25.178 -13.776  1.00  0.00    -0.507 OA
ATOM     36  H   UNL     1     -20.511 -24.576 -12.978  1.00  0.00     0.293 HD
ENDBRANCH  10  35
TORSDOF 9
ENDMDL
MODEL 6
REMARK VINA RESULT:    -5.628      2.310      2.660
REMARK INTER + INTRA:          -7.005
REMARK INTER:                  -6.664
REMARK INTRA:                  -0.341
REMARK UNBOUND:                 0.597
REMARK SMILES O=c1c(-c2ccc(O)cc2)coc2c([C@@H]3O[C@H](CO)[C@H](O)[C@@H](O)[C@@H]3O)c(O)ccc12
REMARK SMILES IDX 3 1 11 2 12 3 13 4 30 5 2 6 1 7 29 8 28 9 26 10 14 11 4 12
REMARK SMILES IDX 5 13 6 14 7 15 10 16 9 17 8 18 15 20 24 21 16 22 22 23 17 24
REMARK SMILES IDX 20 25 25 26 23 28 18 30 19 31 21 33 27 35
REMARK H PARENT 8 19 25 27 23 29 19 32 21 34 27 36
REMARK Flexibility Score: inf
ROOT
ATOM      1  C   UNL     1     -27.581 -10.092 -28.119  1.00  0.00     0.065 A 
ATOM      2  C   UNL     1     -27.227 -11.229 -27.380  1.00  0.00     0.208 A 
ATOM      3  O   UNL     1     -28.141 -12.120 -27.018  1.00  0.00    -0.463 OA
ATOM      4  C   UNL     1     -29.432 -12.002 -27.319  1.00  0.00     0.147 A 
ATOM      5  C   UNL     1     -29.880 -10.878 -28.052  1.00  0.00     0.066 A 
ATOM      6  C   UNL     1     -28.937  -9.914 -28.451  1.00  0.00     0.200 A 
ATOM      7  O   UNL     1     -29.306  -8.885 -29.082  1.00  0.00    -0.288 OA
ATOM      8  C   UNL     1     -31.244 -10.745 -28.351  1.00  0.00     0.020 A 
ATOM      9  C   UNL     1     -32.154 -11.706 -27.918  1.00  0.00     0.047 A 
ATOM     10  C   UNL     1     -31.724 -12.821 -27.189  1.00  0.00     0.125 A 
ATOM     11  C   UNL     1     -30.349 -12.996 -26.902  1.00  0.00     0.069 A 
ENDROOT
BRANCH   1  12
ATOM     12  C   UNL     1     -26.538  -9.114 -28.520  1.00  0.00    -0.011 A 
ATOM     13  C   UNL     1     -25.877  -9.239 -29.755  1.00  0.00     0.013 A 
ATOM     14  C   UNL     1     -24.889  -8.321 -30.124  1.00  0.00     0.047 A 
ATOM     15  C   UNL     1     -24.546  -7.271 -29.263  1.00  0.00     0.115 A 
ATOM     16  C   UNL     1     -26.183  -8.062 -27.659  1.00  0.00     0.013 A 
ATOM     17  C   UNL     1     -25.195  -7.145 -28.031  1.00  0.00     0.047 A 
BRANCH  15  18
ATOM     18  O   UNL     1     -23.565  -6.350 -29.620  1.00  0.00    -0.508 OA
ATOM     19  H   UNL     1     -23.669  -5.753 -30.432  1.00  0.00     0.293 HD
ENDBRANCH  15  18
ENDBRANCH   1  12
BRANCH  11  20
ATOM     20  C   UNL     1     -29.854 -14.186 -26.091  1.00  0.00     0.188 C 
ATOM     21  C   UNL     1     -29.632 -15.413 -27.007  1.00  0.00     0.179 C 
ATOM     22  O   UNL     1     -28.664 -13.851 -25.394  1.00  0.00    -0.362 OA
ATOM     23  C   UNL     1     -29.108 -16.605 -26.176  1.00  0.00     0.177 C 
ATOM     24  C   UNL     1     -28.291 -14.893 -24.507  1.00  0.00     0.176 C 
ATOM     25  C   UNL     1     -27.920 -16.171 -25.294  1.00  0.00     0.177 C 
BRANCH  21  26
ATOM     26  O   UNL     1     -28.713 -15.095 -28.022  1.00  0.00    -0.387 OA
ATOM     27  H   UNL     1     -28.727 -14.107 -28.125  1.00  0.00     0.211 HD
ENDBRANCH  21  26
BRANCH  23  28
ATOM     28  O   UNL     1     -30.133 -17.108 -25.355  1.00  0.00    -0.387 OA
ATOM     29  H   UNL     1     -29.812 -17.037 -24.418  1.00  0.00     0.211 HD
ENDBRANCH  23  28
BRANCH  24  30
ATOM     30  C   UNL     1     -27.117 -14.416 -23.644  1.00  0.00     0.191 C 
BRANCH  30  31
ATOM     31  O   UNL     1     -26.961 -13.032 -23.786  1.00  0.00    -0.394 OA
ATOM     32  H   UNL     1     -26.552 -12.713 -22.939  1.00  0.00     0.210 HD
ENDBRANCH  30  31
ENDBRANCH  24  30
BRANCH  25  33
ATOM     33  O   UNL     1     -26.790 -15.929 -26.094  1.00  0.00    -0.388 OA
ATOM     34  H   UNL     1     -26.985 -16.310 -26.990  1.00  0.00     0.211 HD
ENDBRANCH  25  33
ENDBRANCH  11  20
BRANCH  10  35
ATOM     35  O   UNL     1     -32.667 -13.749 -26.746  1.00  0.00    -0.507 OA
ATOM     36  H   UNL     1     -32.719 -14.035 -25.775  1.00  0.00     0.293 HD
ENDBRANCH  10  35
TORSDOF 9
ENDMDL
MODEL 7
REMARK VINA RESULT:    -5.624      3.273      6.203
REMARK INTER + INTRA:          -6.999
REMARK INTER:                  -6.770
REMARK INTRA:                  -0.229
REMARK UNBOUND:                 0.597
REMARK SMILES O=c1c(-c2ccc(O)cc2)coc2c([C@@H]3O[C@H](CO)[C@H](O)[C@@H](O)[C@@H]3O)c(O)ccc12
REMARK SMILES IDX 3 1 11 2 12 3 13 4 30 5 2 6 1 7 29 8 28 9 26 10 14 11 4 12
REMARK SMILES IDX 5 13 6 14 7 15 10 16 9 17 8 18 15 20 24 21 16 22 22 23 17 24
REMARK SMILES IDX 20 25 25 26 23 28 18 30 19 31 21 33 27 35
REMARK H PARENT 8 19 25 27 23 29 19 32 21 34 27 36
REMARK Flexibility Score: inf
ROOT
ATOM      1  C   UNL     1     -27.723 -15.118 -26.650  1.00  0.00     0.065 A 
ATOM      2  C   UNL     1     -28.119 -13.781 -26.794  1.00  0.00     0.208 A 
ATOM      3  O   UNL     1     -29.036 -13.251 -25.994  1.00  0.00    -0.463 OA
ATOM      4  C   UNL     1     -29.634 -13.933 -25.020  1.00  0.00     0.147 A 
ATOM      5  C   UNL     1     -29.304 -15.293 -24.812  1.00  0.00     0.066 A 
ATOM      6  C   UNL     1     -28.338 -15.886 -25.644  1.00  0.00     0.200 A 
ATOM      7  O   UNL     1     -28.039 -17.105 -25.504  1.00  0.00    -0.288 OA
ATOM      8  C   UNL     1     -29.951 -16.016 -23.799  1.00  0.00     0.020 A 
ATOM      9  C   UNL     1     -30.923 -15.403 -23.011  1.00  0.00     0.047 A 
ATOM     10  C   UNL     1     -31.261 -14.060 -23.209  1.00  0.00     0.125 A 
ATOM     11  C   UNL     1     -30.600 -13.298 -24.203  1.00  0.00     0.069 A 
ENDROOT
BRANCH   1  12
ATOM     12  C   UNL     1     -26.689 -15.686 -27.552  1.00  0.00    -0.011 A 
ATOM     13  C   UNL     1     -25.620 -16.437 -27.032  1.00  0.00     0.013 A 
ATOM     14  C   UNL     1     -24.644 -16.961 -27.886  1.00  0.00     0.047 A 
ATOM     15  C   UNL     1     -24.721 -16.738 -29.266  1.00  0.00     0.115 A 
ATOM     16  C   UNL     1     -26.755 -15.459 -28.937  1.00  0.00     0.013 A 
ATOM     17  C   UNL     1     -25.778 -15.986 -29.788  1.00  0.00     0.047 A 
BRANCH  15  18
ATOM     18  O   UNL     1     -23.755 -17.255 -30.125  1.00  0.00    -0.508 OA
ATOM     19  H   UNL     1     -22.784 -17.330 -29.846  1.00  0.00     0.293 HD
ENDBRANCH  15  18
ENDBRANCH   1  12
BRANCH  11  20
ATOM     20  C   UNL     1     -30.964 -11.841 -24.458  1.00  0.00     0.188 C 
ATOM     21  C   UNL     1     -30.088 -10.905 -23.591  1.00  0.00     0.179 C 
ATOM     22  O   UNL     1     -30.829 -11.530 -25.837  1.00  0.00    -0.362 OA
ATOM     23  C   UNL     1     -30.451  -9.430 -23.876  1.00  0.00     0.177 C 
ATOM     24  C   UNL     1     -31.326 -10.230 -26.108  1.00  0.00     0.176 C 
ATOM     25  C   UNL     1     -30.468  -9.159 -25.395  1.00  0.00     0.177 C 
BRANCH  21  26
ATOM     26  O   UNL     1     -28.728 -11.126 -23.867  1.00  0.00    -0.387 OA
ATOM     27  H   UNL     1     -28.686 -11.842 -24.554  1.00  0.00     0.211 HD
ENDBRANCH  21  26
BRANCH  23  28
ATOM     28  O   UNL     1     -31.716  -9.133 -23.339  1.00  0.00    -0.387 OA
ATOM     29  H   UNL     1     -32.339  -9.833 -23.667  1.00  0.00     0.211 HD
ENDBRANCH  23  28
BRANCH  24  30
ATOM     30  C   UNL     1     -31.336 -10.008 -27.625  1.00  0.00     0.191 C 
BRANCH  30  31
ATOM     31  O   UNL     1     -30.134 -10.469 -28.175  1.00  0.00    -0.394 OA
ATOM     32  H   UNL     1     -29.452 -10.383 -27.458  1.00  0.00     0.210 HD
ENDBRANCH  30  31
ENDBRANCH  24  30
BRANCH  25  33
ATOM     33  O   UNL     1     -29.157  -9.181 -25.902  1.00  0.00    -0.388 OA
ATOM     34  H   UNL     1     -28.808  -8.254 -25.835  1.00  0.00     0.211 HD
ENDBRANCH  25  33
ENDBRANCH  11  20
BRANCH  10  35
ATOM     35  O   UNL     1     -32.260 -13.487 -22.421  1.00  0.00    -0.507 OA
ATOM     36  H   UNL     1     -32.110 -13.271 -21.443  1.00  0.00     0.293 HD
ENDBRANCH  10  35
TORSDOF 9
ENDMDL
MODEL 8
REMARK VINA RESULT:    -5.565      3.489      7.024
REMARK INTER + INTRA:          -6.919
REMARK INTER:                  -6.386
REMARK INTRA:                  -0.533
REMARK UNBOUND:                 0.597
REMARK SMILES O=c1c(-c2ccc(O)cc2)coc2c([C@@H]3O[C@H](CO)[C@H](O)[C@@H](O)[C@@H]3O)c(O)ccc12
REMARK SMILES IDX 3 1 11 2 12 3 13 4 30 5 2 6 1 7 29 8 28 9 26 10 14 11 4 12
REMARK SMILES IDX 5 13 6 14 7 15 10 16 9 17 8 18 15 20 24 21 16 22 22 23 17 24
REMARK SMILES IDX 20 25 25 26 23 28 18 30 19 31 21 33 27 35
REMARK H PARENT 8 19 25 27 23 29 19 32 21 34 27 36
REMARK Flexibility Score: inf
ROOT
ATOM      1  C   UNL     1     -29.589 -13.204 -25.212  1.00  0.00     0.065 A 
ATOM      2  C   UNL     1     -29.983 -12.261 -26.172  1.00  0.00     0.208 A 
ATOM      3  O   UNL     1     -30.625 -11.155 -25.817  1.00  0.00    -0.463 OA
ATOM      4  C   UNL     1     -30.935 -10.865 -24.556  1.00  0.00     0.147 A 
ATOM      5  C   UNL     1     -30.585 -11.768 -23.524  1.00  0.00     0.066 A 
ATOM      6  C   UNL     1     -29.907 -12.951 -23.865  1.00  0.00     0.200 A 
ATOM      7  O   UNL     1     -29.604 -13.792 -22.973  1.00  0.00    -0.288 OA
ATOM      8  C   UNL     1     -30.932 -11.471 -22.197  1.00  0.00     0.020 A 
ATOM      9  C   UNL     1     -31.628 -10.302 -21.899  1.00  0.00     0.047 A 
ATOM     10  C   UNL     1     -31.982  -9.402 -22.911  1.00  0.00     0.125 A 
ATOM     11  C   UNL     1     -31.616  -9.662 -24.254  1.00  0.00     0.069 A 
ENDROOT
BRANCH   1  12
ATOM     12  C   UNL     1     -28.865 -14.431 -25.633  1.00  0.00    -0.011 A 
ATOM     13  C   UNL     1     -29.518 -15.676 -25.655  1.00  0.00     0.013 A 
ATOM     14  C   UNL     1     -28.829 -16.828 -26.044  1.00  0.00     0.047 A 
ATOM     15  C   UNL     1     -27.479 -16.753 -26.410  1.00  0.00     0.115 A 
ATOM     16  C   UNL     1     -27.509 -14.364 -25.995  1.00  0.00     0.013 A 
ATOM     17  C   UNL     1     -26.822 -15.519 -26.383  1.00  0.00     0.047 A 
BRANCH  15  18
ATOM     18  O   UNL     1     -26.783 -17.894 -26.799  1.00  0.00    -0.508 OA
ATOM     19  H   UNL     1     -26.286 -17.936 -27.681  1.00  0.00     0.293 HD
ENDBRANCH  15  18
ENDBRANCH   1  12
BRANCH  11  20
ATOM     20  C   UNL     1     -32.008  -8.714 -25.379  1.00  0.00     0.188 C 
ATOM     21  C   UNL     1     -30.933  -7.617 -25.564  1.00  0.00     0.179 C 
ATOM     22  O   UNL     1     -32.212  -9.434 -26.586  1.00  0.00    -0.362 OA
ATOM     23  C   UNL     1     -31.331  -6.677 -26.724  1.00  0.00     0.177 C 
ATOM     24  C   UNL     1     -32.740  -8.586 -27.593  1.00  0.00     0.176 C 
ATOM     25  C   UNL     1     -31.717  -7.492 -27.975  1.00  0.00     0.177 C 
BRANCH  21  26
ATOM     26  O   UNL     1     -29.686  -8.207 -25.833  1.00  0.00    -0.387 OA
ATOM     27  H   UNL     1     -29.236  -7.635 -26.509  1.00  0.00     0.211 HD
ENDBRANCH  21  26
BRANCH  23  28
ATOM     28  O   UNL     1     -32.421  -5.875 -26.341  1.00  0.00    -0.387 OA
ATOM     29  H   UNL     1     -32.174  -5.447 -25.479  1.00  0.00     0.211 HD
ENDBRANCH  23  28
BRANCH  24  30
ATOM     30  C   UNL     1     -33.119  -9.437 -28.811  1.00  0.00     0.191 C 
BRANCH  30  31
ATOM     31  O   UNL     1     -32.228 -10.510 -28.931  1.00  0.00    -0.394 OA
ATOM     32  H   UNL     1     -31.664 -10.492 -28.113  1.00  0.00     0.210 HD
ENDBRANCH  30  31
ENDBRANCH  24  30
BRANCH  25  33
ATOM     33  O   UNL     1     -30.572  -8.083 -28.536  1.00  0.00    -0.388 OA
ATOM     34  H   UNL     1     -30.838  -8.989 -28.845  1.00  0.00     0.211 HD
ENDBRANCH  25  33
ENDBRANCH  11  20
BRANCH  10  35
ATOM     35  O   UNL     1     -32.704  -8.256 -22.579  1.00  0.00    -0.507 OA
ATOM     36  H   UNL     1     -33.490  -7.941 -23.135  1.00  0.00     0.293 HD
ENDBRANCH  10  35
TORSDOF 9
ENDMDL
MODEL 9
REMARK VINA RESULT:    -5.449     13.800     17.505
REMARK INTER + INTRA:          -6.763
REMARK INTER:                  -6.146
REMARK INTRA:                  -0.617
REMARK UNBOUND:                 0.597
REMARK SMILES O=c1c(-c2ccc(O)cc2)coc2c([C@@H]3O[C@H](CO)[C@H](O)[C@@H](O)[C@@H]3O)c(O)ccc12
REMARK SMILES IDX 3 1 11 2 12 3 13 4 30 5 2 6 1 7 29 8 28 9 26 10 14 11 4 12
REMARK SMILES IDX 5 13 6 14 7 15 10 16 9 17 8 18 15 20 24 21 16 22 22 23 17 24
REMARK SMILES IDX 20 25 25 26 23 28 18 30 19 31 21 33 27 35
REMARK H PARENT 8 19 25 27 23 29 19 32 21 34 27 36
REMARK Flexibility Score: inf
ROOT
ATOM      1  C   UNL     1     -28.465 -23.219 -12.766  1.00  0.00     0.065 A 
ATOM      2  C   UNL     1     -28.277 -23.649 -14.087  1.00  0.00     0.208 A 
ATOM      3  O   UNL     1     -27.189 -23.309 -14.766  1.00  0.00    -0.463 OA
ATOM      4  C   UNL     1     -26.220 -22.552 -14.258  1.00  0.00     0.147 A 
ATOM      5  C   UNL     1     -26.333 -22.065 -12.934  1.00  0.00     0.066 A 
ATOM      6  C   UNL     1     -27.475 -22.405 -12.187  1.00  0.00     0.200 A 
ATOM      7  O   UNL     1     -27.621 -21.964 -11.012  1.00  0.00    -0.288 OA
ATOM      8  C   UNL     1     -25.320 -21.250 -12.407  1.00  0.00     0.020 A 
ATOM      9  C   UNL     1     -24.215 -20.912 -13.185  1.00  0.00     0.047 A 
ATOM     10  C   UNL     1     -24.093 -21.385 -14.497  1.00  0.00     0.125 A 
ATOM     11  C   UNL     1     -25.085 -22.235 -15.042  1.00  0.00     0.069 A 
ENDROOT
BRANCH   1  12
ATOM     12  C   UNL     1     -29.687 -23.621 -12.023  1.00  0.00    -0.011 A 
ATOM     13  C   UNL     1     -30.803 -22.767 -11.967  1.00  0.00     0.013 A 
ATOM     14  C   UNL     1     -31.948 -23.146 -11.259  1.00  0.00     0.047 A 
ATOM     15  C   UNL     1     -31.990 -24.378 -10.595  1.00  0.00     0.115 A 
ATOM     16  C   UNL     1     -29.734 -24.853 -11.349  1.00  0.00     0.013 A 
ATOM     17  C   UNL     1     -30.881 -25.229 -10.643  1.00  0.00     0.047 A 
BRANCH  15  18
ATOM     18  O   UNL     1     -33.125 -24.767  -9.888  1.00  0.00    -0.508 OA
ATOM     19  H   UNL     1     -34.056 -24.618 -10.258  1.00  0.00     0.293 HD
ENDBRANCH  15  18
ENDBRANCH   1  12
BRANCH  11  20
ATOM     20  C   UNL     1     -24.991 -22.746 -16.474  1.00  0.00     0.188 C 
ATOM     21  C   UNL     1     -24.293 -24.126 -16.513  1.00  0.00     0.179 C 
ATOM     22  O   UNL     1     -26.282 -22.812 -17.062  1.00  0.00    -0.362 OA
ATOM     23  C   UNL     1     -24.225 -24.643 -17.967  1.00  0.00     0.177 C 
ATOM     24  C   UNL     1     -26.188 -23.124 -18.443  1.00  0.00     0.176 C 
ATOM     25  C   UNL     1     -25.608 -24.543 -18.644  1.00  0.00     0.177 C 
BRANCH  21  26
ATOM     26  O   UNL     1     -24.994 -25.042 -15.711  1.00  0.00    -0.387 OA
ATOM     27  H   UNL     1     -24.422 -25.231 -14.921  1.00  0.00     0.211 HD
ENDBRANCH  21  26
BRANCH  23  28
ATOM     28  O   UNL     1     -23.295 -23.888 -18.704  1.00  0.00    -0.387 OA
ATOM     29  H   UNL     1     -22.434 -24.382 -18.671  1.00  0.00     0.211 HD
ENDBRANCH  23  28
BRANCH  24  30
ATOM     30  C   UNL     1     -27.579 -23.001 -19.076  1.00  0.00     0.191 C 
BRANCH  30  31
ATOM     31  O   UNL     1     -28.559 -23.254 -18.109  1.00  0.00    -0.394 OA
ATOM     32  H   UNL     1     -29.360 -22.736 -18.388  1.00  0.00     0.210 HD
ENDBRANCH  30  31
ENDBRANCH  24  30
BRANCH  25  33
ATOM     33  O   UNL     1     -26.482 -25.498 -18.096  1.00  0.00    -0.388 OA
ATOM     34  H   UNL     1     -27.194 -24.996 -17.620  1.00  0.00     0.211 HD
ENDBRANCH  25  33
ENDBRANCH  11  20
BRANCH  10  35
ATOM     35  O   UNL     1     -22.988 -21.002 -15.257  1.00  0.00    -0.507 OA
ATOM     36  H   UNL     1     -23.074 -20.749 -16.235  1.00  0.00     0.293 HD
ENDBRANCH  10  35
TORSDOF 9
ENDMDL
