MODEL 1
REMARK VINA RESULT:    -4.336      0.000      0.000
REMARK INTER + INTRA:          -4.943
REMARK INTER:                  -4.716
REMARK INTRA:                  -0.227
REMARK UNBOUND:                -0.227
REMARK SMILES C[C@H]1[C@H]2C3=CC[C@H]4[C@@]5(C)CC[C@H](O)C(C)(C)[C@H]5CC[C@@]4(C)[C@@]3(C)CC[C@@]2(C(=O)[O-])CC[C@@H]1C
REMARK SMILES IDX 26 1 30 2 25 3 3 4 31 5 24 6 4 7 2 8 32 9 22 10 5 11 1 12
REMARK SMILES IDX 33 13 23 14 20 15 6 16 7 17 19 18 21 19 8 20 18 21 17 22
REMARK SMILES IDX 10 23 9 24 14 25 11 26 12 27 15 28 16 29 27 30 28 31 29 32
REMARK SMILES IDX 13 33
REMARK H PARENT 13 34
REMARK Flexibility Score: inf
ROOT
ATOM      1  C   UNL     1       3.175  -7.678 -20.516  1.00  0.00     0.017 C 
ATOM      2  C   UNL     1       3.712  -9.115 -20.744  1.00  0.00     0.014 C 
ATOM      3  C   UNL     1       1.795  -7.841 -19.825  1.00  0.00     0.014 C 
ATOM      4  C   UNL     1       3.122  -6.833 -21.881  1.00  0.00     0.030 C 
ATOM      5  C   UNL     1       5.037  -9.120 -21.471  1.00  0.00     0.004 C 
ATOM      6  C   UNL     1       0.648  -8.036 -20.812  1.00  0.00     0.013 C 
ATOM      7  C   UNL     1       1.710  -6.366 -22.348  1.00  0.00    -0.063 C 
ATOM      8  C   UNL     1       4.109  -7.321 -23.066  1.00  0.00    -0.003 C 
ATOM      9  C   UNL     1       4.819  -8.709 -22.914  1.00  0.00    -0.011 C 
ATOM     10  C   UNL     1       0.395  -6.768 -21.681  1.00  0.00    -0.006 C 
ATOM     11  C   UNL     1       1.633  -5.346 -23.225  1.00  0.00    -0.027 C 
ATOM     12  C   UNL     1       3.495  -7.276 -24.496  1.00  0.00     0.008 C 
ATOM     13  C   UNL     1       6.189  -8.732 -23.633  1.00  0.00     0.008 C 
ATOM     14  C   UNL     1       0.003  -5.596 -20.717  1.00  0.00     0.017 C 
ATOM     15  C   UNL     1      -0.763  -6.998 -22.784  1.00  0.00    -0.020 C 
ATOM     16  C   UNL     1       0.524  -5.271 -24.231  1.00  0.00     0.032 C 
ATOM     17  C   UNL     1      -0.884  -5.749 -23.754  1.00  0.00     0.006 C 
ATOM     18  C   UNL     1      -0.457  -8.274 -23.640  1.00  0.00     0.008 C 
ATOM     19  C   UNL     1      -2.123  -7.196 -22.030  1.00  0.00     0.012 C 
ATOM     20  C   UNL     1      -1.971  -5.908 -24.951  1.00  0.00    -0.025 C 
ATOM     21  C   UNL     1      -0.847  -8.214 -25.133  1.00  0.00     0.005 C 
ATOM     22  C   UNL     1      -2.159  -7.430 -25.394  1.00  0.00     0.003 C 
ATOM     23  C   UNL     1      -1.566  -5.018 -26.183  1.00  0.00     0.010 C 
ATOM     24  C   UNL     1      -3.329  -5.336 -24.424  1.00  0.00     0.012 C 
ATOM     25  C   UNL     1      -2.818  -7.692 -26.835  1.00  0.00    -0.006 C 
ATOM     26  C   UNL     1      -2.393  -5.235 -27.446  1.00  0.00     0.033 C 
ATOM     27  C   UNL     1      -2.278  -6.693 -27.900  1.00  0.00     0.120 C 
ATOM     28  C   UNL     1      -4.374  -7.620 -26.743  1.00  0.00     0.014 C 
ATOM     29  C   UNL     1      -2.516  -9.125 -27.358  1.00  0.00     0.014 C 
ENDROOT
BRANCH   1  30
ATOM     30  C   UNL     1       4.053  -6.948 -19.491  1.00  0.00     0.048 C 
ATOM     31  O   UNL     1       4.235  -7.403 -18.330  1.00  0.00    -0.550 OA
ATOM     32  O   UNL     1       4.605  -5.707 -19.810  1.00  0.00    -0.550 OA
ENDBRANCH   1  30
BRANCH  27  33
ATOM     33  O   UNL     1      -2.891  -6.871 -29.157  1.00  0.00    -0.393 OA
ATOM     34  H   UNL     1      -3.517  -7.639 -29.097  1.00  0.00     0.210 HD
ENDBRANCH  27  33
TORSDOF 2
ENDMDL
MODEL 2
REMARK VINA RESULT:    -4.034      1.284      1.645
REMARK INTER + INTRA:          -4.615
REMARK INTER:                  -4.404
REMARK INTRA:                  -0.210
REMARK UNBOUND:                -0.227
REMARK SMILES C[C@H]1[C@H]2C3=CC[C@H]4[C@@]5(C)CC[C@H](O)C(C)(C)[C@H]5CC[C@@]4(C)[C@@]3(C)CC[C@@]2(C(=O)[O-])CC[C@@H]1C
REMARK SMILES IDX 26 1 30 2 25 3 3 4 31 5 24 6 4 7 2 8 32 9 22 10 5 11 1 12
REMARK SMILES IDX 33 13 23 14 20 15 6 16 7 17 19 18 21 19 8 20 18 21 17 22
REMARK SMILES IDX 10 23 9 24 14 25 11 26 12 27 15 28 16 29 27 30 28 31 29 32
REMARK SMILES IDX 13 33
REMARK H PARENT 13 34
REMARK Flexibility Score: inf
ROOT
ATOM      1  C   UNL     1       1.098  -7.408 -20.184  1.00  0.00     0.017 C 
ATOM      2  C   UNL     1       1.573  -8.885 -20.185  1.00  0.00     0.014 C 
ATOM      3  C   UNL     1      -0.408  -7.445 -19.811  1.00  0.00     0.014 C 
ATOM      4  C   UNL     1       1.404  -6.678 -21.581  1.00  0.00     0.030 C 
ATOM      5  C   UNL     1       3.022  -9.016 -20.594  1.00  0.00     0.004 C 
ATOM      6  C   UNL     1      -1.320  -7.662 -21.014  1.00  0.00     0.013 C 
ATOM      7  C   UNL     1       0.164  -6.179 -22.385  1.00  0.00    -0.063 C 
ATOM      8  C   UNL     1       2.592  -7.311 -22.477  1.00  0.00    -0.003 C 
ATOM      9  C   UNL     1       3.156  -8.715 -22.074  1.00  0.00    -0.011 C 
ATOM     10  C   UNL     1      -1.289  -6.458 -22.003  1.00  0.00    -0.006 C 
ATOM     11  C   UNL     1       0.351  -5.233 -23.324  1.00  0.00    -0.027 C 
ATOM     12  C   UNL     1       2.312  -7.352 -24.009  1.00  0.00     0.008 C 
ATOM     13  C   UNL     1       4.646  -8.867 -22.464  1.00  0.00     0.008 C 
ATOM     14  C   UNL     1      -1.804  -5.193 -21.236  1.00  0.00     0.017 C 
ATOM     15  C   UNL     1      -2.189  -6.720 -23.319  1.00  0.00    -0.020 C 
ATOM     16  C   UNL     1      -0.501  -5.185 -24.557  1.00  0.00     0.032 C 
ATOM     17  C   UNL     1      -2.008  -5.550 -24.377  1.00  0.00     0.006 C 
ATOM     18  C   UNL     1      -1.789  -8.075 -23.995  1.00  0.00     0.008 C 
ATOM     19  C   UNL     1      -3.692  -6.786 -22.879  1.00  0.00     0.012 C 
ATOM     20  C   UNL     1      -2.814  -5.752 -25.773  1.00  0.00    -0.025 C 
ATOM     21  C   UNL     1      -1.836  -8.119 -25.538  1.00  0.00     0.005 C 
ATOM     22  C   UNL     1      -3.003  -7.295 -26.140  1.00  0.00     0.003 C 
ATOM     23  C   UNL     1      -2.089  -4.988 -26.940  1.00  0.00     0.010 C 
ATOM     24  C   UNL     1      -4.213  -5.071 -25.605  1.00  0.00     0.012 C 
ATOM     25  C   UNL     1      -3.345  -7.640 -27.671  1.00  0.00    -0.006 C 
ATOM     26  C   UNL     1      -2.630  -5.267 -28.339  1.00  0.00     0.033 C 
ATOM     27  C   UNL     1      -2.517  -6.761 -28.654  1.00  0.00     0.120 C 
ATOM     28  C   UNL     1      -4.874  -7.482 -27.936  1.00  0.00     0.014 C 
ATOM     29  C   UNL     1      -3.032  -9.125 -28.013  1.00  0.00     0.014 C 
ENDROOT
BRANCH   1  30
ATOM     30  C   UNL     1       1.776  -6.642 -19.041  1.00  0.00     0.048 C 
ATOM     31  O   UNL     1       1.865  -7.125 -17.880  1.00  0.00    -0.550 OA
ATOM     32  O   UNL     1       2.238  -5.344 -19.256  1.00  0.00    -0.550 OA
ENDBRANCH   1  30
BRANCH  27  33
ATOM     33  O   UNL     1      -2.848  -7.011 -30.001  1.00  0.00    -0.393 OA
ATOM     34  H   UNL     1      -3.077  -7.972 -30.097  1.00  0.00     0.210 HD
ENDBRANCH  27  33
TORSDOF 2
ENDMDL
MODEL 3
REMARK VINA RESULT:    -3.795      2.392      7.920
REMARK INTER + INTRA:          -4.355
REMARK INTER:                  -4.649
REMARK INTRA:                   0.294
REMARK UNBOUND:                -0.227
REMARK SMILES C[C@H]1[C@H]2C3=CC[C@H]4[C@@]5(C)CC[C@H](O)C(C)(C)[C@H]5CC[C@@]4(C)[C@@]3(C)CC[C@@]2(C(=O)[O-])CC[C@@H]1C
REMARK SMILES IDX 26 1 30 2 25 3 3 4 31 5 24 6 4 7 2 8 32 9 22 10 5 11 1 12
REMARK SMILES IDX 33 13 23 14 20 15 6 16 7 17 19 18 21 19 8 20 18 21 17 22
REMARK SMILES IDX 10 23 9 24 14 25 11 26 12 27 15 28 16 29 27 30 28 31 29 32
REMARK SMILES IDX 13 33
REMARK H PARENT 13 34
REMARK Flexibility Score: inf
ROOT
ATOM      1  C   UNL     1      -3.226  -6.322 -22.280  1.00  0.00     0.017 C 
ATOM      2  C   UNL     1      -3.230  -4.997 -23.087  1.00  0.00     0.014 C 
ATOM      3  C   UNL     1      -3.219  -5.910 -20.783  1.00  0.00     0.014 C 
ATOM      4  C   UNL     1      -2.004  -7.276 -22.696  1.00  0.00     0.030 C 
ATOM      5  C   UNL     1      -3.175  -5.239 -24.578  1.00  0.00     0.004 C 
ATOM      6  C   UNL     1      -1.818  -5.656 -20.236  1.00  0.00     0.013 C 
ATOM      7  C   UNL     1      -0.963  -7.592 -21.579  1.00  0.00    -0.063 C 
ATOM      8  C   UNL     1      -1.378  -7.039 -24.169  1.00  0.00    -0.003 C 
ATOM      9  C   UNL     1      -1.799  -5.751 -24.954  1.00  0.00    -0.011 C 
ATOM     10  C   UNL     1      -0.959  -6.956 -20.189  1.00  0.00    -0.006 C 
ATOM     11  C   UNL     1      -0.171  -8.670 -21.731  1.00  0.00    -0.027 C 
ATOM     12  C   UNL     1       0.175  -7.136 -24.248  1.00  0.00     0.008 C 
ATOM     13  C   UNL     1      -1.772  -5.980 -26.484  1.00  0.00     0.008 C 
ATOM     14  C   UNL     1      -1.671  -7.968 -19.228  1.00  0.00     0.017 C 
ATOM     15  C   UNL     1       0.552  -6.677 -19.689  1.00  0.00    -0.020 C 
ATOM     16  C   UNL     1       1.225  -8.689 -21.182  1.00  0.00     0.032 C 
ATOM     17  C   UNL     1       1.443  -7.984 -19.807  1.00  0.00     0.006 C 
ATOM     18  C   UNL     1       1.210  -5.540 -20.543  1.00  0.00     0.008 C 
ATOM     19  C   UNL     1       0.495  -6.228 -18.188  1.00  0.00     0.012 C 
ATOM     20  C   UNL     1       3.004  -7.794 -19.399  1.00  0.00    -0.025 C 
ATOM     21  C   UNL     1       2.717  -5.688 -20.846  1.00  0.00     0.005 C 
ATOM     22  C   UNL     1       3.521  -6.308 -19.674  1.00  0.00     0.003 C 
ATOM     23  C   UNL     1       3.900  -8.842 -20.154  1.00  0.00     0.010 C 
ATOM     24  C   UNL     1       3.130  -8.126 -17.875  1.00  0.00     0.012 C 
ATOM     25  C   UNL     1       5.110  -6.098 -19.769  1.00  0.00    -0.006 C 
ATOM     26  C   UNL     1       5.405  -8.636 -20.015  1.00  0.00     0.033 C 
ATOM     27  C   UNL     1       5.795  -7.256 -20.553  1.00  0.00     0.120 C 
ATOM     28  C   UNL     1       5.726  -5.951 -18.343  1.00  0.00     0.014 C 
ATOM     29  C   UNL     1       5.476  -4.774 -20.499  1.00  0.00     0.014 C 
ENDROOT
BRANCH   1  30
ATOM     30  C   UNL     1      -4.554  -7.062 -22.485  1.00  0.00     0.048 C 
ATOM     31  O   UNL     1      -5.120  -7.682 -21.545  1.00  0.00    -0.550 OA
ATOM     32  O   UNL     1      -5.120  -7.129 -23.759  1.00  0.00    -0.550 OA
ENDBRANCH   1  30
BRANCH  27  33
ATOM     33  O   UNL     1       7.196  -7.116 -20.594  1.00  0.00    -0.393 OA
ATOM     34  H   UNL     1       7.606  -7.901 -20.147  1.00  0.00     0.210 HD
ENDBRANCH  27  33
TORSDOF 2
ENDMDL
MODEL 4
REMARK VINA RESULT:    -3.607      2.110      8.010
REMARK INTER + INTRA:          -4.151
REMARK INTER:                  -3.941
REMARK INTRA:                  -0.209
REMARK UNBOUND:                -0.227
REMARK SMILES C[C@H]1[C@H]2C3=CC[C@H]4[C@@]5(C)CC[C@H](O)C(C)(C)[C@H]5CC[C@@]4(C)[C@@]3(C)CC[C@@]2(C(=O)[O-])CC[C@@H]1C
REMARK SMILES IDX 26 1 30 2 25 3 3 4 31 5 24 6 4 7 2 8 32 9 22 10 5 11 1 12
REMARK SMILES IDX 33 13 23 14 20 15 6 16 7 17 19 18 21 19 8 20 18 21 17 22
REMARK SMILES IDX 10 23 9 24 14 25 11 26 12 27 15 28 16 29 27 30 28 31 29 32
REMARK SMILES IDX 13 33
REMARK H PARENT 13 34
REMARK Flexibility Score: inf
ROOT
ATOM      1  C   UNL     1      -3.579  -7.531 -23.195  1.00  0.00     0.017 C 
ATOM      2  C   UNL     1      -4.341  -8.255 -22.054  1.00  0.00     0.014 C 
ATOM      3  C   UNL     1      -2.780  -8.634 -23.941  1.00  0.00     0.014 C 
ATOM      4  C   UNL     1      -2.668  -6.331 -22.642  1.00  0.00     0.030 C 
ATOM      5  C   UNL     1      -5.125  -7.292 -21.193  1.00  0.00     0.004 C 
ATOM      6  C   UNL     1      -1.420  -8.920 -23.312  1.00  0.00     0.013 C 
ATOM      7  C   UNL     1      -1.131  -6.472 -22.865  1.00  0.00    -0.063 C 
ATOM      8  C   UNL     1      -3.098  -5.701 -21.215  1.00  0.00    -0.003 C 
ATOM      9  C   UNL     1      -4.164  -6.465 -20.360  1.00  0.00    -0.011 C 
ATOM     10  C   UNL     1      -0.445  -7.711 -23.438  1.00  0.00    -0.006 C 
ATOM     11  C   UNL     1      -0.372  -5.360 -22.800  1.00  0.00    -0.027 C 
ATOM     12  C   UNL     1      -1.914  -5.352 -20.265  1.00  0.00     0.008 C 
ATOM     13  C   UNL     1      -4.996  -5.498 -19.485  1.00  0.00     0.008 C 
ATOM     14  C   UNL     1      -0.217  -7.435 -24.964  1.00  0.00     0.017 C 
ATOM     15  C   UNL     1       0.967  -7.980 -22.701  1.00  0.00    -0.020 C 
ATOM     16  C   UNL     1       1.042  -5.416 -22.307  1.00  0.00     0.032 C 
ATOM     17  C   UNL     1       1.872  -6.677 -22.707  1.00  0.00     0.006 C 
ATOM     18  C   UNL     1       0.733  -8.423 -21.217  1.00  0.00     0.008 C 
ATOM     19  C   UNL     1       1.711  -9.125 -23.471  1.00  0.00     0.012 C 
ATOM     20  C   UNL     1       3.288  -6.816 -21.923  1.00  0.00    -0.025 C 
ATOM     21  C   UNL     1       1.761  -7.926 -20.176  1.00  0.00     0.005 C 
ATOM     22  C   UNL     1       3.210  -7.868 -20.724  1.00  0.00     0.003 C 
ATOM     23  C   UNL     1       3.766  -5.412 -21.399  1.00  0.00     0.010 C 
ATOM     24  C   UNL     1       4.355  -7.281 -22.969  1.00  0.00     0.012 C 
ATOM     25  C   UNL     1       4.348  -7.769 -19.595  1.00  0.00    -0.006 C 
ATOM     26  C   UNL     1       4.976  -5.439 -20.471  1.00  0.00     0.033 C 
ATOM     27  C   UNL     1       4.667  -6.288 -19.235  1.00  0.00     0.120 C 
ATOM     28  C   UNL     1       5.636  -8.520 -20.052  1.00  0.00     0.014 C 
ATOM     29  C   UNL     1       3.920  -8.476 -18.278  1.00  0.00     0.014 C 
ENDROOT
BRANCH   1  30
ATOM     30  C   UNL     1      -4.576  -6.990 -24.228  1.00  0.00     0.048 C 
ATOM     31  O   UNL     1      -5.088  -7.733 -25.108  1.00  0.00    -0.550 OA
ATOM     32  O   UNL     1      -4.871  -5.627 -24.257  1.00  0.00    -0.550 OA
ENDBRANCH   1  30
BRANCH  27  33
ATOM     33  O   UNL     1       5.705  -6.182 -18.288  1.00  0.00    -0.393 OA
ATOM     34  H   UNL     1       6.081  -5.264 -18.331  1.00  0.00     0.210 HD
ENDBRANCH  27  33
TORSDOF 2
ENDMDL
MODEL 5
REMARK VINA RESULT:    -2.932      1.796      2.386
REMARK INTER + INTRA:          -3.416
REMARK INTER:                  -3.268
REMARK INTRA:                  -0.149
REMARK UNBOUND:                -0.227
REMARK SMILES C[C@H]1[C@H]2C3=CC[C@H]4[C@@]5(C)CC[C@H](O)C(C)(C)[C@H]5CC[C@@]4(C)[C@@]3(C)CC[C@@]2(C(=O)[O-])CC[C@@H]1C
REMARK SMILES IDX 26 1 30 2 25 3 3 4 31 5 24 6 4 7 2 8 32 9 22 10 5 11 1 12
REMARK SMILES IDX 33 13 23 14 20 15 6 16 7 17 19 18 21 19 8 20 18 21 17 22
REMARK SMILES IDX 10 23 9 24 14 25 11 26 12 27 15 28 16 29 27 30 28 31 29 32
REMARK SMILES IDX 13 33
REMARK H PARENT 13 34
REMARK Flexibility Score: inf
ROOT
ATOM      1  C   UNL     1       4.676  -7.915 -21.134  1.00  0.00     0.017 C 
ATOM      2  C   UNL     1       5.183  -9.120 -21.969  1.00  0.00     0.014 C 
ATOM      3  C   UNL     1       3.806  -8.518 -19.998  1.00  0.00     0.014 C 
ATOM      4  C   UNL     1       3.904  -6.838 -22.041  1.00  0.00     0.030 C 
ATOM      5  C   UNL     1       6.004  -8.681 -23.160  1.00  0.00     0.004 C 
ATOM      6  C   UNL     1       2.357  -8.752 -20.410  1.00  0.00     0.013 C 
ATOM      7  C   UNL     1       2.398  -6.606 -21.704  1.00  0.00    -0.063 C 
ATOM      8  C   UNL     1       4.261  -6.840 -23.618  1.00  0.00    -0.003 C 
ATOM      9  C   UNL     1       5.094  -8.037 -24.187  1.00  0.00    -0.011 C 
ATOM     10  C   UNL     1       1.599  -7.417 -20.685  1.00  0.00    -0.006 C 
ATOM     11  C   UNL     1       1.817  -5.469 -22.132  1.00  0.00    -0.027 C 
ATOM     12  C   UNL     1       3.046  -6.634 -24.569  1.00  0.00     0.008 C 
ATOM     13  C   UNL     1       5.960  -7.608 -25.396  1.00  0.00     0.008 C 
ATOM     14  C   UNL     1       1.591  -6.588 -19.356  1.00  0.00     0.017 C 
ATOM     15  C   UNL     1       0.089  -7.663 -21.203  1.00  0.00    -0.020 C 
ATOM     16  C   UNL     1       0.364  -5.432 -22.500  1.00  0.00     0.032 C 
ATOM     17  C   UNL     1      -0.598  -6.296 -21.627  1.00  0.00     0.006 C 
ATOM     18  C   UNL     1       0.082  -8.633 -22.433  1.00  0.00     0.008 C 
ATOM     19  C   UNL     1      -0.731  -8.307 -20.032  1.00  0.00     0.012 C 
ATOM     20  C   UNL     1      -2.099  -6.439 -22.234  1.00  0.00    -0.025 C 
ATOM     21  C   UNL     1      -0.968  -8.351 -23.530  1.00  0.00     0.005 C 
ATOM     22  C   UNL     1      -2.320  -7.839 -22.969  1.00  0.00     0.003 C 
ATOM     23  C   UNL     1      -2.411  -5.245 -23.210  1.00  0.00     0.010 C 
ATOM     24  C   UNL     1      -3.099  -6.302 -21.039  1.00  0.00     0.012 C 
ATOM     25  C   UNL     1      -3.548  -7.933 -23.999  1.00  0.00    -0.006 C 
ATOM     26  C   UNL     1      -3.708  -5.371 -24.002  1.00  0.00     0.033 C 
ATOM     27  C   UNL     1      -3.675  -6.641 -24.858  1.00  0.00     0.120 C 
ATOM     28  C   UNL     1      -4.877  -8.226 -23.235  1.00  0.00     0.014 C 
ATOM     29  C   UNL     1      -3.386  -9.124 -24.987  1.00  0.00     0.014 C 
ENDROOT
BRANCH   1  30
ATOM     30  C   UNL     1       5.854  -7.240 -20.420  1.00  0.00     0.048 C 
ATOM     31  O   UNL     1       5.888  -5.995 -20.228  1.00  0.00    -0.550 OA
ATOM     32  O   UNL     1       6.961  -7.999 -20.041  1.00  0.00    -0.550 OA
ENDBRANCH   1  30
BRANCH  27  33
ATOM     33  O   UNL     1      -4.785  -6.684 -25.725  1.00  0.00    -0.393 OA
ATOM     34  H   UNL     1      -5.102  -7.623 -25.786  1.00  0.00     0.210 HD
ENDBRANCH  27  33
TORSDOF 2
ENDMDL
MODEL 6
REMARK VINA RESULT:    -2.300      4.502      8.061
REMARK INTER + INTRA:          -2.729
REMARK INTER:                  -2.497
REMARK INTRA:                  -0.232
REMARK UNBOUND:                -0.227
REMARK SMILES C[C@H]1[C@H]2C3=CC[C@H]4[C@@]5(C)CC[C@H](O)C(C)(C)[C@H]5CC[C@@]4(C)[C@@]3(C)CC[C@@]2(C(=O)[O-])CC[C@@H]1C
REMARK SMILES IDX 26 1 30 2 25 3 3 4 31 5 24 6 4 7 2 8 32 9 22 10 5 11 1 12
REMARK SMILES IDX 33 13 23 14 20 15 6 16 7 17 19 18 21 19 8 20 18 21 17 22
REMARK SMILES IDX 10 23 9 24 14 25 11 26 12 27 15 28 16 29 27 30 28 31 29 32
REMARK SMILES IDX 13 33
REMARK H PARENT 13 34
REMARK Flexibility Score: inf
ROOT
ATOM      1  C   UNL     1      10.435  -6.786 -20.104  1.00  0.00     0.017 C 
ATOM      2  C   UNL     1      10.802  -6.034 -21.411  1.00  0.00     0.014 C 
ATOM      3  C   UNL     1       9.869  -8.161 -20.548  1.00  0.00     0.014 C 
ATOM      4  C   UNL     1       9.430  -5.936 -19.184  1.00  0.00     0.030 C 
ATOM      5  C   UNL     1      11.317  -4.639 -21.139  1.00  0.00     0.004 C 
ATOM      6  C   UNL     1       8.376  -8.124 -20.861  1.00  0.00     0.013 C 
ATOM      7  C   UNL     1       8.028  -6.568 -18.928  1.00  0.00    -0.063 C 
ATOM      8  C   UNL     1       9.429  -4.334 -19.411  1.00  0.00    -0.003 C 
ATOM      9  C   UNL     1      10.172  -3.764 -20.666  1.00  0.00    -0.011 C 
ATOM     10  C   UNL     1       7.514  -7.844 -19.594  1.00  0.00    -0.006 C 
ATOM     11  C   UNL     1       7.313  -6.128 -17.875  1.00  0.00    -0.027 C 
ATOM     12  C   UNL     1       8.025  -3.663 -19.366  1.00  0.00     0.008 C 
ATOM     13  C   UNL     1      10.727  -2.343 -20.406  1.00  0.00     0.008 C 
ATOM     14  C   UNL     1       7.760  -9.012 -18.578  1.00  0.00     0.017 C 
ATOM     15  C   UNL     1       5.940  -7.721 -19.935  1.00  0.00    -0.020 C 
ATOM     16  C   UNL     1       5.814  -6.096 -17.915  1.00  0.00     0.032 C 
ATOM     17  C   UNL     1       5.111  -7.277 -18.657  1.00  0.00     0.006 C 
ATOM     18  C   UNL     1       5.708  -6.672 -21.075  1.00  0.00     0.008 C 
ATOM     19  C   UNL     1       5.432  -9.125 -20.414  1.00  0.00     0.012 C 
ATOM     20  C   UNL     1       3.522  -7.050 -18.910  1.00  0.00    -0.025 C 
ATOM     21  C   UNL     1       4.429  -5.812 -20.973  1.00  0.00     0.005 C 
ATOM     22  C   UNL     1       3.212  -6.587 -20.406  1.00  0.00     0.003 C 
ATOM     23  C   UNL     1       2.945  -6.014 -17.877  1.00  0.00     0.010 C 
ATOM     24  C   UNL     1       2.806  -8.409 -18.615  1.00  0.00     0.012 C 
ATOM     25  C   UNL     1       1.791  -5.885 -20.669  1.00  0.00    -0.006 C 
ATOM     26  C   UNL     1       1.512  -5.560 -18.138  1.00  0.00     0.033 C 
ATOM     27  C   UNL     1       1.415  -4.905 -19.519  1.00  0.00     0.120 C 
ATOM     28  C   UNL     1       0.680  -6.963 -20.867  1.00  0.00     0.014 C 
ATOM     29  C   UNL     1       1.788  -5.062 -21.989  1.00  0.00     0.014 C 
ENDROOT
BRANCH   1  30
ATOM     30  C   UNL     1      11.708  -7.113 -19.314  1.00  0.00     0.048 C 
ATOM     31  O   UNL     1      11.906  -6.657 -18.155  1.00  0.00    -0.550 OA
ATOM     32  O   UNL     1      12.720  -7.866 -19.910  1.00  0.00    -0.550 OA
ENDBRANCH   1  30
BRANCH  27  33
ATOM     33  O   UNL     1       0.145  -4.326 -19.706  1.00  0.00    -0.393 OA
ATOM     34  H   UNL     1      -0.409  -4.511 -18.903  1.00  0.00     0.210 HD
ENDBRANCH  27  33
TORSDOF 2
ENDMDL
MODEL 7
REMARK VINA RESULT:    -2.047      5.111     10.952
REMARK INTER + INTRA:          -2.454
REMARK INTER:                  -2.223
REMARK INTRA:                  -0.231
REMARK UNBOUND:                -0.227
REMARK SMILES C[C@H]1[C@H]2C3=CC[C@H]4[C@@]5(C)CC[C@H](O)C(C)(C)[C@H]5CC[C@@]4(C)[C@@]3(C)CC[C@@]2(C(=O)[O-])CC[C@@H]1C
REMARK SMILES IDX 26 1 30 2 25 3 3 4 31 5 24 6 4 7 2 8 32 9 22 10 5 11 1 12
REMARK SMILES IDX 33 13 23 14 20 15 6 16 7 17 19 18 21 19 8 20 18 21 17 22
REMARK SMILES IDX 10 23 9 24 14 25 11 26 12 27 15 28 16 29 27 30 28 31 29 32
REMARK SMILES IDX 13 33
REMARK H PARENT 13 34
REMARK Flexibility Score: inf
ROOT
ATOM      1  C   UNL     1       4.413  -6.862 -20.832  1.00  0.00     0.017 C 
ATOM      2  C   UNL     1       4.180  -6.042 -22.128  1.00  0.00     0.014 C 
ATOM      3  C   UNL     1       4.853  -5.837 -19.752  1.00  0.00     0.014 C 
ATOM      4  C   UNL     1       5.461  -8.058 -21.057  1.00  0.00     0.030 C 
ATOM      5  C   UNL     1       3.802  -6.922 -23.297  1.00  0.00     0.004 C 
ATOM      6  C   UNL     1       6.353  -5.560 -19.761  1.00  0.00     0.013 C 
ATOM      7  C   UNL     1       6.779  -7.986 -20.227  1.00  0.00    -0.063 C 
ATOM      8  C   UNL     1       5.637  -8.582 -22.577  1.00  0.00    -0.003 C 
ATOM      9  C   UNL     1       5.010  -7.729 -23.731  1.00  0.00    -0.011 C 
ATOM     10  C   UNL     1       7.185  -6.809 -19.340  1.00  0.00    -0.006 C 
ATOM     11  C   UNL     1       7.491  -9.117 -20.061  1.00  0.00    -0.027 C 
ATOM     12  C   UNL     1       7.100  -8.913 -22.995  1.00  0.00     0.008 C 
ATOM     13  C   UNL     1       4.594  -8.610 -24.933  1.00  0.00     0.008 C 
ATOM     14  C   UNL     1       6.778  -7.187 -17.875  1.00  0.00     0.017 C 
ATOM     15  C   UNL     1       8.777  -6.545 -19.429  1.00  0.00    -0.020 C 
ATOM     16  C   UNL     1       8.985  -9.081 -19.941  1.00  0.00     0.032 C 
ATOM     17  C   UNL     1       9.593  -7.878 -19.153  1.00  0.00     0.006 C 
ATOM     18  C   UNL     1       9.164  -6.003 -20.847  1.00  0.00     0.008 C 
ATOM     19  C   UNL     1       9.157  -5.477 -18.346  1.00  0.00     0.012 C 
ATOM     20  C   UNL     1      11.206  -7.740 -19.291  1.00  0.00    -0.025 C 
ATOM     21  C   UNL     1      10.519  -6.471 -21.420  1.00  0.00     0.005 C 
ATOM     22  C   UNL     1      11.625  -6.614 -20.343  1.00  0.00     0.003 C 
ATOM     23  C   UNL     1      11.843  -9.125 -19.678  1.00  0.00     0.010 C 
ATOM     24  C   UNL     1      11.765  -7.379 -17.875  1.00  0.00     0.012 C 
ATOM     25  C   UNL     1      13.120  -6.683 -20.925  1.00  0.00    -0.006 C 
ATOM     26  C   UNL     1      13.325  -9.084 -20.039  1.00  0.00     0.033 C 
ATOM     27  C   UNL     1      13.547  -8.150 -21.231  1.00  0.00     0.120 C 
ATOM     28  C   UNL     1      14.121  -6.008 -19.938  1.00  0.00     0.014 C 
ATOM     29  C   UNL     1      13.263  -5.881 -22.250  1.00  0.00     0.014 C 
ENDROOT
BRANCH   1  30
ATOM     30  C   UNL     1       3.081  -7.430 -20.327  1.00  0.00     0.048 C 
ATOM     31  O   UNL     1       2.927  -8.661 -20.101  1.00  0.00    -0.550 OA
ATOM     32  O   UNL     1       1.978  -6.588 -20.185  1.00  0.00    -0.550 OA
ENDBRANCH   1  30
BRANCH  27  33
ATOM     33  O   UNL     1      14.877  -8.233 -21.688  1.00  0.00    -0.393 OA
ATOM     34  H   UNL     1      15.401  -7.500 -21.271  1.00  0.00     0.210 HD
ENDBRANCH  27  33
TORSDOF 2
ENDMDL
