MODEL 1
REMARK VINA RESULT:    -5.556      0.000      0.000
REMARK INTER + INTRA:          -7.439
REMARK INTER:                  -7.505
REMARK INTRA:                   0.066
REMARK UNBOUND:                 0.066
REMARK SMILES C=C1C(=O)O[C@H]2[C@@H]1CCC(C)=CCC[C@]1(C)O[C@H]21
REMARK SMILES IDX 6 1 7 2 2 3 1 4 3 5 4 6 5 7 8 8 9 9 10 10 11 11 12 12 18 14
REMARK SMILES IDX 15 15 17 16 16 17 14 18 13 19
REMARK H PARENT
REMARK Flexibility Score: 70.00
ROOT
ATOM      1  C   UNL     1      11.395  -6.308  40.643  1.00  0.00     0.216 C 
ATOM      2  C   UNL     1      10.488  -5.538  39.628  1.00  0.00     0.070 C 
ATOM      3  C   UNL     1       9.892  -4.448  40.471  1.00  0.00     0.037 C 
ATOM      4  C   UNL     1       9.186  -3.393  40.066  1.00  0.00     0.021 C 
ATOM      5  C   UNL     1       9.989  -4.923  41.835  1.00  0.00     0.334 C 
ATOM      6  O   UNL     1       9.440  -4.397  42.838  1.00  0.00    -0.247 OA
ATOM      7  O   UNL     1      10.743  -6.082  41.892  1.00  0.00    -0.455 OA
ENDROOT
BRANCH   2   8
ATOM      8  C   UNL     1      11.147  -5.135  38.289  1.00  0.00     0.017 C 
BRANCH   8   9
ATOM      9  C   UNL     1      11.433  -6.410  37.463  1.00  0.00     0.031 C 
BRANCH   9  10
ATOM     10  C   UNL     1      12.427  -6.278  36.321  1.00  0.00    -0.077 C 
ATOM     11  C   UNL     1      11.883  -6.091  34.924  1.00  0.00     0.039 C 
ATOM     12  C   UNL     1      13.760  -6.507  36.437  1.00  0.00    -0.028 CG0
ATOM     13  G   UNL     1      14.589  -6.421  37.694  1.00  0.00     0.000 G0
ENDBRANCH   9  10
ENDBRANCH   8   9
ENDBRANCH   2   8
BRANCH   1  14
ATOM     14  C   UNL     1      12.825  -5.736  40.823  1.00  0.00     0.192 C 
ATOM     15  C   UNL     1      14.080  -6.190  40.147  1.00  0.00     0.096 C 
ATOM     16  O   UNL     1      13.639  -6.776  41.342  1.00  0.00    -0.362 OA
ATOM     17  C   UNL     1      15.346  -5.362  40.391  1.00  0.00     0.045 C 
BRANCH  15  18
ATOM     18  C   UNL     1      14.054  -7.149  38.944  1.00  0.00     0.042 C 
BRANCH  18  19
ATOM     19  C   UNL     1      14.606  -6.434  37.691  1.00  0.00     0.030 CG0
ATOM     20  G   UNL     1      13.764  -6.506  36.440  1.00  0.00     0.000 G0
ENDBRANCH  18  19
ENDBRANCH  15  18
ENDBRANCH   1  14
TORSDOF 0
ENDMDL
MODEL 2
REMARK VINA RESULT:    -5.117      2.055      3.732
REMARK INTER + INTRA:          -6.846
REMARK INTER:                  -6.939
REMARK INTRA:                   0.093
REMARK UNBOUND:                 0.066
REMARK SMILES C=C1C(=O)O[C@H]2[C@@H]1CCC(C)=CCC[C@]1(C)O[C@H]21
REMARK SMILES IDX 6 1 7 2 2 3 1 4 3 5 4 6 5 7 8 8 9 9 10 10 11 11 12 12 18 14
REMARK SMILES IDX 15 15 17 16 16 17 14 18 13 19
REMARK H PARENT
REMARK Flexibility Score: 70.00
ROOT
ATOM      1  C   UNL     1      10.980  -4.135  39.602  1.00  0.00     0.216 C 
ATOM      2  C   UNL     1      11.388  -4.109  41.112  1.00  0.00     0.070 C 
ATOM      3  C   UNL     1      10.062  -4.128  41.816  1.00  0.00     0.037 C 
ATOM      4  C   UNL     1       9.829  -4.301  43.117  1.00  0.00     0.021 C 
ATOM      5  C   UNL     1       9.107  -3.632  40.848  1.00  0.00     0.334 C 
ATOM      6  O   UNL     1       7.913  -3.315  41.089  1.00  0.00    -0.247 OA
ATOM      7  O   UNL     1       9.699  -3.506  39.604  1.00  0.00    -0.455 OA
ENDROOT
BRANCH   2   8
ATOM      8  C   UNL     1      12.453  -5.139  41.552  1.00  0.00     0.017 C 
BRANCH   8   9
ATOM      9  C   UNL     1      13.825  -4.725  40.974  1.00  0.00     0.031 C 
BRANCH   9  10
ATOM     10  C   UNL     1      14.905  -5.793  40.940  1.00  0.00    -0.077 C 
ATOM     11  C   UNL     1      16.000  -5.730  41.980  1.00  0.00     0.039 C 
ATOM     12  C   UNL     1      15.067  -6.687  39.931  1.00  0.00    -0.028 CG0
ATOM     13  G   UNL     1      14.012  -7.161  38.962  1.00  0.00     0.000 G0
ENDBRANCH   9  10
ENDBRANCH   8   9
ENDBRANCH   2   8
BRANCH   1  14
ATOM     14  C   UNL     1      10.739  -5.544  39.002  1.00  0.00     0.192 C 
ATOM     15  C   UNL     1      11.715  -6.394  38.250  1.00  0.00     0.096 C 
ATOM     16  O   UNL     1      10.914  -5.446  37.598  1.00  0.00    -0.362 OA
ATOM     17  C   UNL     1      11.271  -7.815  37.886  1.00  0.00     0.045 C 
BRANCH  15  18
ATOM     18  C   UNL     1      13.217  -6.064  38.210  1.00  0.00     0.042 C 
BRANCH  18  19
ATOM     19  C   UNL     1      14.015  -7.157  38.955  1.00  0.00     0.030 CG0
ATOM     20  G   UNL     1      15.073  -6.687  39.922  1.00  0.00     0.000 G0
ENDBRANCH  18  19
ENDBRANCH  15  18
ENDBRANCH   1  14
TORSDOF 0
ENDMDL
MODEL 3
REMARK VINA RESULT:    -4.994      2.924      4.983
REMARK INTER + INTRA:          -6.679
REMARK INTER:                  -6.713
REMARK INTRA:                   0.034
REMARK UNBOUND:                 0.066
REMARK SMILES C=C1C(=O)O[C@H]2[C@@H]1CCC(C)=CCC[C@]1(C)O[C@H]21
REMARK SMILES IDX 6 1 7 2 2 3 1 4 3 5 4 6 5 7 8 8 9 9 10 10 11 11 12 12 18 14
REMARK SMILES IDX 15 15 17 16 16 17 14 18 13 19
REMARK H PARENT
REMARK Flexibility Score: 70.00
ROOT
ATOM      1  C   UNL     1      13.356  -5.823  38.138  1.00  0.00     0.216 C 
ATOM      2  C   UNL     1      11.891  -6.351  37.989  1.00  0.00     0.070 C 
ATOM      3  C   UNL     1      12.092  -7.779  37.571  1.00  0.00     0.037 C 
ATOM      4  C   UNL     1      11.176  -8.743  37.483  1.00  0.00     0.021 C 
ATOM      5  C   UNL     1      13.423  -7.827  37.002  1.00  0.00     0.334 C 
ATOM      6  O   UNL     1      13.915  -8.794  36.364  1.00  0.00    -0.247 OA
ATOM      7  O   UNL     1      14.085  -6.632  37.217  1.00  0.00    -0.455 OA
ENDROOT
BRANCH   2   8
ATOM      8  C   UNL     1      10.939  -6.075  39.175  1.00  0.00     0.017 C 
BRANCH   8   9
ATOM      9  C   UNL     1      10.506  -4.592  39.140  1.00  0.00     0.031 C 
BRANCH   9  10
ATOM     10  C   UNL     1       9.948  -4.010  40.429  1.00  0.00    -0.077 C 
ATOM     11  C   UNL     1       8.477  -3.669  40.476  1.00  0.00     0.039 C 
ATOM     12  C   UNL     1      10.709  -3.597  41.474  1.00  0.00    -0.028 CG0
ATOM     13  G   UNL     1      12.102  -4.060  41.821  1.00  0.00     0.000 G0
ENDBRANCH   9  10
ENDBRANCH   8   9
ENDBRANCH   2   8
BRANCH   1  14
ATOM     14  C   UNL     1      14.018  -6.080  39.516  1.00  0.00     0.192 C 
ATOM     15  C   UNL     1      14.071  -5.153  40.690  1.00  0.00     0.096 C 
ATOM     16  O   UNL     1      15.046  -5.117  39.683  1.00  0.00    -0.362 OA
ATOM     17  C   UNL     1      14.665  -5.705  41.991  1.00  0.00     0.045 C 
BRANCH  15  18
ATOM     18  C   UNL     1      13.209  -3.882  40.761  1.00  0.00     0.042 C 
BRANCH  18  19
ATOM     19  C   UNL     1      12.108  -4.053  41.831  1.00  0.00     0.030 CG0
ATOM     20  G   UNL     1      10.721  -3.587  41.461  1.00  0.00     0.000 G0
ENDBRANCH  18  19
ENDBRANCH  15  18
ENDBRANCH   1  14
TORSDOF 0
ENDMDL
MODEL 4
REMARK VINA RESULT:    -4.629      3.152      5.970
REMARK INTER + INTRA:          -6.187
REMARK INTER:                  -6.547
REMARK INTRA:                   0.359
REMARK UNBOUND:                 0.066
REMARK SMILES C=C1C(=O)O[C@H]2[C@@H]1CCC(C)=CCC[C@]1(C)O[C@H]21
REMARK SMILES IDX 6 1 7 2 2 3 1 4 3 5 4 6 5 7 8 8 9 9 10 10 11 11 12 12 18 14
REMARK SMILES IDX 15 15 17 16 16 17 14 18 13 19
REMARK H PARENT
REMARK Flexibility Score: 70.00
ROOT
ATOM      1  C   UNL     1      12.326  -6.634  39.848  1.00  0.00     0.216 C 
ATOM      2  C   UNL     1      13.172  -6.556  41.161  1.00  0.00     0.070 C 
ATOM      3  C   UNL     1      14.583  -6.541  40.649  1.00  0.00     0.037 C 
ATOM      4  C   UNL     1      15.700  -6.299  41.334  1.00  0.00     0.021 C 
ATOM      5  C   UNL     1      14.517  -7.127  39.326  1.00  0.00     0.334 C 
ATOM      6  O   UNL     1      15.503  -7.471  38.624  1.00  0.00    -0.247 OA
ATOM      7  O   UNL     1      13.200  -7.306  38.942  1.00  0.00    -0.455 OA
ENDROOT
BRANCH   2   8
ATOM      8  C   UNL     1      12.762  -5.464  42.176  1.00  0.00     0.017 C 
BRANCH   8   9
ATOM      9  C   UNL     1      11.265  -5.631  42.520  1.00  0.00     0.031 C 
BRANCH   9  10
ATOM     10  C   UNL     1      10.566  -4.432  43.139  1.00  0.00    -0.077 C 
ATOM     11  C   UNL     1      10.866  -4.103  44.583  1.00  0.00     0.039 C 
ATOM     12  C   UNL     1       9.551  -3.750  42.551  1.00  0.00    -0.028 CG0
ATOM     13  G   UNL     1       9.253  -3.662  41.075  1.00  0.00     0.000 G0
ENDBRANCH   9  10
ENDBRANCH   8   9
ENDBRANCH   2   8
BRANCH   1  14
ATOM     14  C   UNL     1      12.014  -5.272  39.176  1.00  0.00     0.192 C 
ATOM     15  C   UNL     1      10.730  -4.505  39.223  1.00  0.00     0.096 C 
ATOM     16  O   UNL     1      10.963  -5.485  38.247  1.00  0.00    -0.362 OA
ATOM     17  C   UNL     1      10.725  -3.109  38.591  1.00  0.00     0.045 C 
BRANCH  15  18
ATOM     18  C   UNL     1       9.603  -4.868  40.204  1.00  0.00     0.042 C 
BRANCH  18  19
ATOM     19  C   UNL     1       9.250  -3.641  41.076  1.00  0.00     0.030 CG0
ATOM     20  G   UNL     1       9.542  -3.750  42.552  1.00  0.00     0.000 G0
ENDBRANCH  18  19
ENDBRANCH  15  18
ENDBRANCH   1  14
TORSDOF 0
ENDMDL
MODEL 5
REMARK VINA RESULT:    -4.453      2.025      4.544
REMARK INTER + INTRA:          -5.948
REMARK INTER:                  -6.094
REMARK INTRA:                   0.146
REMARK UNBOUND:                 0.066
REMARK SMILES C=C1C(=O)O[C@H]2[C@@H]1CCC(C)=CCC[C@]1(C)O[C@H]21
REMARK SMILES IDX 6 1 7 2 2 3 1 4 3 5 4 6 5 7 8 8 9 9 10 10 11 11 12 12 18 14
REMARK SMILES IDX 15 15 17 16 16 17 14 18 13 19
REMARK H PARENT
REMARK Flexibility Score: 70.00
ROOT
ATOM      1  C   UNL     1      14.717  -5.477  41.003  1.00  0.00     0.216 C 
ATOM      2  C   UNL     1      15.164  -6.575  39.983  1.00  0.00     0.070 C 
ATOM      3  C   UNL     1      15.924  -7.542  40.845  1.00  0.00     0.037 C 
ATOM      4  C   UNL     1      16.368  -8.755  40.518  1.00  0.00     0.021 C 
ATOM      5  C   UNL     1      16.331  -6.780  42.007  1.00  0.00     0.334 C 
ATOM      6  O   UNL     1      17.146  -7.162  42.888  1.00  0.00    -0.247 OA
ATOM      7  O   UNL     1      15.733  -5.533  42.003  1.00  0.00    -0.455 OA
ENDROOT
BRANCH   2   8
ATOM      8  C   UNL     1      14.062  -7.144  39.060  1.00  0.00     0.017 C 
BRANCH   8   9
ATOM      9  C   UNL     1      13.938  -6.246  37.809  1.00  0.00     0.031 C 
BRANCH   9  10
ATOM     10  C   UNL     1      12.607  -6.272  37.075  1.00  0.00    -0.077 C 
ATOM     11  C   UNL     1      12.621  -6.539  35.588  1.00  0.00     0.039 C 
ATOM     12  C   UNL     1      11.426  -5.886  37.620  1.00  0.00    -0.028 CG0
ATOM     13  G   UNL     1      11.068  -5.859  39.085  1.00  0.00     0.000 G0
ENDBRANCH   9  10
ENDBRANCH   8   9
ENDBRANCH   2   8
BRANCH   1  14
ATOM     14  C   UNL     1      13.392  -5.769  41.755  1.00  0.00     0.192 C 
ATOM     15  C   UNL     1      12.010  -5.347  41.365  1.00  0.00     0.096 C 
ATOM     16  O   UNL     1      12.836  -4.522  42.141  1.00  0.00    -0.362 OA
ATOM     17  C   UNL     1      10.849  -5.888  42.206  1.00  0.00     0.045 C 
BRANCH  15  18
ATOM     18  C   UNL     1      11.699  -4.773  39.972  1.00  0.00     0.042 C 
BRANCH  18  19
ATOM     19  C   UNL     1      11.055  -5.863  39.087  1.00  0.00     0.030 CG0
ATOM     20  G   UNL     1      11.428  -5.859  37.625  1.00  0.00     0.000 G0
ENDBRANCH  18  19
ENDBRANCH  15  18
ENDBRANCH   1  14
TORSDOF 0
ENDMDL
MODEL 6
REMARK VINA RESULT:    -4.448      2.363      4.781
REMARK INTER + INTRA:          -5.942
REMARK INTER:                  -5.958
REMARK INTRA:                   0.016
REMARK UNBOUND:                 0.066
REMARK SMILES C=C1C(=O)O[C@H]2[C@@H]1CCC(C)=CCC[C@]1(C)O[C@H]21
REMARK SMILES IDX 6 1 7 2 2 3 1 4 3 5 4 6 5 7 8 8 9 9 10 10 11 11 12 12 18 14
REMARK SMILES IDX 15 15 17 16 16 17 14 18 13 19
REMARK H PARENT
REMARK Flexibility Score: 70.00
ROOT
ATOM      1  C   UNL     1      14.538  -4.809  40.001  1.00  0.00     0.216 C 
ATOM      2  C   UNL     1      15.295  -6.071  39.472  1.00  0.00     0.070 C 
ATOM      3  C   UNL     1      16.481  -6.157  40.389  1.00  0.00     0.037 C 
ATOM      4  C   UNL     1      17.359  -7.153  40.499  1.00  0.00     0.021 C 
ATOM      5  C   UNL     1      16.650  -4.822  40.923  1.00  0.00     0.334 C 
ATOM      6  O   UNL     1      17.639  -4.415  41.587  1.00  0.00    -0.247 OA
ATOM      7  O   UNL     1      15.583  -4.018  40.564  1.00  0.00    -0.455 OA
ENDROOT
BRANCH   2   8
ATOM      8  C   UNL     1      14.446  -7.346  39.270  1.00  0.00     0.017 C 
BRANCH   8   9
ATOM      9  C   UNL     1      13.543  -7.160  38.030  1.00  0.00     0.031 C 
BRANCH   9  10
ATOM     10  C   UNL     1      12.346  -8.088  37.908  1.00  0.00    -0.077 C 
ATOM     11  C   UNL     1      12.421  -9.216  36.905  1.00  0.00     0.039 C 
ATOM     12  C   UNL     1      11.142  -7.866  38.495  1.00  0.00    -0.028 CG0
ATOM     13  G   UNL     1      10.872  -7.033  39.723  1.00  0.00     0.000 G0
ENDBRANCH   9  10
ENDBRANCH   8   9
ENDBRANCH   2   8
BRANCH   1  14
ATOM     14  C   UNL     1      13.551  -5.067  41.169  1.00  0.00     0.192 C 
ATOM     15  C   UNL     1      12.076  -5.304  41.081  1.00  0.00     0.096 C 
ATOM     16  O   UNL     1      12.606  -4.009  41.172  1.00  0.00    -0.362 OA
ATOM     17  C   UNL     1      11.348  -5.678  42.378  1.00  0.00     0.045 C 
BRANCH  15  18
ATOM     18  C   UNL     1      11.378  -5.592  39.742  1.00  0.00     0.042 C 
BRANCH  18  19
ATOM     19  C   UNL     1      10.851  -7.045  39.725  1.00  0.00     0.030 CG0
ATOM     20  G   UNL     1      11.150  -7.862  38.493  1.00  0.00     0.000 G0
ENDBRANCH  18  19
ENDBRANCH  15  18
ENDBRANCH   1  14
TORSDOF 0
ENDMDL
MODEL 7
REMARK VINA RESULT:    -4.171      2.411      4.206
REMARK INTER + INTRA:          -5.568
REMARK INTER:                  -5.925
REMARK INTRA:                   0.357
REMARK UNBOUND:                 0.066
REMARK SMILES C=C1C(=O)O[C@H]2[C@@H]1CCC(C)=CCC[C@]1(C)O[C@H]21
REMARK SMILES IDX 6 1 7 2 2 3 1 4 3 5 4 6 5 7 8 8 9 9 10 10 11 11 12 12 18 14
REMARK SMILES IDX 15 15 17 16 16 17 14 18 13 19
REMARK H PARENT
REMARK Flexibility Score: 70.00
ROOT
ATOM      1  C   UNL     1      13.021  -4.974  38.782  1.00  0.00     0.216 C 
ATOM      2  C   UNL     1      13.276  -4.890  40.323  1.00  0.00     0.070 C 
ATOM      3  C   UNL     1      11.965  -4.385  40.851  1.00  0.00     0.037 C 
ATOM      4  C   UNL     1      11.571  -4.304  42.122  1.00  0.00     0.021 C 
ATOM      5  C   UNL     1      11.325  -3.733  39.728  1.00  0.00     0.334 C 
ATOM      6  O   UNL     1      10.293  -3.014  39.784  1.00  0.00    -0.247 OA
ATOM      7  O   UNL     1      12.034  -3.968  38.564  1.00  0.00    -0.455 OA
ENDROOT
BRANCH   2   8
ATOM      8  C   UNL     1      13.885  -6.146  40.987  1.00  0.00     0.017 C 
BRANCH   8   9
ATOM      9  C   UNL     1      15.391  -5.907  41.236  1.00  0.00     0.031 C 
BRANCH   9  10
ATOM     10  C   UNL     1      16.323  -7.080  40.983  1.00  0.00    -0.077 C 
ATOM     11  C   UNL     1      17.632  -7.123  41.737  1.00  0.00     0.039 C 
ATOM     12  C   UNL     1      16.154  -7.991  39.991  1.00  0.00    -0.028 CG0
ATOM     13  G   UNL     1      14.860  -8.360  39.309  1.00  0.00     0.000 G0
ENDBRANCH   9  10
ENDBRANCH   8   9
ENDBRANCH   2   8
BRANCH   1  14
ATOM     14  C   UNL     1      12.372  -6.293  38.287  1.00  0.00     0.192 C 
ATOM     15  C   UNL     1      13.067  -7.515  37.776  1.00  0.00     0.096 C 
ATOM     16  O   UNL     1      12.725  -6.456  36.923  1.00  0.00    -0.362 OA
ATOM     17  C   UNL     1      12.198  -8.744  37.482  1.00  0.00     0.045 C 
BRANCH  15  18
ATOM     18  C   UNL     1      14.584  -7.714  37.935  1.00  0.00     0.042 C 
BRANCH  18  19
ATOM     19  C   UNL     1      14.886  -8.392  39.290  1.00  0.00     0.030 CG0
ATOM     20  G   UNL     1      16.160  -7.982  39.986  1.00  0.00     0.000 G0
ENDBRANCH  18  19
ENDBRANCH  15  18
ENDBRANCH   1  14
TORSDOF 0
ENDMDL
MODEL 8
REMARK VINA RESULT:    -4.066      2.536      5.104
REMARK INTER + INTRA:          -5.427
REMARK INTER:                  -6.130
REMARK INTRA:                   0.703
REMARK UNBOUND:                 0.066
REMARK SMILES C=C1C(=O)O[C@H]2[C@@H]1CCC(C)=CCC[C@]1(C)O[C@H]21
REMARK SMILES IDX 6 1 7 2 2 3 1 4 3 5 4 6 5 7 8 8 9 9 10 10 11 11 12 12 18 14
REMARK SMILES IDX 15 15 17 16 16 17 14 18 13 19
REMARK H PARENT
REMARK Flexibility Score: 70.00
ROOT
ATOM      1  C   UNL     1      13.859  -6.662  39.964  1.00  0.00     0.216 C 
ATOM      2  C   UNL     1      14.080  -5.195  40.462  1.00  0.00     0.070 C 
ATOM      3  C   UNL     1      15.558  -5.002  40.286  1.00  0.00     0.037 C 
ATOM      4  C   UNL     1      16.253  -3.869  40.386  1.00  0.00     0.021 C 
ATOM      5  C   UNL     1      16.120  -6.336  40.273  1.00  0.00     0.334 C 
ATOM      6  O   UNL     1      17.346  -6.619  40.331  1.00  0.00    -0.247 OA
ATOM      7  O   UNL     1      15.114  -7.285  40.232  1.00  0.00    -0.455 OA
ENDROOT
BRANCH   2   8
ATOM      8  C   UNL     1      13.137  -4.122  39.871  1.00  0.00     0.017 C 
BRANCH   8   9
ATOM      9  C   UNL     1      12.199  -3.607  40.985  1.00  0.00     0.031 C 
BRANCH   9  10
ATOM     10  C   UNL     1      10.882  -4.343  41.167  1.00  0.00    -0.077 C 
ATOM     11  C   UNL     1      10.126  -4.140  42.460  1.00  0.00     0.039 C 
ATOM     12  C   UNL     1      10.428  -5.317  40.338  1.00  0.00    -0.028 CG0
ATOM     13  G   UNL     1      10.795  -5.516  38.887  1.00  0.00     0.000 G0
ENDBRANCH   9  10
ENDBRANCH   8   9
ENDBRANCH   2   8
BRANCH   1  14
ATOM     14  C   UNL     1      13.647  -6.820  38.436  1.00  0.00     0.192 C 
ATOM     15  C   UNL     1      12.361  -7.079  37.717  1.00  0.00     0.096 C 
ATOM     16  O   UNL     1      13.150  -8.129  38.207  1.00  0.00    -0.362 OA
ATOM     17  C   UNL     1      12.397  -7.051  36.184  1.00  0.00     0.045 C 
BRANCH  15  18
ATOM     18  C   UNL     1      10.998  -6.952  38.417  1.00  0.00     0.042 C 
BRANCH  18  19
ATOM     19  C   UNL     1      10.787  -5.498  38.898  1.00  0.00     0.030 CG0
ATOM     20  G   UNL     1      10.432  -5.308  40.352  1.00  0.00     0.000 G0
ENDBRANCH  18  19
ENDBRANCH  15  18
ENDBRANCH   1  14
TORSDOF 0
ENDMDL
MODEL 9
REMARK VINA RESULT:    -3.972     10.633     12.495
REMARK INTER + INTRA:          -5.299
REMARK INTER:                  -5.307
REMARK INTRA:                   0.008
REMARK UNBOUND:                 0.066
REMARK SMILES C=C1C(=O)O[C@H]2[C@@H]1CCC(C)=CCC[C@]1(C)O[C@H]21
REMARK SMILES IDX 6 1 7 2 2 3 1 4 3 5 4 6 5 7 8 8 9 9 10 10 11 11 12 12 18 14
REMARK SMILES IDX 15 15 17 16 16 17 14 18 13 19
REMARK H PARENT
REMARK Flexibility Score: 70.00
ROOT
ATOM      1  C   UNL     1       3.325  -7.709  31.219  1.00  0.00     0.216 C 
ATOM      2  C   UNL     1       2.171  -6.766  30.743  1.00  0.00     0.070 C 
ATOM      3  C   UNL     1       1.135  -7.732  30.246  1.00  0.00     0.037 C 
ATOM      4  C   UNL     1      -0.125  -7.472  29.897  1.00  0.00     0.021 C 
ATOM      5  C   UNL     1       1.859  -8.949  29.943  1.00  0.00     0.334 C 
ATOM      6  O   UNL     1       1.398  -9.946  29.329  1.00  0.00    -0.247 OA
ATOM      7  O   UNL     1       3.166  -8.857  30.387  1.00  0.00    -0.455 OA
ENDROOT
BRANCH   2   8
ATOM      8  C   UNL     1       1.721  -5.677  31.743  1.00  0.00     0.017 C 
BRANCH   8   9
ATOM      9  C   UNL     1       2.824  -4.600  31.847  1.00  0.00     0.031 C 
BRANCH   9  10
ATOM     10  C   UNL     1       2.781  -3.690  33.064  1.00  0.00    -0.077 C 
ATOM     11  C   UNL     1       2.240  -2.290  32.886  1.00  0.00     0.039 C 
ATOM     12  C   UNL     1       3.369  -3.975  34.253  1.00  0.00    -0.028 CG0
ATOM     13  G   UNL     1       3.703  -5.344  34.795  1.00  0.00     0.000 G0
ENDBRANCH   9  10
ENDBRANCH   8   9
ENDBRANCH   2   8
BRANCH   1  14
ATOM     14  C   UNL     1       3.196  -8.239  32.670  1.00  0.00     0.192 C 
ATOM     15  C   UNL     1       3.828  -7.678  33.905  1.00  0.00     0.096 C 
ATOM     16  O   UNL     1       4.492  -8.618  33.104  1.00  0.00    -0.362 OA
ATOM     17  C   UNL     1       3.424  -8.304  35.245  1.00  0.00     0.045 C 
BRANCH  15  18
ATOM     18  C   UNL     1       4.499  -6.294  33.918  1.00  0.00     0.042 C 
BRANCH  18  19
ATOM     19  C   UNL     1       3.700  -5.331  34.825  1.00  0.00     0.030 CG0
ATOM     20  G   UNL     1       3.370  -3.975  34.253  1.00  0.00     0.000 G0
ENDBRANCH  18  19
ENDBRANCH  15  18
ENDBRANCH   1  14
TORSDOF 0
ENDMDL
