MODEL 1
REMARK VINA RESULT:    -7.128      0.000      0.000
REMARK INTER + INTRA:         -10.719
REMARK INTER:                 -10.045
REMARK INTRA:                  -0.674
REMARK UNBOUND:                -0.674
REMARK SMILES COc1ccc(-c2cc(=O)c3c(OC)c(OC)c(OC)c(OC)c3o2)cc1OC
REMARK SMILES IDX 7 1 8 2 9 3 10 4 11 5 24 6 25 7 21 8 18 9 15 10 12 11 6 12
REMARK SMILES IDX 3 13 27 14 4 15 26 16 5 17 2 18 1 19 28 20 29 21 22 22 23 23
REMARK SMILES IDX 13 24 14 25 19 26 20 27 16 28 17 29
REMARK H PARENT
REMARK Flexibility Score: inf
ROOT
ATOM      1  C   UNL     1     165.133 147.956 147.474  1.00  0.00     0.138 A 
ATOM      2  C   UNL     1     164.178 148.602 148.270  1.00  0.00     0.100 A 
ATOM      3  C   UNL     1     164.377 149.932 148.634  1.00  0.00     0.197 A 
ATOM      4  O   UNL     1     163.506 150.494 149.351  1.00  0.00    -0.289 OA
ATOM      5  C   UNL     1     165.535 150.617 148.196  1.00  0.00     0.115 A 
ATOM      6  C   UNL     1     166.437 149.906 147.377  1.00  0.00     0.188 A 
ATOM      7  O   UNL     1     166.201 148.633 147.063  1.00  0.00    -0.452 OA
ATOM      8  C   UNL     1     167.599 150.519 146.895  1.00  0.00     0.209 A 
ATOM      9  C   UNL     1     167.921 151.842 147.279  1.00  0.00     0.211 A 
ATOM     10  C   UNL     1     167.008 152.578 148.084  1.00  0.00     0.208 A 
ATOM     11  C   UNL     1     165.806 151.965 148.537  1.00  0.00     0.179 A 
ENDROOT
BRANCH   1  12
ATOM     12  C   UNL     1     164.977 146.537 147.060  1.00  0.00     0.021 A 
ATOM     13  C   UNL     1     164.736 143.833 146.278  1.00  0.00     0.160 A 
ATOM     14  C   UNL     1     166.007 144.399 146.459  1.00  0.00     0.161 A 
ATOM     15  C   UNL     1     163.591 144.617 146.502  1.00  0.00     0.051 A 
ATOM     16  C   UNL     1     166.120 145.746 146.853  1.00  0.00     0.062 A 
ATOM     17  C   UNL     1     163.710 145.952 146.892  1.00  0.00     0.016 A 
BRANCH  13  18
ATOM     18  O   UNL     1     164.655 142.490 145.878  1.00  0.00    -0.493 OA
ATOM     19  C   UNL     1     163.612 141.598 146.255  1.00  0.00     0.278 C 
ENDBRANCH  13  18
BRANCH  14  20
ATOM     20  O   UNL     1     167.134 143.592 146.235  1.00  0.00    -0.493 OA
ATOM     21  C   UNL     1     167.973 143.073 147.262  1.00  0.00     0.278 C 
ENDBRANCH  14  20
ENDBRANCH   1  12
BRANCH   8  22
ATOM     22  O   UNL     1     168.440 149.797 146.044  1.00  0.00    -0.490 OA
ATOM     23  C   UNL     1     169.477 148.957 146.540  1.00  0.00     0.278 C 
ENDBRANCH   8  22
BRANCH  11  24
ATOM     24  O   UNL     1     164.853 152.644 149.327  1.00  0.00    -0.492 OA
ATOM     25  C   UNL     1     164.947 152.985 150.706  1.00  0.00     0.278 C 
ENDBRANCH  11  24
BRANCH   9  26
ATOM     26  O   UNL     1     169.126 152.461 146.897  1.00  0.00    -0.490 OA
ATOM     27  C   UNL     1     170.383 152.391 147.561  1.00  0.00     0.279 C 
ENDBRANCH   9  26
BRANCH  10  28
ATOM     28  O   UNL     1     167.252 153.911 148.469  1.00  0.00    -0.490 OA
ATOM     29  C   UNL     1     167.988 154.370 149.599  1.00  0.00     0.278 C 
ENDBRANCH  10  28
TORSDOF 7
ENDMDL
MODEL 2
REMARK VINA RESULT:    -7.064      2.488      8.596
REMARK INTER + INTRA:         -10.628
REMARK INTER:                  -9.940
REMARK INTRA:                  -0.688
REMARK UNBOUND:                -0.674
REMARK SMILES COc1ccc(-c2cc(=O)c3c(OC)c(OC)c(OC)c(OC)c3o2)cc1OC
REMARK SMILES IDX 7 1 8 2 9 3 10 4 11 5 24 6 25 7 21 8 18 9 15 10 12 11 6 12
REMARK SMILES IDX 3 13 27 14 4 15 26 16 5 17 2 18 1 19 28 20 29 21 22 22 23 23
REMARK SMILES IDX 13 24 14 25 19 26 20 27 16 28 17 29
REMARK H PARENT
REMARK Flexibility Score: inf
ROOT
ATOM      1  C   UNL     1     165.547 152.964 149.622  1.00  0.00     0.138 A 
ATOM      2  C   UNL     1     164.483 152.054 149.652  1.00  0.00     0.100 A 
ATOM      3  C   UNL     1     164.576 150.866 148.929  1.00  0.00     0.197 A 
ATOM      4  O   UNL     1     163.607 150.061 148.969  1.00  0.00    -0.289 OA
ATOM      5  C   UNL     1     165.742 150.589 148.176  1.00  0.00     0.115 A 
ATOM      6  C   UNL     1     166.780 151.543 148.217  1.00  0.00     0.188 A 
ATOM      7  O   UNL     1     166.637 152.665 148.921  1.00  0.00    -0.452 OA
ATOM      8  C   UNL     1     167.969 151.335 147.509  1.00  0.00     0.209 A 
ATOM      9  C   UNL     1     168.120 150.196 146.685  1.00  0.00     0.211 A 
ATOM     10  C   UNL     1     167.091 149.214 146.655  1.00  0.00     0.208 A 
ATOM     11  C   UNL     1     165.901 149.408 147.410  1.00  0.00     0.179 A 
ENDROOT
BRANCH   1  12
ATOM     12  C   UNL     1     165.500 154.248 150.368  1.00  0.00     0.021 A 
ATOM     13  C   UNL     1     165.378 156.666 151.826  1.00  0.00     0.160 A 
ATOM     14  C   UNL     1     164.613 155.563 152.233  1.00  0.00     0.161 A 
ATOM     15  C   UNL     1     166.212 156.552 150.699  1.00  0.00     0.051 A 
ATOM     16  C   UNL     1     164.682 154.360 151.505  1.00  0.00     0.062 A 
ATOM     17  C   UNL     1     166.275 155.355 149.981  1.00  0.00     0.016 A 
BRANCH  13  18
ATOM     18  O   UNL     1     165.283 157.854 152.566  1.00  0.00    -0.493 OA
ATOM     19  C   UNL     1     166.254 158.896 152.547  1.00  0.00     0.278 C 
ENDBRANCH  13  18
BRANCH  14  20
ATOM     20  O   UNL     1     163.793 155.702 153.365  1.00  0.00    -0.493 OA
ATOM     21  C   UNL     1     162.873 154.716 153.822  1.00  0.00     0.278 C 
ENDBRANCH  14  20
ENDBRANCH   1  12
BRANCH   8  22
ATOM     22  O   UNL     1     168.994 152.279 147.617  1.00  0.00    -0.490 OA
ATOM     23  C   UNL     1     170.000 152.192 148.621  1.00  0.00     0.278 C 
ENDBRANCH   8  22
BRANCH  11  24
ATOM     24  O   UNL     1     164.849 148.468 147.434  1.00  0.00    -0.492 OA
ATOM     25  C   UNL     1     164.845 147.178 148.035  1.00  0.00     0.278 C 
ENDBRANCH  11  24
BRANCH   9  26
ATOM     26  O   UNL     1     169.258 149.998 145.880  1.00  0.00    -0.490 OA
ATOM     27  C   UNL     1     170.493 149.401 146.260  1.00  0.00     0.279 C 
ENDBRANCH   9  26
BRANCH  10  28
ATOM     28  O   UNL     1     167.196 148.039 145.884  1.00  0.00    -0.490 OA
ATOM     29  C   UNL     1     167.891 146.841 146.213  1.00  0.00     0.278 C 
ENDBRANCH  10  28
TORSDOF 7
ENDMDL
MODEL 3
REMARK VINA RESULT:    -6.954      0.905      3.307
REMARK INTER + INTRA:         -10.474
REMARK INTER:                  -9.763
REMARK INTRA:                  -0.711
REMARK UNBOUND:                -0.674
REMARK SMILES COc1ccc(-c2cc(=O)c3c(OC)c(OC)c(OC)c(OC)c3o2)cc1OC
REMARK SMILES IDX 7 1 8 2 9 3 10 4 11 5 24 6 25 7 21 8 18 9 15 10 12 11 6 12
REMARK SMILES IDX 3 13 27 14 4 15 26 16 5 17 2 18 1 19 28 20 29 21 22 22 23 23
REMARK SMILES IDX 13 24 14 25 19 26 20 27 16 28 17 29
REMARK H PARENT
REMARK Flexibility Score: inf
ROOT
ATOM      1  C   UNL     1     165.931 147.841 146.752  1.00  0.00     0.138 A 
ATOM      2  C   UNL     1     167.131 148.313 146.203  1.00  0.00     0.100 A 
ATOM      3  C   UNL     1     167.519 149.631 146.437  1.00  0.00     0.197 A 
ATOM      4  O   UNL     1     168.602 150.036 145.933  1.00  0.00    -0.289 OA
ATOM      5  C   UNL     1     166.704 150.477 147.226  1.00  0.00     0.115 A 
ATOM      6  C   UNL     1     165.525 149.921 147.763  1.00  0.00     0.188 A 
ATOM      7  O   UNL     1     165.197 148.656 147.504  1.00  0.00    -0.452 OA
ATOM      8  C   UNL     1     164.673 150.690 148.564  1.00  0.00     0.209 A 
ATOM      9  C   UNL     1     164.947 152.060 148.788  1.00  0.00     0.211 A 
ATOM     10  C   UNL     1     166.146 152.626 148.273  1.00  0.00     0.208 A 
ATOM     11  C   UNL     1     167.031 151.828 147.495  1.00  0.00     0.179 A 
ENDROOT
BRANCH   1  12
ATOM     12  C   UNL     1     165.464 146.449 146.530  1.00  0.00     0.021 A 
ATOM     13  C   UNL     1     164.629 143.782 146.109  1.00  0.00     0.160 A 
ATOM     14  C   UNL     1     165.997 144.098 146.102  1.00  0.00     0.161 A 
ATOM     15  C   UNL     1     163.685 144.799 146.340  1.00  0.00     0.051 A 
ATOM     16  C   UNL     1     166.406 145.427 146.317  1.00  0.00     0.062 A 
ATOM     17  C   UNL     1     164.099 146.116 146.552  1.00  0.00     0.016 A 
BRANCH  13  18
ATOM     18  O   UNL     1     164.251 142.449 145.884  1.00  0.00    -0.493 OA
ATOM     19  C   UNL     1     163.248 141.760 146.624  1.00  0.00     0.278 C 
ENDBRANCH  13  18
BRANCH  14  20
ATOM     20  O   UNL     1     166.918 143.062 145.875  1.00  0.00    -0.493 OA
ATOM     21  C   UNL     1     168.071 142.818 146.674  1.00  0.00     0.278 C 
ENDBRANCH  14  20
ENDBRANCH   1  12
BRANCH   8  22
ATOM     22  O   UNL     1     163.541 150.087 149.120  1.00  0.00    -0.490 OA
ATOM     23  C   UNL     1     163.553 149.517 150.425  1.00  0.00     0.278 C 
ENDBRANCH   8  22
BRANCH  11  24
ATOM     24  O   UNL     1     168.242 152.325 146.966  1.00  0.00    -0.492 OA
ATOM     25  C   UNL     1     169.451 152.602 147.664  1.00  0.00     0.278 C 
ENDBRANCH  11  24
BRANCH   9  26
ATOM     26  O   UNL     1     164.067 152.893 149.504  1.00  0.00    -0.490 OA
ATOM     27  C   UNL     1     164.039 153.117 150.910  1.00  0.00     0.279 C 
ENDBRANCH   9  26
BRANCH  10  28
ATOM     28  O   UNL     1     166.495 153.973 148.493  1.00  0.00    -0.490 OA
ATOM     29  C   UNL     1     167.150 154.528 149.629  1.00  0.00     0.278 C 
ENDBRANCH  10  28
TORSDOF 7
ENDMDL
MODEL 4
REMARK VINA RESULT:    -6.887      1.910      2.755
REMARK INTER + INTRA:         -10.379
REMARK INTER:                  -9.663
REMARK INTRA:                  -0.717
REMARK UNBOUND:                -0.674
REMARK SMILES COc1ccc(-c2cc(=O)c3c(OC)c(OC)c(OC)c(OC)c3o2)cc1OC
REMARK SMILES IDX 7 1 8 2 9 3 10 4 11 5 24 6 25 7 21 8 18 9 15 10 12 11 6 12
REMARK SMILES IDX 3 13 27 14 4 15 26 16 5 17 2 18 1 19 28 20 29 21 22 22 23 23
REMARK SMILES IDX 13 24 14 25 19 26 20 27 16 28 17 29
REMARK H PARENT
REMARK Flexibility Score: inf
ROOT
ATOM      1  C   UNL     1     164.226 149.351 149.125  1.00  0.00     0.138 A 
ATOM      2  C   UNL     1     163.412 149.651 150.225  1.00  0.00     0.100 A 
ATOM      3  C   UNL     1     163.614 150.841 150.922  1.00  0.00     0.197 A 
ATOM      4  O   UNL     1     162.871 151.091 151.910  1.00  0.00    -0.289 OA
ATOM      5  C   UNL     1     164.632 151.734 150.513  1.00  0.00     0.115 A 
ATOM      6  C   UNL     1     165.393 151.372 149.381  1.00  0.00     0.188 A 
ATOM      7  O   UNL     1     165.162 150.220 148.755  1.00  0.00    -0.452 OA
ATOM      8  C   UNL     1     166.411 152.209 148.908  1.00  0.00     0.209 A 
ATOM      9  C   UNL     1     166.738 153.398 149.601  1.00  0.00     0.211 A 
ATOM     10  C   UNL     1     165.962 153.786 150.728  1.00  0.00     0.208 A 
ATOM     11  C   UNL     1     164.900 152.954 151.181  1.00  0.00     0.179 A 
ENDROOT
BRANCH   1  12
ATOM     12  C   UNL     1     164.061 148.095 148.349  1.00  0.00     0.021 A 
ATOM     13  C   UNL     1     163.800 145.711 146.854  1.00  0.00     0.160 A 
ATOM     14  C   UNL     1     164.966 146.484 146.744  1.00  0.00     0.161 A 
ATOM     15  C   UNL     1     162.774 146.128 147.721  1.00  0.00     0.051 A 
ATOM     16  C   UNL     1     165.091 147.668 147.495  1.00  0.00     0.062 A 
ATOM     17  C   UNL     1     162.905 147.303 148.463  1.00  0.00     0.016 A 
BRANCH  13  18
ATOM     18  O   UNL     1     163.700 144.540 146.087  1.00  0.00    -0.493 OA
ATOM     19  C   UNL     1     163.305 143.272 146.601  1.00  0.00     0.278 C 
ENDBRANCH  13  18
BRANCH  14  20
ATOM     20  O   UNL     1     165.977 146.042 145.875  1.00  0.00    -0.493 OA
ATOM     21  C   UNL     1     167.165 145.376 146.291  1.00  0.00     0.278 C 
ENDBRANCH  14  20
ENDBRANCH   1  12
BRANCH   8  22
ATOM     22  O   UNL     1     167.106 151.840 147.753  1.00  0.00    -0.490 OA
ATOM     23  C   UNL     1     166.625 152.150 146.449  1.00  0.00     0.278 C 
ENDBRANCH   8  22
BRANCH  11  24
ATOM     24  O   UNL     1     164.086 153.287 152.284  1.00  0.00    -0.492 OA
ATOM     25  C   UNL     1     164.486 153.484 153.636  1.00  0.00     0.278 C 
ENDBRANCH  11  24
BRANCH   9  26
ATOM     26  O   UNL     1     167.817 154.216 149.216  1.00  0.00    -0.490 OA
ATOM     27  C   UNL     1     169.204 153.971 149.419  1.00  0.00     0.279 C 
ENDBRANCH   9  26
BRANCH  10  28
ATOM     28  O   UNL     1     166.213 154.977 151.438  1.00  0.00    -0.490 OA
ATOM     29  C   UNL     1     165.704 156.278 151.164  1.00  0.00     0.278 C 
ENDBRANCH  10  28
TORSDOF 7
ENDMDL
MODEL 5
REMARK VINA RESULT:    -6.875      8.413     11.703
REMARK INTER + INTRA:         -10.362
REMARK INTER:                  -9.579
REMARK INTRA:                  -0.783
REMARK UNBOUND:                -0.674
REMARK SMILES COc1ccc(-c2cc(=O)c3c(OC)c(OC)c(OC)c(OC)c3o2)cc1OC
REMARK SMILES IDX 7 1 8 2 9 3 10 4 11 5 24 6 25 7 21 8 18 9 15 10 12 11 6 12
REMARK SMILES IDX 3 13 27 14 4 15 26 16 5 17 2 18 1 19 28 20 29 21 22 22 23 23
REMARK SMILES IDX 13 24 14 25 19 26 20 27 16 28 17 29
REMARK H PARENT
REMARK Flexibility Score: inf
ROOT
ATOM      1  C   UNL     1     169.611 145.298 154.378  1.00  0.00     0.138 A 
ATOM      2  C   UNL     1     168.914 145.146 153.172  1.00  0.00     0.100 A 
ATOM      3  C   UNL     1     169.405 144.273 152.203  1.00  0.00     0.197 A 
ATOM      4  O   UNL     1     168.763 144.152 151.124  1.00  0.00    -0.289 OA
ATOM      5  C   UNL     1     170.595 143.548 152.445  1.00  0.00     0.115 A 
ATOM      6  C   UNL     1     171.225 143.736 153.693  1.00  0.00     0.188 A 
ATOM      7  O   UNL     1     170.716 144.588 154.582  1.00  0.00    -0.452 OA
ATOM      8  C   UNL     1     172.399 143.045 154.012  1.00  0.00     0.209 A 
ATOM      9  C   UNL     1     173.011 142.199 153.058  1.00  0.00     0.211 A 
ATOM     10  C   UNL     1     172.374 141.981 151.806  1.00  0.00     0.208 A 
ATOM     11  C   UNL     1     171.156 142.652 151.502  1.00  0.00     0.179 A 
ENDROOT
BRANCH   1  12
ATOM     12  C   UNL     1     169.139 146.219 155.444  1.00  0.00     0.021 A 
ATOM     13  C   UNL     1     168.294 147.984 157.483  1.00  0.00     0.160 A 
ATOM     14  C   UNL     1     169.661 147.724 157.302  1.00  0.00     0.161 A 
ATOM     15  C   UNL     1     167.356 147.370 156.634  1.00  0.00     0.051 A 
ATOM     16  C   UNL     1     170.075 146.848 156.281  1.00  0.00     0.062 A 
ATOM     17  C   UNL     1     167.773 146.502 155.624  1.00  0.00     0.016 A 
BRANCH  13  18
ATOM     18  O   UNL     1     167.911 148.856 158.513  1.00  0.00    -0.493 OA
ATOM     19  C   UNL     1     166.906 148.569 159.480  1.00  0.00     0.278 C 
ENDBRANCH  13  18
BRANCH  14  20
ATOM     20  O   UNL     1     170.578 148.355 158.159  1.00  0.00    -0.493 OA
ATOM     21  C   UNL     1     171.618 147.684 158.865  1.00  0.00     0.278 C 
ENDBRANCH  14  20
ENDBRANCH   1  12
BRANCH   8  22
ATOM     22  O   UNL     1     172.963 143.220 155.279  1.00  0.00    -0.490 OA
ATOM     23  C   UNL     1     172.709 142.319 156.351  1.00  0.00     0.278 C 
ENDBRANCH   8  22
BRANCH  11  24
ATOM     24  O   UNL     1     170.467 142.470 150.284  1.00  0.00    -0.492 OA
ATOM     25  C   UNL     1     169.710 141.338 149.871  1.00  0.00     0.278 C 
ENDBRANCH  11  24
BRANCH   9  26
ATOM     26  O   UNL     1     174.244 141.563 153.302  1.00  0.00    -0.490 OA
ATOM     27  C   UNL     1     175.542 142.144 153.251  1.00  0.00     0.279 C 
ENDBRANCH   9  26
BRANCH  10  28
ATOM     28  O   UNL     1     172.912 141.121 150.828  1.00  0.00    -0.490 OA
ATOM     29  C   UNL     1     173.946 141.406 149.892  1.00  0.00     0.278 C 
ENDBRANCH  10  28
TORSDOF 7
ENDMDL
MODEL 6
REMARK VINA RESULT:    -6.866      1.785      2.370
REMARK INTER + INTRA:         -10.349
REMARK INTER:                  -9.736
REMARK INTRA:                  -0.613
REMARK UNBOUND:                -0.674
REMARK SMILES COc1ccc(-c2cc(=O)c3c(OC)c(OC)c(OC)c(OC)c3o2)cc1OC
REMARK SMILES IDX 7 1 8 2 9 3 10 4 11 5 24 6 25 7 21 8 18 9 15 10 12 11 6 12
REMARK SMILES IDX 3 13 27 14 4 15 26 16 5 17 2 18 1 19 28 20 29 21 22 22 23 23
REMARK SMILES IDX 13 24 14 25 19 26 20 27 16 28 17 29
REMARK H PARENT
REMARK Flexibility Score: inf
ROOT
ATOM      1  C   UNL     1     166.458 147.282 146.521  1.00  0.00     0.138 A 
ATOM      2  C   UNL     1     165.535 148.337 146.523  1.00  0.00     0.100 A 
ATOM      3  C   UNL     1     165.997 149.650 146.590  1.00  0.00     0.197 A 
ATOM      4  O   UNL     1     165.150 150.584 146.591  1.00  0.00    -0.289 OA
ATOM      5  C   UNL     1     167.387 149.906 146.652  1.00  0.00     0.115 A 
ATOM      6  C   UNL     1     168.252 148.792 146.620  1.00  0.00     0.188 A 
ATOM      7  O   UNL     1     167.758 147.557 146.561  1.00  0.00    -0.452 OA
ATOM      8  C   UNL     1     169.641 148.965 146.665  1.00  0.00     0.209 A 
ATOM      9  C   UNL     1     170.195 150.258 146.813  1.00  0.00     0.211 A 
ATOM     10  C   UNL     1     169.335 151.390 146.821  1.00  0.00     0.208 A 
ATOM     11  C   UNL     1     167.926 151.214 146.732  1.00  0.00     0.179 A 
ENDROOT
BRANCH   1  12
ATOM     12  C   UNL     1     166.023 145.862 146.458  1.00  0.00     0.021 A 
ATOM     13  C   UNL     1     165.243 143.148 146.367  1.00  0.00     0.160 A 
ATOM     14  C   UNL     1     166.489 143.501 146.907  1.00  0.00     0.161 A 
ATOM     15  C   UNL     1     164.386 144.155 145.887  1.00  0.00     0.051 A 
ATOM     16  C   UNL     1     166.869 144.856 146.953  1.00  0.00     0.062 A 
ATOM     17  C   UNL     1     164.770 145.496 145.936  1.00  0.00     0.016 A 
BRANCH  13  18
ATOM     18  O   UNL     1     164.894 141.789 146.327  1.00  0.00    -0.493 OA
ATOM     19  C   UNL     1     163.634 141.293 145.886  1.00  0.00     0.278 C 
ENDBRANCH  13  18
BRANCH  14  20
ATOM     20  O   UNL     1     167.322 142.477 147.384  1.00  0.00    -0.493 OA
ATOM     21  C   UNL     1     167.837 142.407 148.710  1.00  0.00     0.278 C 
ENDBRANCH  14  20
ENDBRANCH   1  12
BRANCH   8  22
ATOM     22  O   UNL     1     170.464 147.839 146.578  1.00  0.00    -0.490 OA
ATOM     23  C   UNL     1     170.776 147.041 147.715  1.00  0.00     0.278 C 
ENDBRANCH   8  22
BRANCH  11  24
ATOM     24  O   UNL     1     167.019 152.295 146.722  1.00  0.00    -0.492 OA
ATOM     25  C   UNL     1     166.706 153.181 147.791  1.00  0.00     0.278 C 
ENDBRANCH  11  24
BRANCH   9  26
ATOM     26  O   UNL     1     171.579 150.467 146.962  1.00  0.00    -0.490 OA
ATOM     27  C   UNL     1     172.362 150.279 148.136  1.00  0.00     0.279 C 
ENDBRANCH   9  26
BRANCH  10  28
ATOM     28  O   UNL     1     169.827 152.707 146.928  1.00  0.00    -0.490 OA
ATOM     29  C   UNL     1     170.333 153.355 148.090  1.00  0.00     0.278 C 
ENDBRANCH  10  28
TORSDOF 7
ENDMDL
MODEL 7
REMARK VINA RESULT:    -6.643      3.142      8.462
REMARK INTER + INTRA:         -10.035
REMARK INTER:                  -9.624
REMARK INTRA:                  -0.411
REMARK UNBOUND:                -0.674
REMARK SMILES COc1ccc(-c2cc(=O)c3c(OC)c(OC)c(OC)c(OC)c3o2)cc1OC
REMARK SMILES IDX 7 1 8 2 9 3 10 4 11 5 24 6 25 7 21 8 18 9 15 10 12 11 6 12
REMARK SMILES IDX 3 13 27 14 4 15 26 16 5 17 2 18 1 19 28 20 29 21 22 22 23 23
REMARK SMILES IDX 13 24 14 25 19 26 20 27 16 28 17 29
REMARK H PARENT
REMARK Flexibility Score: inf
ROOT
ATOM      1  C   UNL     1     167.288 153.143 150.204  1.00  0.00     0.138 A 
ATOM      2  C   UNL     1     168.660 153.417 150.258  1.00  0.00     0.100 A 
ATOM      3  C   UNL     1     169.528 152.742 149.403  1.00  0.00     0.197 A 
ATOM      4  O   UNL     1     170.760 153.004 149.469  1.00  0.00    -0.289 OA
ATOM      5  C   UNL     1     169.018 151.790 148.489  1.00  0.00     0.115 A 
ATOM      6  C   UNL     1     167.622 151.587 148.477  1.00  0.00     0.188 A 
ATOM      7  O   UNL     1     166.838 152.256 149.321  1.00  0.00    -0.452 OA
ATOM      8  C   UNL     1     167.041 150.672 147.593  1.00  0.00     0.209 A 
ATOM      9  C   UNL     1     167.853 149.884 146.745  1.00  0.00     0.211 A 
ATOM     10  C   UNL     1     169.259 150.096 146.728  1.00  0.00     0.208 A 
ATOM     11  C   UNL     1     169.843 151.059 147.598  1.00  0.00     0.179 A 
ENDROOT
BRANCH   1  12
ATOM     12  C   UNL     1     166.317 153.827 151.096  1.00  0.00     0.021 A 
ATOM     13  C   UNL     1     164.486 155.096 152.835  1.00  0.00     0.160 A 
ATOM     14  C   UNL     1     165.210 153.977 153.275  1.00  0.00     0.161 A 
ATOM     15  C   UNL     1     164.690 155.584 151.532  1.00  0.00     0.051 A 
ATOM     16  C   UNL     1     166.124 153.353 152.405  1.00  0.00     0.062 A 
ATOM     17  C   UNL     1     165.598 154.959 150.674  1.00  0.00     0.016 A 
BRANCH  13  18
ATOM     18  O   UNL     1     163.576 155.693 153.722  1.00  0.00    -0.493 OA
ATOM     19  C   UNL     1     162.356 155.096 154.147  1.00  0.00     0.278 C 
ENDBRANCH  13  18
BRANCH  14  20
ATOM     20  O   UNL     1     164.991 153.515 154.582  1.00  0.00    -0.493 OA
ATOM     21  C   UNL     1     165.613 152.364 155.147  1.00  0.00     0.278 C 
ENDBRANCH  14  20
ENDBRANCH   1  12
BRANCH   8  22
ATOM     22  O   UNL     1     165.650 150.538 147.577  1.00  0.00    -0.490 OA
ATOM     23  C   UNL     1     164.821 151.360 146.761  1.00  0.00     0.278 C 
ENDBRANCH   8  22
BRANCH  11  24
ATOM     24  O   UNL     1     171.228 151.327 147.623  1.00  0.00    -0.492 OA
ATOM     25  C   UNL     1     172.271 150.485 148.102  1.00  0.00     0.278 C 
ENDBRANCH  11  24
BRANCH   9  26
ATOM     26  O   UNL     1     167.317 148.883 145.912  1.00  0.00    -0.490 OA
ATOM     27  C   UNL     1     167.058 147.525 146.248  1.00  0.00     0.279 C 
ENDBRANCH   9  26
BRANCH  10  28
ATOM     28  O   UNL     1     170.119 149.371 145.879  1.00  0.00    -0.490 OA
ATOM     29  C   UNL     1     170.655 148.069 146.088  1.00  0.00     0.278 C 
ENDBRANCH  10  28
TORSDOF 7
ENDMDL
MODEL 8
REMARK VINA RESULT:    -6.619      3.065      8.718
REMARK INTER + INTRA:         -10.001
REMARK INTER:                  -9.354
REMARK INTRA:                  -0.646
REMARK UNBOUND:                -0.674
REMARK SMILES COc1ccc(-c2cc(=O)c3c(OC)c(OC)c(OC)c(OC)c3o2)cc1OC
REMARK SMILES IDX 7 1 8 2 9 3 10 4 11 5 24 6 25 7 21 8 18 9 15 10 12 11 6 12
REMARK SMILES IDX 3 13 27 14 4 15 26 16 5 17 2 18 1 19 28 20 29 21 22 22 23 23
REMARK SMILES IDX 13 24 14 25 19 26 20 27 16 28 17 29
REMARK H PARENT
REMARK Flexibility Score: inf
ROOT
ATOM      1  C   UNL     1     166.974 153.124 150.215  1.00  0.00     0.138 A 
ATOM      2  C   UNL     1     168.340 153.429 150.286  1.00  0.00     0.100 A 
ATOM      3  C   UNL     1     169.231 152.783 149.431  1.00  0.00     0.197 A 
ATOM      4  O   UNL     1     170.456 153.072 149.512  1.00  0.00    -0.289 OA
ATOM      5  C   UNL     1     168.752 151.831 148.502  1.00  0.00     0.115 A 
ATOM      6  C   UNL     1     167.361 151.596 148.474  1.00  0.00     0.188 A 
ATOM      7  O   UNL     1     166.553 152.238 149.318  1.00  0.00    -0.452 OA
ATOM      8  C   UNL     1     166.808 150.678 147.574  1.00  0.00     0.209 A 
ATOM      9  C   UNL     1     167.647 149.919 146.724  1.00  0.00     0.211 A 
ATOM     10  C   UNL     1     169.048 150.163 146.724  1.00  0.00     0.208 A 
ATOM     11  C   UNL     1     169.601 151.129 147.611  1.00  0.00     0.179 A 
ENDROOT
BRANCH   1  12
ATOM     12  C   UNL     1     165.979 153.776 151.105  1.00  0.00     0.021 A 
ATOM     13  C   UNL     1     164.112 155.065 152.789  1.00  0.00     0.160 A 
ATOM     14  C   UNL     1     165.191 155.787 152.257  1.00  0.00     0.161 A 
ATOM     15  C   UNL     1     163.964 153.705 152.467  1.00  0.00     0.051 A 
ATOM     16  C   UNL     1     166.115 155.139 151.415  1.00  0.00     0.062 A 
ATOM     17  C   UNL     1     164.884 153.069 151.631  1.00  0.00     0.016 A 
BRANCH  13  18
ATOM     18  O   UNL     1     163.211 155.736 153.631  1.00  0.00    -0.493 OA
ATOM     19  C   UNL     1     162.245 155.091 154.455  1.00  0.00     0.278 C 
ENDBRANCH  13  18
BRANCH  14  20
ATOM     20  O   UNL     1     165.313 157.146 152.590  1.00  0.00    -0.493 OA
ATOM     21  C   UNL     1     165.644 158.178 151.666  1.00  0.00     0.278 C 
ENDBRANCH  14  20
ENDBRANCH   1  12
BRANCH   8  22
ATOM     22  O   UNL     1     165.421 150.513 147.542  1.00  0.00    -0.490 OA
ATOM     23  C   UNL     1     164.596 151.226 146.627  1.00  0.00     0.278 C 
ENDBRANCH   8  22
BRANCH  11  24
ATOM     24  O   UNL     1     170.980 151.428 147.652  1.00  0.00    -0.492 OA
ATOM     25  C   UNL     1     172.043 150.583 148.077  1.00  0.00     0.278 C 
ENDBRANCH  11  24
BRANCH   9  26
ATOM     26  O   UNL     1     167.142 148.916 145.875  1.00  0.00    -0.490 OA
ATOM     27  C   UNL     1     166.722 147.605 146.238  1.00  0.00     0.279 C 
ENDBRANCH   9  26
BRANCH  10  28
ATOM     28  O   UNL     1     169.932 149.468 145.875  1.00  0.00    -0.490 OA
ATOM     29  C   UNL     1     170.410 148.135 146.020  1.00  0.00     0.278 C 
ENDBRANCH  10  28
TORSDOF 7
ENDMDL
MODEL 9
REMARK VINA RESULT:    -6.545      8.166      8.844
REMARK INTER + INTRA:          -9.897
REMARK INTER:                  -9.190
REMARK INTRA:                  -0.707
REMARK UNBOUND:                -0.674
REMARK SMILES COc1ccc(-c2cc(=O)c3c(OC)c(OC)c(OC)c(OC)c3o2)cc1OC
REMARK SMILES IDX 7 1 8 2 9 3 10 4 11 5 24 6 25 7 21 8 18 9 15 10 12 11 6 12
REMARK SMILES IDX 3 13 27 14 4 15 26 16 5 17 2 18 1 19 28 20 29 21 22 22 23 23
REMARK SMILES IDX 13 24 14 25 19 26 20 27 16 28 17 29
REMARK H PARENT
REMARK Flexibility Score: inf
ROOT
ATOM      1  C   UNL     1     169.101 145.157 153.011  1.00  0.00     0.138 A 
ATOM      2  C   UNL     1     168.035 145.737 153.711  1.00  0.00     0.100 A 
ATOM      3  C   UNL     1     168.259 146.276 154.977  1.00  0.00     0.197 A 
ATOM      4  O   UNL     1     167.286 146.792 155.589  1.00  0.00    -0.289 OA
ATOM      5  C   UNL     1     169.555 146.235 155.541  1.00  0.00     0.115 A 
ATOM      6  C   UNL     1     170.581 145.656 154.765  1.00  0.00     0.188 A 
ATOM      7  O   UNL     1     170.312 145.151 153.562  1.00  0.00    -0.452 OA
ATOM      8  C   UNL     1     171.893 145.590 155.249  1.00  0.00     0.209 A 
ATOM      9  C   UNL     1     172.195 146.039 156.555  1.00  0.00     0.211 A 
ATOM     10  C   UNL     1     171.175 146.647 157.339  1.00  0.00     0.208 A 
ATOM     11  C   UNL     1     169.852 146.752 156.826  1.00  0.00     0.179 A 
ENDROOT
BRANCH   1  12
ATOM     12  C   UNL     1     168.921 144.562 151.662  1.00  0.00     0.021 A 
ATOM     13  C   UNL     1     168.602 143.476 149.073  1.00  0.00     0.160 A 
ATOM     14  C   UNL     1     169.106 144.776 149.230  1.00  0.00     0.161 A 
ATOM     15  C   UNL     1     168.271 142.719 150.211  1.00  0.00     0.051 A 
ATOM     16  C   UNL     1     169.266 145.309 150.523  1.00  0.00     0.062 A 
ATOM     17  C   UNL     1     168.433 143.255 151.491  1.00  0.00     0.016 A 
BRANCH  13  18
ATOM     18  O   UNL     1     168.445 142.974 147.772  1.00  0.00    -0.493 OA
ATOM     19  C   UNL     1     167.198 142.872 147.092  1.00  0.00     0.278 C 
ENDBRANCH  13  18
BRANCH  14  20
ATOM     20  O   UNL     1     169.433 145.507 148.077  1.00  0.00    -0.493 OA
ATOM     21  C   UNL     1     170.753 145.911 147.724  1.00  0.00     0.278 C 
ENDBRANCH  14  20
ENDBRANCH   1  12
BRANCH   8  22
ATOM     22  O   UNL     1     172.890 145.057 154.428  1.00  0.00    -0.490 OA
ATOM     23  C   UNL     1     173.277 143.689 154.499  1.00  0.00     0.278 C 
ENDBRANCH   8  22
BRANCH  11  24
ATOM     24  O   UNL     1     168.799 147.355 157.546  1.00  0.00    -0.492 OA
ATOM     25  C   UNL     1     168.536 148.745 157.709  1.00  0.00     0.278 C 
ENDBRANCH  11  24
BRANCH   9  26
ATOM     26  O   UNL     1     173.478 145.901 157.117  1.00  0.00    -0.490 OA
ATOM     27  C   UNL     1     174.585 146.785 156.976  1.00  0.00     0.279 C 
ENDBRANCH   9  26
BRANCH  10  28
ATOM     28  O   UNL     1     171.421 147.150 158.633  1.00  0.00    -0.490 OA
ATOM     29  C   UNL     1     171.903 148.441 158.988  1.00  0.00     0.278 C 
ENDBRANCH  10  28
TORSDOF 7
ENDMDL
