MODEL 1
REMARK VINA RESULT:    -2.253      0.000      0.000
REMARK INTER + INTRA:          -5.804
REMARK INTER:                  -4.887
REMARK INTRA:                  -0.917
REMARK UNBOUND:                -0.917
REMARK SMILES CCCCCCCCCCCCCCCCCCCCCC(=O)[O-]
REMARK SMILES IDX 12 1 11 2 10 3 9 4 8 5 7 6 6 7 5 8 4 9 3 10 2 11 1 12 13 13
REMARK SMILES IDX 14 14 15 15 16 16 17 17 18 18 19 19 20 20 21 21 22 22 23 23
REMARK SMILES IDX 24 24
REMARK H PARENT
REMARK Flexibility Score: inf
ROOT
ATOM      1  C   UNL     1       3.305   2.235  15.823  1.00  0.00     0.000 C 
ENDROOT
BRANCH   1   2
ATOM      2  C   UNL     1       3.244   3.561  15.042  1.00  0.00     0.000 C 
BRANCH   2   3
ATOM      3  C   UNL     1       4.476   3.784  14.149  1.00  0.00     0.000 C 
BRANCH   3   4
ATOM      4  C   UNL     1       4.456   2.919  12.875  1.00  0.00    -0.000 C 
BRANCH   4   5
ATOM      5  C   UNL     1       4.258   1.406  13.108  1.00  0.00    -0.000 C 
BRANCH   5   6
ATOM      6  C   UNL     1       5.533   0.550  13.005  1.00  0.00    -0.000 C 
BRANCH   6   7
ATOM      7  C   UNL     1       5.234  -0.954  12.888  1.00  0.00    -0.000 C 
BRANCH   7   8
ATOM      8  C   UNL     1       3.762  -1.289  13.180  1.00  0.00    -0.000 C 
BRANCH   8   9
ATOM      9  C   UNL     1       3.584  -2.123  14.461  1.00  0.00    -0.000 C 
BRANCH   9  10
ATOM     10  C   UNL     1       2.317  -1.722  15.246  1.00  0.00    -0.000 C 
BRANCH  10  11
ATOM     11  C   UNL     1       1.789  -0.323  14.885  1.00  0.00    -0.003 C 
ATOM     12  C   UNL     1       0.264  -0.226  14.940  1.00  0.00     0.004 C 
ENDBRANCH  10  11
ENDBRANCH   9  10
ENDBRANCH   8   9
ENDBRANCH   7   8
ENDBRANCH   6   7
ENDBRANCH   5   6
ENDBRANCH   4   5
ENDBRANCH   3   4
ENDBRANCH   2   3
ENDBRANCH   1   2
BRANCH   1  13
ATOM     13  C   UNL     1       4.442   2.137  16.860  1.00  0.00     0.000 C 
BRANCH  13  14
ATOM     14  C   UNL     1       5.810   1.713  16.290  1.00  0.00     0.000 C 
BRANCH  14  15
ATOM     15  C   UNL     1       5.999   0.192  16.130  1.00  0.00     0.000 C 
BRANCH  15  16
ATOM     16  C   UNL     1       5.156  -0.678  17.084  1.00  0.00     0.000 C 
BRANCH  16  17
ATOM     17  C   UNL     1       5.945  -1.738  17.875  1.00  0.00     0.000 C 
BRANCH  17  18
ATOM     18  C   UNL     1       6.201  -1.324  19.334  1.00  0.00     0.000 C 
BRANCH  18  19
ATOM     19  C   UNL     1       5.681   0.088  19.656  1.00  0.00     0.000 C 
BRANCH  19  20
ATOM     20  C   UNL     1       4.148   0.229  19.721  1.00  0.00     0.006 C 
BRANCH  20  21
ATOM     21  C   UNL     1       3.650   1.686  19.689  1.00  0.00     0.053 C 
BRANCH  21  22
ATOM     22  C   UNL     1       2.155   1.783  19.746  1.00  0.00     0.041 C 
ATOM     23  O   UNL     1       1.497   2.037  18.703  1.00  0.00    -0.550 OA
ATOM     24  O   UNL     1       1.485   1.549  20.939  1.00  0.00    -0.550 OA
ENDBRANCH  21  22
ENDBRANCH  20  21
ENDBRANCH  19  20
ENDBRANCH  18  19
ENDBRANCH  17  18
ENDBRANCH  16  17
ENDBRANCH  15  16
ENDBRANCH  14  15
ENDBRANCH  13  14
ENDBRANCH   1  13
TORSDOF 20
ENDMDL
MODEL 2
REMARK VINA RESULT:    -2.061      1.615      5.442
REMARK INTER + INTRA:          -5.388
REMARK INTER:                  -3.572
REMARK INTRA:                  -1.815
REMARK UNBOUND:                -0.917
REMARK SMILES CCCCCCCCCCCCCCCCCCCCCC(=O)[O-]
REMARK SMILES IDX 12 1 11 2 10 3 9 4 8 5 7 6 6 7 5 8 4 9 3 10 2 11 1 12 13 13
REMARK SMILES IDX 14 14 15 15 16 16 17 17 18 18 19 19 20 20 21 21 22 22 23 23
REMARK SMILES IDX 24 24
REMARK H PARENT
REMARK Flexibility Score: inf
ROOT
ATOM      1  C   UNL     1       4.421   2.235  16.203  1.00  0.00     0.000 C 
ENDROOT
BRANCH   1   2
ATOM      2  C   UNL     1       5.873   1.758  16.395  1.00  0.00     0.000 C 
BRANCH   2   3
ATOM      3  C   UNL     1       6.103   0.327  15.880  1.00  0.00     0.000 C 
BRANCH   3   4
ATOM      4  C   UNL     1       5.180  -0.706  16.552  1.00  0.00    -0.000 C 
BRANCH   4   5
ATOM      5  C   UNL     1       5.893  -1.759  17.426  1.00  0.00    -0.000 C 
BRANCH   5   6
ATOM      6  C   UNL     1       6.092  -1.367  18.901  1.00  0.00    -0.000 C 
BRANCH   6   7
ATOM      7  C   UNL     1       4.849  -0.700  19.513  1.00  0.00    -0.000 C 
BRANCH   7   8
ATOM      8  C   UNL     1       5.008   0.822  19.663  1.00  0.00    -0.000 C 
BRANCH   8   9
ATOM      9  C   UNL     1       3.704   1.588  19.378  1.00  0.00    -0.000 C 
BRANCH   9  10
ATOM     10  C   UNL     1       2.568   1.183  20.341  1.00  0.00    -0.000 C 
BRANCH  10  11
ATOM     11  C   UNL     1       1.206   1.800  19.978  1.00  0.00    -0.003 C 
ATOM     12  C   UNL     1       0.893   3.068  20.771  1.00  0.00     0.004 C 
ENDBRANCH  10  11
ENDBRANCH   9  10
ENDBRANCH   8   9
ENDBRANCH   7   8
ENDBRANCH   6   7
ENDBRANCH   5   6
ENDBRANCH   4   5
ENDBRANCH   3   4
ENDBRANCH   2   3
ENDBRANCH   1   2
BRANCH   1  13
ATOM     13  C   UNL     1       4.264   3.569  15.445  1.00  0.00     0.000 C 
BRANCH  13  14
ATOM     14  C   UNL     1       3.672   3.448  14.027  1.00  0.00     0.000 C 
BRANCH  14  15
ATOM     15  C   UNL     1       4.712   3.234  12.909  1.00  0.00     0.000 C 
BRANCH  15  16
ATOM     16  C   UNL     1       5.364   1.837  12.880  1.00  0.00     0.000 C 
BRANCH  16  17
ATOM     17  C   UNL     1       4.380   0.653  12.896  1.00  0.00     0.000 C 
BRANCH  17  18
ATOM     18  C   UNL     1       5.089  -0.712  12.875  1.00  0.00     0.000 C 
BRANCH  18  19
ATOM     19  C   UNL     1       4.293  -1.811  13.599  1.00  0.00     0.000 C 
BRANCH  19  20
ATOM     20  C   UNL     1       2.760  -1.700  13.489  1.00  0.00     0.006 C 
BRANCH  20  21
ATOM     21  C   UNL     1       2.034  -1.663  14.847  1.00  0.00     0.053 C 
BRANCH  21  22
ATOM     22  C   UNL     1       1.365  -0.346  15.103  1.00  0.00     0.041 C 
ATOM     23  O   UNL     1       2.048   0.710  15.167  1.00  0.00    -0.550 OA
ATOM     24  O   UNL     1      -0.017  -0.277  15.226  1.00  0.00    -0.550 OA
ENDBRANCH  21  22
ENDBRANCH  20  21
ENDBRANCH  19  20
ENDBRANCH  18  19
ENDBRANCH  17  18
ENDBRANCH  16  17
ENDBRANCH  15  16
ENDBRANCH  14  15
ENDBRANCH  13  14
ENDBRANCH   1  13
TORSDOF 20
ENDMDL
MODEL 3
REMARK VINA RESULT:    -1.995      1.988      5.474
REMARK INTER + INTRA:          -5.244
REMARK INTER:                  -2.579
REMARK INTRA:                  -2.665
REMARK UNBOUND:                -0.917
REMARK SMILES CCCCCCCCCCCCCCCCCCCCCC(=O)[O-]
REMARK SMILES IDX 12 1 11 2 10 3 9 4 8 5 7 6 6 7 5 8 4 9 3 10 2 11 1 12 13 13
REMARK SMILES IDX 14 14 15 15 16 16 17 17 18 18 19 19 20 20 21 21 22 22 23 23
REMARK SMILES IDX 24 24
REMARK H PARENT
REMARK Flexibility Score: inf
ROOT
ATOM      1  C   UNL     1       6.621   1.308  15.132  1.00  0.00     0.000 C 
ENDROOT
BRANCH   1   2
ATOM      2  C   UNL     1       6.171   0.560  16.401  1.00  0.00     0.000 C 
BRANCH   2   3
ATOM      3  C   UNL     1       5.876  -0.927  16.143  1.00  0.00     0.000 C 
BRANCH   3   4
ATOM      4  C   UNL     1       4.787  -1.491  17.076  1.00  0.00    -0.000 C 
BRANCH   4   5
ATOM      5  C   UNL     1       5.299  -2.077  18.408  1.00  0.00    -0.000 C 
BRANCH   5   6
ATOM      6  C   UNL     1       6.569  -1.417  18.975  1.00  0.00    -0.000 C 
BRANCH   6   7
ATOM      7  C   UNL     1       6.259  -0.291  19.976  1.00  0.00    -0.000 C 
BRANCH   7   8
ATOM      8  C   UNL     1       4.765   0.071  20.015  1.00  0.00    -0.000 C 
BRANCH   8   9
ATOM      9  C   UNL     1       4.411   1.242  19.081  1.00  0.00    -0.000 C 
BRANCH   9  10
ATOM     10  C   UNL     1       3.368   2.191  19.706  1.00  0.00    -0.000 C 
BRANCH  10  11
ATOM     11  C   UNL     1       1.930   1.646  19.651  1.00  0.00    -0.003 C 
ATOM     12  C   UNL     1       0.973   2.385  20.586  1.00  0.00     0.004 C 
ENDBRANCH  10  11
ENDBRANCH   9  10
ENDBRANCH   8   9
ENDBRANCH   7   8
ENDBRANCH   6   7
ENDBRANCH   5   6
ENDBRANCH   4   5
ENDBRANCH   3   4
ENDBRANCH   2   3
ENDBRANCH   1   2
BRANCH   1  13
ATOM     13  C   UNL     1       6.399   0.547  13.809  1.00  0.00     0.000 C 
BRANCH  13  14
ATOM     14  C   UNL     1       5.338   1.160  12.875  1.00  0.00     0.000 C 
BRANCH  14  15
ATOM     15  C   UNL     1       3.973   0.444  12.890  1.00  0.00     0.000 C 
BRANCH  15  16
ATOM     16  C   UNL     1       4.032  -1.072  13.161  1.00  0.00     0.000 C 
BRANCH  16  17
ATOM     17  C   UNL     1       2.853  -1.640  13.973  1.00  0.00     0.000 C 
BRANCH  17  18
ATOM     18  C   UNL     1       1.781  -0.583  14.286  1.00  0.00     0.000 C 
BRANCH  18  19
ATOM     19  C   UNL     1       1.997   0.105  15.645  1.00  0.00     0.000 C 
BRANCH  19  20
ATOM     20  C   UNL     1       1.980   1.646  15.616  1.00  0.00     0.006 C 
BRANCH  20  21
ATOM     21  C   UNL     1       3.333   2.294  15.966  1.00  0.00     0.053 C 
BRANCH  21  22
ATOM     22  C   UNL     1       3.614   3.515  15.140  1.00  0.00     0.041 C 
ATOM     23  O   UNL     1       4.580   4.267  15.432  1.00  0.00    -0.550 OA
ATOM     24  O   UNL     1       2.837   3.797  14.024  1.00  0.00    -0.550 OA
ENDBRANCH  21  22
ENDBRANCH  20  21
ENDBRANCH  19  20
ENDBRANCH  18  19
ENDBRANCH  17  18
ENDBRANCH  16  17
ENDBRANCH  15  16
ENDBRANCH  14  15
ENDBRANCH  13  14
ENDBRANCH   1  13
TORSDOF 20
ENDMDL
MODEL 4
REMARK VINA RESULT:    -1.922      0.941      3.171
REMARK INTER + INTRA:          -5.088
REMARK INTER:                  -2.693
REMARK INTRA:                  -2.395
REMARK UNBOUND:                -0.917
REMARK SMILES CCCCCCCCCCCCCCCCCCCCCC(=O)[O-]
REMARK SMILES IDX 12 1 11 2 10 3 9 4 8 5 7 6 6 7 5 8 4 9 3 10 2 11 1 12 13 13
REMARK SMILES IDX 14 14 15 15 16 16 17 17 18 18 19 19 20 20 21 21 22 22 23 23
REMARK SMILES IDX 24 24
REMARK H PARENT
REMARK Flexibility Score: inf
ROOT
ATOM      1  C   UNL     1       5.600   1.621  14.877  1.00  0.00     0.000 C 
ENDROOT
BRANCH   1   2
ATOM      2  C   UNL     1       5.907   0.822  13.597  1.00  0.00     0.000 C 
BRANCH   2   3
ATOM      3  C   UNL     1       4.637   0.340  12.875  1.00  0.00     0.000 C 
BRANCH   3   4
ATOM      4  C   UNL     1       4.397  -1.173  13.033  1.00  0.00    -0.000 C 
BRANCH   4   5
ATOM      5  C   UNL     1       3.585  -1.586  14.278  1.00  0.00    -0.000 C 
BRANCH   5   6
ATOM      6  C   UNL     1       2.065  -1.697  14.069  1.00  0.00    -0.000 C 
BRANCH   6   7
ATOM      7  C   UNL     1       1.310  -0.426  14.494  1.00  0.00    -0.000 C 
BRANCH   7   8
ATOM      8  C   UNL     1       2.203   0.565  15.257  1.00  0.00    -0.000 C 
BRANCH   8   9
ATOM      9  C   UNL     1       1.951   2.028  14.851  1.00  0.00    -0.000 C 
BRANCH   9  10
ATOM     10  C   UNL     1       2.954   2.997  15.512  1.00  0.00    -0.000 C 
BRANCH  10  11
ATOM     11  C   UNL     1       3.289   4.221  14.642  1.00  0.00    -0.003 C 
ATOM     12  C   UNL     1       3.630   3.854  13.198  1.00  0.00     0.004 C 
ENDBRANCH  10  11
ENDBRANCH   9  10
ENDBRANCH   8   9
ENDBRANCH   7   8
ENDBRANCH   6   7
ENDBRANCH   5   6
ENDBRANCH   4   5
ENDBRANCH   3   4
ENDBRANCH   2   3
ENDBRANCH   1   2
BRANCH   1  13
ATOM     13  C   UNL     1       6.246   1.071  16.164  1.00  0.00     0.000 C 
BRANCH  13  14
ATOM     14  C   UNL     1       6.355  -0.465  16.235  1.00  0.00     0.000 C 
BRANCH  14  15
ATOM     15  C   UNL     1       5.075  -1.183  16.704  1.00  0.00     0.000 C 
BRANCH  15  16
ATOM     16  C   UNL     1       5.156  -1.818  18.106  1.00  0.00     0.000 C 
BRANCH  16  17
ATOM     17  C   UNL     1       6.411  -1.452  18.920  1.00  0.00     0.000 C 
BRANCH  17  18
ATOM     18  C   UNL     1       6.143  -0.359  19.968  1.00  0.00     0.000 C 
BRANCH  18  19
ATOM     19  C   UNL     1       4.676   0.105  19.988  1.00  0.00     0.000 C 
BRANCH  19  20
ATOM     20  C   UNL     1       4.425   1.528  19.452  1.00  0.00     0.006 C 
BRANCH  20  21
ATOM     21  C   UNL     1       3.284   1.617  18.421  1.00  0.00     0.053 C 
BRANCH  21  22
ATOM     22  C   UNL     1       1.945   1.823  19.065  1.00  0.00     0.041 C 
ATOM     23  O   UNL     1       1.853   1.928  20.316  1.00  0.00    -0.550 OA
ATOM     24  O   UNL     1       0.804   1.943  18.281  1.00  0.00    -0.550 OA
ENDBRANCH  21  22
ENDBRANCH  20  21
ENDBRANCH  19  20
ENDBRANCH  18  19
ENDBRANCH  17  18
ENDBRANCH  16  17
ENDBRANCH  15  16
ENDBRANCH  14  15
ENDBRANCH  13  14
ENDBRANCH   1  13
TORSDOF 20
ENDMDL
MODEL 5
REMARK VINA RESULT:    -1.873      1.650      4.987
REMARK INTER + INTRA:          -4.981
REMARK INTER:                  -4.436
REMARK INTRA:                  -0.545
REMARK UNBOUND:                -0.917
REMARK SMILES CCCCCCCCCCCCCCCCCCCCCC(=O)[O-]
REMARK SMILES IDX 12 1 11 2 10 3 9 4 8 5 7 6 6 7 5 8 4 9 3 10 2 11 1 12 13 13
REMARK SMILES IDX 14 14 15 15 16 16 17 17 18 18 19 19 20 20 21 21 22 22 23 23
REMARK SMILES IDX 24 24
REMARK H PARENT
REMARK Flexibility Score: inf
ROOT
ATOM      1  C   UNL     1       3.304   3.843  15.237  1.00  0.00     0.000 C 
ENDROOT
BRANCH   1   2
ATOM      2  C   UNL     1       2.902   2.370  15.438  1.00  0.00     0.000 C 
BRANCH   2   3
ATOM      3  C   UNL     1       3.164   1.870  16.869  1.00  0.00     0.000 C 
BRANCH   3   4
ATOM      4  C   UNL     1       4.642   1.992  17.283  1.00  0.00    -0.000 C 
BRANCH   4   5
ATOM      5  C   UNL     1       5.658   1.405  16.281  1.00  0.00    -0.000 C 
BRANCH   5   6
ATOM      6  C   UNL     1       6.401   0.144  16.756  1.00  0.00    -0.000 C 
BRANCH   6   7
ATOM      7  C   UNL     1       5.447  -0.973  17.213  1.00  0.00    -0.000 C 
BRANCH   7   8
ATOM      8  C   UNL     1       6.177  -2.114  17.939  1.00  0.00    -0.000 C 
BRANCH   8   9
ATOM      9  C   UNL     1       6.673  -1.709  19.339  1.00  0.00    -0.000 C 
BRANCH   9  10
ATOM     10  C   UNL     1       6.180  -0.305  19.748  1.00  0.00    -0.000 C 
BRANCH  10  11
ATOM     11  C   UNL     1       4.682  -0.257  20.094  1.00  0.00    -0.003 C 
ATOM     12  C   UNL     1       4.096   1.153  20.029  1.00  0.00     0.004 C 
ENDBRANCH  10  11
ENDBRANCH   9  10
ENDBRANCH   8   9
ENDBRANCH   7   8
ENDBRANCH   6   7
ENDBRANCH   5   6
ENDBRANCH   4   5
ENDBRANCH   3   4
ENDBRANCH   2   3
ENDBRANCH   1   2
BRANCH   1  13
ATOM     13  C   UNL     1       3.294   4.332  13.774  1.00  0.00     0.000 C 
BRANCH  13  14
ATOM     14  C   UNL     1       4.396   3.733  12.879  1.00  0.00     0.000 C 
BRANCH  14  15
ATOM     15  C   UNL     1       4.460   2.193  12.875  1.00  0.00     0.000 C 
BRANCH  15  16
ATOM     16  C   UNL     1       5.880   1.597  12.949  1.00  0.00     0.000 C 
BRANCH  16  17
ATOM     17  C   UNL     1       5.942   0.063  13.069  1.00  0.00     0.000 C 
BRANCH  17  18
ATOM     18  C   UNL     1       4.550  -0.592  13.064  1.00  0.00     0.000 C 
BRANCH  18  19
ATOM     19  C   UNL     1       4.423  -1.736  14.084  1.00  0.00     0.000 C 
BRANCH  19  20
ATOM     20  C   UNL     1       3.343  -1.542  15.165  1.00  0.00     0.006 C 
BRANCH  20  21
ATOM     21  C   UNL     1       1.903  -1.749  14.659  1.00  0.00     0.053 C 
BRANCH  21  22
ATOM     22  C   UNL     1       1.111  -0.476  14.649  1.00  0.00     0.041 C 
ATOM     23  O   UNL     1       1.273   0.363  13.724  1.00  0.00    -0.550 OA
ATOM     24  O   UNL     1       0.162  -0.236  15.634  1.00  0.00    -0.550 OA
ENDBRANCH  21  22
ENDBRANCH  20  21
ENDBRANCH  19  20
ENDBRANCH  18  19
ENDBRANCH  17  18
ENDBRANCH  16  17
ENDBRANCH  15  16
ENDBRANCH  14  15
ENDBRANCH  13  14
ENDBRANCH   1  13
TORSDOF 20
ENDMDL
MODEL 6
REMARK VINA RESULT:    -1.809      1.410      3.854
REMARK INTER + INTRA:          -4.842
REMARK INTER:                  -4.571
REMARK INTRA:                  -0.271
REMARK UNBOUND:                -0.917
REMARK SMILES CCCCCCCCCCCCCCCCCCCCCC(=O)[O-]
REMARK SMILES IDX 12 1 11 2 10 3 9 4 8 5 7 6 6 7 5 8 4 9 3 10 2 11 1 12 13 13
REMARK SMILES IDX 14 14 15 15 16 16 17 17 18 18 19 19 20 20 21 21 22 22 23 23
REMARK SMILES IDX 24 24
REMARK H PARENT
REMARK Flexibility Score: inf
ROOT
ATOM      1  C   UNL     1       4.929   0.927  13.827  1.00  0.00     0.000 C 
ENDROOT
BRANCH   1   2
ATOM      2  C   UNL     1       3.737   0.645  12.894  1.00  0.00     0.000 C 
BRANCH   2   3
ATOM      3  C   UNL     1       3.329  -0.838  12.881  1.00  0.00     0.000 C 
BRANCH   3   4
ATOM      4  C   UNL     1       3.424  -1.497  14.269  1.00  0.00    -0.000 C 
BRANCH   4   5
ATOM      5  C   UNL     1       2.083  -1.976  14.864  1.00  0.00    -0.000 C 
BRANCH   5   6
ATOM      6  C   UNL     1       0.972  -0.914  14.928  1.00  0.00    -0.000 C 
BRANCH   6   7
ATOM      7  C   UNL     1       1.521   0.523  14.954  1.00  0.00    -0.000 C 
BRANCH   7   8
ATOM      8  C   UNL     1       2.383   0.805  16.195  1.00  0.00    -0.000 C 
BRANCH   8   9
ATOM      9  C   UNL     1       2.677   2.303  16.389  1.00  0.00    -0.000 C 
BRANCH   9  10
ATOM     10  C   UNL     1       4.149   2.652  16.082  1.00  0.00    -0.000 C 
BRANCH  10  11
ATOM     11  C   UNL     1       4.325   4.011  15.382  1.00  0.00    -0.003 C 
ATOM     12  C   UNL     1       3.325   4.234  14.248  1.00  0.00     0.004 C 
ENDBRANCH  10  11
ENDBRANCH   9  10
ENDBRANCH   8   9
ENDBRANCH   7   8
ENDBRANCH   6   7
ENDBRANCH   5   6
ENDBRANCH   4   5
ENDBRANCH   3   4
ENDBRANCH   2   3
ENDBRANCH   1   2
BRANCH   1  13
ATOM     13  C   UNL     1       6.287   1.107  13.120  1.00  0.00     0.000 C 
BRANCH  13  14
ATOM     14  C   UNL     1       7.139  -0.172  13.007  1.00  0.00     0.000 C 
BRANCH  14  15
ATOM     15  C   UNL     1       6.392  -1.477  13.346  1.00  0.00     0.000 C 
BRANCH  15  16
ATOM     16  C   UNL     1       6.782  -2.125  14.689  1.00  0.00     0.000 C 
BRANCH  16  17
ATOM     17  C   UNL     1       6.514  -1.262  15.936  1.00  0.00     0.000 C 
BRANCH  17  18
ATOM     18  C   UNL     1       5.688  -1.999  17.004  1.00  0.00     0.000 C 
BRANCH  18  19
ATOM     19  C   UNL     1       6.343  -1.965  18.396  1.00  0.00     0.000 C 
BRANCH  19  20
ATOM     20  C   UNL     1       6.302  -0.601  19.113  1.00  0.00     0.006 C 
BRANCH  20  21
ATOM     21  C   UNL     1       5.321   0.408  18.487  1.00  0.00     0.053 C 
BRANCH  21  22
ATOM     22  C   UNL     1       4.286   0.882  19.463  1.00  0.00     0.041 C 
ATOM     23  O   UNL     1       4.025   2.110  19.562  1.00  0.00    -0.550 OA
ATOM     24  O   UNL     1       3.580  -0.033  20.232  1.00  0.00    -0.550 OA
ENDBRANCH  21  22
ENDBRANCH  20  21
ENDBRANCH  19  20
ENDBRANCH  18  19
ENDBRANCH  17  18
ENDBRANCH  16  17
ENDBRANCH  15  16
ENDBRANCH  14  15
ENDBRANCH  13  14
ENDBRANCH   1  13
TORSDOF 20
ENDMDL
MODEL 7
REMARK VINA RESULT:    -1.565      2.057      5.124
REMARK INTER + INTRA:          -4.313
REMARK INTER:                  -5.017
REMARK INTRA:                   0.704
REMARK UNBOUND:                -0.917
REMARK SMILES CCCCCCCCCCCCCCCCCCCCCC(=O)[O-]
REMARK SMILES IDX 12 1 11 2 10 3 9 4 8 5 7 6 6 7 5 8 4 9 3 10 2 11 1 12 13 13
REMARK SMILES IDX 14 14 15 15 16 16 17 17 18 18 19 19 20 20 21 21 22 22 23 23
REMARK SMILES IDX 24 24
REMARK H PARENT
REMARK Flexibility Score: inf
ROOT
ATOM      1  C   UNL     1       5.541   2.638  12.888  1.00  0.00     0.000 C 
ENDROOT
BRANCH   1   2
ATOM      2  C   UNL     1       5.350   1.148  13.223  1.00  0.00     0.000 C 
BRANCH   2   3
ATOM      3  C   UNL     1       6.676   0.369  13.255  1.00  0.00     0.000 C 
BRANCH   3   4
ATOM      4  C   UNL     1       6.508  -1.114  12.875  1.00  0.00    -0.000 C 
BRANCH   4   5
ATOM      5  C   UNL     1       6.935  -2.125  13.960  1.00  0.00    -0.000 C 
BRANCH   5   6
ATOM      6  C   UNL     1       6.182  -2.015  15.297  1.00  0.00    -0.000 C 
BRANCH   6   7
ATOM      7  C   UNL     1       6.271  -0.611  15.919  1.00  0.00    -0.000 C 
BRANCH   7   8
ATOM      8  C   UNL     1       5.739  -0.568  17.361  1.00  0.00    -0.000 C 
BRANCH   8   9
ATOM      9  C   UNL     1       6.294  -1.706  18.235  1.00  0.00    -0.000 C 
BRANCH   9  10
ATOM     10  C   UNL     1       6.850  -1.190  19.579  1.00  0.00    -0.000 C 
BRANCH  10  11
ATOM     11  C   UNL     1       5.935  -0.163  20.268  1.00  0.00    -0.003 C 
ATOM     12  C   UNL     1       4.539  -0.095  19.651  1.00  0.00     0.004 C 
ENDBRANCH  10  11
ENDBRANCH   9  10
ENDBRANCH   8   9
ENDBRANCH   7   8
ENDBRANCH   6   7
ENDBRANCH   5   6
ENDBRANCH   4   5
ENDBRANCH   3   4
ENDBRANCH   2   3
ENDBRANCH   1   2
BRANCH   1  13
ATOM     13  C   UNL     1       4.255   3.488  12.923  1.00  0.00     0.000 C 
BRANCH  13  14
ATOM     14  C   UNL     1       4.136   4.442  14.128  1.00  0.00     0.000 C 
BRANCH  14  15
ATOM     15  C   UNL     1       3.401   3.852  15.348  1.00  0.00     0.000 C 
BRANCH  15  16
ATOM     16  C   UNL     1       4.228   2.867  16.198  1.00  0.00     0.000 C 
BRANCH  16  17
ATOM     17  C   UNL     1       3.424   2.058  17.232  1.00  0.00     0.000 C 
BRANCH  17  18
ATOM     18  C   UNL     1       2.762   0.808  16.628  1.00  0.00     0.000 C 
BRANCH  18  19
ATOM     19  C   UNL     1       2.350   1.000  15.159  1.00  0.00     0.000 C 
BRANCH  19  20
ATOM     20  C   UNL     1       0.998   0.375  14.763  1.00  0.00     0.006 C 
BRANCH  20  21
ATOM     21  C   UNL     1       1.033  -1.158  14.621  1.00  0.00     0.053 C 
BRANCH  21  22
ATOM     22  C   UNL     1       2.421  -1.713  14.739  1.00  0.00     0.041 C 
ATOM     23  O   UNL     1       2.862  -2.084  15.859  1.00  0.00    -0.550 OA
ATOM     24  O   UNL     1       3.213  -1.863  13.608  1.00  0.00    -0.550 OA
ENDBRANCH  21  22
ENDBRANCH  20  21
ENDBRANCH  19  20
ENDBRANCH  18  19
ENDBRANCH  17  18
ENDBRANCH  16  17
ENDBRANCH  15  16
ENDBRANCH  14  15
ENDBRANCH  13  14
ENDBRANCH   1  13
TORSDOF 20
ENDMDL
MODEL 8
REMARK VINA RESULT:     0.450      1.969      3.057
REMARK INTER + INTRA:           0.059
REMARK INTER:                   1.448
REMARK INTRA:                  -1.389
REMARK UNBOUND:                -0.917
REMARK SMILES CCCCCCCCCCCCCCCCCCCCCC(=O)[O-]
REMARK SMILES IDX 12 1 11 2 10 3 9 4 8 5 7 6 6 7 5 8 4 9 3 10 2 11 1 12 13 13
REMARK SMILES IDX 14 14 15 15 16 16 17 17 18 18 19 19 20 20 21 21 22 22 23 23
REMARK SMILES IDX 24 24
REMARK H PARENT
REMARK Flexibility Score: inf
ROOT
ATOM      1  C   UNL     1       3.659   4.091  15.286  1.00  0.00     0.000 C 
ENDROOT
BRANCH   1   2
ATOM      2  C   UNL     1       5.104   3.886  14.794  1.00  0.00     0.000 C 
BRANCH   2   3
ATOM      3  C   UNL     1       5.193   3.692  13.271  1.00  0.00     0.000 C 
BRANCH   3   4
ATOM      4  C   UNL     1       5.775   2.323  12.875  1.00  0.00    -0.000 C 
BRANCH   4   5
ATOM      5  C   UNL     1       5.911   1.306  14.027  1.00  0.00    -0.000 C 
BRANCH   5   6
ATOM      6  C   UNL     1       6.732   0.045  13.702  1.00  0.00    -0.000 C 
BRANCH   6   7
ATOM      7  C   UNL     1       5.853  -1.193  13.458  1.00  0.00    -0.000 C 
BRANCH   7   8
ATOM      8  C   UNL     1       4.428  -0.828  13.013  1.00  0.00    -0.000 C 
BRANCH   8   9
ATOM      9  C   UNL     1       3.414  -1.955  13.279  1.00  0.00    -0.000 C 
BRANCH   9  10
ATOM     10  C   UNL     1       3.087  -2.102  14.781  1.00  0.00    -0.000 C 
BRANCH  10  11
ATOM     11  C   UNL     1       1.606  -1.851  15.114  1.00  0.00    -0.003 C 
ATOM     12  C   UNL     1       0.986  -0.729  14.281  1.00  0.00     0.004 C 
ENDBRANCH  10  11
ENDBRANCH   9  10
ENDBRANCH   8   9
ENDBRANCH   7   8
ENDBRANCH   6   7
ENDBRANCH   5   6
ENDBRANCH   4   5
ENDBRANCH   3   4
ENDBRANCH   2   3
ENDBRANCH   1   2
BRANCH   1  13
ATOM     13  C   UNL     1       2.565   3.511  14.367  1.00  0.00     0.000 C 
BRANCH  13  14
ATOM     14  C   UNL     1       2.162   2.055  14.671  1.00  0.00     0.000 C 
BRANCH  14  15
ATOM     15  C   UNL     1       2.082   1.706  16.170  1.00  0.00     0.000 C 
BRANCH  15  16
ATOM     16  C   UNL     1       3.420   1.306  16.822  1.00  0.00     0.000 C 
BRANCH  16  17
ATOM     17  C   UNL     1       3.532   1.607  18.328  1.00  0.00     0.000 C 
BRANCH  17  18
ATOM     18  C   UNL     1       4.949   1.372  18.879  1.00  0.00     0.000 C 
BRANCH  18  19
ATOM     19  C   UNL     1       5.027   0.169  19.835  1.00  0.00     0.000 C 
BRANCH  19  20
ATOM     20  C   UNL     1       6.351  -0.619  19.800  1.00  0.00     0.006 C 
BRANCH  20  21
ATOM     21  C   UNL     1       6.317  -1.861  18.889  1.00  0.00     0.053 C 
BRANCH  21  22
ATOM     22  C   UNL     1       5.557  -1.621  17.619  1.00  0.00     0.041 C 
ATOM     23  O   UNL     1       6.130  -1.098  16.628  1.00  0.00    -0.550 OA
ATOM     24  O   UNL     1       4.229  -2.014  17.515  1.00  0.00    -0.550 OA
ENDBRANCH  21  22
ENDBRANCH  20  21
ENDBRANCH  19  20
ENDBRANCH  18  19
ENDBRANCH  17  18
ENDBRANCH  16  17
ENDBRANCH  15  16
ENDBRANCH  14  15
ENDBRANCH  13  14
ENDBRANCH   1  13
TORSDOF 20
ENDMDL
