MODEL 1
REMARK VINA RESULT:    -6.813      0.000      0.000
REMARK INTER + INTRA:          -7.410
REMARK INTER:                  -7.410
REMARK INTRA:                   0.000
REMARK UNBOUND:                 0.000
REMARK SMILES Cc1cc(O)c2c(c1)C(=O)c1cc(O)cc(O)c1C2=O
REMARK SMILES IDX 1 1 2 2 8 3 7 4 6 5 4 6 3 7 19 8 20 9 18 10 11 11 9 12 10 13
REMARK SMILES IDX 12 14 13 15 15 16 16 17 5 18 17 20 14 22
REMARK H PARENT 5 19 17 21 14 23
REMARK Flexibility Score: inf
ROOT
ATOM      1  C   UNL     1       0.478  -9.698   2.399  1.00  0.00     0.044 C 
ATOM      2  C   UNL     1       1.637  -8.804   2.067  1.00  0.00    -0.047 A 
ATOM      3  C   UNL     1       2.353  -8.992   0.880  1.00  0.00     0.016 A 
ATOM      4  C   UNL     1       3.467  -8.189   0.580  1.00  0.00     0.038 A 
ATOM      5  C   UNL     1       3.888  -7.199   1.497  1.00  0.00     0.076 A 
ATOM      6  C   UNL     1       3.131  -6.983   2.678  1.00  0.00     0.127 A 
ATOM      7  C   UNL     1       2.037  -7.808   2.963  1.00  0.00     0.050 A 
ATOM      8  C   UNL     1       5.153  -6.474   1.214  1.00  0.00     0.201 C 
ATOM      9  O   UNL     1       5.859  -6.048   2.168  1.00  0.00    -0.288 OA
ATOM     10  C   UNL     1       5.676  -6.417  -0.175  1.00  0.00     0.076 A 
ATOM     11  C   UNL     1       5.253  -7.408  -1.088  1.00  0.00     0.041 A 
ATOM     12  C   UNL     1       4.201  -8.374  -0.695  1.00  0.00     0.194 C 
ATOM     13  O   UNL     1       3.911  -9.337  -1.456  1.00  0.00    -0.289 OA
ATOM     14  C   UNL     1       5.830  -7.471  -2.368  1.00  0.00     0.059 A 
ATOM     15  C   UNL     1       6.809  -6.550  -2.751  1.00  0.00     0.120 A 
ATOM     16  C   UNL     1       7.200  -5.546  -1.866  1.00  0.00     0.093 A 
ATOM     17  C   UNL     1       6.627  -5.449  -0.595  1.00  0.00     0.131 A 
ENDROOT
BRANCH   6  18
ATOM     18  O   UNL     1       3.406  -5.948   3.573  1.00  0.00    -0.507 OA
ATOM     19  H   UNL     1       3.137  -4.987   3.415  1.00  0.00     0.293 HD
ENDBRANCH   6  18
BRANCH  17  20
ATOM     20  O   UNL     1       7.002  -4.364   0.201  1.00  0.00    -0.507 OA
ATOM     21  H   UNL     1       7.130  -3.426  -0.157  1.00  0.00     0.293 HD
ENDBRANCH  17  20
BRANCH  15  22
ATOM     22  O   UNL     1       7.392  -6.616  -4.015  1.00  0.00    -0.508 OA
ATOM     23  H   UNL     1       6.829  -6.673  -4.856  1.00  0.00     0.293 HD
ENDBRANCH  15  22
TORSDOF 3
ENDMDL
MODEL 2
REMARK VINA RESULT:    -6.131      1.591      2.244
REMARK INTER + INTRA:          -6.668
REMARK INTER:                  -6.668
REMARK INTRA:                   0.000
REMARK UNBOUND:                 0.000
REMARK SMILES Cc1cc(O)c2c(c1)C(=O)c1cc(O)cc(O)c1C2=O
REMARK SMILES IDX 1 1 2 2 8 3 7 4 6 5 4 6 3 7 19 8 20 9 18 10 11 11 9 12 10 13
REMARK SMILES IDX 12 14 13 15 15 16 16 17 5 18 17 20 14 22
REMARK H PARENT 5 19 17 21 14 23
REMARK Flexibility Score: inf
ROOT
ATOM      1  C   UNL     1      -0.333  -9.352   4.751  1.00  0.00     0.044 C 
ATOM      2  C   UNL     1       0.724  -8.722   3.891  1.00  0.00    -0.047 A 
ATOM      3  C   UNL     1       1.290  -9.441   2.832  1.00  0.00     0.016 A 
ATOM      4  C   UNL     1       2.311  -8.876   2.048  1.00  0.00     0.038 A 
ATOM      5  C   UNL     1       2.792  -7.581   2.346  1.00  0.00     0.076 A 
ATOM      6  C   UNL     1       2.183  -6.840   3.392  1.00  0.00     0.127 A 
ATOM      7  C   UNL     1       1.181  -7.431   4.169  1.00  0.00     0.050 A 
ATOM      8  C   UNL     1       3.969  -7.079   1.591  1.00  0.00     0.201 C 
ATOM      9  O   UNL     1       4.767  -6.272   2.138  1.00  0.00    -0.288 OA
ATOM     10  C   UNL     1       4.305  -7.670   0.271  1.00  0.00     0.076 A 
ATOM     11  C   UNL     1       3.823  -8.966  -0.023  1.00  0.00     0.041 A 
ATOM     12  C   UNL     1       2.884  -9.632   0.909  1.00  0.00     0.194 C 
ATOM     13  O   UNL     1       2.551 -10.835   0.718  1.00  0.00    -0.289 OA
ATOM     14  C   UNL     1       4.233  -9.614  -1.200  1.00  0.00     0.059 A 
ATOM     15  C   UNL     1       5.103  -8.981  -2.093  1.00  0.00     0.120 A 
ATOM     16  C   UNL     1       5.550  -7.688  -1.826  1.00  0.00     0.093 A 
ATOM     17  C   UNL     1       5.140  -7.013  -0.671  1.00  0.00     0.131 A 
ENDROOT
BRANCH   6  18
ATOM     18  O   UNL     1       2.514  -5.513   3.670  1.00  0.00    -0.507 OA
ATOM     19  H   UNL     1       2.159  -5.004   4.467  1.00  0.00     0.293 HD
ENDBRANCH   6  18
BRANCH  17  20
ATOM     20  O   UNL     1       5.555  -5.688  -0.518  1.00  0.00    -0.507 OA
ATOM     21  H   UNL     1       4.951  -4.947  -0.187  1.00  0.00     0.293 HD
ENDBRANCH  17  20
BRANCH  15  22
ATOM     22  O   UNL     1       5.521  -9.625  -3.255  1.00  0.00    -0.508 OA
ATOM     23  H   UNL     1       5.574  -9.137  -4.142  1.00  0.00     0.293 HD
ENDBRANCH  15  22
TORSDOF 3
ENDMDL
MODEL 3
REMARK VINA RESULT:    -5.866     13.891     15.776
REMARK INTER + INTRA:          -6.380
REMARK INTER:                  -6.380
REMARK INTRA:                   0.000
REMARK UNBOUND:                 0.000
REMARK SMILES Cc1cc(O)c2c(c1)C(=O)c1cc(O)cc(O)c1C2=O
REMARK SMILES IDX 1 1 2 2 8 3 7 4 6 5 4 6 3 7 19 8 20 9 18 10 11 11 9 12 10 13
REMARK SMILES IDX 12 14 13 15 15 16 16 17 5 18 17 20 14 22
REMARK H PARENT 5 19 17 21 14 23
REMARK Flexibility Score: inf
ROOT
ATOM      1  C   UNL     1       6.378   5.382  -3.267  1.00  0.00     0.044 C 
ATOM      2  C   UNL     1       5.526   5.679  -4.466  1.00  0.00    -0.047 A 
ATOM      3  C   UNL     1       5.901   5.211  -5.730  1.00  0.00     0.016 A 
ATOM      4  C   UNL     1       5.133   5.520  -6.866  1.00  0.00     0.038 A 
ATOM      5  C   UNL     1       3.985   6.333  -6.738  1.00  0.00     0.076 A 
ATOM      6  C   UNL     1       3.583   6.767  -5.448  1.00  0.00     0.127 A 
ATOM      7  C   UNL     1       4.375   6.462  -4.336  1.00  0.00     0.050 A 
ATOM      8  C   UNL     1       3.285   6.759  -7.978  1.00  0.00     0.201 C 
ATOM      9  O   UNL     1       2.677   7.862  -8.008  1.00  0.00    -0.288 OA
ATOM     10  C   UNL     1       3.462   5.979  -9.230  1.00  0.00     0.076 A 
ATOM     11  C   UNL     1       4.612   5.167  -9.354  1.00  0.00     0.041 A 
ATOM     12  C   UNL     1       5.522   4.995  -8.197  1.00  0.00     0.194 C 
ATOM     13  O   UNL     1       6.613   4.378  -8.338  1.00  0.00    -0.289 OA
ATOM     14  C   UNL     1       4.885   4.524 -10.572  1.00  0.00     0.059 A 
ATOM     15  C   UNL     1       4.020   4.668 -11.660  1.00  0.00     0.120 A 
ATOM     16  C   UNL     1       2.863   5.435 -11.529  1.00  0.00     0.093 A 
ATOM     17  C   UNL     1       2.558   6.069 -10.321  1.00  0.00     0.131 A 
ENDROOT
BRANCH   6  18
ATOM     18  O   UNL     1       2.397   7.468  -5.221  1.00  0.00    -0.507 OA
ATOM     19  H   UNL     1       1.557   7.041  -4.856  1.00  0.00     0.293 HD
ENDBRANCH   6  18
BRANCH  17  20
ATOM     20  O   UNL     1       1.338   6.744 -10.238  1.00  0.00    -0.507 OA
ATOM     21  H   UNL     1       1.259   7.751 -10.173  1.00  0.00     0.293 HD
ENDBRANCH  17  20
BRANCH  15  22
ATOM     22  O   UNL     1       4.294   4.041 -12.874  1.00  0.00    -0.508 OA
ATOM     23  H   UNL     1       3.905   3.132 -13.102  1.00  0.00     0.293 HD
ENDBRANCH  15  22
TORSDOF 3
ENDMDL
MODEL 4
REMARK VINA RESULT:    -5.752      1.517      6.394
REMARK INTER + INTRA:          -6.257
REMARK INTER:                  -6.257
REMARK INTRA:                   0.000
REMARK UNBOUND:                 0.000
REMARK SMILES Cc1cc(O)c2c(c1)C(=O)c1cc(O)cc(O)c1C2=O
REMARK SMILES IDX 1 1 2 2 8 3 7 4 6 5 4 6 3 7 19 8 20 9 18 10 11 11 9 12 10 13
REMARK SMILES IDX 12 14 13 15 15 16 16 17 5 18 17 20 14 22
REMARK H PARENT 5 19 17 21 14 23
REMARK Flexibility Score: inf
ROOT
ATOM      1  C   UNL     1       7.831  -4.497  -3.222  1.00  0.00     0.044 C 
ATOM      2  C   UNL     1       7.029  -5.677  -2.753  1.00  0.00    -0.047 A 
ATOM      3  C   UNL     1       6.514  -5.706  -1.453  1.00  0.00     0.016 A 
ATOM      4  C   UNL     1       5.799  -6.824  -0.991  1.00  0.00     0.038 A 
ATOM      5  C   UNL     1       5.621  -7.943  -1.835  1.00  0.00     0.076 A 
ATOM      6  C   UNL     1       6.106  -7.890  -3.167  1.00  0.00     0.127 A 
ATOM      7  C   UNL     1       6.831  -6.773  -3.598  1.00  0.00     0.050 A 
ATOM      8  C   UNL     1       4.990  -9.161  -1.262  1.00  0.00     0.201 C 
ATOM      9  O   UNL     1       5.303 -10.298  -1.707  1.00  0.00    -0.288 OA
ATOM     10  C   UNL     1       4.142  -9.050  -0.048  1.00  0.00     0.076 A 
ATOM     11  C   UNL     1       4.323  -7.930   0.794  1.00  0.00     0.041 A 
ATOM     12  C   UNL     1       5.229  -6.833   0.378  1.00  0.00     0.194 C 
ATOM     13  O   UNL     1       5.494  -5.894   1.179  1.00  0.00    -0.289 OA
ATOM     14  C   UNL     1       3.641  -7.858   2.020  1.00  0.00     0.059 A 
ATOM     15  C   UNL     1       2.770  -8.880   2.407  1.00  0.00     0.120 A 
ATOM     16  C   UNL     1       2.558  -9.968   1.562  1.00  0.00     0.093 A 
ATOM     17  C   UNL     1       3.210 -10.053   0.328  1.00  0.00     0.131 A 
ENDROOT
BRANCH   6  18
ATOM     18  O   UNL     1       5.866  -8.900  -4.100  1.00  0.00    -0.507 OA
ATOM     19  H   UNL     1       6.594  -9.472  -4.505  1.00  0.00     0.293 HD
ENDBRANCH   6  18
BRANCH  17  20
ATOM     20  O   UNL     1       2.878 -11.125  -0.504  1.00  0.00    -0.507 OA
ATOM     21  H   UNL     1       1.937 -11.484  -0.606  1.00  0.00     0.293 HD
ENDBRANCH  17  20
BRANCH  15  22
ATOM     22  O   UNL     1       2.100  -8.819   3.628  1.00  0.00    -0.508 OA
ATOM     23  H   UNL     1       1.196  -9.259   3.760  1.00  0.00     0.293 HD
ENDBRANCH  15  22
TORSDOF 3
ENDMDL
MODEL 5
REMARK VINA RESULT:    -5.591     13.885     15.813
REMARK INTER + INTRA:          -6.081
REMARK INTER:                  -6.081
REMARK INTRA:                   0.000
REMARK UNBOUND:                 0.000
REMARK SMILES Cc1cc(O)c2c(c1)C(=O)c1cc(O)cc(O)c1C2=O
REMARK SMILES IDX 1 1 2 2 8 3 7 4 6 5 4 6 3 7 19 8 20 9 18 10 11 11 9 12 10 13
REMARK SMILES IDX 12 14 13 15 15 16 16 17 5 18 17 20 14 22
REMARK H PARENT 5 19 17 21 14 23
REMARK Flexibility Score: inf
ROOT
ATOM      1  C   UNL     1       6.591   5.822  -3.563  1.00  0.00     0.044 C 
ATOM      2  C   UNL     1       6.348   5.463  -5.000  1.00  0.00    -0.047 A 
ATOM      3  C   UNL     1       5.199   5.918  -5.655  1.00  0.00     0.016 A 
ATOM      4  C   UNL     1       4.941   5.552  -6.987  1.00  0.00     0.038 A 
ATOM      5  C   UNL     1       5.835   4.694  -7.666  1.00  0.00     0.076 A 
ATOM      6  C   UNL     1       7.022   4.273  -7.012  1.00  0.00     0.127 A 
ATOM      7  C   UNL     1       7.247   4.635  -5.680  1.00  0.00     0.050 A 
ATOM      8  C   UNL     1       5.454   4.212  -9.019  1.00  0.00     0.201 C 
ATOM      9  O   UNL     1       5.849   3.083  -9.417  1.00  0.00    -0.288 OA
ATOM     10  C   UNL     1       4.459   4.971  -9.819  1.00  0.00     0.076 A 
ATOM     11  C   UNL     1       3.566   5.828  -9.136  1.00  0.00     0.041 A 
ATOM     12  C   UNL     1       3.737   6.064  -7.684  1.00  0.00     0.194 C 
ATOM     13  O   UNL     1       2.871   6.724  -7.045  1.00  0.00    -0.289 OA
ATOM     14  C   UNL     1       2.524   6.455  -9.839  1.00  0.00     0.059 A 
ATOM     15  C   UNL     1       2.372   6.251 -11.213  1.00  0.00     0.120 A 
ATOM     16  C   UNL     1       3.274   5.438 -11.898  1.00  0.00     0.093 A 
ATOM     17  C   UNL     1       4.332   4.818 -11.225  1.00  0.00     0.131 A 
ENDROOT
BRANCH   6  18
ATOM     18  O   UNL     1       8.014   3.527  -7.652  1.00  0.00    -0.507 OA
ATOM     19  H   UNL     1       8.985   3.535  -7.374  1.00  0.00     0.293 HD
ENDBRANCH   6  18
BRANCH  17  20
ATOM     20  O   UNL     1       5.247   4.094 -11.992  1.00  0.00    -0.507 OA
ATOM     21  H   UNL     1       5.701   3.249 -11.671  1.00  0.00     0.293 HD
ENDBRANCH  17  20
BRANCH  15  22
ATOM     22  O   UNL     1       1.332   6.862 -11.912  1.00  0.00    -0.508 OA
ATOM     23  H   UNL     1       0.509   7.215 -11.436  1.00  0.00     0.293 HD
ENDBRANCH  15  22
TORSDOF 3
ENDMDL
MODEL 6
REMARK VINA RESULT:    -5.562     14.890     17.613
REMARK INTER + INTRA:          -6.049
REMARK INTER:                  -6.049
REMARK INTRA:                   0.000
REMARK UNBOUND:                 0.000
REMARK SMILES Cc1cc(O)c2c(c1)C(=O)c1cc(O)cc(O)c1C2=O
REMARK SMILES IDX 1 1 2 2 8 3 7 4 6 5 4 6 3 7 19 8 20 9 18 10 11 11 9 12 10 13
REMARK SMILES IDX 12 14 13 15 15 16 16 17 5 18 17 20 14 22
REMARK H PARENT 5 19 17 21 14 23
REMARK Flexibility Score: inf
ROOT
ATOM      1  C   UNL     1       3.518   6.521 -14.570  1.00  0.00     0.044 C 
ATOM      2  C   UNL     1       3.628   6.196 -13.108  1.00  0.00    -0.047 A 
ATOM      3  C   UNL     1       3.379   7.182 -12.148  1.00  0.00     0.016 A 
ATOM      4  C   UNL     1       3.521   6.900 -10.778  1.00  0.00     0.038 A 
ATOM      5  C   UNL     1       3.946   5.617 -10.365  1.00  0.00     0.076 A 
ATOM      6  C   UNL     1       4.152   4.608 -11.341  1.00  0.00     0.127 A 
ATOM      7  C   UNL     1       4.023   4.919 -12.699  1.00  0.00     0.050 A 
ATOM      8  C   UNL     1       4.226   5.402  -8.921  1.00  0.00     0.201 C 
ATOM      9  O   UNL     1       5.098   4.563  -8.570  1.00  0.00    -0.288 OA
ATOM     10  C   UNL     1       3.620   6.305  -7.910  1.00  0.00     0.076 A 
ATOM     11  C   UNL     1       3.197   7.587  -8.327  1.00  0.00     0.041 A 
ATOM     12  C   UNL     1       3.225   7.942  -9.765  1.00  0.00     0.194 C 
ATOM     13  O   UNL     1       2.972   9.123 -10.130  1.00  0.00    -0.289 OA
ATOM     14  C   UNL     1       2.747   8.518  -7.376  1.00  0.00     0.059 A 
ATOM     15  C   UNL     1       2.699   8.182  -6.021  1.00  0.00     0.120 A 
ATOM     16  C   UNL     1       3.078   6.905  -5.610  1.00  0.00     0.093 A 
ATOM     17  C   UNL     1       3.510   5.953  -6.539  1.00  0.00     0.131 A 
ENDROOT
BRANCH   6  18
ATOM     18  O   UNL     1       4.452   3.286 -11.010  1.00  0.00    -0.507 OA
ATOM     19  H   UNL     1       4.535   2.953 -10.059  1.00  0.00     0.293 HD
ENDBRANCH   6  18
BRANCH  17  20
ATOM     20  O   UNL     1       3.785   4.668  -6.064  1.00  0.00    -0.507 OA
ATOM     21  H   UNL     1       3.642   3.828  -6.609  1.00  0.00     0.293 HD
ENDBRANCH  17  20
BRANCH  15  22
ATOM     22  O   UNL     1       2.266   9.107  -5.073  1.00  0.00    -0.508 OA
ATOM     23  H   UNL     1       2.748   9.988  -4.932  1.00  0.00     0.293 HD
ENDBRANCH  15  22
TORSDOF 3
ENDMDL
MODEL 7
REMARK VINA RESULT:    -5.445     13.744     15.544
REMARK INTER + INTRA:          -5.923
REMARK INTER:                  -5.923
REMARK INTRA:                   0.000
REMARK UNBOUND:                 0.000
REMARK SMILES Cc1cc(O)c2c(c1)C(=O)c1cc(O)cc(O)c1C2=O
REMARK SMILES IDX 1 1 2 2 8 3 7 4 6 5 4 6 3 7 19 8 20 9 18 10 11 11 9 12 10 13
REMARK SMILES IDX 12 14 13 15 15 16 16 17 5 18 17 20 14 22
REMARK H PARENT 5 19 17 21 14 23
REMARK Flexibility Score: inf
ROOT
ATOM      1  C   UNL     1       4.379   4.249 -12.068  1.00  0.00     0.044 C 
ATOM      2  C   UNL     1       4.777   4.392 -10.628  1.00  0.00    -0.047 A 
ATOM      3  C   UNL     1       4.112   5.303  -9.801  1.00  0.00     0.016 A 
ATOM      4  C   UNL     1       4.506   5.476  -8.463  1.00  0.00     0.038 A 
ATOM      5  C   UNL     1       5.601   4.744  -7.952  1.00  0.00     0.076 A 
ATOM      6  C   UNL     1       6.243   3.788  -8.782  1.00  0.00     0.127 A 
ATOM      7  C   UNL     1       5.845   3.648 -10.116  1.00  0.00     0.050 A 
ATOM      8  C   UNL     1       6.079   5.061  -6.581  1.00  0.00     0.201 C 
ATOM      9  O   UNL     1       7.296   4.910  -6.290  1.00  0.00    -0.288 OA
ATOM     10  C   UNL     1       5.167   5.731  -5.619  1.00  0.00     0.076 A 
ATOM     11  C   UNL     1       4.073   6.462  -6.133  1.00  0.00     0.041 A 
ATOM     12  C   UNL     1       3.775   6.421  -7.584  1.00  0.00     0.194 C 
ATOM     13  O   UNL     1       2.882   7.170  -8.067  1.00  0.00    -0.289 OA
ATOM     14  C   UNL     1       3.271   7.222  -5.266  1.00  0.00     0.059 A 
ATOM     15  C   UNL     1       3.536   7.248  -3.894  1.00  0.00     0.120 A 
ATOM     16  C   UNL     1       4.590   6.496  -3.377  1.00  0.00     0.093 A 
ATOM     17  C   UNL     1       5.391   5.716  -4.217  1.00  0.00     0.131 A 
ENDROOT
BRANCH   6  18
ATOM     18  O   UNL     1       7.250   2.939  -8.319  1.00  0.00    -0.507 OA
ATOM     19  H   UNL     1       7.964   2.543  -8.914  1.00  0.00     0.293 HD
ENDBRANCH   6  18
BRANCH  17  20
ATOM     20  O   UNL     1       6.369   4.919  -3.616  1.00  0.00    -0.507 OA
ATOM     21  H   UNL     1       6.170   4.038  -3.160  1.00  0.00     0.293 HD
ENDBRANCH  17  20
BRANCH  15  22
ATOM     22  O   UNL     1       2.749   8.010  -3.033  1.00  0.00    -0.508 OA
ATOM     23  H   UNL     1       2.291   8.859  -3.344  1.00  0.00     0.293 HD
ENDBRANCH  15  22
TORSDOF 3
ENDMDL
MODEL 8
REMARK VINA RESULT:    -5.414     13.635     16.362
REMARK INTER + INTRA:          -5.889
REMARK INTER:                  -5.889
REMARK INTRA:                   0.000
REMARK UNBOUND:                 0.000
REMARK SMILES Cc1cc(O)c2c(c1)C(=O)c1cc(O)cc(O)c1C2=O
REMARK SMILES IDX 1 1 2 2 8 3 7 4 6 5 4 6 3 7 19 8 20 9 18 10 11 11 9 12 10 13
REMARK SMILES IDX 12 14 13 15 15 16 16 17 5 18 17 20 14 22
REMARK H PARENT 5 19 17 21 14 23
REMARK Flexibility Score: inf
ROOT
ATOM      1  C   UNL     1       0.910   9.125 -10.209  1.00  0.00     0.044 C 
ATOM      2  C   UNL     1       1.873   8.018  -9.891  1.00  0.00    -0.047 A 
ATOM      3  C   UNL     1       2.707   8.112  -8.772  1.00  0.00     0.016 A 
ATOM      4  C   UNL     1       3.642   7.102  -8.489  1.00  0.00     0.038 A 
ATOM      5  C   UNL     1       3.764   5.993  -9.357  1.00  0.00     0.076 A 
ATOM      6  C   UNL     1       2.884   5.881 -10.465  1.00  0.00     0.127 A 
ATOM      7  C   UNL     1       1.974   6.908 -10.735  1.00  0.00     0.050 A 
ATOM      8  C   UNL     1       4.862   5.024  -9.107  1.00  0.00     0.201 C 
ATOM      9  O   UNL     1       5.379   4.399 -10.072  1.00  0.00    -0.288 OA
ATOM     10  C   UNL     1       5.473   4.933  -7.756  1.00  0.00     0.076 A 
ATOM     11  C   UNL     1       5.350   6.044  -6.892  1.00  0.00     0.041 A 
ATOM     12  C   UNL     1       4.501   7.193  -7.284  1.00  0.00     0.194 C 
ATOM     13  O   UNL     1       4.489   8.240  -6.578  1.00  0.00    -0.289 OA
ATOM     14  C   UNL     1       6.029   6.051  -5.662  1.00  0.00     0.059 A 
ATOM     15  C   UNL     1       6.815   4.961  -5.279  1.00  0.00     0.120 A 
ATOM     16  C   UNL     1       6.907   3.846  -6.111  1.00  0.00     0.093 A 
ATOM     17  C   UNL     1       6.224   3.806  -7.331  1.00  0.00     0.131 A 
ENDROOT
BRANCH   6  18
ATOM     18  O   UNL     1       2.855   4.761 -11.297  1.00  0.00    -0.507 OA
ATOM     19  H   UNL     1       3.183   4.767 -12.253  1.00  0.00     0.293 HD
ENDBRANCH   6  18
BRANCH  17  20
ATOM     20  O   UNL     1       6.290   2.620  -8.067  1.00  0.00    -0.507 OA
ATOM     21  H   UNL     1       5.918   2.521  -9.002  1.00  0.00     0.293 HD
ENDBRANCH  17  20
BRANCH  15  22
ATOM     22  O   UNL     1       7.500   4.970  -4.066  1.00  0.00    -0.508 OA
ATOM     23  H   UNL     1       7.390   4.223  -3.389  1.00  0.00     0.293 HD
ENDBRANCH  15  22
TORSDOF 3
ENDMDL
MODEL 9
REMARK VINA RESULT:    -5.337     14.177     16.638
REMARK INTER + INTRA:          -5.806
REMARK INTER:                  -5.806
REMARK INTRA:                   0.000
REMARK UNBOUND:                 0.000
REMARK SMILES Cc1cc(O)c2c(c1)C(=O)c1cc(O)cc(O)c1C2=O
REMARK SMILES IDX 1 1 2 2 8 3 7 4 6 5 4 6 3 7 19 8 20 9 18 10 11 11 9 12 10 13
REMARK SMILES IDX 12 14 13 15 15 16 16 17 5 18 17 20 14 22
REMARK H PARENT 5 19 17 21 14 23
REMARK Flexibility Score: inf
ROOT
ATOM      1  C   UNL     1       1.385   8.176 -13.202  1.00  0.00     0.044 C 
ATOM      2  C   UNL     1       2.069   7.620 -11.987  1.00  0.00    -0.047 A 
ATOM      3  C   UNL     1       2.926   6.521 -12.103  1.00  0.00     0.016 A 
ATOM      4  C   UNL     1       3.537   5.966 -10.965  1.00  0.00     0.038 A 
ATOM      5  C   UNL     1       3.265   6.504  -9.687  1.00  0.00     0.076 A 
ATOM      6  C   UNL     1       2.431   7.647  -9.581  1.00  0.00     0.127 A 
ATOM      7  C   UNL     1       1.820   8.170 -10.726  1.00  0.00     0.050 A 
ATOM      8  C   UNL     1       3.811   5.799  -8.499  1.00  0.00     0.201 C 
ATOM      9  O   UNL     1       3.189   5.842  -7.403  1.00  0.00    -0.288 OA
ATOM     10  C   UNL     1       4.980   4.896  -8.649  1.00  0.00     0.076 A 
ATOM     11  C   UNL     1       5.249   4.360  -9.929  1.00  0.00     0.041 A 
ATOM     12  C   UNL     1       4.468   4.820 -11.101  1.00  0.00     0.194 C 
ATOM     13  O   UNL     1       4.615   4.254 -12.219  1.00  0.00    -0.289 OA
ATOM     14  C   UNL     1       6.259   3.395 -10.084  1.00  0.00     0.059 A 
ATOM     15  C   UNL     1       7.012   2.973  -8.985  1.00  0.00     0.120 A 
ATOM     16  C   UNL     1       6.776   3.529  -7.728  1.00  0.00     0.093 A 
ATOM     17  C   UNL     1       5.791   4.505  -7.551  1.00  0.00     0.131 A 
ENDROOT
BRANCH   6  18
ATOM     18  O   UNL     1       2.210   8.312  -8.374  1.00  0.00    -0.507 OA
ATOM     19  H   UNL     1       1.297   8.427  -7.958  1.00  0.00     0.293 HD
ENDBRANCH   6  18
BRANCH  17  20
ATOM     20  O   UNL     1       5.675   5.081  -6.284  1.00  0.00    -0.507 OA
ATOM     21  H   UNL     1       5.229   4.623  -5.500  1.00  0.00     0.293 HD
ENDBRANCH  17  20
BRANCH  15  22
ATOM     22  O   UNL     1       8.006   2.008  -9.133  1.00  0.00    -0.508 OA
ATOM     23  H   UNL     1       8.309   1.435  -8.353  1.00  0.00     0.293 HD
ENDBRANCH  15  22
TORSDOF 3
ENDMDL
