MODEL 1
REMARK VINA RESULT:    -5.483      0.000      0.000
REMARK INTER + INTRA:          -6.529
REMARK INTER:                  -6.444
REMARK INTRA:                  -0.085
REMARK UNBOUND:                -0.085
REMARK SMILES CC1(C)CC[C@@]2(C(=O)[O-])CC[C@@]3(C)C(=CC[C@H]4[C@@]5(C)CC[C@@H](O)[C@@](C)(CO)[C@@H]5CC[C@]43C)[C@@H]2C1
REMARK SMILES IDX 6 1 5 2 10 3 33 4 4 5 11 6 14 7 34 8 2 9 12 10 15 11 1 12
REMARK SMILES IDX 3 13 13 14 31 15 16 16 17 17 30 18 32 19 18 20 29 21 28 22
REMARK SMILES IDX 20 23 19 24 24 25 21 26 22 27 25 28 7 29 8 30 9 31 26 32
REMARK SMILES IDX 27 33 23 35
REMARK H PARENT 27 34 23 36
REMARK Flexibility Score: inf
ROOT
ATOM      1  C   UNL     1      16.259  21.766   3.734  1.00  0.00     0.017 C 
ATOM      2  C   UNL     1      15.395  22.809   2.979  1.00  0.00     0.014 C 
ATOM      3  C   UNL     1      17.335  22.526   4.529  1.00  0.00     0.014 C 
ATOM      4  C   UNL     1      15.374  21.000   4.764  1.00  0.00     0.028 C 
ATOM      5  C   UNL     1      14.210  22.157   2.255  1.00  0.00     0.007 C 
ATOM      6  C   UNL     1      18.257  21.577   5.301  1.00  0.00     0.013 C 
ATOM      7  C   UNL     1      16.229  20.036   5.625  1.00  0.00    -0.064 C 
ATOM      8  C   UNL     1      14.117  20.375   4.080  1.00  0.00     0.015 C 
ATOM      9  C   UNL     1      13.290  21.371   3.218  1.00  0.00    -0.035 C 
ATOM     10  C   UNL     1      17.540  20.540   6.252  1.00  0.00    -0.006 C 
ATOM     11  C   UNL     1      15.681  18.904   6.106  1.00  0.00    -0.027 C 
ATOM     12  C   UNL     1      12.273  20.567   2.379  1.00  0.00     0.011 C 
ATOM     13  C   UNL     1      12.491  22.344   4.118  1.00  0.00     0.011 C 
ATOM     14  C   UNL     1      17.115  21.322   7.532  1.00  0.00     0.017 C 
ATOM     15  C   UNL     1      18.525  19.307   6.627  1.00  0.00    -0.020 C 
ATOM     16  C   UNL     1      16.344  17.943   7.040  1.00  0.00     0.032 C 
ATOM     17  C   UNL     1      17.778  18.270   7.573  1.00  0.00     0.006 C 
ATOM     18  C   UNL     1      18.990  18.521   5.357  1.00  0.00     0.008 C 
ATOM     19  C   UNL     1      19.796  19.902   7.324  1.00  0.00     0.012 C 
ATOM     20  C   UNL     1      18.595  16.924   7.912  1.00  0.00    -0.025 C 
ATOM     21  C   UNL     1      19.800  17.238   5.641  1.00  0.00     0.005 C 
ATOM     22  C   UNL     1      19.050  16.244   6.560  1.00  0.00     0.006 C 
ATOM     23  C   UNL     1      17.695  15.913   8.709  1.00  0.00     0.010 C 
ATOM     24  C   UNL     1      19.795  17.273   8.857  1.00  0.00     0.012 C 
ATOM     25  C   UNL     1      19.723  14.812   6.696  1.00  0.00     0.020 C 
ATOM     26  C   UNL     1      18.307  14.506   8.868  1.00  0.00     0.033 C 
ATOM     27  C   UNL     1      18.776  13.882   7.534  1.00  0.00     0.123 C 
ATOM     28  C   UNL     1      21.125  14.841   7.363  1.00  0.00     0.017 C 
ENDROOT
BRANCH   1  29
ATOM     29  C   UNL     1      16.932  20.845   2.714  1.00  0.00     0.048 C 
ATOM     30  O   UNL     1      17.906  21.269   2.035  1.00  0.00    -0.550 OA
ATOM     31  O   UNL     1      16.509  19.535   2.525  1.00  0.00    -0.550 OA
ENDBRANCH   1  29
BRANCH  25  32
ATOM     32  C   UNL     1      19.897  14.141   5.291  1.00  0.00     0.165 C 
BRANCH  32  33
ATOM     33  O   UNL     1      20.245  12.784   5.392  1.00  0.00    -0.396 OA
ATOM     34  H   UNL     1      19.751  12.316   4.668  1.00  0.00     0.210 HD
ENDBRANCH  32  33
ENDBRANCH  25  32
BRANCH  27  35
ATOM     35  O   UNL     1      17.684  13.426   6.766  1.00  0.00    -0.392 OA
ATOM     36  H   UNL     1      17.636  12.438   6.825  1.00  0.00     0.210 HD
ENDBRANCH  27  35
TORSDOF 4
ENDMDL
MODEL 2
REMARK VINA RESULT:    -4.852      1.710      2.286
REMARK INTER + INTRA:          -5.788
REMARK INTER:                  -5.638
REMARK INTRA:                  -0.150
REMARK UNBOUND:                -0.085
REMARK SMILES CC1(C)CC[C@@]2(C(=O)[O-])CC[C@@]3(C)C(=CC[C@H]4[C@@]5(C)CC[C@@H](O)[C@@](C)(CO)[C@@H]5CC[C@]43C)[C@@H]2C1
REMARK SMILES IDX 6 1 5 2 10 3 33 4 4 5 11 6 14 7 34 8 2 9 12 10 15 11 1 12
REMARK SMILES IDX 3 13 13 14 31 15 16 16 17 17 30 18 32 19 18 20 29 21 28 22
REMARK SMILES IDX 20 23 19 24 24 25 21 26 22 27 25 28 7 29 8 30 9 31 26 32
REMARK SMILES IDX 27 33 23 35
REMARK H PARENT 27 34 23 36
REMARK Flexibility Score: inf
ROOT
ATOM      1  C   UNL     1      16.238  21.206   4.697  1.00  0.00     0.017 C 
ATOM      2  C   UNL     1      15.632  22.591   4.350  1.00  0.00     0.014 C 
ATOM      3  C   UNL     1      16.999  21.341   6.027  1.00  0.00     0.014 C 
ATOM      4  C   UNL     1      15.091  20.174   4.919  1.00  0.00     0.028 C 
ATOM      5  C   UNL     1      14.745  22.532   3.101  1.00  0.00     0.007 C 
ATOM      6  C   UNL     1      17.653  20.022   6.452  1.00  0.00     0.013 C 
ATOM      7  C   UNL     1      15.655  18.809   5.390  1.00  0.00    -0.064 C 
ATOM      8  C   UNL     1      14.122  20.129   3.696  1.00  0.00     0.015 C 
ATOM      9  C   UNL     1      13.586  21.518   3.248  1.00  0.00    -0.035 C 
ATOM     10  C   UNL     1      16.696  18.768   6.521  1.00  0.00    -0.006 C 
ATOM     11  C   UNL     1      15.005  17.672   5.073  1.00  0.00    -0.027 C 
ATOM     12  C   UNL     1      12.895  21.359   1.875  1.00  0.00     0.011 C 
ATOM     13  C   UNL     1      12.528  22.047   4.246  1.00  0.00     0.011 C 
ATOM     14  C   UNL     1      15.878  18.898   7.842  1.00  0.00     0.017 C 
ATOM     15  C   UNL     1      17.539  17.382   6.495  1.00  0.00    -0.020 C 
ATOM     16  C   UNL     1      15.363  16.301   5.552  1.00  0.00     0.032 C 
ATOM     17  C   UNL     1      16.554  16.135   6.553  1.00  0.00     0.006 C 
ATOM     18  C   UNL     1      18.390  17.238   5.192  1.00  0.00     0.008 C 
ATOM     19  C   UNL     1      18.517  17.393   7.719  1.00  0.00     0.012 C 
ATOM     20  C   UNL     1      17.251  14.692   6.395  1.00  0.00    -0.025 C 
ATOM     21  C   UNL     1      19.096  15.877   5.018  1.00  0.00     0.005 C 
ATOM     22  C   UNL     1      18.117  14.680   5.073  1.00  0.00     0.006 C 
ATOM     23  C   UNL     1      16.167  13.558   6.300  1.00  0.00     0.010 C 
ATOM     24  C   UNL     1      18.090  14.379   7.681  1.00  0.00     0.012 C 
ATOM     25  C   UNL     1      18.740  13.277   4.665  1.00  0.00     0.020 C 
ATOM     26  C   UNL     1      16.725  12.175   5.906  1.00  0.00     0.033 C 
ATOM     27  C   UNL     1      17.598  12.202   4.631  1.00  0.00     0.123 C 
ATOM     28  C   UNL     1      19.865  12.792   5.620  1.00  0.00     0.017 C 
ENDROOT
BRANCH   1  29
ATOM     29  C   UNL     1      17.213  20.798   3.591  1.00  0.00     0.048 C 
ATOM     30  O   UNL     1      18.201  21.534   3.322  1.00  0.00    -0.550 OA
ATOM     31  O   UNL     1      17.050  19.617   2.876  1.00  0.00    -0.550 OA
ENDBRANCH   1  29
BRANCH  25  32
ATOM     32  C   UNL     1      19.356  13.338   3.225  1.00  0.00     0.165 C 
BRANCH  32  33
ATOM     33  O   UNL     1      19.543  12.059   2.676  1.00  0.00    -0.396 OA
ATOM     34  H   UNL     1      18.809  11.493   3.032  1.00  0.00     0.210 HD
ENDBRANCH  32  33
ENDBRANCH  25  32
BRANCH  27  35
ATOM     35  O   UNL     1      16.808  12.321   3.468  1.00  0.00    -0.392 OA
ATOM     36  H   UNL     1      17.047  11.595   2.837  1.00  0.00     0.210 HD
ENDBRANCH  27  35
TORSDOF 4
ENDMDL
MODEL 3
REMARK VINA RESULT:    -4.723      3.774      5.876
REMARK INTER + INTRA:          -5.636
REMARK INTER:                  -5.504
REMARK INTRA:                  -0.132
REMARK UNBOUND:                -0.085
REMARK SMILES CC1(C)CC[C@@]2(C(=O)[O-])CC[C@@]3(C)C(=CC[C@H]4[C@@]5(C)CC[C@@H](O)[C@@](C)(CO)[C@@H]5CC[C@]43C)[C@@H]2C1
REMARK SMILES IDX 6 1 5 2 10 3 33 4 4 5 11 6 14 7 34 8 2 9 12 10 15 11 1 12
REMARK SMILES IDX 3 13 13 14 31 15 16 16 17 17 30 18 32 19 18 20 29 21 28 22
REMARK SMILES IDX 20 23 19 24 24 25 21 26 22 27 25 28 7 29 8 30 9 31 26 32
REMARK SMILES IDX 27 33 23 35
REMARK H PARENT 27 34 23 36
REMARK Flexibility Score: inf
ROOT
ATOM      1  C   UNL     1      17.285  19.607   5.873  1.00  0.00     0.017 C 
ATOM      2  C   UNL     1      17.669  20.932   6.583  1.00  0.00     0.014 C 
ATOM      3  C   UNL     1      17.935  19.611   4.478  1.00  0.00     0.014 C 
ATOM      4  C   UNL     1      17.880  18.400   6.660  1.00  0.00     0.028 C 
ATOM      5  C   UNL     1      17.173  20.969   8.034  1.00  0.00     0.007 C 
ATOM      6  C   UNL     1      17.600  18.345   3.685  1.00  0.00     0.013 C 
ATOM      7  C   UNL     1      17.623  17.068   5.912  1.00  0.00    -0.064 C 
ATOM      8  C   UNL     1      17.455  18.436   8.162  1.00  0.00     0.015 C 
ATOM      9  C   UNL     1      17.720  19.792   8.875  1.00  0.00    -0.035 C 
ATOM     10  C   UNL     1      17.916  16.975   4.405  1.00  0.00    -0.006 C 
ATOM     11  C   UNL     1      17.485  15.924   6.611  1.00  0.00    -0.027 C 
ATOM     12  C   UNL     1      16.991  19.781  10.237  1.00  0.00     0.011 C 
ATOM     13  C   UNL     1      19.231  19.980   9.152  1.00  0.00     0.011 C 
ATOM     14  C   UNL     1      19.455  16.753   4.294  1.00  0.00     0.017 C 
ATOM     15  C   UNL     1      17.102  15.749   3.722  1.00  0.00    -0.020 C 
ATOM     16  C   UNL     1      17.350  14.555   6.025  1.00  0.00     0.032 C 
ATOM     17  C   UNL     1      17.426  14.385   4.471  1.00  0.00     0.006 C 
ATOM     18  C   UNL     1      15.555  15.960   3.794  1.00  0.00     0.008 C 
ATOM     19  C   UNL     1      17.516  15.682   2.211  1.00  0.00     0.012 C 
ATOM     20  C   UNL     1      16.578  13.106   3.983  1.00  0.00    -0.025 C 
ATOM     21  C   UNL     1      14.708  14.764   3.309  1.00  0.00     0.005 C 
ATOM     22  C   UNL     1      15.038  13.450   4.056  1.00  0.00     0.006 C 
ATOM     23  C   UNL     1      16.863  11.865   4.904  1.00  0.00     0.010 C 
ATOM     24  C   UNL     1      17.047  12.693   2.546  1.00  0.00     0.012 C 
ATOM     25  C   UNL     1      14.043  12.245   3.774  1.00  0.00     0.020 C 
ATOM     26  C   UNL     1      15.922  10.666   4.666  1.00  0.00     0.033 C 
ATOM     27  C   UNL     1      14.423  11.041   4.707  1.00  0.00     0.123 C 
ATOM     28  C   UNL     1      14.049  11.762   2.298  1.00  0.00     0.017 C 
ENDROOT
BRANCH   1  29
ATOM     29  C   UNL     1      15.764  19.543   5.728  1.00  0.00     0.048 C 
ATOM     30  O   UNL     1      15.155  20.454   5.104  1.00  0.00    -0.550 OA
ATOM     31  O   UNL     1      15.026  18.489   6.253  1.00  0.00    -0.550 OA
ENDBRANCH   1  29
BRANCH  25  32
ATOM     32  C   UNL     1      12.568  12.645   4.120  1.00  0.00     0.165 C 
BRANCH  32  33
ATOM     33  O   UNL     1      11.769  11.526   4.404  1.00  0.00    -0.396 OA
ATOM     34  H   UNL     1      10.889  11.880   4.700  1.00  0.00     0.210 HD
ENDBRANCH  32  33
ENDBRANCH  25  32
BRANCH  27  35
ATOM     35  O   UNL     1      13.980  11.251   6.030  1.00  0.00    -0.392 OA
ATOM     36  H   UNL     1      14.076  10.408   6.542  1.00  0.00     0.210 HD
ENDBRANCH  27  35
TORSDOF 4
ENDMDL
MODEL 4
REMARK VINA RESULT:    -4.175      2.158      7.771
REMARK INTER + INTRA:          -4.992
REMARK INTER:                  -5.038
REMARK INTRA:                   0.046
REMARK UNBOUND:                -0.085
REMARK SMILES CC1(C)CC[C@@]2(C(=O)[O-])CC[C@@]3(C)C(=CC[C@H]4[C@@]5(C)CC[C@@H](O)[C@@](C)(CO)[C@@H]5CC[C@]43C)[C@@H]2C1
REMARK SMILES IDX 6 1 5 2 10 3 33 4 4 5 11 6 14 7 34 8 2 9 12 10 15 11 1 12
REMARK SMILES IDX 3 13 13 14 31 15 16 16 17 17 30 18 32 19 18 20 29 21 28 22
REMARK SMILES IDX 20 23 19 24 24 25 21 26 22 27 25 28 7 29 8 30 9 31 26 32
REMARK SMILES IDX 27 33 23 35
REMARK H PARENT 27 34 23 36
REMARK Flexibility Score: inf
ROOT
ATOM      1  C   UNL     1      16.896  13.728   5.336  1.00  0.00     0.017 C 
ATOM      2  C   UNL     1      17.119  12.193   5.345  1.00  0.00     0.014 C 
ATOM      3  C   UNL     1      16.237  14.121   6.669  1.00  0.00     0.014 C 
ATOM      4  C   UNL     1      18.273  14.456   5.265  1.00  0.00     0.028 C 
ATOM      5  C   UNL     1      17.890  11.717   4.108  1.00  0.00     0.007 C 
ATOM      6  C   UNL     1      15.959  15.624   6.752  1.00  0.00     0.013 C 
ATOM      7  C   UNL     1      18.097  15.991   5.379  1.00  0.00    -0.064 C 
ATOM      8  C   UNL     1      19.121  13.952   4.054  1.00  0.00     0.015 C 
ATOM      9  C   UNL     1      19.267  12.406   3.969  1.00  0.00    -0.035 C 
ATOM     10  C   UNL     1      17.193  16.571   6.480  1.00  0.00    -0.006 C 
ATOM     11  C   UNL     1      18.974  16.813   4.769  1.00  0.00    -0.027 C 
ATOM     12  C   UNL     1      19.861  12.045   2.589  1.00  0.00     0.011 C 
ATOM     13  C   UNL     1      20.244  11.887   5.051  1.00  0.00     0.011 C 
ATOM     14  C   UNL     1      18.060  16.564   7.775  1.00  0.00     0.017 C 
ATOM     15  C   UNL     1      16.711  18.077   6.113  1.00  0.00    -0.020 C 
ATOM     16  C   UNL     1      18.998  18.303   4.886  1.00  0.00     0.032 C 
ATOM     17  C   UNL     1      17.969  19.006   5.831  1.00  0.00     0.006 C 
ATOM     18  C   UNL     1      15.815  18.110   4.832  1.00  0.00     0.008 C 
ATOM     19  C   UNL     1      15.862  18.614   7.316  1.00  0.00     0.012 C 
ATOM     20  C   UNL     1      17.631  20.496   5.320  1.00  0.00    -0.025 C 
ATOM     21  C   UNL     1      15.448  19.521   4.327  1.00  0.00     0.005 C 
ATOM     22  C   UNL     1      16.688  20.405   4.055  1.00  0.00     0.006 C 
ATOM     23  C   UNL     1      18.945  21.257   4.918  1.00  0.00     0.010 C 
ATOM     24  C   UNL     1      17.000  21.316   6.497  1.00  0.00     0.012 C 
ATOM     25  C   UNL     1      16.391  21.776   3.311  1.00  0.00     0.020 C 
ATOM     26  C   UNL     1      18.707  22.598   4.192  1.00  0.00     0.033 C 
ATOM     27  C   UNL     1      17.752  22.483   2.982  1.00  0.00     0.123 C 
ATOM     28  C   UNL     1      15.499  22.750   4.129  1.00  0.00     0.017 C 
ENDROOT
BRANCH   1  29
ATOM     29  C   UNL     1      15.962  14.088   4.179  1.00  0.00     0.048 C 
ATOM     30  O   UNL     1      14.808  13.584   4.125  1.00  0.00    -0.550 OA
ATOM     31  O   UNL     1      16.346  14.978   3.183  1.00  0.00    -0.550 OA
ENDBRANCH   1  29
BRANCH  25  32
ATOM     32  C   UNL     1      15.663  21.525   1.947  1.00  0.00     0.165 C 
BRANCH  32  33
ATOM     33  O   UNL     1      14.289  21.808   2.020  1.00  0.00    -0.396 OA
ATOM     34  H   UNL     1      13.819  20.943   1.888  1.00  0.00     0.210 HD
ENDBRANCH  32  33
ENDBRANCH  25  32
BRANCH  27  35
ATOM     35  O   UNL     1      18.392  21.886   1.875  1.00  0.00    -0.392 OA
ATOM     36  H   UNL     1      17.762  21.261   1.434  1.00  0.00     0.210 HD
ENDBRANCH  27  35
TORSDOF 4
ENDMDL
MODEL 5
REMARK VINA RESULT:    -4.088      3.465      6.352
REMARK INTER + INTRA:          -4.890
REMARK INTER:                  -4.784
REMARK INTRA:                  -0.106
REMARK UNBOUND:                -0.085
REMARK SMILES CC1(C)CC[C@@]2(C(=O)[O-])CC[C@@]3(C)C(=CC[C@H]4[C@@]5(C)CC[C@@H](O)[C@@](C)(CO)[C@@H]5CC[C@]43C)[C@@H]2C1
REMARK SMILES IDX 6 1 5 2 10 3 33 4 4 5 11 6 14 7 34 8 2 9 12 10 15 11 1 12
REMARK SMILES IDX 3 13 13 14 31 15 16 16 17 17 30 18 32 19 18 20 29 21 28 22
REMARK SMILES IDX 20 23 19 24 24 25 21 26 22 27 25 28 7 29 8 30 9 31 26 32
REMARK SMILES IDX 27 33 23 35
REMARK H PARENT 27 34 23 36
REMARK Flexibility Score: inf
ROOT
ATOM      1  C   UNL     1      17.167  18.601   6.306  1.00  0.00     0.017 C 
ATOM      2  C   UNL     1      17.455  19.971   6.974  1.00  0.00     0.014 C 
ATOM      3  C   UNL     1      16.597  18.868   4.902  1.00  0.00     0.014 C 
ATOM      4  C   UNL     1      18.502  17.817   6.125  1.00  0.00     0.028 C 
ATOM      5  C   UNL     1      18.147  19.812   8.334  1.00  0.00     0.007 C 
ATOM      6  C   UNL     1      16.262  17.571   4.161  1.00  0.00     0.013 C 
ATOM      7  C   UNL     1      18.270  16.496   5.348  1.00  0.00    -0.064 C 
ATOM      8  C   UNL     1      19.274  17.689   7.476  1.00  0.00     0.015 C 
ATOM      9  C   UNL     1      19.479  19.033   8.231  1.00  0.00    -0.035 C 
ATOM     10  C   UNL     1      17.430  16.513   4.059  1.00  0.00    -0.006 C 
ATOM     11  C   UNL     1      19.061  15.432   5.585  1.00  0.00    -0.027 C 
ATOM     12  C   UNL     1      19.979  18.723   9.659  1.00  0.00     0.011 C 
ATOM     13  C   UNL     1      20.558  19.896   7.533  1.00  0.00     0.011 C 
ATOM     14  C   UNL     1      18.395  17.014   2.941  1.00  0.00     0.017 C 
ATOM     15  C   UNL     1      16.858  15.035   3.711  1.00  0.00    -0.020 C 
ATOM     16  C   UNL     1      19.031  14.139   4.835  1.00  0.00     0.032 C 
ATOM     17  C   UNL     1      18.050  13.986   3.627  1.00  0.00     0.006 C 
ATOM     18  C   UNL     1      15.865  14.519   4.804  1.00  0.00     0.008 C 
ATOM     19  C   UNL     1      16.083  15.128   2.352  1.00  0.00     0.012 C 
ATOM     20  C   UNL     1      17.610  12.450   3.423  1.00  0.00    -0.025 C 
ATOM     21  C   UNL     1      15.400  13.058   4.628  1.00  0.00     0.005 C 
ATOM     22  C   UNL     1      16.577  12.056   4.553  1.00  0.00     0.006 C 
ATOM     23  C   UNL     1      18.855  11.498   3.523  1.00  0.00     0.010 C 
ATOM     24  C   UNL     1      17.038  12.263   1.977  1.00  0.00     0.012 C 
ATOM     25  C   UNL     1      16.165  10.524   4.612  1.00  0.00     0.020 C 
ATOM     26  C   UNL     1      18.505   9.996   3.583  1.00  0.00     0.033 C 
ATOM     27  C   UNL     1      17.465   9.648   4.672  1.00  0.00     0.123 C 
ATOM     28  C   UNL     1      15.298  10.063   3.408  1.00  0.00     0.017 C 
ENDROOT
BRANCH   1  29
ATOM     29  C   UNL     1      16.132  17.848   7.142  1.00  0.00     0.048 C 
ATOM     30  O   UNL     1      15.023  18.388   7.403  1.00  0.00    -0.550 OA
ATOM     31  O   UNL     1      16.372  16.563   7.615  1.00  0.00    -0.550 OA
ENDBRANCH   1  29
BRANCH  25  32
ATOM     32  C   UNL     1      15.344  10.216   5.911  1.00  0.00     0.165 C 
BRANCH  32  33
ATOM     33  O   UNL     1      15.479   8.878   6.317  1.00  0.00    -0.396 OA
ATOM     34  H   UNL     1      16.440   8.748   6.532  1.00  0.00     0.210 HD
ENDBRANCH  32  33
ENDBRANCH  25  32
BRANCH  27  35
ATOM     35  O   UNL     1      18.042   9.664   5.959  1.00  0.00    -0.392 OA
ATOM     36  H   UNL     1      17.369   9.982   6.613  1.00  0.00     0.210 HD
ENDBRANCH  27  35
TORSDOF 4
ENDMDL
MODEL 6
REMARK VINA RESULT:    -3.999      3.855      6.676
REMARK INTER + INTRA:          -4.785
REMARK INTER:                  -4.701
REMARK INTRA:                  -0.084
REMARK UNBOUND:                -0.085
REMARK SMILES CC1(C)CC[C@@]2(C(=O)[O-])CC[C@@]3(C)C(=CC[C@H]4[C@@]5(C)CC[C@@H](O)[C@@](C)(CO)[C@@H]5CC[C@]43C)[C@@H]2C1
REMARK SMILES IDX 6 1 5 2 10 3 33 4 4 5 11 6 14 7 34 8 2 9 12 10 15 11 1 12
REMARK SMILES IDX 3 13 13 14 31 15 16 16 17 17 30 18 32 19 18 20 29 21 28 22
REMARK SMILES IDX 20 23 19 24 24 25 21 26 22 27 25 28 7 29 8 30 9 31 26 32
REMARK SMILES IDX 27 33 23 35
REMARK H PARENT 27 34 23 36
REMARK Flexibility Score: inf
ROOT
ATOM      1  C   UNL     1      16.514  12.962   3.145  1.00  0.00     0.017 C 
ATOM      2  C   UNL     1      15.844  11.759   2.432  1.00  0.00     0.014 C 
ATOM      3  C   UNL     1      17.707  13.419   2.288  1.00  0.00     0.014 C 
ATOM      4  C   UNL     1      15.510  14.153   3.218  1.00  0.00     0.028 C 
ATOM      5  C   UNL     1      14.563  11.310   3.146  1.00  0.00     0.007 C 
ATOM      6  C   UNL     1      18.450  14.600   2.919  1.00  0.00     0.013 C 
ATOM      7  C   UNL     1      16.185  15.415   3.812  1.00  0.00    -0.064 C 
ATOM      8  C   UNL     1      14.163  13.721   3.879  1.00  0.00     0.015 C 
ATOM      9  C   UNL     1      13.521  12.446   3.261  1.00  0.00    -0.035 C 
ATOM     10  C   UNL     1      17.565  15.853   3.292  1.00  0.00    -0.006 C 
ATOM     11  C   UNL     1      15.449  16.304   4.507  1.00  0.00    -0.027 C 
ATOM     12  C   UNL     1      12.379  11.974   4.186  1.00  0.00     0.011 C 
ATOM     13  C   UNL     1      12.905  12.758   1.876  1.00  0.00     0.011 C 
ATOM     14  C   UNL     1      17.283  16.617   1.963  1.00  0.00     0.017 C 
ATOM     15  C   UNL     1      18.320  16.810   4.362  1.00  0.00    -0.020 C 
ATOM     16  C   UNL     1      15.935  17.615   5.036  1.00  0.00     0.032 C 
ATOM     17  C   UNL     1      17.405  18.056   4.732  1.00  0.00     0.006 C 
ATOM     18  C   UNL     1      18.640  16.060   5.697  1.00  0.00     0.008 C 
ATOM     19  C   UNL     1      19.676  17.268   3.723  1.00  0.00     0.012 C 
ATOM     20  C   UNL     1      17.976  19.018   5.891  1.00  0.00    -0.025 C 
ATOM     21  C   UNL     1      19.214  16.944   6.823  1.00  0.00     0.005 C 
ATOM     22  C   UNL     1      18.304  18.146   7.168  1.00  0.00     0.006 C 
ATOM     23  C   UNL     1      16.914  20.108   6.282  1.00  0.00     0.010 C 
ATOM     24  C   UNL     1      19.219  19.801   5.347  1.00  0.00     0.012 C 
ATOM     25  C   UNL     1      18.717  18.954   8.472  1.00  0.00     0.020 C 
ATOM     26  C   UNL     1      17.272  20.921   7.544  1.00  0.00     0.033 C 
ATOM     27  C   UNL     1      17.624  20.041   8.765  1.00  0.00     0.123 C 
ATOM     28  C   UNL     1      20.103  19.646   8.366  1.00  0.00     0.017 C 
ENDROOT
BRANCH   1  29
ATOM     29  C   UNL     1      17.015  12.511   4.518  1.00  0.00     0.048 C 
ATOM     30  O   UNL     1      17.847  11.566   4.602  1.00  0.00    -0.550 OA
ATOM     31  O   UNL     1      16.591  13.129   5.688  1.00  0.00    -0.550 OA
ENDBRANCH   1  29
BRANCH  25  32
ATOM     32  C   UNL     1      18.770  18.009   9.721  1.00  0.00     0.165 C 
BRANCH  32  33
ATOM     33  O   UNL     1      17.721  17.076   9.723  1.00  0.00    -0.396 OA
ATOM     34  H   UNL     1      17.972  16.373   9.068  1.00  0.00     0.210 HD
ENDBRANCH  32  33
ENDBRANCH  25  32
BRANCH  27  35
ATOM     35  O   UNL     1      16.468  19.473   9.341  1.00  0.00    -0.392 OA
ATOM     36  H   UNL     1      15.890  19.113   8.620  1.00  0.00     0.210 HD
ENDBRANCH  27  35
TORSDOF 4
ENDMDL
MODEL 7
REMARK VINA RESULT:    -3.815      3.359      7.572
REMARK INTER + INTRA:          -4.569
REMARK INTER:                  -4.479
REMARK INTRA:                  -0.090
REMARK UNBOUND:                -0.085
REMARK SMILES CC1(C)CC[C@@]2(C(=O)[O-])CC[C@@]3(C)C(=CC[C@H]4[C@@]5(C)CC[C@@H](O)[C@@](C)(CO)[C@@H]5CC[C@]43C)[C@@H]2C1
REMARK SMILES IDX 6 1 5 2 10 3 33 4 4 5 11 6 14 7 34 8 2 9 12 10 15 11 1 12
REMARK SMILES IDX 3 13 13 14 31 15 16 16 17 17 30 18 32 19 18 20 29 21 28 22
REMARK SMILES IDX 20 23 19 24 24 25 21 26 22 27 25 28 7 29 8 30 9 31 26 32
REMARK SMILES IDX 27 33 23 35
REMARK H PARENT 27 34 23 36
REMARK Flexibility Score: inf
ROOT
ATOM      1  C   UNL     1      17.506  12.687   4.023  1.00  0.00     0.017 C 
ATOM      2  C   UNL     1      17.612  11.279   3.381  1.00  0.00     0.014 C 
ATOM      3  C   UNL     1      16.019  13.080   4.062  1.00  0.00     0.014 C 
ATOM      4  C   UNL     1      18.010  12.628   5.497  1.00  0.00     0.028 C 
ATOM      5  C   UNL     1      19.048  10.741   3.413  1.00  0.00     0.007 C 
ATOM      6  C   UNL     1      15.808  14.471   4.668  1.00  0.00     0.013 C 
ATOM      7  C   UNL     1      17.803  13.989   6.210  1.00  0.00    -0.064 C 
ATOM      8  C   UNL     1      19.447  12.022   5.583  1.00  0.00     0.015 C 
ATOM      9  C   UNL     1      19.618  10.663   4.848  1.00  0.00    -0.035 C 
ATOM     10  C   UNL     1      16.449  14.708   6.091  1.00  0.00    -0.006 C 
ATOM     11  C   UNL     1      18.647  14.366   7.190  1.00  0.00    -0.027 C 
ATOM     12  C   UNL     1      21.125  10.337   4.761  1.00  0.00     0.011 C 
ATOM     13  C   UNL     1      18.936   9.521   5.640  1.00  0.00     0.011 C 
ATOM     14  C   UNL     1      15.516  14.011   7.127  1.00  0.00     0.017 C 
ATOM     15  C   UNL     1      16.594  16.292   6.415  1.00  0.00    -0.020 C 
ATOM     16  C   UNL     1      18.505  15.588   8.041  1.00  0.00     0.032 C 
ATOM     17  C   UNL     1      17.253  16.505   7.846  1.00  0.00     0.006 C 
ATOM     18  C   UNL     1      17.504  17.022   5.374  1.00  0.00     0.008 C 
ATOM     19  C   UNL     1      15.163  16.929   6.345  1.00  0.00     0.012 C 
ATOM     20  C   UNL     1      17.582  18.033   8.238  1.00  0.00    -0.025 C 
ATOM     21  C   UNL     1      17.820  18.496   5.702  1.00  0.00     0.005 C 
ATOM     22  C   UNL     1      18.465  18.678   7.097  1.00  0.00     0.006 C 
ATOM     23  C   UNL     1      18.378  18.099   9.591  1.00  0.00     0.010 C 
ATOM     24  C   UNL     1      16.241  18.803   8.487  1.00  0.00     0.012 C 
ATOM     25  C   UNL     1      19.030  20.132   7.396  1.00  0.00     0.020 C 
ATOM     26  C   UNL     1      18.947  19.494   9.926  1.00  0.00     0.033 C 
ATOM     27  C   UNL     1      19.774  20.115   8.777  1.00  0.00     0.123 C 
ATOM     28  C   UNL     1      17.936  21.234   7.423  1.00  0.00     0.017 C 
ENDROOT
BRANCH   1  29
ATOM     29  C   UNL     1      18.276  13.687   3.160  1.00  0.00     0.048 C 
ATOM     30  O   UNL     1      17.931  13.879   1.963  1.00  0.00    -0.550 OA
ATOM     31  O   UNL     1      19.348  14.413   3.667  1.00  0.00    -0.550 OA
ENDBRANCH   1  29
BRANCH  25  32
ATOM     32  C   UNL     1      20.082  20.555   6.314  1.00  0.00     0.165 C 
BRANCH  32  33
ATOM     33  O   UNL     1      20.938  19.497   5.966  1.00  0.00    -0.396 OA
ATOM     34  H   UNL     1      21.157  19.622   5.005  1.00  0.00     0.210 HD
ENDBRANCH  32  33
ENDBRANCH  25  32
BRANCH  27  35
ATOM     35  O   UNL     1      21.046  19.514   8.674  1.00  0.00    -0.392 OA
ATOM     36  H   UNL     1      21.057  18.682   9.215  1.00  0.00     0.210 HD
ENDBRANCH  27  35
TORSDOF 4
ENDMDL
MODEL 8
REMARK VINA RESULT:    -3.799      2.731      4.841
REMARK INTER + INTRA:          -4.550
REMARK INTER:                  -4.464
REMARK INTRA:                  -0.086
REMARK UNBOUND:                -0.085
REMARK SMILES CC1(C)CC[C@@]2(C(=O)[O-])CC[C@@]3(C)C(=CC[C@H]4[C@@]5(C)CC[C@@H](O)[C@@](C)(CO)[C@@H]5CC[C@]43C)[C@@H]2C1
REMARK SMILES IDX 6 1 5 2 10 3 33 4 4 5 11 6 14 7 34 8 2 9 12 10 15 11 1 12
REMARK SMILES IDX 3 13 13 14 31 15 16 16 17 17 30 18 32 19 18 20 29 21 28 22
REMARK SMILES IDX 20 23 19 24 24 25 21 26 22 27 25 28 7 29 8 30 9 31 26 32
REMARK SMILES IDX 27 33 23 35
REMARK H PARENT 27 34 23 36
REMARK Flexibility Score: inf
ROOT
ATOM      1  C   UNL     1      17.646  19.733   7.127  1.00  0.00     0.017 C 
ATOM      2  C   UNL     1      17.647  21.259   7.404  1.00  0.00     0.014 C 
ATOM      3  C   UNL     1      16.722  19.064   8.159  1.00  0.00     0.014 C 
ATOM      4  C   UNL     1      17.044  19.458   5.716  1.00  0.00     0.028 C 
ATOM      5  C   UNL     1      18.442  22.034   6.346  1.00  0.00     0.007 C 
ATOM      6  C   UNL     1      16.666  17.544   7.980  1.00  0.00     0.013 C 
ATOM      7  C   UNL     1      16.912  17.936   5.454  1.00  0.00    -0.064 C 
ATOM      8  C   UNL     1      17.782  20.281   4.612  1.00  0.00     0.015 C 
ATOM      9  C   UNL     1      17.903  21.801   4.915  1.00  0.00    -0.035 C 
ATOM     10  C   UNL     1      16.291  17.033   6.534  1.00  0.00    -0.006 C 
ATOM     11  C   UNL     1      17.007  17.462   4.197  1.00  0.00    -0.027 C 
ATOM     12  C   UNL     1      18.895  22.425   3.909  1.00  0.00     0.011 C 
ATOM     13  C   UNL     1      16.539  22.508   4.729  1.00  0.00     0.011 C 
ATOM     14  C   UNL     1      14.749  17.203   6.381  1.00  0.00     0.017 C 
ATOM     15  C   UNL     1      16.727  15.484   6.325  1.00  0.00    -0.020 C 
ATOM     16  C   UNL     1      16.786  16.044   3.781  1.00  0.00     0.032 C 
ATOM     17  C   UNL     1      16.352  14.996   4.859  1.00  0.00     0.006 C 
ATOM     18  C   UNL     1      18.267  15.279   6.500  1.00  0.00     0.008 C 
ATOM     19  C   UNL     1      15.994  14.629   7.415  1.00  0.00     0.012 C 
ATOM     20  C   UNL     1      16.853  13.516   4.469  1.00  0.00    -0.025 C 
ATOM     21  C   UNL     1      18.782  13.864   6.161  1.00  0.00     0.005 C 
ATOM     22  C   UNL     1      18.409  13.414   4.728  1.00  0.00     0.006 C 
ATOM     23  C   UNL     1      16.572  13.215   2.953  1.00  0.00     0.010 C 
ATOM     24  C   UNL     1      16.026  12.460   5.279  1.00  0.00     0.012 C 
ATOM     25  C   UNL     1      19.108  12.076   4.237  1.00  0.00     0.020 C 
ATOM     26  C   UNL     1      17.231  11.923   2.428  1.00  0.00     0.033 C 
ATOM     27  C   UNL     1      18.745  11.835   2.729  1.00  0.00     0.123 C 
ATOM     28  C   UNL     1      18.706  10.822   5.061  1.00  0.00     0.017 C 
ENDROOT
BRANCH   1  29
ATOM     29  C   UNL     1      19.069  19.197   7.292  1.00  0.00     0.048 C 
ATOM     30  O   UNL     1      19.657  19.309   8.402  1.00  0.00    -0.550 OA
ATOM     31  O   UNL     1      19.736  18.566   6.248  1.00  0.00    -0.550 OA
ENDBRANCH   1  29
BRANCH  25  32
ATOM     32  C   UNL     1      20.668  12.198   4.319  1.00  0.00     0.165 C 
BRANCH  32  33
ATOM     33  O   UNL     1      21.123  13.455   3.887  1.00  0.00    -0.396 OA
ATOM     34  H   UNL     1      21.781  13.760   4.565  1.00  0.00     0.210 HD
ENDBRANCH  32  33
ENDBRANCH  25  32
BRANCH  27  35
ATOM     35  O   UNL     1      19.489  12.676   1.876  1.00  0.00    -0.392 OA
ATOM     36  H   UNL     1      18.867  13.166   1.278  1.00  0.00     0.210 HD
ENDBRANCH  27  35
TORSDOF 4
ENDMDL
MODEL 9
REMARK VINA RESULT:    -3.672      2.941      4.964
REMARK INTER + INTRA:          -4.400
REMARK INTER:                  -4.253
REMARK INTRA:                  -0.147
REMARK UNBOUND:                -0.085
REMARK SMILES CC1(C)CC[C@@]2(C(=O)[O-])CC[C@@]3(C)C(=CC[C@H]4[C@@]5(C)CC[C@@H](O)[C@@](C)(CO)[C@@H]5CC[C@]43C)[C@@H]2C1
REMARK SMILES IDX 6 1 5 2 10 3 33 4 4 5 11 6 14 7 34 8 2 9 12 10 15 11 1 12
REMARK SMILES IDX 3 13 13 14 31 15 16 16 17 17 30 18 32 19 18 20 29 21 28 22
REMARK SMILES IDX 20 23 19 24 24 25 21 26 22 27 25 28 7 29 8 30 9 31 26 32
REMARK SMILES IDX 27 33 23 35
REMARK H PARENT 27 34 23 36
REMARK Flexibility Score: inf
ROOT
ATOM      1  C   UNL     1      16.482  20.785   4.913  1.00  0.00     0.017 C 
ATOM      2  C   UNL     1      16.605  22.329   4.994  1.00  0.00     0.014 C 
ATOM      3  C   UNL     1      14.986  20.430   4.866  1.00  0.00     0.014 C 
ATOM      4  C   UNL     1      17.122  20.279   3.584  1.00  0.00     0.028 C 
ATOM      5  C   UNL     1      18.065  22.793   4.917  1.00  0.00     0.007 C 
ATOM      6  C   UNL     1      14.756  18.918   4.801  1.00  0.00     0.013 C 
ATOM      7  C   UNL     1      16.907  18.754   3.409  1.00  0.00    -0.064 C 
ATOM      8  C   UNL     1      18.591  20.785   3.431  1.00  0.00     0.015 C 
ATOM      9  C   UNL     1      18.767  22.318   3.623  1.00  0.00    -0.035 C 
ATOM     10  C   UNL     1      15.510  18.154   3.643  1.00  0.00    -0.006 C 
ATOM     11  C   UNL     1      17.815  18.023   2.734  1.00  0.00    -0.027 C 
ATOM     12  C   UNL     1      20.276  22.628   3.741  1.00  0.00     0.011 C 
ATOM     13  C   UNL     1      18.224  23.091   2.397  1.00  0.00     0.011 C 
ATOM     14  C   UNL     1      14.715  18.427   2.331  1.00  0.00     0.017 C 
ATOM     15  C   UNL     1      15.598  16.562   3.947  1.00  0.00    -0.020 C 
ATOM     16  C   UNL     1      17.685  16.575   2.387  1.00  0.00     0.032 C 
ATOM     17  C   UNL     1      16.372  15.817   2.775  1.00  0.00     0.006 C 
ATOM     18  C   UNL     1      16.368  16.260   5.275  1.00  0.00     0.008 C 
ATOM     19  C   UNL     1      14.135  16.021   4.098  1.00  0.00     0.012 C 
ATOM     20  C   UNL     1      16.653  14.249   3.015  1.00  0.00    -0.025 C 
ATOM     21  C   UNL     1      16.632  14.765   5.552  1.00  0.00     0.005 C 
ATOM     22  C   UNL     1      17.391  14.064   4.400  1.00  0.00     0.006 C 
ATOM     23  C   UNL     1      17.564  13.668   1.875  1.00  0.00     0.010 C 
ATOM     24  C   UNL     1      15.300  13.463   2.930  1.00  0.00     0.012 C 
ATOM     25  C   UNL     1      17.901  12.595   4.723  1.00  0.00     0.020 C 
ATOM     26  C   UNL     1      18.085  12.240   2.143  1.00  0.00     0.033 C 
ATOM     27  C   UNL     1      18.768  12.081   3.521  1.00  0.00     0.123 C 
ATOM     28  C   UNL     1      16.756  11.581   4.992  1.00  0.00     0.017 C 
ENDROOT
BRANCH   1  29
ATOM     29  C   UNL     1      17.115  20.169   6.161  1.00  0.00     0.048 C 
ATOM     30  O   UNL     1      16.668  20.466   7.302  1.00  0.00    -0.550 OA
ATOM     31  O   UNL     1      18.168  19.267   6.074  1.00  0.00    -0.550 OA
ENDBRANCH   1  29
BRANCH  25  32
ATOM     32  C   UNL     1      18.825  12.591   5.989  1.00  0.00     0.165 C 
BRANCH  32  33
ATOM     33  O   UNL     1      19.480  11.361   6.161  1.00  0.00    -0.396 OA
ATOM     34  H   UNL     1      19.013  10.712   5.573  1.00  0.00     0.210 HD
ENDBRANCH  32  33
ENDBRANCH  25  32
BRANCH  27  35
ATOM     35  O   UNL     1      20.056  12.657   3.526  1.00  0.00    -0.392 OA
ATOM     36  H   UNL     1      20.197  13.146   2.675  1.00  0.00     0.210 HD
ENDBRANCH  27  35
TORSDOF 4
ENDMDL
