MODEL 1
REMARK VINA RESULT:    -5.853      0.000      0.000
REMARK INTER + INTRA:          -9.548
REMARK INTER:                  -9.103
REMARK INTRA:                  -0.445
REMARK UNBOUND:                -0.445
REMARK SMILES COc1cc(CNC(=O)CCCCC=CC(C)C)ccc1O
REMARK SMILES IDX 11 1 12 2 13 3 14 4 15 5 16 6 17 7 18 8 10 9 8 10 9 11 7 12
REMARK SMILES IDX 6 14 5 15 4 16 19 17 3 18 20 19 21 20 2 21 1 22 22 23
REMARK H PARENT 7 13 22 24
REMARK Flexibility Score: inf
ROOT
ATOM      1  C   UNL     1     117.737 260.179 341.253  1.00  0.00     0.010 C 
ENDROOT
BRANCH   1   2
ATOM      2  C   UNL     1     117.033 259.990 342.606  1.00  0.00     0.005 C 
BRANCH   2   3
ATOM      3  C   UNL     1     115.504 259.973 342.473  1.00  0.00     0.027 C 
BRANCH   3   4
ATOM      4  C   UNL     1     114.847 260.042 343.822  1.00  0.00    -0.031 C 
ATOM      5  C   UNL     1     113.703 259.385 344.079  1.00  0.00    -0.028 C 
BRANCH   5   6
ATOM      6  C   UNL     1     113.012 259.439 345.424  1.00  0.00     0.005 C 
ATOM      7  C   UNL     1     113.622 260.524 346.317  1.00  0.00     0.012 C 
ATOM      8  C   UNL     1     111.497 259.627 345.271  1.00  0.00     0.012 C 
ENDBRANCH   5   6
ENDBRANCH   3   4
ENDBRANCH   2   3
ENDBRANCH   1   2
BRANCH   1   9
ATOM      9  C   UNL     1     116.785 259.996 340.064  1.00  0.00     0.100 C 
BRANCH   9  10
ATOM     10  C   UNL     1     116.327 261.332 339.563  1.00  0.00     0.220 C 
ATOM     11  O   UNL     1     116.985 262.365 339.863  1.00  0.00    -0.275 OA
ATOM     12  N   UNL     1     115.116 261.438 338.801  1.00  0.00    -0.352 N 
ATOM     13  H   UNL     1     114.641 260.565 338.479  1.00  0.00     0.163 HD
BRANCH  12  14
ATOM     14  C   UNL     1     114.419 262.708 338.624  1.00  0.00     0.151 C 
BRANCH  14  15
ATOM     15  C   UNL     1     113.583 262.655 337.375  1.00  0.00    -0.025 A 
ATOM     16  C   UNL     1     113.982 263.369 336.234  1.00  0.00     0.056 A 
ATOM     17  C   UNL     1     112.447 261.836 337.314  1.00  0.00     0.009 A 
ATOM     18  C   UNL     1     113.242 263.283 335.040  1.00  0.00     0.160 A 
ATOM     19  C   UNL     1     111.708 261.745 336.133  1.00  0.00     0.050 A 
ATOM     20  C   UNL     1     112.102 262.466 334.998  1.00  0.00     0.157 A 
BRANCH  18  21
ATOM     21  O   UNL     1     113.607 263.984 333.881  1.00  0.00    -0.493 OA
ATOM     22  C   UNL     1     114.906 263.952 333.294  1.00  0.00     0.278 C 
ENDBRANCH  18  21
BRANCH  20  23
ATOM     23  O   UNL     1     111.366 262.371 333.817  1.00  0.00    -0.504 OA
ATOM     24  H   UNL     1     111.807 262.464 332.909  1.00  0.00     0.293 HD
ENDBRANCH  20  23
ENDBRANCH  14  15
ENDBRANCH  12  14
ENDBRANCH   9  10
ENDBRANCH   1   9
TORSDOF 10
ENDMDL
MODEL 2
REMARK VINA RESULT:    -4.826      3.050      8.993
REMARK INTER + INTRA:          -7.951
REMARK INTER:                  -7.413
REMARK INTRA:                  -0.538
REMARK UNBOUND:                -0.445
REMARK SMILES COc1cc(CNC(=O)CCCCC=CC(C)C)ccc1O
REMARK SMILES IDX 11 1 12 2 13 3 14 4 15 5 16 6 17 7 18 8 10 9 8 10 9 11 7 12
REMARK SMILES IDX 6 14 5 15 4 16 19 17 3 18 20 19 21 20 2 21 1 22 22 23
REMARK H PARENT 7 13 22 24
REMARK Flexibility Score: inf
ROOT
ATOM      1  C   UNL     1     115.060 261.500 338.978  1.00  0.00     0.010 C 
ENDROOT
BRANCH   1   2
ATOM      2  C   UNL     1     114.222 262.706 338.525  1.00  0.00     0.005 C 
BRANCH   2   3
ATOM      3  C   UNL     1     112.970 262.287 337.742  1.00  0.00     0.027 C 
BRANCH   3   4
ATOM      4  C   UNL     1     113.272 262.156 336.276  1.00  0.00    -0.031 C 
ATOM      5  C   UNL     1     112.551 262.810 335.351  1.00  0.00    -0.028 C 
BRANCH   5   6
ATOM      6  C   UNL     1     112.824 262.696 333.867  1.00  0.00     0.005 C 
ATOM      7  C   UNL     1     114.060 261.831 333.597  1.00  0.00     0.012 C 
ATOM      8  C   UNL     1     111.598 262.171 333.108  1.00  0.00     0.012 C 
ENDBRANCH   5   6
ENDBRANCH   3   4
ENDBRANCH   2   3
ENDBRANCH   1   2
BRANCH   1   9
ATOM      9  C   UNL     1     116.389 261.916 339.624  1.00  0.00     0.100 C 
BRANCH   9  10
ATOM     10  C   UNL     1     116.769 260.935 340.691  1.00  0.00     0.220 C 
ATOM     11  O   UNL     1     117.827 260.261 340.566  1.00  0.00    -0.275 OA
ATOM     12  N   UNL     1     115.903 260.725 341.815  1.00  0.00    -0.352 N 
ATOM     13  H   UNL     1     115.085 261.360 341.952  1.00  0.00     0.163 HD
BRANCH  12  14
ATOM     14  C   UNL     1     116.005 259.541 342.663  1.00  0.00     0.151 C 
BRANCH  14  15
ATOM     15  C   UNL     1     114.867 259.523 343.645  1.00  0.00    -0.025 A 
ATOM     16  C   UNL     1     114.897 260.365 344.769  1.00  0.00     0.056 A 
ATOM     17  C   UNL     1     113.736 258.729 343.408  1.00  0.00     0.009 A 
ATOM     18  C   UNL     1     113.813 260.402 345.665  1.00  0.00     0.160 A 
ATOM     19  C   UNL     1     112.657 258.761 344.293  1.00  0.00     0.050 A 
ATOM     20  C   UNL     1     112.692 259.594 345.419  1.00  0.00     0.157 A 
BRANCH  18  21
ATOM     21  O   UNL     1     113.808 261.227 346.800  1.00  0.00    -0.493 OA
ATOM     22  C   UNL     1     114.921 262.001 347.240  1.00  0.00     0.278 C 
ENDBRANCH  18  21
BRANCH  20  23
ATOM     23  O   UNL     1     111.611 259.629 346.300  1.00  0.00    -0.504 OA
ATOM     24  H   UNL     1     111.747 259.640 347.304  1.00  0.00     0.293 HD
ENDBRANCH  20  23
ENDBRANCH  14  15
ENDBRANCH  12  14
ENDBRANCH   9  10
ENDBRANCH   1   9
TORSDOF 10
ENDMDL
MODEL 3
REMARK VINA RESULT:    -4.688      4.124      7.386
REMARK INTER + INTRA:          -7.737
REMARK INTER:                  -7.187
REMARK INTRA:                  -0.550
REMARK UNBOUND:                -0.445
REMARK SMILES COc1cc(CNC(=O)CCCCC=CC(C)C)ccc1O
REMARK SMILES IDX 11 1 12 2 13 3 14 4 15 5 16 6 17 7 18 8 10 9 8 10 9 11 7 12
REMARK SMILES IDX 6 14 5 15 4 16 19 17 3 18 20 19 21 20 2 21 1 22 22 23
REMARK H PARENT 7 13 22 24
REMARK Flexibility Score: inf
ROOT
ATOM      1  C   UNL     1     114.651 262.177 347.035  1.00  0.00     0.010 C 
ENDROOT
BRANCH   1   2
ATOM      2  C   UNL     1     115.763 262.347 348.082  1.00  0.00     0.005 C 
BRANCH   2   3
ATOM      3  C   UNL     1     116.077 263.822 348.367  1.00  0.00     0.027 C 
BRANCH   3   4
ATOM      4  C   UNL     1     115.950 264.125 349.833  1.00  0.00    -0.031 C 
ATOM      5  C   UNL     1     116.273 263.214 350.767  1.00  0.00    -0.028 C 
BRANCH   5   6
ATOM      6  C   UNL     1     116.151 263.483 352.251  1.00  0.00     0.005 C 
ATOM      7  C   UNL     1     115.451 262.324 352.968  1.00  0.00     0.012 C 
ATOM      8  C   UNL     1     117.516 263.789 352.882  1.00  0.00     0.012 C 
ENDBRANCH   5   6
ENDBRANCH   3   4
ENDBRANCH   2   3
ENDBRANCH   1   2
BRANCH   1   9
ATOM      9  C   UNL     1     114.097 260.746 346.992  1.00  0.00     0.100 C 
BRANCH   9  10
ATOM     10  C   UNL     1     113.789 260.359 345.577  1.00  0.00     0.220 C 
ATOM     11  O   UNL     1     112.604 260.069 345.258  1.00  0.00    -0.275 OA
ATOM     12  N   UNL     1     114.847 260.260 344.612  1.00  0.00    -0.352 N 
ATOM     13  H   UNL     1     115.801 260.599 344.868  1.00  0.00     0.163 HD
BRANCH  12  14
ATOM     14  C   UNL     1     114.688 259.529 343.359  1.00  0.00     0.151 C 
BRANCH  14  15
ATOM     15  C   UNL     1     115.802 259.894 342.417  1.00  0.00    -0.025 A 
ATOM     16  C   UNL     1     115.539 260.704 341.301  1.00  0.00     0.056 A 
ATOM     17  C   UNL     1     117.119 259.496 342.687  1.00  0.00     0.009 A 
ATOM     18  C   UNL     1     116.583 261.101 340.444  1.00  0.00     0.160 A 
ATOM     19  C   UNL     1     118.159 259.887 341.841  1.00  0.00     0.050 A 
ATOM     20  C   UNL     1     117.894 260.687 340.722  1.00  0.00     0.157 A 
BRANCH  18  21
ATOM     21  O   UNL     1     116.359 261.907 339.317  1.00  0.00    -0.493 OA
ATOM     22  C   UNL     1     115.210 261.820 338.477  1.00  0.00     0.278 C 
ENDBRANCH  18  21
BRANCH  20  23
ATOM     23  O   UNL     1     118.934 261.081 339.880  1.00  0.00    -0.504 OA
ATOM     24  H   UNL     1     118.841 261.880 339.262  1.00  0.00     0.293 HD
ENDBRANCH  20  23
ENDBRANCH  14  15
ENDBRANCH  12  14
ENDBRANCH   9  10
ENDBRANCH   1   9
TORSDOF 10
ENDMDL
MODEL 4
REMARK VINA RESULT:    -4.230      3.772      8.362
REMARK INTER + INTRA:          -7.023
REMARK INTER:                  -6.385
REMARK INTRA:                  -0.639
REMARK UNBOUND:                -0.445
REMARK SMILES COc1cc(CNC(=O)CCCCC=CC(C)C)ccc1O
REMARK SMILES IDX 11 1 12 2 13 3 14 4 15 5 16 6 17 7 18 8 10 9 8 10 9 11 7 12
REMARK SMILES IDX 6 14 5 15 4 16 19 17 3 18 20 19 21 20 2 21 1 22 22 23
REMARK H PARENT 7 13 22 24
REMARK Flexibility Score: inf
ROOT
ATOM      1  C   UNL     1     118.177 261.263 340.104  1.00  0.00     0.010 C 
ENDROOT
BRANCH   1   2
ATOM      2  C   UNL     1     117.050 262.213 339.668  1.00  0.00     0.005 C 
BRANCH   2   3
ATOM      3  C   UNL     1     115.783 261.460 339.241  1.00  0.00     0.027 C 
BRANCH   3   4
ATOM      4  C   UNL     1     114.788 262.397 338.616  1.00  0.00    -0.031 C 
ATOM      5  C   UNL     1     113.868 261.959 337.739  1.00  0.00    -0.028 C 
BRANCH   5   6
ATOM      6  C   UNL     1     112.857 262.876 337.087  1.00  0.00     0.005 C 
ATOM      7  C   UNL     1     111.851 262.082 336.246  1.00  0.00     0.012 C 
ATOM      8  C   UNL     1     112.146 263.758 338.122  1.00  0.00     0.012 C 
ENDBRANCH   5   6
ENDBRANCH   3   4
ENDBRANCH   2   3
ENDBRANCH   1   2
BRANCH   1   9
ATOM      9  C   UNL     1     118.299 261.155 341.630  1.00  0.00     0.100 C 
BRANCH   9  10
ATOM     10  C   UNL     1     117.434 260.040 342.135  1.00  0.00     0.220 C 
ATOM     11  O   UNL     1     117.907 258.874 342.211  1.00  0.00    -0.275 OA
ATOM     12  N   UNL     1     116.062 260.291 342.472  1.00  0.00    -0.352 N 
ATOM     13  H   UNL     1     115.717 261.277 342.498  1.00  0.00     0.163 HD
BRANCH  12  14
ATOM     14  C   UNL     1     115.082 259.215 342.588  1.00  0.00     0.151 C 
BRANCH  14  15
ATOM     15  C   UNL     1     114.237 259.432 343.812  1.00  0.00    -0.025 A 
ATOM     16  C   UNL     1     114.759 260.137 344.908  1.00  0.00     0.056 A 
ATOM     17  C   UNL     1     112.902 259.003 343.839  1.00  0.00     0.009 A 
ATOM     18  C   UNL     1     113.960 260.398 346.038  1.00  0.00     0.160 A 
ATOM     19  C   UNL     1     112.104 259.260 344.956  1.00  0.00     0.050 A 
ATOM     20  C   UNL     1     112.629 259.955 346.053  1.00  0.00     0.157 A 
BRANCH  18  21
ATOM     21  O   UNL     1     114.447 261.096 347.153  1.00  0.00    -0.493 OA
ATOM     22  C   UNL     1     114.806 262.476 347.149  1.00  0.00     0.278 C 
ENDBRANCH  18  21
BRANCH  20  23
ATOM     23  O   UNL     1     111.830 260.214 347.166  1.00  0.00    -0.504 OA
ATOM     24  H   UNL     1     111.522 261.154 347.390  1.00  0.00     0.293 HD
ENDBRANCH  20  23
ENDBRANCH  14  15
ENDBRANCH  12  14
ENDBRANCH   9  10
ENDBRANCH   1   9
TORSDOF 10
ENDMDL
MODEL 5
REMARK VINA RESULT:    -4.188      5.955     11.470
REMARK INTER + INTRA:          -6.959
REMARK INTER:                  -6.351
REMARK INTRA:                  -0.608
REMARK UNBOUND:                -0.445
REMARK SMILES COc1cc(CNC(=O)CCCCC=CC(C)C)ccc1O
REMARK SMILES IDX 11 1 12 2 13 3 14 4 15 5 16 6 17 7 18 8 10 9 8 10 9 11 7 12
REMARK SMILES IDX 6 14 5 15 4 16 19 17 3 18 20 19 21 20 2 21 1 22 22 23
REMARK H PARENT 7 13 22 24
REMARK Flexibility Score: inf
ROOT
ATOM      1  C   UNL     1     114.917 259.312 344.994  1.00  0.00     0.010 C 
ENDROOT
BRANCH   1   2
ATOM      2  C   UNL     1     114.842 260.284 343.806  1.00  0.00     0.005 C 
BRANCH   2   3
ATOM      3  C   UNL     1     115.293 259.636 342.490  1.00  0.00     0.027 C 
BRANCH   3   4
ATOM      4  C   UNL     1     116.301 260.499 341.785  1.00  0.00    -0.031 C 
ATOM      5  C   UNL     1     117.510 260.025 341.441  1.00  0.00    -0.028 C 
BRANCH   5   6
ATOM      6  C   UNL     1     118.550 260.868 340.736  1.00  0.00     0.005 C 
ATOM      7  C   UNL     1     118.127 261.181 339.297  1.00  0.00     0.012 C 
ATOM      8  C   UNL     1     118.860 262.150 341.519  1.00  0.00     0.012 C 
ENDBRANCH   5   6
ENDBRANCH   3   4
ENDBRANCH   2   3
ENDBRANCH   1   2
BRANCH   1   9
ATOM      9  C   UNL     1     113.754 259.495 345.979  1.00  0.00     0.100 C 
BRANCH   9  10
ATOM     10  C   UNL     1     113.716 260.911 346.469  1.00  0.00     0.220 C 
ATOM     11  O   UNL     1     112.705 261.625 346.224  1.00  0.00    -0.275 OA
ATOM     12  N   UNL     1     114.846 261.464 347.158  1.00  0.00    -0.352 N 
ATOM     13  H   UNL     1     115.629 260.832 347.439  1.00  0.00     0.163 HD
BRANCH  12  14
ATOM     14  C   UNL     1     115.034 262.903 347.310  1.00  0.00     0.151 C 
BRANCH  14  15
ATOM     15  C   UNL     1     115.791 263.183 348.579  1.00  0.00    -0.025 A 
ATOM     16  C   UNL     1     115.096 263.548 349.743  1.00  0.00     0.056 A 
ATOM     17  C   UNL     1     117.181 263.005 348.632  1.00  0.00     0.009 A 
ATOM     18  C   UNL     1     115.785 263.756 350.953  1.00  0.00     0.160 A 
ATOM     19  C   UNL     1     117.870 263.208 349.828  1.00  0.00     0.050 A 
ATOM     20  C   UNL     1     117.177 263.583 350.987  1.00  0.00     0.157 A 
BRANCH  18  21
ATOM     21  O   UNL     1     115.126 264.125 352.135  1.00  0.00    -0.493 OA
ATOM     22  C   UNL     1     114.079 263.374 352.744  1.00  0.00     0.278 C 
ENDBRANCH  18  21
BRANCH  20  23
ATOM     23  O   UNL     1     117.867 263.781 352.183  1.00  0.00    -0.504 OA
ATOM     24  H   UNL     1     118.838 263.510 352.285  1.00  0.00     0.293 HD
ENDBRANCH  20  23
ENDBRANCH  14  15
ENDBRANCH  12  14
ENDBRANCH   9  10
ENDBRANCH   1   9
TORSDOF 10
ENDMDL
MODEL 6
REMARK VINA RESULT:    -4.029      3.224      6.574
REMARK INTER + INTRA:          -6.712
REMARK INTER:                  -6.249
REMARK INTRA:                  -0.463
REMARK UNBOUND:                -0.445
REMARK SMILES COc1cc(CNC(=O)CCCCC=CC(C)C)ccc1O
REMARK SMILES IDX 11 1 12 2 13 3 14 4 15 5 16 6 17 7 18 8 10 9 8 10 9 11 7 12
REMARK SMILES IDX 6 14 5 15 4 16 19 17 3 18 20 19 21 20 2 21 1 22 22 23
REMARK H PARENT 7 13 22 24
REMARK Flexibility Score: inf
ROOT
ATOM      1  C   UNL     1     112.320 260.338 346.125  1.00  0.00     0.010 C 
ENDROOT
BRANCH   1   2
ATOM      2  C   UNL     1     113.760 260.615 346.583  1.00  0.00     0.005 C 
BRANCH   2   3
ATOM      3  C   UNL     1     114.078 262.115 346.639  1.00  0.00     0.027 C 
BRANCH   3   4
ATOM      4  C   UNL     1     115.156 262.398 347.647  1.00  0.00    -0.031 C 
ATOM      5  C   UNL     1     115.500 263.657 347.970  1.00  0.00    -0.028 C 
BRANCH   5   6
ATOM      6  C   UNL     1     116.585 263.977 348.975  1.00  0.00     0.005 C 
ATOM      7  C   UNL     1     116.006 264.125 350.387  1.00  0.00     0.012 C 
ATOM      8  C   UNL     1     117.710 262.934 348.940  1.00  0.00     0.012 C 
ENDBRANCH   5   6
ENDBRANCH   3   4
ENDBRANCH   2   3
ENDBRANCH   1   2
BRANCH   1   9
ATOM      9  C   UNL     1     112.213 260.141 344.607  1.00  0.00     0.100 C 
BRANCH   9  10
ATOM     10  C   UNL     1     113.401 259.379 344.104  1.00  0.00     0.220 C 
ATOM     11  O   UNL     1     113.397 258.119 344.158  1.00  0.00    -0.275 OA
ATOM     12  N   UNL     1     114.555 260.082 343.622  1.00  0.00    -0.352 N 
ATOM     13  H   UNL     1     114.501 261.117 343.492  1.00  0.00     0.163 HD
BRANCH  12  14
ATOM     14  C   UNL     1     115.858 259.438 343.492  1.00  0.00     0.151 C 
BRANCH  14  15
ATOM     15  C   UNL     1     116.567 259.973 342.279  1.00  0.00    -0.025 A 
ATOM     16  C   UNL     1     115.862 260.734 341.334  1.00  0.00     0.056 A 
ATOM     17  C   UNL     1     117.948 259.784 342.122  1.00  0.00     0.009 A 
ATOM     18  C   UNL     1     116.525 261.291 340.224  1.00  0.00     0.160 A 
ATOM     19  C   UNL     1     118.612 260.333 341.024  1.00  0.00     0.050 A 
ATOM     20  C   UNL     1     117.904 261.085 340.076  1.00  0.00     0.157 A 
BRANCH  18  21
ATOM     21  O   UNL     1     115.853 262.054 339.257  1.00  0.00    -0.493 OA
ATOM     22  C   UNL     1     114.773 261.576 338.458  1.00  0.00     0.278 C 
ENDBRANCH  18  21
BRANCH  20  23
ATOM     23  O   UNL     1     118.570 261.637 338.982  1.00  0.00    -0.504 OA
ATOM     24  H   UNL     1     118.220 262.465 338.511  1.00  0.00     0.293 HD
ENDBRANCH  20  23
ENDBRANCH  14  15
ENDBRANCH  12  14
ENDBRANCH   9  10
ENDBRANCH   1   9
TORSDOF 10
ENDMDL
MODEL 7
REMARK VINA RESULT:    -2.880      1.455      2.338
REMARK INTER + INTRA:          -4.925
REMARK INTER:                  -4.303
REMARK INTRA:                  -0.621
REMARK UNBOUND:                -0.445
REMARK SMILES COc1cc(CNC(=O)CCCCC=CC(C)C)ccc1O
REMARK SMILES IDX 11 1 12 2 13 3 14 4 15 5 16 6 17 7 18 8 10 9 8 10 9 11 7 12
REMARK SMILES IDX 6 14 5 15 4 16 19 17 3 18 20 19 21 20 2 21 1 22 22 23
REMARK H PARENT 7 13 22 24
REMARK Flexibility Score: inf
ROOT
ATOM      1  C   UNL     1     117.366 259.329 341.075  1.00  0.00     0.010 C 
ENDROOT
BRANCH   1   2
ATOM      2  C   UNL     1     117.112 259.808 342.513  1.00  0.00     0.005 C 
BRANCH   2   3
ATOM      3  C   UNL     1     115.787 260.571 342.649  1.00  0.00     0.027 C 
BRANCH   3   4
ATOM      4  C   UNL     1     114.801 259.790 343.471  1.00  0.00    -0.031 C 
ATOM      5  C   UNL     1     114.204 260.329 344.548  1.00  0.00    -0.028 C 
BRANCH   5   6
ATOM      6  C   UNL     1     113.212 259.569 345.401  1.00  0.00     0.005 C 
ATOM      7  C   UNL     1     113.003 260.258 346.754  1.00  0.00     0.012 C 
ATOM      8  C   UNL     1     111.880 259.364 344.667  1.00  0.00     0.012 C 
ENDBRANCH   5   6
ENDBRANCH   3   4
ENDBRANCH   2   3
ENDBRANCH   1   2
BRANCH   1   9
ATOM      9  C   UNL     1     118.306 260.264 340.301  1.00  0.00     0.100 C 
BRANCH   9  10
ATOM     10  C   UNL     1     117.616 261.563 340.016  1.00  0.00     0.220 C 
ATOM     11  O   UNL     1     118.095 262.635 340.477  1.00  0.00    -0.275 OA
ATOM     12  N   UNL     1     116.387 261.577 339.276  1.00  0.00    -0.352 N 
ATOM     13  H   UNL     1     116.059 260.696 338.818  1.00  0.00     0.163 HD
BRANCH  12  14
ATOM     14  C   UNL     1     115.479 262.720 339.299  1.00  0.00     0.151 C 
BRANCH  14  15
ATOM     15  C   UNL     1     114.452 262.571 338.210  1.00  0.00    -0.025 A 
ATOM     16  C   UNL     1     113.896 261.311 337.939  1.00  0.00     0.056 A 
ATOM     17  C   UNL     1     113.987 263.696 337.514  1.00  0.00     0.009 A 
ATOM     18  C   UNL     1     112.892 261.167 336.963  1.00  0.00     0.160 A 
ATOM     19  C   UNL     1     112.991 263.560 336.546  1.00  0.00     0.050 A 
ATOM     20  C   UNL     1     112.443 262.300 336.269  1.00  0.00     0.157 A 
BRANCH  18  21
ATOM     21  O   UNL     1     112.314 259.924 336.662  1.00  0.00    -0.493 OA
ATOM     22  C   UNL     1     112.660 258.697 337.300  1.00  0.00     0.278 C 
ENDBRANCH  18  21
BRANCH  20  23
ATOM     23  O   UNL     1     111.445 262.167 335.305  1.00  0.00    -0.504 OA
ATOM     24  H   UNL     1     110.469 262.066 335.563  1.00  0.00     0.293 HD
ENDBRANCH  20  23
ENDBRANCH  14  15
ENDBRANCH  12  14
ENDBRANCH   9  10
ENDBRANCH   1   9
TORSDOF 10
ENDMDL
