MODEL 1
REMARK VINA RESULT:    -2.492      0.000      0.000
REMARK INTER + INTRA:          -2.492
REMARK INTER:                  -2.492
REMARK INTRA:                   0.000
REMARK UNBOUND:                 0.000
REMARK SMILES CC(=O)[O-]
REMARK SMILES IDX 1 1 2 2 3 3 4 4
REMARK H PARENT
REMARK Flexibility Score: inf
ROOT
ATOM      1  C   UNL     1      24.716  47.903  34.376  1.00  0.00     0.063 C 
ATOM      2  C   UNL     1      26.071  48.518  34.275  1.00  0.00     0.038 C 
ATOM      3  O   UNL     1      27.034  47.853  33.812  1.00  0.00    -0.550 OA
ATOM      4  O   UNL     1      26.286  49.809  34.742  1.00  0.00    -0.550 OA
ENDROOT
TORSDOF 0
ENDMDL
MODEL 2
REMARK VINA RESULT:    -2.467      0.135      1.625
REMARK INTER + INTRA:          -2.467
REMARK INTER:                  -2.467
REMARK INTRA:                   0.000
REMARK UNBOUND:                 0.000
REMARK SMILES CC(=O)[O-]
REMARK SMILES IDX 1 1 2 2 3 3 4 4
REMARK H PARENT
REMARK Flexibility Score: inf
ROOT
ATOM      1  C   UNL     1      24.741  47.932  34.596  1.00  0.00     0.063 C 
ATOM      2  C   UNL     1      26.074  48.562  34.366  1.00  0.00     0.038 C 
ATOM      3  O   UNL     1      26.272  49.760  34.695  1.00  0.00    -0.550 OA
ATOM      4  O   UNL     1      27.084  47.843  33.738  1.00  0.00    -0.550 OA
ENDROOT
TORSDOF 0
ENDMDL
MODEL 3
REMARK VINA RESULT:    -2.455      1.922      2.487
REMARK INTER + INTRA:          -2.455
REMARK INTER:                  -2.455
REMARK INTRA:                   0.000
REMARK UNBOUND:                 0.000
REMARK SMILES CC(=O)[O-]
REMARK SMILES IDX 1 1 2 2 3 3 4 4
REMARK H PARENT
REMARK Flexibility Score: inf
ROOT
ATOM      1  C   UNL     1      26.475  47.436  33.822  1.00  0.00     0.063 C 
ATOM      2  C   UNL     1      25.091  47.860  34.183  1.00  0.00     0.038 C 
ATOM      3  O   UNL     1      24.899  48.612  35.174  1.00  0.00    -0.550 OA
ATOM      4  O   UNL     1      24.006  47.383  33.459  1.00  0.00    -0.550 OA
ENDROOT
TORSDOF 0
ENDMDL
MODEL 4
REMARK VINA RESULT:    -2.449      1.611      2.408
REMARK INTER + INTRA:          -2.449
REMARK INTER:                  -2.449
REMARK INTRA:                   0.000
REMARK UNBOUND:                 0.000
REMARK SMILES CC(=O)[O-]
REMARK SMILES IDX 1 1 2 2 3 3 4 4
REMARK H PARENT
REMARK Flexibility Score: inf
ROOT
ATOM      1  C   UNL     1      24.471  47.466  33.373  1.00  0.00     0.063 C 
ATOM      2  C   UNL     1      25.914  47.157  33.158  1.00  0.00     0.038 C 
ATOM      3  O   UNL     1      26.778  47.574  33.971  1.00  0.00    -0.550 OA
ATOM      4  O   UNL     1      26.313  46.451  32.029  1.00  0.00    -0.550 OA
ENDROOT
TORSDOF 0
ENDMDL
MODEL 5
REMARK VINA RESULT:    -2.386      2.175      2.393
REMARK INTER + INTRA:          -2.386
REMARK INTER:                  -2.386
REMARK INTRA:                   0.000
REMARK UNBOUND:                 0.000
REMARK SMILES CC(=O)[O-]
REMARK SMILES IDX 1 1 2 2 3 3 4 4
REMARK H PARENT
REMARK Flexibility Score: inf
ROOT
ATOM      1  C   UNL     1      26.428  47.446  33.630  1.00  0.00     0.063 C 
ATOM      2  C   UNL     1      24.955  47.499  33.865  1.00  0.00     0.038 C 
ATOM      3  O   UNL     1      24.156  47.284  32.917  1.00  0.00    -0.550 OA
ATOM      4  O   UNL     1      24.463  47.839  35.119  1.00  0.00    -0.550 OA
ENDROOT
TORSDOF 0
ENDMDL
MODEL 6
REMARK VINA RESULT:    -2.141     11.232     11.410
REMARK INTER + INTRA:          -2.141
REMARK INTER:                  -2.141
REMARK INTRA:                   0.000
REMARK UNBOUND:                 0.000
REMARK SMILES CC(=O)[O-]
REMARK SMILES IDX 1 1 2 2 3 3 4 4
REMARK H PARENT
REMARK Flexibility Score: inf
ROOT
ATOM      1  C   UNL     1      22.157  44.196  44.268  1.00  0.00     0.063 C 
ATOM      2  C   UNL     1      21.313  45.397  44.001  1.00  0.00     0.038 C 
ATOM      3  O   UNL     1      21.552  46.481  44.593  1.00  0.00    -0.550 OA
ATOM      4  O   UNL     1      20.229  45.307  43.137  1.00  0.00    -0.550 OA
ENDROOT
TORSDOF 0
ENDMDL
MODEL 7
REMARK VINA RESULT:    -2.129     11.058     11.275
REMARK INTER + INTRA:          -2.129
REMARK INTER:                  -2.129
REMARK INTRA:                   0.000
REMARK UNBOUND:                 0.000
REMARK SMILES CC(=O)[O-]
REMARK SMILES IDX 1 1 2 2 3 3 4 4
REMARK H PARENT
REMARK Flexibility Score: inf
ROOT
ATOM      1  C   UNL     1      22.113  44.279  44.278  1.00  0.00     0.063 C 
ATOM      2  C   UNL     1      21.323  45.508  43.975  1.00  0.00     0.038 C 
ATOM      3  O   UNL     1      20.492  45.507  43.030  1.00  0.00    -0.550 OA
ATOM      4  O   UNL     1      21.540  46.671  44.702  1.00  0.00    -0.550 OA
ENDROOT
TORSDOF 0
ENDMDL
MODEL 8
REMARK VINA RESULT:    -1.973     11.168     11.327
REMARK INTER + INTRA:          -1.973
REMARK INTER:                  -1.973
REMARK INTRA:                   0.000
REMARK UNBOUND:                 0.000
REMARK SMILES CC(=O)[O-]
REMARK SMILES IDX 1 1 2 2 3 3 4 4
REMARK H PARENT
REMARK Flexibility Score: inf
ROOT
ATOM      1  C   UNL     1      21.343  46.803  44.519  1.00  0.00     0.063 C 
ATOM      2  C   UNL     1      21.157  45.492  43.832  1.00  0.00     0.038 C 
ATOM      3  O   UNL     1      20.170  45.311  43.073  1.00  0.00    -0.550 OA
ATOM      4  O   UNL     1      22.044  44.450  44.070  1.00  0.00    -0.550 OA
ENDROOT
TORSDOF 0
ENDMDL
MODEL 9
REMARK VINA RESULT:    -1.955     10.964     11.371
REMARK INTER + INTRA:          -1.955
REMARK INTER:                  -1.955
REMARK INTRA:                   0.000
REMARK UNBOUND:                 0.000
REMARK SMILES CC(=O)[O-]
REMARK SMILES IDX 1 1 2 2 3 3 4 4
REMARK H PARENT
REMARK Flexibility Score: inf
ROOT
ATOM      1  C   UNL     1      21.791  44.859  44.115  1.00  0.00     0.063 C 
ATOM      2  C   UNL     1      21.234  46.238  44.234  1.00  0.00     0.038 C 
ATOM      3  O   UNL     1      20.582  46.569  45.258  1.00  0.00    -0.550 OA
ATOM      4  O   UNL     1      21.389  47.143  43.192  1.00  0.00    -0.550 OA
ENDROOT
TORSDOF 0
ENDMDL
