MODEL 1
REMARK VINA RESULT:     0.000      0.000      0.000
REMARK INTER + INTRA:          -0.143
REMARK INTER:                   0.000
REMARK INTRA:                  -0.143
REMARK UNBOUND:                -0.143
REMARK SMILES CCCCC(=O)[O-]
REMARK SMILES IDX 4 1 5 2 6 3 7 4 3 5 2 6 1 7
REMARK H PARENT
REMARK Flexibility Score: inf
ROOT
ATOM      1  C   UNL     1     170.539 189.490 192.433  1.00  0.00     0.053 C 
ENDROOT
BRANCH   1   2
ATOM      2  C   UNL     1     172.013 189.648 192.235  1.00  0.00     0.041 C 
ATOM      3  O   UNL     1     172.590 190.712 192.584  1.00  0.00    -0.550 OA
ATOM      4  O   UNL     1     172.745 188.639 191.623  1.00  0.00    -0.550 OA
ENDBRANCH   1   2
BRANCH   1   5
ATOM      5  C   UNL     1     169.854 189.159 191.101  1.00  0.00     0.006 C 
BRANCH   5   6
ATOM      6  C   UNL     1     169.970 190.299 190.078  1.00  0.00    -0.003 C 
ATOM      7  C   UNL     1     170.586 189.845 188.755  1.00  0.00     0.004 C 
ENDBRANCH   5   6
ENDBRANCH   1   5
TORSDOF 3
ENDMDL
MODEL 2
REMARK VINA RESULT:     0.000      7.422      8.698
REMARK INTER + INTRA:          -0.143
REMARK INTER:                   0.000
REMARK INTRA:                  -0.143
REMARK UNBOUND:                -0.143
REMARK SMILES CCCCC(=O)[O-]
REMARK SMILES IDX 4 1 5 2 6 3 7 4 3 5 2 6 1 7
REMARK H PARENT
REMARK Flexibility Score: inf
ROOT
ATOM      1  C   UNL     1     172.181 187.930 199.729  1.00  0.00     0.053 C 
ENDROOT
BRANCH   1   2
ATOM      2  C   UNL     1     171.807 187.928 198.281  1.00  0.00     0.041 C 
ATOM      3  O   UNL     1     171.155 188.888 197.791  1.00  0.00    -0.550 OA
ATOM      4  O   UNL     1     172.136 186.842 197.479  1.00  0.00    -0.550 OA
ENDBRANCH   1   2
BRANCH   1   5
ATOM      5  C   UNL     1     171.659 186.664 200.418  1.00  0.00     0.006 C 
BRANCH   5   6
ATOM      6  C   UNL     1     170.124 186.591 200.435  1.00  0.00    -0.003 C 
ATOM      7  C   UNL     1     169.588 185.300 199.816  1.00  0.00     0.004 C 
ENDBRANCH   5   6
ENDBRANCH   1   5
TORSDOF 3
ENDMDL
MODEL 3
REMARK VINA RESULT:     0.000      6.089      6.917
REMARK INTER + INTRA:          -0.143
REMARK INTER:                   0.000
REMARK INTRA:                  -0.143
REMARK UNBOUND:                -0.143
REMARK SMILES CCCCC(=O)[O-]
REMARK SMILES IDX 4 1 5 2 6 3 7 4 3 5 2 6 1 7
REMARK H PARENT
REMARK Flexibility Score: inf
ROOT
ATOM      1  C   UNL     1     173.997 189.001 197.874  1.00  0.00     0.053 C 
ENDROOT
BRANCH   1   2
ATOM      2  C   UNL     1     172.610 188.443 197.839  1.00  0.00     0.041 C 
ATOM      3  O   UNL     1     172.310 187.539 197.014  1.00  0.00    -0.550 OA
ATOM      4  O   UNL     1     171.634 188.952 198.686  1.00  0.00    -0.550 OA
ENDBRANCH   1   2
BRANCH   1   5
ATOM      5  C   UNL     1     173.965 190.524 197.691  1.00  0.00     0.006 C 
BRANCH   5   6
ATOM      6  C   UNL     1     173.436 190.941 196.311  1.00  0.00    -0.003 C 
ATOM      7  C   UNL     1     172.252 191.904 196.398  1.00  0.00     0.004 C 
ENDBRANCH   5   6
ENDBRANCH   1   5
TORSDOF 3
ENDMDL
MODEL 4
REMARK VINA RESULT:     0.000      7.246      8.518
REMARK INTER + INTRA:          -0.143
REMARK INTER:                   0.000
REMARK INTRA:                  -0.143
REMARK UNBOUND:                -0.143
REMARK SMILES CCCCC(=O)[O-]
REMARK SMILES IDX 4 1 5 2 6 3 7 4 3 5 2 6 1 7
REMARK H PARENT
REMARK Flexibility Score: inf
ROOT
ATOM      1  C   UNL     1     171.764 186.939 199.259  1.00  0.00     0.053 C 
ENDROOT
BRANCH   1   2
ATOM      2  C   UNL     1     170.829 187.253 198.135  1.00  0.00     0.041 C 
ATOM      3  O   UNL     1     171.269 187.380 196.961  1.00  0.00    -0.550 OA
ATOM      4  O   UNL     1     169.479 187.452 198.388  1.00  0.00    -0.550 OA
ENDBRANCH   1   2
BRANCH   1   5
ATOM      5  C   UNL     1     171.647 187.996 200.363  1.00  0.00     0.006 C 
BRANCH   5   6
ATOM      6  C   UNL     1     172.090 189.391 199.895  1.00  0.00    -0.003 C 
ATOM      7  C   UNL     1     171.014 190.455 200.109  1.00  0.00     0.004 C 
ENDBRANCH   5   6
ENDBRANCH   1   5
TORSDOF 3
ENDMDL
MODEL 5
REMARK VINA RESULT:     0.000      6.554      7.527
REMARK INTER + INTRA:          -0.143
REMARK INTER:                   0.000
REMARK INTRA:                  -0.143
REMARK UNBOUND:                -0.143
REMARK SMILES CCCCC(=O)[O-]
REMARK SMILES IDX 4 1 5 2 6 3 7 4 3 5 2 6 1 7
REMARK H PARENT
REMARK Flexibility Score: inf
ROOT
ATOM      1  C   UNL     1     168.513 194.728 192.551  1.00  0.00     0.053 C 
ENDROOT
BRANCH   1   2
ATOM      2  C   UNL     1     167.082 195.154 192.644  1.00  0.00     0.041 C 
ATOM      3  O   UNL     1     166.756 196.345 192.393  1.00  0.00    -0.550 OA
ATOM      4  O   UNL     1     166.112 194.248 193.055  1.00  0.00    -0.550 OA
ENDBRANCH   1   2
BRANCH   1   5
ATOM      5  C   UNL     1     168.976 194.115 193.878  1.00  0.00     0.006 C 
BRANCH   5   6
ATOM      6  C   UNL     1     168.969 195.130 195.031  1.00  0.00    -0.003 C 
ATOM      7  C   UNL     1     168.139 194.662 196.226  1.00  0.00     0.004 C 
ENDBRANCH   5   6
ENDBRANCH   1   5
TORSDOF 3
ENDMDL
MODEL 6
REMARK VINA RESULT:     0.000     10.097     10.822
REMARK INTER + INTRA:          -0.142
REMARK INTER:                   0.000
REMARK INTRA:                  -0.142
REMARK UNBOUND:                -0.143
REMARK SMILES CCCCC(=O)[O-]
REMARK SMILES IDX 4 1 5 2 6 3 7 4 3 5 2 6 1 7
REMARK H PARENT
REMARK Flexibility Score: inf
ROOT
ATOM      1  C   UNL     1     176.114 184.826 199.254  1.00  0.00     0.053 C 
ENDROOT
BRANCH   1   2
ATOM      2  C   UNL     1     176.701 185.169 200.586  1.00  0.00     0.041 C 
ATOM      3  O   UNL     1     176.449 184.456 201.593  1.00  0.00    -0.550 OA
ATOM      4  O   UNL     1     177.491 186.303 200.726  1.00  0.00    -0.550 OA
ENDBRANCH   1   2
BRANCH   1   5
ATOM      5  C   UNL     1     175.327 186.017 198.694  1.00  0.00     0.006 C 
BRANCH   5   6
ATOM      6  C   UNL     1     174.105 186.374 199.553  1.00  0.00    -0.003 C 
ATOM      7  C   UNL     1     174.105 187.835 200.003  1.00  0.00     0.004 C 
ENDBRANCH   5   6
ENDBRANCH   1   5
TORSDOF 3
ENDMDL
MODEL 7
REMARK VINA RESULT:     0.000      8.062      9.739
REMARK INTER + INTRA:          -0.142
REMARK INTER:                   0.000
REMARK INTRA:                  -0.142
REMARK UNBOUND:                -0.143
REMARK SMILES CCCCC(=O)[O-]
REMARK SMILES IDX 4 1 5 2 6 3 7 4 3 5 2 6 1 7
REMARK H PARENT
REMARK Flexibility Score: inf
ROOT
ATOM      1  C   UNL     1     175.410 189.940 199.177  1.00  0.00     0.053 C 
ENDROOT
BRANCH   1   2
ATOM      2  C   UNL     1     174.091 190.330 198.590  1.00  0.00     0.041 C 
ATOM      3  O   UNL     1     174.042 191.085 197.583  1.00  0.00    -0.550 OA
ATOM      4  O   UNL     1     172.911 189.899 199.183  1.00  0.00    -0.550 OA
ENDBRANCH   1   2
BRANCH   1   5
ATOM      5  C   UNL     1     175.466 190.317 200.663  1.00  0.00     0.006 C 
BRANCH   5   6
ATOM      6  C   UNL     1     175.398 191.835 200.890  1.00  0.00    -0.003 C 
ATOM      7  C   UNL     1     174.265 192.241 201.832  1.00  0.00     0.004 C 
ENDBRANCH   5   6
ENDBRANCH   1   5
TORSDOF 3
ENDMDL
MODEL 8
REMARK VINA RESULT:     0.000     11.059     12.018
REMARK INTER + INTRA:          -0.142
REMARK INTER:                   0.000
REMARK INTRA:                  -0.142
REMARK UNBOUND:                -0.143
REMARK SMILES CCCCC(=O)[O-]
REMARK SMILES IDX 4 1 5 2 6 3 7 4 3 5 2 6 1 7
REMARK H PARENT
REMARK Flexibility Score: inf
ROOT
ATOM      1  C   UNL     1     176.115 195.108 199.302  1.00  0.00     0.053 C 
ENDROOT
BRANCH   1   2
ATOM      2  C   UNL     1     176.869 194.279 200.292  1.00  0.00     0.041 C 
ATOM      3  O   UNL     1     176.762 193.023 200.281  1.00  0.00    -0.550 OA
ATOM      4  O   UNL     1     177.655 194.893 201.259  1.00  0.00    -0.550 OA
ENDBRANCH   1   2
BRANCH   1   5
ATOM      5  C   UNL     1     175.244 196.143 200.025  1.00  0.00     0.006 C 
BRANCH   5   6
ATOM      6  C   UNL     1     174.142 195.495 200.877  1.00  0.00    -0.003 C 
ATOM      7  C   UNL     1     174.182 195.947 202.337  1.00  0.00     0.004 C 
ENDBRANCH   5   6
ENDBRANCH   1   5
TORSDOF 3
ENDMDL
MODEL 9
REMARK VINA RESULT:     0.000      6.893      8.212
REMARK INTER + INTRA:          -0.142
REMARK INTER:                   0.000
REMARK INTRA:                  -0.142
REMARK UNBOUND:                -0.143
REMARK SMILES CCCCC(=O)[O-]
REMARK SMILES IDX 4 1 5 2 6 3 7 4 3 5 2 6 1 7
REMARK H PARENT
REMARK Flexibility Score: inf
ROOT
ATOM      1  C   UNL     1     177.780 187.714 194.896  1.00  0.00     0.053 C 
ENDROOT
BRANCH   1   2
ATOM      2  C   UNL     1     176.590 186.899 194.499  1.00  0.00     0.041 C 
ATOM      3  O   UNL     1     175.675 187.411 193.801  1.00  0.00    -0.550 OA
ATOM      4  O   UNL     1     176.467 185.588 194.938  1.00  0.00    -0.550 OA
ENDBRANCH   1   2
BRANCH   1   5
ATOM      5  C   UNL     1     177.944 187.712 196.421  1.00  0.00     0.006 C 
BRANCH   5   6
ATOM      6  C   UNL     1     176.773 188.397 197.141  1.00  0.00    -0.003 C 
ATOM      7  C   UNL     1     176.115 187.498 198.187  1.00  0.00     0.004 C 
ENDBRANCH   5   6
ENDBRANCH   1   5
TORSDOF 3
ENDMDL
