MODEL 1
REMARK VINA RESULT:    -6.136      0.000      0.000
REMARK INTER + INTRA:          -9.682
REMARK INTER:                  -9.006
REMARK INTRA:                  -0.676
REMARK UNBOUND:                -0.676
REMARK SMILES CC(C)(O)CC[C@@H](O)[C@@](C)(O)[C@H]1CC[C@@]2(O)C3=CC(=O)[C@@H]4C[C@@H](O)[C@H](O)C[C@]4(C)[C@@H]3CC[C@@]12C
REMARK SMILES IDX 6 1 7 2 9 3 10 4 12 5 34 6 33 7 32 8 15 9 31 10 17 11 14 12
REMARK SMILES IDX 13 13 30 14 18 15 28 16 19 17 21 18 27 19 29 20 20 21 22 22
REMARK SMILES IDX 25 23 23 24 16 25 26 27 24 29 11 31 8 33 5 35 2 36 1 37 3 38
REMARK SMILES IDX 4 39
REMARK H PARENT 16 26 26 28 24 30 11 32 8 34 4 40
REMARK Flexibility Score: inf
ROOT
ATOM      1  C   UNL     1      -1.790  29.613  42.172  1.00  0.00     0.038 C 
ENDROOT
BRANCH   1   2
ATOM      2  C   UNL     1      -1.607  30.837  43.114  1.00  0.00     0.146 C 
BRANCH   2   3
ATOM      3  C   UNL     1      -0.619  31.945  42.545  1.00  0.00     0.091 C 
ATOM      4  C   UNL     1       0.785  31.806  43.188  1.00  0.00     0.045 C 
BRANCH   3   5
ATOM      5  C   UNL     1      -1.154  33.439  42.706  1.00  0.00     0.032 C 
ATOM      6  C   UNL     1      -2.099  33.728  45.109  1.00  0.00     0.015 C 
ATOM      7  C   UNL     1      -2.402  33.818  43.583  1.00  0.00     0.006 C 
ATOM      8  C   UNL     1      -3.647  32.963  43.237  1.00  0.00     0.011 C 
ATOM      9  C   UNL     1      -2.652  35.304  43.160  1.00  0.00     0.092 C 
ATOM     10  C   UNL     1      -4.896  33.454  43.964  1.00  0.00     0.009 C 
ATOM     11  C   UNL     1      -4.084  35.821  43.377  1.00  0.00    -0.031 C 
ATOM     12  C   UNL     1      -2.314  35.341  41.659  1.00  0.00     0.041 C 
ATOM     13  C   UNL     1      -1.360  34.182  41.376  1.00  0.00     0.010 C 
ATOM     14  C   UNL     1      -5.285  34.890  43.539  1.00  0.00     0.025 C 
ATOM     15  C   UNL     1      -4.310  37.138  43.221  1.00  0.00     0.050 C 
ATOM     16  C   UNL     1      -6.407  35.536  44.443  1.00  0.00    -0.013 C 
ATOM     17  C   UNL     1      -5.652  37.724  43.342  1.00  0.00     0.159 C 
ATOM     18  C   UNL     1      -6.842  36.895  43.782  1.00  0.00     0.070 C 
ATOM     19  C   UNL     1      -5.880  35.781  45.895  1.00  0.00     0.042 C 
ATOM     20  C   UNL     1      -7.631  34.576  44.486  1.00  0.00     0.013 C 
ATOM     21  O   UNL     1      -5.811  38.929  43.008  1.00  0.00    -0.295 OA
ATOM     22  C   UNL     1      -7.781  37.728  44.690  1.00  0.00     0.047 C 
ATOM     23  C   UNL     1      -6.835  36.625  46.764  1.00  0.00     0.143 C 
ATOM     24  C   UNL     1      -7.172  37.965  46.082  1.00  0.00     0.143 C 
BRANCH   9  25
ATOM     25  O   UNL     1      -1.720  36.149  43.812  1.00  0.00    -0.385 OA
ATOM     26  H   UNL     1      -2.183  36.628  44.547  1.00  0.00     0.211 HD
ENDBRANCH   9  25
BRANCH  23  27
ATOM     27  O   UNL     1      -6.276  36.844  48.036  1.00  0.00    -0.390 OA
ATOM     28  H   UNL     1      -6.818  37.541  48.489  1.00  0.00     0.211 HD
ENDBRANCH  23  27
BRANCH  24  29
ATOM     29  O   UNL     1      -8.045  38.727  46.878  1.00  0.00    -0.390 OA
ATOM     30  H   UNL     1      -8.542  39.342  46.278  1.00  0.00     0.211 HD
ENDBRANCH  24  29
ENDBRANCH   3   5
BRANCH   3  31
ATOM     31  O   UNL     1      -0.459  31.698  41.161  1.00  0.00    -0.387 OA
ATOM     32  H   UNL     1      -0.062  32.501  40.730  1.00  0.00     0.211 HD
ENDBRANCH   3  31
ENDBRANCH   2   3
BRANCH   2  33
ATOM     33  O   UNL     1      -1.230  30.391  44.396  1.00  0.00    -0.390 OA
ATOM     34  H   UNL     1      -0.807  31.152  44.871  1.00  0.00     0.211 HD
ENDBRANCH   2  33
ENDBRANCH   1   2
BRANCH   1  35
ATOM     35  C   UNL     1      -0.737  28.519  42.445  1.00  0.00     0.037 C 
BRANCH  35  36
ATOM     36  C   UNL     1       0.151  28.184  41.212  1.00  0.00     0.059 C 
ATOM     37  C   UNL     1       1.588  28.695  41.413  1.00  0.00     0.042 C 
ATOM     38  C   UNL     1       0.193  26.656  41.017  1.00  0.00     0.042 C 
BRANCH  36  39
ATOM     39  O   UNL     1      -0.371  28.786  40.051  1.00  0.00    -0.390 OA
ATOM     40  H   UNL     1      -1.059  29.447  40.332  1.00  0.00     0.211 HD
ENDBRANCH  36  39
ENDBRANCH  35  36
ENDBRANCH   1  35
TORSDOF 11
ENDMDL
MODEL 2
REMARK VINA RESULT:    -5.779      1.720      2.524
REMARK INTER + INTRA:          -9.158
REMARK INTER:                  -8.927
REMARK INTRA:                  -0.231
REMARK UNBOUND:                -0.676
REMARK SMILES CC(C)(O)CC[C@@H](O)[C@@](C)(O)[C@H]1CC[C@@]2(O)C3=CC(=O)[C@@H]4C[C@@H](O)[C@H](O)C[C@]4(C)[C@@H]3CC[C@@]12C
REMARK SMILES IDX 6 1 7 2 9 3 10 4 12 5 34 6 33 7 32 8 15 9 31 10 17 11 14 12
REMARK SMILES IDX 13 13 30 14 18 15 28 16 19 17 21 18 27 19 29 20 20 21 22 22
REMARK SMILES IDX 25 23 23 24 16 25 26 27 24 29 11 31 8 33 5 35 2 36 1 37 3 38
REMARK SMILES IDX 4 39
REMARK H PARENT 16 26 26 28 24 30 11 32 8 34 4 40
REMARK Flexibility Score: inf
ROOT
ATOM      1  C   UNL     1      -0.241  31.909  42.175  1.00  0.00     0.038 C 
ENDROOT
BRANCH   1   2
ATOM      2  C   UNL     1      -0.665  33.393  42.366  1.00  0.00     0.146 C 
BRANCH   2   3
ATOM      3  C   UNL     1      -1.501  33.985  41.151  1.00  0.00     0.091 C 
ATOM      4  C   UNL     1      -0.620  34.085  39.879  1.00  0.00     0.045 C 
BRANCH   3   5
ATOM      5  C   UNL     1      -2.189  35.391  41.458  1.00  0.00     0.032 C 
ATOM      6  C   UNL     1      -2.118  35.808  44.022  1.00  0.00     0.015 C 
ATOM      7  C   UNL     1      -3.022  35.677  42.759  1.00  0.00     0.006 C 
ATOM      8  C   UNL     1      -4.122  34.614  43.000  1.00  0.00     0.011 C 
ATOM      9  C   UNL     1      -3.688  37.052  42.417  1.00  0.00     0.092 C 
ATOM     10  C   UNL     1      -5.038  34.992  44.161  1.00  0.00     0.009 C 
ATOM     11  C   UNL     1      -4.979  37.371  43.190  1.00  0.00    -0.031 C 
ATOM     12  C   UNL     1      -3.998  36.968  40.912  1.00  0.00     0.041 C 
ATOM     13  C   UNL     1      -3.046  35.939  40.306  1.00  0.00     0.010 C 
ATOM     14  C   UNL     1      -5.820  36.296  43.878  1.00  0.00     0.025 C 
ATOM     15  C   UNL     1      -5.486  38.613  43.088  1.00  0.00     0.050 C 
ATOM     16  C   UNL     1      -6.579  36.866  45.140  1.00  0.00    -0.013 C 
ATOM     17  C   UNL     1      -6.747  39.003  43.733  1.00  0.00     0.159 C 
ATOM     18  C   UNL     1      -7.485  38.062  44.664  1.00  0.00     0.070 C 
ATOM     19  C   UNL     1      -5.565  37.352  46.228  1.00  0.00     0.042 C 
ATOM     20  C   UNL     1      -7.483  35.747  45.730  1.00  0.00     0.013 C 
ATOM     21  O   UNL     1      -7.244  40.125  43.446  1.00  0.00    -0.295 OA
ATOM     22  C   UNL     1      -8.111  38.843  45.846  1.00  0.00     0.047 C 
ATOM     23  C   UNL     1      -6.225  38.137  47.379  1.00  0.00     0.143 C 
ATOM     24  C   UNL     1      -7.047  39.326  46.844  1.00  0.00     0.143 C 
BRANCH   9  25
ATOM     25  O   UNL     1      -2.744  38.095  42.585  1.00  0.00    -0.385 OA
ATOM     26  H   UNL     1      -2.675  38.603  41.736  1.00  0.00     0.211 HD
ENDBRANCH   9  25
BRANCH  23  27
ATOM     27  O   UNL     1      -5.250  38.580  48.292  1.00  0.00    -0.390 OA
ATOM     28  H   UNL     1      -4.708  39.279  47.840  1.00  0.00     0.211 HD
ENDBRANCH  23  27
BRANCH  24  29
ATOM     29  O   UNL     1      -7.647  40.034  47.900  1.00  0.00    -0.390 OA
ATOM     30  H   UNL     1      -7.288  39.670  48.751  1.00  0.00     0.211 HD
ENDBRANCH  24  29
ENDBRANCH   3   5
BRANCH   3  31
ATOM     31  O   UNL     1      -2.533  33.063  40.858  1.00  0.00    -0.387 OA
ATOM     32  H   UNL     1      -2.704  33.063  39.879  1.00  0.00     0.211 HD
ENDBRANCH   3  31
ENDBRANCH   2   3
BRANCH   2  33
ATOM     33  O   UNL     1       0.471  34.171  42.664  1.00  0.00    -0.390 OA
ATOM     34  H   UNL     1       0.998  34.274  41.829  1.00  0.00     0.211 HD
ENDBRANCH   2  33
ENDBRANCH   1   2
BRANCH   1  35
ATOM     35  C   UNL     1      -0.336  31.112  43.492  1.00  0.00     0.037 C 
BRANCH  35  36
ATOM     36  C   UNL     1       0.500  29.801  43.492  1.00  0.00     0.059 C 
ATOM     37  C   UNL     1       0.132  28.913  42.291  1.00  0.00     0.042 C 
ATOM     38  C   UNL     1       1.998  30.153  43.406  1.00  0.00     0.042 C 
BRANCH  36  39
ATOM     39  O   UNL     1       0.264  29.067  44.670  1.00  0.00    -0.390 OA
ATOM     40  H   UNL     1      -0.245  28.248  44.424  1.00  0.00     0.211 HD
ENDBRANCH  36  39
ENDBRANCH  35  36
ENDBRANCH   1  35
TORSDOF 11
ENDMDL
MODEL 3
REMARK VINA RESULT:    -5.773      2.416      8.033
REMARK INTER + INTRA:          -9.149
REMARK INTER:                  -8.482
REMARK INTRA:                  -0.666
REMARK UNBOUND:                -0.676
REMARK SMILES CC(C)(O)CC[C@@H](O)[C@@](C)(O)[C@H]1CC[C@@]2(O)C3=CC(=O)[C@@H]4C[C@@H](O)[C@H](O)C[C@]4(C)[C@@H]3CC[C@@]12C
REMARK SMILES IDX 6 1 7 2 9 3 10 4 12 5 34 6 33 7 32 8 15 9 31 10 17 11 14 12
REMARK SMILES IDX 13 13 30 14 18 15 28 16 19 17 21 18 27 19 29 20 20 21 22 22
REMARK SMILES IDX 25 23 23 24 16 25 26 27 24 29 11 31 8 33 5 35 2 36 1 37 3 38
REMARK SMILES IDX 4 39
REMARK H PARENT 16 26 26 28 24 30 11 32 8 34 4 40
REMARK Flexibility Score: inf
ROOT
ATOM      1  C   UNL     1      -4.658  38.185  42.457  1.00  0.00     0.038 C 
ENDROOT
BRANCH   1   2
ATOM      2  C   UNL     1      -3.961  37.243  41.434  1.00  0.00     0.146 C 
BRANCH   2   3
ATOM      3  C   UNL     1      -2.396  37.088  41.664  1.00  0.00     0.091 C 
ATOM      4  C   UNL     1      -1.605  37.884  40.592  1.00  0.00     0.045 C 
BRANCH   3   5
ATOM      5  C   UNL     1      -1.891  35.576  41.711  1.00  0.00     0.032 C 
ATOM      6  C   UNL     1      -3.964  34.010  41.751  1.00  0.00     0.015 C 
ATOM      7  C   UNL     1      -2.653  34.437  42.479  1.00  0.00     0.006 C 
ATOM      8  C   UNL     1      -2.961  34.820  43.948  1.00  0.00     0.011 C 
ATOM      9  C   UNL     1      -1.606  33.274  42.449  1.00  0.00     0.092 C 
ATOM     10  C   UNL     1      -3.540  33.648  44.734  1.00  0.00     0.009 C 
ATOM     11  C   UNL     1      -1.762  32.216  43.556  1.00  0.00    -0.031 C 
ATOM     12  C   UNL     1      -0.245  33.975  42.597  1.00  0.00     0.041 C 
ATOM     13  C   UNL     1      -0.417  35.415  42.117  1.00  0.00     0.010 C 
ATOM     14  C   UNL     1      -2.538  32.475  44.846  1.00  0.00     0.025 C 
ATOM     15  C   UNL     1      -1.023  31.095  43.465  1.00  0.00     0.050 C 
ATOM     16  C   UNL     1      -3.174  31.149  45.422  1.00  0.00    -0.013 C 
ATOM     17  C   UNL     1      -1.048  30.053  44.500  1.00  0.00     0.159 C 
ATOM     18  C   UNL     1      -2.012  30.118  45.668  1.00  0.00     0.070 C 
ATOM     19  C   UNL     1      -4.224  30.557  44.424  1.00  0.00     0.042 C 
ATOM     20  C   UNL     1      -3.865  31.472  46.777  1.00  0.00     0.013 C 
ATOM     21  O   UNL     1      -0.200  29.123  44.434  1.00  0.00    -0.295 OA
ATOM     22  C   UNL     1      -2.534  28.704  46.026  1.00  0.00     0.047 C 
ATOM     23  C   UNL     1      -4.709  29.144  44.806  1.00  0.00     0.143 C 
ATOM     24  C   UNL     1      -3.523  28.175  44.974  1.00  0.00     0.143 C 
BRANCH   9  25
ATOM     25  O   UNL     1      -1.614  32.656  41.174  1.00  0.00    -0.385 OA
ATOM     26  H   UNL     1      -1.791  31.687  41.290  1.00  0.00     0.211 HD
ENDBRANCH   9  25
BRANCH  23  27
ATOM     27  O   UNL     1      -5.612  28.658  43.842  1.00  0.00    -0.390 OA
ATOM     28  H   UNL     1      -5.204  28.800  42.948  1.00  0.00     0.211 HD
ENDBRANCH  23  27
BRANCH  24  29
ATOM     29  O   UNL     1      -3.972  26.889  45.325  1.00  0.00    -0.390 OA
ATOM     30  H   UNL     1      -4.632  26.603  44.641  1.00  0.00     0.211 HD
ENDBRANCH  24  29
ENDBRANCH   3   5
BRANCH   3  31
ATOM     31  O   UNL     1      -2.091  37.677  42.913  1.00  0.00    -0.387 OA
ATOM     32  H   UNL     1      -1.997  36.961  43.597  1.00  0.00     0.211 HD
ENDBRANCH   3  31
ENDBRANCH   2   3
BRANCH   2  33
ATOM     33  O   UNL     1      -4.271  37.661  40.124  1.00  0.00    -0.390 OA
ATOM     34  H   UNL     1      -4.927  38.403  40.189  1.00  0.00     0.211 HD
ENDBRANCH   2  33
ENDBRANCH   1   2
BRANCH   1  35
ATOM     35  C   UNL     1      -5.579  37.405  43.416  1.00  0.00     0.037 C 
BRANCH  35  36
ATOM     36  C   UNL     1      -6.756  38.251  43.980  1.00  0.00     0.059 C 
ATOM     37  C   UNL     1      -6.695  38.324  45.516  1.00  0.00     0.042 C 
ATOM     38  C   UNL     1      -6.669  39.683  43.415  1.00  0.00     0.042 C 
BRANCH  36  39
ATOM     39  O   UNL     1      -7.991  37.683  43.616  1.00  0.00    -0.390 OA
ATOM     40  H   UNL     1      -8.502  38.364  43.103  1.00  0.00     0.211 HD
ENDBRANCH  36  39
ENDBRANCH  35  36
ENDBRANCH   1  35
TORSDOF 11
ENDMDL
MODEL 4
REMARK VINA RESULT:    -5.652      2.000      3.730
REMARK INTER + INTRA:          -8.972
REMARK INTER:                  -8.023
REMARK INTRA:                  -0.949
REMARK UNBOUND:                -0.676
REMARK SMILES CC(C)(O)CC[C@@H](O)[C@@](C)(O)[C@H]1CC[C@@]2(O)C3=CC(=O)[C@@H]4C[C@@H](O)[C@H](O)C[C@]4(C)[C@@H]3CC[C@@]12C
REMARK SMILES IDX 6 1 7 2 9 3 10 4 12 5 34 6 33 7 32 8 15 9 31 10 17 11 14 12
REMARK SMILES IDX 13 13 30 14 18 15 28 16 19 17 21 18 27 19 29 20 20 21 22 22
REMARK SMILES IDX 25 23 23 24 16 25 26 27 24 29 11 31 8 33 5 35 2 36 1 37 3 38
REMARK SMILES IDX 4 39
REMARK H PARENT 16 26 26 28 24 30 11 32 8 34 4 40
REMARK Flexibility Score: inf
ROOT
ATOM      1  C   UNL     1      -1.607  29.155  42.563  1.00  0.00     0.038 C 
ENDROOT
BRANCH   1   2
ATOM      2  C   UNL     1      -1.972  28.689  44.001  1.00  0.00     0.146 C 
BRANCH   2   3
ATOM      3  C   UNL     1      -2.220  29.882  45.021  1.00  0.00     0.091 C 
ATOM      4  C   UNL     1      -2.277  29.353  46.477  1.00  0.00     0.045 C 
BRANCH   3   5
ATOM      5  C   UNL     1      -3.517  30.754  44.700  1.00  0.00     0.032 C 
ATOM      6  C   UNL     1      -2.876  32.596  42.983  1.00  0.00     0.015 C 
ATOM      7  C   UNL     1      -3.466  32.294  44.394  1.00  0.00     0.006 C 
ATOM      8  C   UNL     1      -2.689  33.085  45.476  1.00  0.00     0.011 C 
ATOM      9  C   UNL     1      -4.982  32.682  44.448  1.00  0.00     0.092 C 
ATOM     10  C   UNL     1      -2.795  34.593  45.267  1.00  0.00     0.009 C 
ATOM     11  C   UNL     1      -5.275  34.162  44.748  1.00  0.00    -0.031 C 
ATOM     12  C   UNL     1      -5.565  31.805  45.570  1.00  0.00     0.041 C 
ATOM     13  C   UNL     1      -4.657  30.586  45.717  1.00  0.00     0.010 C 
ATOM     14  C   UNL     1      -4.253  35.094  45.398  1.00  0.00     0.025 C 
ATOM     15  C   UNL     1      -6.541  34.595  44.612  1.00  0.00     0.050 C 
ATOM     16  C   UNL     1      -4.452  36.591  44.940  1.00  0.00    -0.013 C 
ATOM     17  C   UNL     1      -6.939  35.972  44.934  1.00  0.00     0.159 C 
ATOM     18  C   UNL     1      -5.917  37.025  45.314  1.00  0.00     0.070 C 
ATOM     19  C   UNL     1      -4.218  36.738  43.399  1.00  0.00     0.042 C 
ATOM     20  C   UNL     1      -3.443  37.490  45.709  1.00  0.00     0.013 C 
ATOM     21  O   UNL     1      -8.169  36.251  44.952  1.00  0.00    -0.295 OA
ATOM     22  C   UNL     1      -6.304  38.401  44.718  1.00  0.00     0.047 C 
ATOM     23  C   UNL     1      -4.628  38.116  42.842  1.00  0.00     0.143 C 
ATOM     24  C   UNL     1      -6.091  38.449  43.196  1.00  0.00     0.143 C 
BRANCH   9  25
ATOM     25  O   UNL     1      -5.619  32.289  43.245  1.00  0.00    -0.385 OA
ATOM     26  H   UNL     1      -6.537  32.664  43.233  1.00  0.00     0.211 HD
ENDBRANCH   9  25
BRANCH  23  27
ATOM     27  O   UNL     1      -4.435  38.158  41.449  1.00  0.00    -0.390 OA
ATOM     28  H   UNL     1      -3.489  37.916  41.268  1.00  0.00     0.211 HD
ENDBRANCH  23  27
BRANCH  24  29
ATOM     29  O   UNL     1      -6.455  39.708  42.688  1.00  0.00    -0.390 OA
ATOM     30  H   UNL     1      -6.917  39.561  41.821  1.00  0.00     0.211 HD
ENDBRANCH  24  29
ENDBRANCH   3   5
BRANCH   3  31
ATOM     31  O   UNL     1      -1.101  30.744  44.945  1.00  0.00    -0.387 OA
ATOM     32  H   UNL     1      -0.565  30.513  44.141  1.00  0.00     0.211 HD
ENDBRANCH   3  31
ENDBRANCH   2   3
BRANCH   2  33
ATOM     33  O   UNL     1      -0.996  27.784  44.463  1.00  0.00    -0.390 OA
ATOM     34  H   UNL     1      -0.142  28.280  44.563  1.00  0.00     0.211 HD
ENDBRANCH   2  33
ENDBRANCH   1   2
BRANCH   1  35
ATOM     35  C   UNL     1      -0.243  28.596  42.110  1.00  0.00     0.037 C 
BRANCH  35  36
ATOM     36  C   UNL     1       0.940  29.584  42.322  1.00  0.00     0.059 C 
ATOM     37  C   UNL     1       2.122  29.235  41.401  1.00  0.00     0.042 C 
ATOM     38  C   UNL     1       0.470  31.016  42.001  1.00  0.00     0.042 C 
BRANCH  36  39
ATOM     39  O   UNL     1       1.392  29.532  43.655  1.00  0.00    -0.390 OA
ATOM     40  H   UNL     1       1.630  28.589  43.861  1.00  0.00     0.211 HD
ENDBRANCH  36  39
ENDBRANCH  35  36
ENDBRANCH   1  35
TORSDOF 11
ENDMDL
MODEL 5
REMARK VINA RESULT:    -5.552      1.662      2.929
REMARK INTER + INTRA:          -8.825
REMARK INTER:                  -8.076
REMARK INTRA:                  -0.749
REMARK UNBOUND:                -0.676
REMARK SMILES CC(C)(O)CC[C@@H](O)[C@@](C)(O)[C@H]1CC[C@@]2(O)C3=CC(=O)[C@@H]4C[C@@H](O)[C@H](O)C[C@]4(C)[C@@H]3CC[C@@]12C
REMARK SMILES IDX 6 1 7 2 9 3 10 4 12 5 34 6 33 7 32 8 15 9 31 10 17 11 14 12
REMARK SMILES IDX 13 13 30 14 18 15 28 16 19 17 21 18 27 19 29 20 20 21 22 22
REMARK SMILES IDX 25 23 23 24 16 25 26 27 24 29 11 31 8 33 5 35 2 36 1 37 3 38
REMARK SMILES IDX 4 39
REMARK H PARENT 16 26 26 28 24 30 11 32 8 34 4 40
REMARK Flexibility Score: inf
ROOT
ATOM      1  C   UNL     1       1.410  29.696  42.621  1.00  0.00     0.038 C 
ENDROOT
BRANCH   1   2
ATOM      2  C   UNL     1       0.999  31.130  42.179  1.00  0.00     0.146 C 
BRANCH   2   3
ATOM      3  C   UNL     1       0.241  31.958  43.303  1.00  0.00     0.091 C 
ATOM      4  C   UNL     1       0.362  31.250  44.678  1.00  0.00     0.045 C 
BRANCH   3   5
ATOM      5  C   UNL     1      -1.290  32.258  42.970  1.00  0.00     0.032 C 
ATOM      6  C   UNL     1      -1.543  34.789  42.436  1.00  0.00     0.015 C 
ATOM      7  C   UNL     1      -2.004  33.607  43.342  1.00  0.00     0.006 C 
ATOM      8  C   UNL     1      -1.821  33.979  44.835  1.00  0.00     0.011 C 
ATOM      9  C   UNL     1      -3.506  33.261  43.069  1.00  0.00     0.092 C 
ATOM     10  C   UNL     1      -2.661  35.191  45.229  1.00  0.00     0.009 C 
ATOM     11  C   UNL     1      -4.532  34.119  43.830  1.00  0.00    -0.031 C 
ATOM     12  C   UNL     1      -3.648  31.790  43.498  1.00  0.00     0.041 C 
ATOM     13  C   UNL     1      -2.261  31.155  43.419  1.00  0.00     0.010 C 
ATOM     14  C   UNL     1      -4.177  34.915  45.085  1.00  0.00     0.025 C 
ATOM     15  C   UNL     1      -5.828  34.004  43.489  1.00  0.00     0.050 C 
ATOM     16  C   UNL     1      -5.073  36.207  45.230  1.00  0.00    -0.013 C 
ATOM     17  C   UNL     1      -6.893  34.729  44.195  1.00  0.00     0.159 C 
ATOM     18  C   UNL     1      -6.579  35.754  45.266  1.00  0.00     0.070 C 
ATOM     19  C   UNL     1      -4.829  37.191  44.038  1.00  0.00     0.042 C 
ATOM     20  C   UNL     1      -4.721  36.913  46.571  1.00  0.00     0.013 C 
ATOM     21  O   UNL     1      -8.091  34.434  43.936  1.00  0.00    -0.295 OA
ATOM     22  C   UNL     1      -7.564  36.947  45.186  1.00  0.00     0.047 C 
ATOM     23  C   UNL     1      -5.837  38.356  43.984  1.00  0.00     0.143 C 
ATOM     24  C   UNL     1      -7.288  37.838  43.963  1.00  0.00     0.143 C 
BRANCH   9  25
ATOM     25  O   UNL     1      -3.762  33.310  41.676  1.00  0.00    -0.385 OA
ATOM     26  H   UNL     1      -3.928  34.252  41.415  1.00  0.00     0.211 HD
ENDBRANCH   9  25
BRANCH  23  27
ATOM     27  O   UNL     1      -5.586  39.170  42.864  1.00  0.00    -0.390 OA
ATOM     28  H   UNL     1      -4.736  38.864  42.453  1.00  0.00     0.211 HD
ENDBRANCH  23  27
BRANCH  24  29
ATOM     29  O   UNL     1      -8.201  38.906  43.918  1.00  0.00    -0.390 OA
ATOM     30  H   UNL     1      -8.123  39.407  44.771  1.00  0.00     0.211 HD
ENDBRANCH  24  29
ENDBRANCH   3   5
BRANCH   3  31
ATOM     31  O   UNL     1       0.899  33.204  43.428  1.00  0.00    -0.387 OA
ATOM     32  H   UNL     1       1.856  33.094  43.180  1.00  0.00     0.211 HD
ENDBRANCH   3  31
ENDBRANCH   2   3
BRANCH   2  33
ATOM     33  O   UNL     1       0.265  31.058  40.979  1.00  0.00    -0.390 OA
ATOM     34  H   UNL     1       0.821  30.581  40.309  1.00  0.00     0.211 HD
ENDBRANCH   2  33
ENDBRANCH   1   2
BRANCH   1  35
ATOM     35  C   UNL     1       1.285  28.683  41.466  1.00  0.00     0.037 C 
BRANCH  35  36
ATOM     36  C   UNL     1      -0.056  27.894  41.467  1.00  0.00     0.059 C 
ATOM     37  C   UNL     1       0.158  26.445  40.999  1.00  0.00     0.042 C 
ATOM     38  C   UNL     1      -0.631  27.871  42.897  1.00  0.00     0.042 C 
BRANCH  36  39
ATOM     39  O   UNL     1      -0.986  28.502  40.603  1.00  0.00    -0.390 OA
ATOM     40  H   UNL     1      -1.214  27.848  39.890  1.00  0.00     0.211 HD
ENDBRANCH  36  39
ENDBRANCH  35  36
ENDBRANCH   1  35
TORSDOF 11
ENDMDL
MODEL 6
REMARK VINA RESULT:    -5.508      2.397      8.944
REMARK INTER + INTRA:          -8.760
REMARK INTER:                  -8.290
REMARK INTRA:                  -0.470
REMARK UNBOUND:                -0.676
REMARK SMILES CC(C)(O)CC[C@@H](O)[C@@](C)(O)[C@H]1CC[C@@]2(O)C3=CC(=O)[C@@H]4C[C@@H](O)[C@H](O)C[C@]4(C)[C@@H]3CC[C@@]12C
REMARK SMILES IDX 6 1 7 2 9 3 10 4 12 5 34 6 33 7 32 8 15 9 31 10 17 11 14 12
REMARK SMILES IDX 13 13 30 14 18 15 28 16 19 17 21 18 27 19 29 20 20 21 22 22
REMARK SMILES IDX 25 23 23 24 16 25 26 27 24 29 11 31 8 33 5 35 2 36 1 37 3 38
REMARK SMILES IDX 4 39
REMARK H PARENT 16 26 26 28 24 30 11 32 8 34 4 40
REMARK Flexibility Score: inf
ROOT
ATOM      1  C   UNL     1      -4.730  37.981  43.379  1.00  0.00     0.038 C 
ENDROOT
BRANCH   1   2
ATOM      2  C   UNL     1      -4.370  36.508  43.032  1.00  0.00     0.146 C 
BRANCH   2   3
ATOM      3  C   UNL     1      -3.394  36.361  41.786  1.00  0.00     0.091 C 
ATOM      4  C   UNL     1      -4.128  36.736  40.471  1.00  0.00     0.045 C 
BRANCH   3   5
ATOM      5  C   UNL     1      -2.723  34.921  41.650  1.00  0.00     0.032 C 
ATOM      6  C   UNL     1      -2.958  33.679  43.921  1.00  0.00     0.015 C 
ATOM      7  C   UNL     1      -1.974  34.205  42.832  1.00  0.00     0.006 C 
ATOM      8  C   UNL     1      -0.896  35.109  43.481  1.00  0.00     0.011 C 
ATOM      9  C   UNL     1      -1.282  33.010  42.096  1.00  0.00     0.092 C 
ATOM     10  C   UNL     1      -0.056  34.351  44.504  1.00  0.00     0.009 C 
ATOM     11  C   UNL     1      -0.042  32.430  42.798  1.00  0.00    -0.031 C 
ATOM     12  C   UNL     1      -0.876  33.582  40.727  1.00  0.00     0.041 C 
ATOM     13  C   UNL     1      -1.791  34.770  40.438  1.00  0.00     0.010 C 
ATOM     14  C   UNL     1       0.748  33.200  43.854  1.00  0.00     0.025 C 
ATOM     15  C   UNL     1       0.474  31.282  42.321  1.00  0.00     0.050 C 
ATOM     16  C   UNL     1       1.426  32.231  44.900  1.00  0.00    -0.013 C 
ATOM     17  C   UNL     1       1.692  30.678  42.878  1.00  0.00     0.159 C 
ATOM     18  C   UNL     1       2.365  31.245  44.112  1.00  0.00     0.070 C 
ATOM     19  C   UNL     1       0.345  31.431  45.700  1.00  0.00     0.042 C 
ATOM     20  C   UNL     1       2.286  33.076  45.883  1.00  0.00     0.013 C 
ATOM     21  O   UNL     1       2.212  29.706  42.266  1.00  0.00    -0.295 OA
ATOM     22  C   UNL     1       2.917  30.105  45.004  1.00  0.00     0.047 C 
ATOM     23  C   UNL     1       0.932  30.297  46.565  1.00  0.00     0.143 C 
ATOM     24  C   UNL     1       1.792  29.338  45.718  1.00  0.00     0.143 C 
BRANCH   9  25
ATOM     25  O   UNL     1      -2.231  31.987  41.849  1.00  0.00    -0.385 OA
ATOM     26  H   UNL     1      -2.554  32.069  40.915  1.00  0.00     0.211 HD
ENDBRANCH   9  25
BRANCH  23  27
ATOM     27  O   UNL     1      -0.098  29.594  47.216  1.00  0.00    -0.390 OA
ATOM     28  H   UNL     1      -0.925  29.703  46.678  1.00  0.00     0.211 HD
ENDBRANCH  23  27
BRANCH  24  29
ATOM     29  O   UNL     1       2.326  28.309  46.514  1.00  0.00    -0.390 OA
ATOM     30  H   UNL     1       1.569  27.861  46.975  1.00  0.00     0.211 HD
ENDBRANCH  24  29
ENDBRANCH   3   5
BRANCH   3  31
ATOM     31  O   UNL     1      -2.351  37.302  41.951  1.00  0.00    -0.387 OA
ATOM     32  H   UNL     1      -2.678  38.202  41.687  1.00  0.00     0.211 HD
ENDBRANCH   3  31
ENDBRANCH   2   3
BRANCH   2  33
ATOM     33  O   UNL     1      -5.553  35.760  42.877  1.00  0.00    -0.390 OA
ATOM     34  H   UNL     1      -6.093  35.868  43.703  1.00  0.00     0.211 HD
ENDBRANCH   2  33
ENDBRANCH   1   2
BRANCH   1  35
ATOM     35  C   UNL     1      -5.612  38.071  44.641  1.00  0.00     0.037 C 
BRANCH  35  36
ATOM     36  C   UNL     1      -7.031  38.647  44.374  1.00  0.00     0.059 C 
ATOM     37  C   UNL     1      -7.782  38.898  45.693  1.00  0.00     0.042 C 
ATOM     38  C   UNL     1      -6.904  39.984  43.617  1.00  0.00     0.042 C 
BRANCH  36  39
ATOM     39  O   UNL     1      -7.790  37.747  43.601  1.00  0.00    -0.390 OA
ATOM     40  H   UNL     1      -7.311  37.603  42.742  1.00  0.00     0.211 HD
ENDBRANCH  36  39
ENDBRANCH  35  36
ENDBRANCH   1  35
TORSDOF 11
ENDMDL
MODEL 7
REMARK VINA RESULT:    -5.495      1.694      2.481
REMARK INTER + INTRA:          -8.740
REMARK INTER:                  -7.590
REMARK INTRA:                  -1.150
REMARK UNBOUND:                -0.676
REMARK SMILES CC(C)(O)CC[C@@H](O)[C@@](C)(O)[C@H]1CC[C@@]2(O)C3=CC(=O)[C@@H]4C[C@@H](O)[C@H](O)C[C@]4(C)[C@@H]3CC[C@@]12C
REMARK SMILES IDX 6 1 7 2 9 3 10 4 12 5 34 6 33 7 32 8 15 9 31 10 17 11 14 12
REMARK SMILES IDX 13 13 30 14 18 15 28 16 19 17 21 18 27 19 29 20 20 21 22 22
REMARK SMILES IDX 25 23 23 24 16 25 26 27 24 29 11 31 8 33 5 35 2 36 1 37 3 38
REMARK SMILES IDX 4 39
REMARK H PARENT 16 26 26 28 24 30 11 32 8 34 4 40
REMARK Flexibility Score: inf
ROOT
ATOM      1  C   UNL     1      -1.501  29.044  44.189  1.00  0.00     0.038 C 
ENDROOT
BRANCH   1   2
ATOM      2  C   UNL     1      -0.739  30.387  44.007  1.00  0.00     0.146 C 
BRANCH   2   3
ATOM      3  C   UNL     1      -1.059  31.128  42.637  1.00  0.00     0.091 C 
ATOM      4  C   UNL     1       0.131  30.992  41.652  1.00  0.00     0.045 C 
BRANCH   3   5
ATOM      5  C   UNL     1      -1.464  32.662  42.805  1.00  0.00     0.032 C 
ATOM      6  C   UNL     1      -2.423  33.010  45.195  1.00  0.00     0.015 C 
ATOM      7  C   UNL     1      -2.689  33.140  43.665  1.00  0.00     0.006 C 
ATOM      8  C   UNL     1      -3.998  32.403  43.288  1.00  0.00     0.011 C 
ATOM      9  C   UNL     1      -2.799  34.647  43.254  1.00  0.00     0.092 C 
ATOM     10  C   UNL     1      -5.212  32.995  43.998  1.00  0.00     0.009 C 
ATOM     11  C   UNL     1      -4.185  35.286  43.451  1.00  0.00    -0.031 C 
ATOM     12  C   UNL     1      -2.432  34.668  41.760  1.00  0.00     0.041 C 
ATOM     13  C   UNL     1      -1.579  33.433  41.481  1.00  0.00     0.010 C 
ATOM     14  C   UNL     1      -5.465  34.463  43.583  1.00  0.00     0.025 C 
ATOM     15  C   UNL     1      -4.291  36.619  43.306  1.00  0.00     0.050 C 
ATOM     16  C   UNL     1      -6.543  35.196  44.474  1.00  0.00    -0.013 C 
ATOM     17  C   UNL     1      -5.578  37.320  43.410  1.00  0.00     0.159 C 
ATOM     18  C   UNL     1      -6.845  36.595  43.820  1.00  0.00     0.070 C 
ATOM     19  C   UNL     1      -6.022  35.381  45.938  1.00  0.00     0.042 C 
ATOM     20  C   UNL     1      -7.846  34.348  44.485  1.00  0.00     0.013 C 
ATOM     21  O   UNL     1      -5.625  38.537  43.087  1.00  0.00    -0.295 OA
ATOM     22  C   UNL     1      -7.723  37.499  44.721  1.00  0.00     0.047 C 
ATOM     23  C   UNL     1      -6.916  36.297  46.799  1.00  0.00     0.143 C 
ATOM     24  C   UNL     1      -7.121  37.668  46.126  1.00  0.00     0.143 C 
BRANCH   9  25
ATOM     25  O   UNL     1      -1.809  35.401  43.932  1.00  0.00    -0.385 OA
ATOM     26  H   UNL     1      -0.924  34.984  43.769  1.00  0.00     0.211 HD
ENDBRANCH   9  25
BRANCH  23  27
ATOM     27  O   UNL     1      -6.363  36.454  48.083  1.00  0.00    -0.390 OA
ATOM     28  H   UNL     1      -7.109  36.438  48.738  1.00  0.00     0.211 HD
ENDBRANCH  23  27
BRANCH  24  29
ATOM     29  O   UNL     1      -7.938  38.496  46.915  1.00  0.00    -0.390 OA
ATOM     30  H   UNL     1      -8.739  37.970  47.176  1.00  0.00     0.211 HD
ENDBRANCH  24  29
ENDBRANCH   3   5
BRANCH   3  31
ATOM     31  O   UNL     1      -2.156  30.463  42.042  1.00  0.00    -0.387 OA
ATOM     32  H   UNL     1      -2.337  30.863  41.150  1.00  0.00     0.211 HD
ENDBRANCH   3  31
ENDBRANCH   2   3
BRANCH   2  33
ATOM     33  O   UNL     1       0.641  30.173  44.190  1.00  0.00    -0.390 OA
ATOM     34  H   UNL     1       0.810  29.197  44.121  1.00  0.00     0.211 HD
ENDBRANCH   2  33
ENDBRANCH   1   2
BRANCH   1  35
ATOM     35  C   UNL     1      -2.434  29.078  45.416  1.00  0.00     0.037 C 
BRANCH  35  36
ATOM     36  C   UNL     1      -3.923  28.781  45.079  1.00  0.00     0.059 C 
ATOM     37  C   UNL     1      -4.312  27.356  45.510  1.00  0.00     0.042 C 
ATOM     38  C   UNL     1      -4.824  29.785  45.825  1.00  0.00     0.042 C 
BRANCH  36  39
ATOM     39  O   UNL     1      -4.147  28.897  43.694  1.00  0.00    -0.390 OA
ATOM     40  H   UNL     1      -5.068  28.572  43.505  1.00  0.00     0.211 HD
ENDBRANCH  36  39
ENDBRANCH  35  36
ENDBRANCH   1  35
TORSDOF 11
ENDMDL
MODEL 8
REMARK VINA RESULT:    -5.428      3.764      5.540
REMARK INTER + INTRA:          -8.643
REMARK INTER:                  -8.011
REMARK INTRA:                  -0.632
REMARK UNBOUND:                -0.676
REMARK SMILES CC(C)(O)CC[C@@H](O)[C@@](C)(O)[C@H]1CC[C@@]2(O)C3=CC(=O)[C@@H]4C[C@@H](O)[C@H](O)C[C@]4(C)[C@@H]3CC[C@@]12C
REMARK SMILES IDX 6 1 7 2 9 3 10 4 12 5 34 6 33 7 32 8 15 9 31 10 17 11 14 12
REMARK SMILES IDX 13 13 30 14 18 15 28 16 19 17 21 18 27 19 29 20 20 21 22 22
REMARK SMILES IDX 25 23 23 24 16 25 26 27 24 29 11 31 8 33 5 35 2 36 1 37 3 38
REMARK SMILES IDX 4 39
REMARK H PARENT 16 26 26 28 24 30 11 32 8 34 4 40
REMARK Flexibility Score: inf
ROOT
ATOM      1  C   UNL     1       0.491  30.221  43.291  1.00  0.00     0.038 C 
ENDROOT
BRANCH   1   2
ATOM      2  C   UNL     1       0.572  29.631  44.728  1.00  0.00     0.146 C 
BRANCH   2   3
ATOM      3  C   UNL     1      -0.620  30.082  45.678  1.00  0.00     0.091 C 
ATOM      4  C   UNL     1      -0.333  29.672  47.146  1.00  0.00     0.045 C 
BRANCH   3   5
ATOM      5  C   UNL     1      -2.052  29.546  45.226  1.00  0.00     0.032 C 
ATOM      6  C   UNL     1      -3.217  31.387  43.807  1.00  0.00     0.015 C 
ATOM      7  C   UNL     1      -3.310  30.476  45.069  1.00  0.00     0.006 C 
ATOM      8  C   UNL     1      -3.566  31.339  46.330  1.00  0.00     0.011 C 
ATOM      9  C   UNL     1      -4.463  29.430  44.906  1.00  0.00     0.092 C 
ATOM     10  C   UNL     1      -4.883  32.103  46.240  1.00  0.00     0.009 C 
ATOM     11  C   UNL     1      -5.868  29.931  45.283  1.00  0.00    -0.031 C 
ATOM     12  C   UNL     1      -4.066  28.269  45.835  1.00  0.00     0.041 C 
ATOM     13  C   UNL     1      -2.551  28.330  46.021  1.00  0.00     0.010 C 
ATOM     14  C   UNL     1      -6.101  31.151  46.172  1.00  0.00     0.025 C 
ATOM     15  C   UNL     1      -6.919  29.149  44.978  1.00  0.00     0.050 C 
ATOM     16  C   UNL     1      -7.457  31.880  45.821  1.00  0.00    -0.013 C 
ATOM     17  C   UNL     1      -8.296  29.504  45.351  1.00  0.00     0.159 C 
ATOM     18  C   UNL     1      -8.626  30.841  45.986  1.00  0.00     0.070 C 
ATOM     19  C   UNL     1      -7.426  32.439  44.360  1.00  0.00     0.042 C 
ATOM     20  C   UNL     1      -7.671  33.051  46.823  1.00  0.00     0.013 C 
ATOM     21  O   UNL     1      -9.201  28.642  45.190  1.00  0.00    -0.295 OA
ATOM     22  C   UNL     1      -9.980  31.376  45.458  1.00  0.00     0.047 C 
ATOM     23  C   UNL     1      -8.795  32.949  43.866  1.00  0.00     0.143 C 
ATOM     24  C   UNL     1      -9.878  31.861  44.002  1.00  0.00     0.143 C 
BRANCH   9  25
ATOM     25  O   UNL     1      -4.461  28.919  43.585  1.00  0.00    -0.385 OA
ATOM     26  H   UNL     1      -3.522  28.831  43.277  1.00  0.00     0.211 HD
ENDBRANCH   9  25
BRANCH  23  27
ATOM     27  O   UNL     1      -8.702  33.390  42.534  1.00  0.00    -0.390 OA
ATOM     28  H   UNL     1      -9.542  33.134  42.070  1.00  0.00     0.211 HD
ENDBRANCH  23  27
BRANCH  24  29
ATOM     29  O   UNL     1     -11.123  32.335  43.553  1.00  0.00    -0.390 OA
ATOM     30  H   UNL     1     -11.409  33.062  44.167  1.00  0.00     0.211 HD
ENDBRANCH  24  29
ENDBRANCH   3   5
BRANCH   3  31
ATOM     31  O   UNL     1      -0.668  31.496  45.653  1.00  0.00    -0.387 OA
ATOM     32  H   UNL     1      -1.085  31.823  46.494  1.00  0.00     0.211 HD
ENDBRANCH   3  31
ENDBRANCH   2   3
BRANCH   2  33
ATOM     33  O   UNL     1       1.836  29.915  45.281  1.00  0.00    -0.390 OA
ATOM     34  H   UNL     1       2.414  30.269  44.556  1.00  0.00     0.211 HD
ENDBRANCH   2  33
ENDBRANCH   1   2
BRANCH   1  35
ATOM     35  C   UNL     1       1.074  29.253  42.242  1.00  0.00     0.037 C 
BRANCH  35  36
ATOM     36  C   UNL     1       0.049  28.811  41.159  1.00  0.00     0.059 C 
ATOM     37  C   UNL     1       0.242  27.330  40.790  1.00  0.00     0.042 C 
ATOM     38  C   UNL     1      -1.380  29.002  41.704  1.00  0.00     0.042 C 
BRANCH  36  39
ATOM     39  O   UNL     1       0.206  29.580  39.990  1.00  0.00    -0.390 OA
ATOM     40  H   UNL     1      -0.362  29.176  39.280  1.00  0.00     0.211 HD
ENDBRANCH  36  39
ENDBRANCH  35  36
ENDBRANCH   1  35
TORSDOF 11
ENDMDL
MODEL 9
REMARK VINA RESULT:    -5.395      1.990      8.761
REMARK INTER + INTRA:          -8.594
REMARK INTER:                  -7.789
REMARK INTRA:                  -0.805
REMARK UNBOUND:                -0.676
REMARK SMILES CC(C)(O)CC[C@@H](O)[C@@](C)(O)[C@H]1CC[C@@]2(O)C3=CC(=O)[C@@H]4C[C@@H](O)[C@H](O)C[C@]4(C)[C@@H]3CC[C@@]12C
REMARK SMILES IDX 6 1 7 2 9 3 10 4 12 5 34 6 33 7 32 8 15 9 31 10 17 11 14 12
REMARK SMILES IDX 13 13 30 14 18 15 28 16 19 17 21 18 27 19 29 20 20 21 22 22
REMARK SMILES IDX 25 23 23 24 16 25 26 27 24 29 11 31 8 33 5 35 2 36 1 37 3 38
REMARK SMILES IDX 4 39
REMARK H PARENT 16 26 26 28 24 30 11 32 8 34 4 40
REMARK Flexibility Score: inf
ROOT
ATOM      1  C   UNL     1      -7.607  37.533  45.439  1.00  0.00     0.038 C 
ENDROOT
BRANCH   1   2
ATOM      2  C   UNL     1      -7.713  35.989  45.282  1.00  0.00     0.146 C 
BRANCH   2   3
ATOM      3  C   UNL     1      -6.589  35.184  46.067  1.00  0.00     0.091 C 
ATOM      4  C   UNL     1      -6.374  35.785  47.480  1.00  0.00     0.045 C 
BRANCH   3   5
ATOM      5  C   UNL     1      -5.198  35.086  45.292  1.00  0.00     0.032 C 
ATOM      6  C   UNL     1      -5.282  33.040  43.692  1.00  0.00     0.015 C 
ATOM      7  C   UNL     1      -4.536  33.722  44.879  1.00  0.00     0.006 C 
ATOM      8  C   UNL     1      -4.421  32.738  46.070  1.00  0.00     0.011 C 
ATOM      9  C   UNL     1      -3.106  34.180  44.438  1.00  0.00     0.092 C 
ATOM     10  C   UNL     1      -3.621  31.491  45.705  1.00  0.00     0.009 C 
ATOM     11  C   UNL     1      -2.016  33.096  44.502  1.00  0.00    -0.031 C 
ATOM     12  C   UNL     1      -2.751  35.323  45.405  1.00  0.00     0.041 C 
ATOM     13  C   UNL     1      -4.063  35.904  45.928  1.00  0.00     0.010 C 
ATOM     14  C   UNL     1      -2.156  31.829  45.344  1.00  0.00     0.025 C 
ATOM     15  C   UNL     1      -0.820  33.371  43.951  1.00  0.00     0.050 C 
ATOM     16  C   UNL     1      -1.362  30.618  44.715  1.00  0.00    -0.013 C 
ATOM     17  C   UNL     1       0.308  32.431  44.013  1.00  0.00     0.159 C 
ATOM     18  C   UNL     1       0.149  31.038  44.588  1.00  0.00     0.070 C 
ATOM     19  C   UNL     1      -1.942  30.242  43.310  1.00  0.00     0.042 C 
ATOM     20  C   UNL     1      -1.472  29.395  45.669  1.00  0.00     0.013 C 
ATOM     21  O   UNL     1       1.442  32.831  43.633  1.00  0.00    -0.295 OA
ATOM     22  C   UNL     1       0.988  30.015  43.783  1.00  0.00     0.047 C 
ATOM     23  C   UNL     1      -1.071  29.233  42.534  1.00  0.00     0.143 C 
ATOM     24  C   UNL     1       0.379  29.736  42.399  1.00  0.00     0.143 C 
BRANCH   9  25
ATOM     25  O   UNL     1      -3.164  34.743  43.139  1.00  0.00    -0.385 OA
ATOM     26  H   UNL     1      -3.351  34.020  42.486  1.00  0.00     0.211 HD
ENDBRANCH   9  25
BRANCH  23  27
ATOM     27  O   UNL     1      -1.627  28.980  41.267  1.00  0.00    -0.390 OA
ATOM     28  H   UNL     1      -1.752  27.998  41.182  1.00  0.00     0.211 HD
ENDBRANCH  23  27
BRANCH  24  29
ATOM     29  O   UNL     1       1.167  28.810  41.693  1.00  0.00    -0.390 OA
ATOM     30  H   UNL     1       0.922  28.875  40.733  1.00  0.00     0.211 HD
ENDBRANCH  24  29
ENDBRANCH   3   5
BRANCH   3  31
ATOM     31  O   UNL     1      -7.064  33.866  46.253  1.00  0.00    -0.387 OA
ATOM     32  H   UNL     1      -6.305  33.229  46.173  1.00  0.00     0.211 HD
ENDBRANCH   3  31
ENDBRANCH   2   3
BRANCH   2  33
ATOM     33  O   UNL     1      -7.753  35.658  43.914  1.00  0.00    -0.390 OA
ATOM     34  H   UNL     1      -8.324  36.328  43.454  1.00  0.00     0.211 HD
ENDBRANCH   2  33
ENDBRANCH   1   2
BRANCH   1  35
ATOM     35  C   UNL     1      -7.631  38.249  44.073  1.00  0.00     0.037 C 
BRANCH  35  36
ATOM     36  C   UNL     1      -6.339  39.060  43.769  1.00  0.00     0.059 C 
ATOM     37  C   UNL     1      -5.763  39.681  45.053  1.00  0.00     0.042 C 
ATOM     38  C   UNL     1      -5.281  38.120  43.158  1.00  0.00     0.042 C 
BRANCH  36  39
ATOM     39  O   UNL     1      -6.613  40.101  42.862  1.00  0.00    -0.390 OA
ATOM     40  H   UNL     1      -5.846  40.733  42.881  1.00  0.00     0.211 HD
ENDBRANCH  36  39
ENDBRANCH  35  36
ENDBRANCH   1  35
TORSDOF 11
ENDMDL
