MODEL 1
REMARK VINA RESULT:    -6.576      0.000      0.000
REMARK INTER + INTRA:          -7.994
REMARK INTER:                  -7.729
REMARK INTRA:                  -0.265
REMARK UNBOUND:                -0.265
REMARK SMILES O=c1cc(-c2ccc(O)c(O)c2)oc2cc(O)cc(O)c12
REMARK SMILES IDX 4 1 3 2 2 3 1 4 21 5 19 6 18 7 16 8 15 9 14 10 13 11 5 12
REMARK SMILES IDX 6 13 7 14 8 15 12 16 10 17 9 18 11 20 20 22 17 24
REMARK H PARENT 9 19 11 21 20 23 17 25
REMARK Flexibility Score: inf
ROOT
ATOM      1  C   UNL     1       7.905  -7.886  42.328  1.00  0.00     0.138 A 
ATOM      2  C   UNL     1       7.826  -8.485  43.592  1.00  0.00     0.100 A 
ATOM      3  C   UNL     1       7.377  -9.801  43.706  1.00  0.00     0.197 A 
ATOM      4  O   UNL     1       7.370 -10.329  44.848  1.00  0.00    -0.289 OA
ATOM      5  C   UNL     1       6.972 -10.509  42.549  1.00  0.00     0.107 A 
ATOM      6  C   UNL     1       6.466 -11.844  42.547  1.00  0.00     0.134 A 
ATOM      7  C   UNL     1       6.190 -12.475  41.327  1.00  0.00     0.093 A 
ATOM      8  C   UNL     1       6.346 -11.803  40.116  1.00  0.00     0.123 A 
ATOM      9  C   UNL     1       6.793 -10.481  40.109  1.00  0.00     0.094 A 
ATOM     10  C   UNL     1       7.109  -9.835  41.306  1.00  0.00     0.146 A 
ATOM     11  O   UNL     1       7.549  -8.582  41.254  1.00  0.00    -0.456 OA
ENDROOT
BRANCH   1  12
ATOM     12  C   UNL     1       8.371  -6.487  42.150  1.00  0.00     0.021 A 
ATOM     13  C   UNL     1       7.485  -5.524  41.636  1.00  0.00     0.016 A 
ATOM     14  C   UNL     1       7.900  -4.203  41.451  1.00  0.00     0.051 A 
ATOM     15  C   UNL     1       9.211  -3.824  41.767  1.00  0.00     0.157 A 
ATOM     16  C   UNL     1       9.691  -6.101  42.453  1.00  0.00     0.062 A 
ATOM     17  C   UNL     1      10.108  -4.775  42.265  1.00  0.00     0.158 A 
BRANCH  15  18
ATOM     18  O   UNL     1       9.628  -2.507  41.586  1.00  0.00    -0.504 OA
ATOM     19  H   UNL     1       9.468  -2.015  40.714  1.00  0.00     0.293 HD
ENDBRANCH  15  18
BRANCH  17  20
ATOM     20  O   UNL     1      11.414  -4.397  42.569  1.00  0.00    -0.504 OA
ATOM     21  H   UNL     1      11.821  -4.576  43.479  1.00  0.00     0.293 HD
ENDBRANCH  17  20
ENDBRANCH   1  12
BRANCH   6  22
ATOM     22  O   UNL     1       6.196 -12.582  43.703  1.00  0.00    -0.507 OA
ATOM     23  H   UNL     1       6.634 -12.436  44.599  1.00  0.00     0.293 HD
ENDBRANCH   6  22
BRANCH   8  24
ATOM     24  O   UNL     1       6.046 -12.458  38.923  1.00  0.00    -0.508 OA
ATOM     25  H   UNL     1       6.028 -13.469  38.864  1.00  0.00     0.293 HD
ENDBRANCH   8  24
TORSDOF 5
ENDMDL
MODEL 2
REMARK VINA RESULT:    -6.488      4.822      8.265
REMARK INTER + INTRA:          -7.891
REMARK INTER:                  -7.596
REMARK INTRA:                  -0.295
REMARK UNBOUND:                -0.265
REMARK SMILES O=c1cc(-c2ccc(O)c(O)c2)oc2cc(O)cc(O)c12
REMARK SMILES IDX 4 1 3 2 2 3 1 4 21 5 19 6 18 7 16 8 15 9 14 10 13 11 5 12
REMARK SMILES IDX 6 13 7 14 8 15 12 16 10 17 9 18 11 20 20 22 17 24
REMARK H PARENT 9 19 11 21 20 23 17 25
REMARK Flexibility Score: inf
ROOT
ATOM      1  C   UNL     1       7.486  -2.167  38.501  1.00  0.00     0.138 A 
ATOM      2  C   UNL     1       7.647  -1.129  39.429  1.00  0.00     0.100 A 
ATOM      3  C   UNL     1       8.232  -1.394  40.667  1.00  0.00     0.197 A 
ATOM      4  O   UNL     1       8.413  -0.431  41.456  1.00  0.00    -0.289 OA
ATOM      5  C   UNL     1       8.629  -2.715  40.990  1.00  0.00     0.107 A 
ATOM      6  C   UNL     1       9.206  -3.110  42.235  1.00  0.00     0.134 A 
ATOM      7  C   UNL     1       9.648  -4.428  42.402  1.00  0.00     0.093 A 
ATOM      8  C   UNL     1       9.482  -5.378  41.395  1.00  0.00     0.123 A 
ATOM      9  C   UNL     1       8.874  -5.015  40.193  1.00  0.00     0.094 A 
ATOM     10  C   UNL     1       8.453  -3.700  39.983  1.00  0.00     0.146 A 
ATOM     11  O   UNL     1       7.895  -3.391  38.816  1.00  0.00    -0.456 OA
ENDROOT
BRANCH   1  12
ATOM     12  C   UNL     1       6.866  -1.941  37.171  1.00  0.00     0.021 A 
ATOM     13  C   UNL     1       6.970  -2.937  36.183  1.00  0.00     0.016 A 
ATOM     14  C   UNL     1       6.403  -2.748  34.921  1.00  0.00     0.051 A 
ATOM     15  C   UNL     1       5.731  -1.556  34.621  1.00  0.00     0.157 A 
ATOM     16  C   UNL     1       6.199  -0.741  36.857  1.00  0.00     0.062 A 
ATOM     17  C   UNL     1       5.632  -0.551  35.588  1.00  0.00     0.158 A 
BRANCH  15  18
ATOM     18  O   UNL     1       5.162  -1.365  33.363  1.00  0.00    -0.504 OA
ATOM     19  H   UNL     1       5.323  -2.016  32.603  1.00  0.00     0.293 HD
ENDBRANCH  15  18
BRANCH  17  20
ATOM     20  O   UNL     1       4.971   0.637  35.282  1.00  0.00    -0.504 OA
ATOM     21  H   UNL     1       4.379   0.721  34.464  1.00  0.00     0.293 HD
ENDBRANCH  17  20
ENDBRANCH   1  12
BRANCH   6  22
ATOM     22  O   UNL     1       9.347  -2.263  43.339  1.00  0.00    -0.507 OA
ATOM     23  H   UNL     1       8.608  -1.707  43.741  1.00  0.00     0.293 HD
ENDBRANCH   6  22
BRANCH   8  24
ATOM     24  O   UNL     1       9.920  -6.685  41.603  1.00  0.00    -0.508 OA
ATOM     25  H   UNL     1       9.287  -7.413  41.911  1.00  0.00     0.293 HD
ENDBRANCH   8  24
TORSDOF 5
ENDMDL
MODEL 3
REMARK VINA RESULT:    -6.451      5.675      8.881
REMARK INTER + INTRA:          -7.847
REMARK INTER:                  -7.534
REMARK INTRA:                  -0.313
REMARK UNBOUND:                -0.265
REMARK SMILES O=c1cc(-c2ccc(O)c(O)c2)oc2cc(O)cc(O)c12
REMARK SMILES IDX 4 1 3 2 2 3 1 4 21 5 19 6 18 7 16 8 15 9 14 10 13 11 5 12
REMARK SMILES IDX 6 13 7 14 8 15 12 16 10 17 9 18 11 20 20 22 17 24
REMARK H PARENT 9 19 11 21 20 23 17 25
REMARK Flexibility Score: inf
ROOT
ATOM      1  C   UNL     1       7.426  -2.424  38.487  1.00  0.00     0.138 A 
ATOM      2  C   UNL     1       7.738  -3.741  38.849  1.00  0.00     0.100 A 
ATOM      3  C   UNL     1       8.306  -3.999  40.097  1.00  0.00     0.197 A 
ATOM      4  O   UNL     1       8.523  -5.196  40.414  1.00  0.00    -0.289 OA
ATOM      5  C   UNL     1       8.593  -2.925  40.975  1.00  0.00     0.107 A 
ATOM      6  C   UNL     1       9.202  -3.064  42.259  1.00  0.00     0.134 A 
ATOM      7  C   UNL     1       9.346  -1.937  43.078  1.00  0.00     0.093 A 
ATOM      8  C   UNL     1       8.959  -0.671  42.639  1.00  0.00     0.123 A 
ATOM      9  C   UNL     1       8.409  -0.517  41.367  1.00  0.00     0.094 A 
ATOM     10  C   UNL     1       8.220  -1.626  40.539  1.00  0.00     0.146 A 
ATOM     11  O   UNL     1       7.676  -1.437  39.341  1.00  0.00    -0.456 OA
ENDROOT
BRANCH   1  12
ATOM     12  C   UNL     1       6.824  -2.094  37.170  1.00  0.00     0.021 A 
ATOM     13  C   UNL     1       6.923  -3.018  36.115  1.00  0.00     0.016 A 
ATOM     14  C   UNL     1       6.373  -2.731  34.864  1.00  0.00     0.051 A 
ATOM     15  C   UNL     1       5.724  -1.509  34.642  1.00  0.00     0.157 A 
ATOM     16  C   UNL     1       6.181  -0.863  36.935  1.00  0.00     0.062 A 
ATOM     17  C   UNL     1       5.632  -0.573  35.677  1.00  0.00     0.158 A 
BRANCH  15  18
ATOM     18  O   UNL     1       5.173  -1.219  33.395  1.00  0.00    -0.504 OA
ATOM     19  H   UNL     1       5.437  -0.387  32.879  1.00  0.00     0.293 HD
ENDBRANCH  15  18
BRANCH  17  20
ATOM     20  O   UNL     1       4.994   0.645  35.450  1.00  0.00    -0.504 OA
ATOM     21  H   UNL     1       4.820   0.987  34.512  1.00  0.00     0.293 HD
ENDBRANCH  17  20
ENDBRANCH   1  12
BRANCH   6  22
ATOM     22  O   UNL     1       9.699  -4.268  42.765  1.00  0.00    -0.507 OA
ATOM     23  H   UNL     1      10.467  -4.789  42.372  1.00  0.00     0.293 HD
ENDBRANCH   6  22
BRANCH   8  24
ATOM     24  O   UNL     1       9.133   0.429  43.477  1.00  0.00    -0.508 OA
ATOM     25  H   UNL     1       9.574   1.280  43.149  1.00  0.00     0.293 HD
ENDBRANCH   8  24
TORSDOF 5
ENDMDL
MODEL 4
REMARK VINA RESULT:    -6.307      5.803     10.071
REMARK INTER + INTRA:          -7.678
REMARK INTER:                  -7.411
REMARK INTRA:                  -0.267
REMARK UNBOUND:                -0.265
REMARK SMILES O=c1cc(-c2ccc(O)c(O)c2)oc2cc(O)cc(O)c12
REMARK SMILES IDX 4 1 3 2 2 3 1 4 21 5 19 6 18 7 16 8 15 9 14 10 13 11 5 12
REMARK SMILES IDX 6 13 7 14 8 15 12 16 10 17 9 18 11 20 20 22 17 24
REMARK H PARENT 9 19 11 21 20 23 17 25
REMARK Flexibility Score: inf
ROOT
ATOM      1  C   UNL     1      10.122  -1.222  42.810  1.00  0.00     0.138 A 
ATOM      2  C   UNL     1      11.494  -1.012  42.619  1.00  0.00     0.100 A 
ATOM      3  C   UNL     1      12.260  -0.468  43.651  1.00  0.00     0.197 A 
ATOM      4  O   UNL     1      13.498  -0.343  43.469  1.00  0.00    -0.289 OA
ATOM      5  C   UNL     1      11.639  -0.101  44.870  1.00  0.00     0.107 A 
ATOM      6  C   UNL     1      12.313   0.494  45.979  1.00  0.00     0.134 A 
ATOM      7  C   UNL     1      11.610   0.723  47.169  1.00  0.00     0.093 A 
ATOM      8  C   UNL     1      10.250   0.435  47.271  1.00  0.00     0.123 A 
ATOM      9  C   UNL     1       9.571  -0.100  46.177  1.00  0.00     0.094 A 
ATOM     10  C   UNL     1      10.250  -0.372  44.987  1.00  0.00     0.146 A 
ATOM     11  O   UNL     1       9.569  -0.898  43.974  1.00  0.00    -0.456 OA
ENDROOT
BRANCH   1  12
ATOM     12  C   UNL     1       9.260  -1.794  41.745  1.00  0.00     0.021 A 
ATOM     13  C   UNL     1       8.823  -0.969  40.693  1.00  0.00     0.016 A 
ATOM     14  C   UNL     1       8.006  -1.479  39.682  1.00  0.00     0.051 A 
ATOM     15  C   UNL     1       7.602  -2.820  39.709  1.00  0.00     0.157 A 
ATOM     16  C   UNL     1       8.839  -3.138  41.772  1.00  0.00     0.062 A 
ATOM     17  C   UNL     1       8.016  -3.649  40.757  1.00  0.00     0.158 A 
BRANCH  15  18
ATOM     18  O   UNL     1       6.788  -3.333  38.701  1.00  0.00    -0.504 OA
ATOM     19  H   UNL     1       7.173  -3.657  37.822  1.00  0.00     0.293 HD
ENDBRANCH  15  18
BRANCH  17  20
ATOM     20  O   UNL     1       7.604  -4.980  40.787  1.00  0.00    -0.504 OA
ATOM     21  H   UNL     1       7.670  -5.575  39.969  1.00  0.00     0.293 HD
ENDBRANCH  17  20
ENDBRANCH   1  12
BRANCH   6  22
ATOM     22  O   UNL     1      13.651   0.896  45.961  1.00  0.00    -0.507 OA
ATOM     23  H   UNL     1      13.969   1.853  45.944  1.00  0.00     0.293 HD
ENDBRANCH   6  22
BRANCH   8  24
ATOM     24  O   UNL     1       9.581   0.692  48.467  1.00  0.00    -0.508 OA
ATOM     25  H   UNL     1       9.156  -0.053  49.007  1.00  0.00     0.293 HD
ENDBRANCH   8  24
TORSDOF 5
ENDMDL
MODEL 5
REMARK VINA RESULT:    -6.283      2.293      8.320
REMARK INTER + INTRA:          -7.650
REMARK INTER:                  -7.353
REMARK INTRA:                  -0.297
REMARK UNBOUND:                -0.265
REMARK SMILES O=c1cc(-c2ccc(O)c(O)c2)oc2cc(O)cc(O)c12
REMARK SMILES IDX 4 1 3 2 2 3 1 4 21 5 19 6 18 7 16 8 15 9 14 10 13 11 5 12
REMARK SMILES IDX 6 13 7 14 8 15 12 16 10 17 9 18 11 20 20 22 17 24
REMARK H PARENT 9 19 11 21 20 23 17 25
REMARK Flexibility Score: inf
ROOT
ATOM      1  C   UNL     1       8.064  -4.860  41.863  1.00  0.00     0.138 A 
ATOM      2  C   UNL     1       7.836  -4.428  40.550  1.00  0.00     0.100 A 
ATOM      3  C   UNL     1       7.957  -3.073  40.237  1.00  0.00     0.197 A 
ATOM      4  O   UNL     1       7.801  -2.724  39.039  1.00  0.00    -0.289 OA
ATOM      5  C   UNL     1       8.276  -2.142  41.256  1.00  0.00     0.107 A 
ATOM      6  C   UNL     1       8.393  -0.732  41.062  1.00  0.00     0.134 A 
ATOM      7  C   UNL     1       8.810   0.077  42.126  1.00  0.00     0.093 A 
ATOM      8  C   UNL     1       9.057  -0.461  43.389  1.00  0.00     0.123 A 
ATOM      9  C   UNL     1       8.897  -1.830  43.602  1.00  0.00     0.094 A 
ATOM     10  C   UNL     1       8.516  -2.670  42.552  1.00  0.00     0.146 A 
ATOM     11  O   UNL     1       8.393  -3.971  42.794  1.00  0.00    -0.456 OA
ENDROOT
BRANCH   1  12
ATOM     12  C   UNL     1       7.945  -6.289  42.250  1.00  0.00     0.021 A 
ATOM     13  C   UNL     1       8.193  -6.665  43.582  1.00  0.00     0.016 A 
ATOM     14  C   UNL     1       8.096  -8.003  43.973  1.00  0.00     0.051 A 
ATOM     15  C   UNL     1       7.758  -8.989  43.036  1.00  0.00     0.157 A 
ATOM     16  C   UNL     1       7.618  -7.287  41.312  1.00  0.00     0.062 A 
ATOM     17  C   UNL     1       7.523  -8.631  41.704  1.00  0.00     0.158 A 
BRANCH  15  18
ATOM     18  O   UNL     1       7.659 -10.324  43.422  1.00  0.00    -0.504 OA
ATOM     19  H   UNL     1       7.801 -11.079  42.761  1.00  0.00     0.293 HD
ENDBRANCH  15  18
BRANCH  17  20
ATOM     20  O   UNL     1       7.198  -9.616  40.774  1.00  0.00    -0.504 OA
ATOM     21  H   UNL     1       7.711 -10.488  40.721  1.00  0.00     0.293 HD
ENDBRANCH  17  20
ENDBRANCH   1  12
BRANCH   6  22
ATOM     22  O   UNL     1       8.094  -0.078  39.863  1.00  0.00    -0.507 OA
ATOM     23  H   UNL     1       8.042  -0.520  38.959  1.00  0.00     0.293 HD
ENDBRANCH   6  22
BRANCH   8  24
ATOM     24  O   UNL     1       9.455   0.378  44.428  1.00  0.00    -0.508 OA
ATOM     25  H   UNL     1       9.322   1.381  44.379  1.00  0.00     0.293 HD
ENDBRANCH   8  24
TORSDOF 5
ENDMDL
MODEL 6
REMARK VINA RESULT:    -6.221      5.131      8.346
REMARK INTER + INTRA:          -7.577
REMARK INTER:                  -7.313
REMARK INTRA:                  -0.264
REMARK UNBOUND:                -0.265
REMARK SMILES O=c1cc(-c2ccc(O)c(O)c2)oc2cc(O)cc(O)c12
REMARK SMILES IDX 4 1 3 2 2 3 1 4 21 5 19 6 18 7 16 8 15 9 14 10 13 11 5 12
REMARK SMILES IDX 6 13 7 14 8 15 12 16 10 17 9 18 11 20 20 22 17 24
REMARK H PARENT 9 19 11 21 20 23 17 25
REMARK Flexibility Score: inf
ROOT
ATOM      1  C   UNL     1       9.533  -0.792  43.645  1.00  0.00     0.138 A 
ATOM      2  C   UNL     1       9.230   0.152  42.655  1.00  0.00     0.100 A 
ATOM      3  C   UNL     1       8.665  -0.266  41.450  1.00  0.00     0.197 A 
ATOM      4  O   UNL     1       8.353   0.611  40.605  1.00  0.00    -0.289 OA
ATOM      5  C   UNL     1       8.434  -1.645  41.223  1.00  0.00     0.107 A 
ATOM      6  C   UNL     1       7.895  -2.192  40.019  1.00  0.00     0.134 A 
ATOM      7  C   UNL     1       7.620  -3.564  39.949  1.00  0.00     0.093 A 
ATOM      8  C   UNL     1       7.919  -4.415  41.012  1.00  0.00     0.123 A 
ATOM      9  C   UNL     1       8.493  -3.899  42.173  1.00  0.00     0.094 A 
ATOM     10  C   UNL     1       8.747  -2.530  42.288  1.00  0.00     0.146 A 
ATOM     11  O   UNL     1       9.278  -2.077  43.419  1.00  0.00    -0.456 OA
ENDROOT
BRANCH   1  12
ATOM     12  C   UNL     1      10.139  -0.402  44.943  1.00  0.00     0.021 A 
ATOM     13  C   UNL     1       9.348  -0.419  46.106  1.00  0.00     0.016 A 
ATOM     14  C   UNL     1       9.889  -0.049  47.340  1.00  0.00     0.051 A 
ATOM     15  C   UNL     1      11.228   0.355  47.430  1.00  0.00     0.157 A 
ATOM     16  C   UNL     1      11.480   0.017  45.041  1.00  0.00     0.062 A 
ATOM     17  C   UNL     1      12.023   0.391  46.280  1.00  0.00     0.158 A 
BRANCH  15  18
ATOM     18  O   UNL     1      11.772   0.723  48.659  1.00  0.00    -0.504 OA
ATOM     19  H   UNL     1      11.566   0.207  49.507  1.00  0.00     0.293 HD
ENDBRANCH  15  18
BRANCH  17  20
ATOM     20  O   UNL     1      13.351   0.802  46.372  1.00  0.00    -0.504 OA
ATOM     21  H   UNL     1      13.885   1.062  45.551  1.00  0.00     0.293 HD
ENDBRANCH  17  20
ENDBRANCH   1  12
BRANCH   6  22
ATOM     22  O   UNL     1       7.632  -1.446  38.867  1.00  0.00    -0.507 OA
ATOM     23  H   UNL     1       8.081  -0.576  38.625  1.00  0.00     0.293 HD
ENDBRANCH   6  22
BRANCH   8  24
ATOM     24  O   UNL     1       7.646  -5.778  40.899  1.00  0.00    -0.508 OA
ATOM     25  H   UNL     1       7.664  -6.390  41.705  1.00  0.00     0.293 HD
ENDBRANCH   8  24
TORSDOF 5
ENDMDL
MODEL 7
REMARK VINA RESULT:    -6.093      5.590     10.000
REMARK INTER + INTRA:          -7.427
REMARK INTER:                  -7.163
REMARK INTRA:                  -0.264
REMARK UNBOUND:                -0.265
REMARK SMILES O=c1cc(-c2ccc(O)c(O)c2)oc2cc(O)cc(O)c12
REMARK SMILES IDX 4 1 3 2 2 3 1 4 21 5 19 6 18 7 16 8 15 9 14 10 13 11 5 12
REMARK SMILES IDX 6 13 7 14 8 15 12 16 10 17 9 18 11 20 20 22 17 24
REMARK H PARENT 9 19 11 21 20 23 17 25
REMARK Flexibility Score: inf
ROOT
ATOM      1  C   UNL     1       9.615  -1.231  43.004  1.00  0.00     0.138 A 
ATOM      2  C   UNL     1       8.955  -0.977  44.214  1.00  0.00     0.100 A 
ATOM      3  C   UNL     1       9.639  -0.347  45.254  1.00  0.00     0.197 A 
ATOM      4  O   UNL     1       9.004  -0.083  46.307  1.00  0.00    -0.289 OA
ATOM      5  C   UNL     1      11.002  -0.000  45.092  1.00  0.00     0.107 A 
ATOM      6  C   UNL     1      11.811   0.615  46.096  1.00  0.00     0.134 A 
ATOM      7  C   UNL     1      13.121   1.000  45.785  1.00  0.00     0.093 A 
ATOM      8  C   UNL     1      13.671   0.741  44.530  1.00  0.00     0.123 A 
ATOM      9  C   UNL     1      12.906   0.095  43.558  1.00  0.00     0.094 A 
ATOM     10  C   UNL     1      11.585  -0.271  43.826  1.00  0.00     0.146 A 
ATOM     11  O   UNL     1      10.885  -0.867  42.865  1.00  0.00    -0.456 OA
ENDROOT
BRANCH   1  12
ATOM     12  C   UNL     1       8.936  -1.901  41.866  1.00  0.00     0.021 A 
ATOM     13  C   UNL     1       8.610  -1.154  40.720  1.00  0.00     0.016 A 
ATOM     14  C   UNL     1       7.965  -1.757  39.638  1.00  0.00     0.051 A 
ATOM     15  C   UNL     1       7.624  -3.115  39.687  1.00  0.00     0.157 A 
ATOM     16  C   UNL     1       8.579  -3.263  41.912  1.00  0.00     0.062 A 
ATOM     17  C   UNL     1       7.928  -3.867  40.826  1.00  0.00     0.158 A 
BRANCH  15  18
ATOM     18  O   UNL     1       6.981  -3.721  38.609  1.00  0.00    -0.504 OA
ATOM     19  H   UNL     1       7.482  -4.319  37.961  1.00  0.00     0.293 HD
ENDBRANCH  15  18
BRANCH  17  20
ATOM     20  O   UNL     1       7.579  -5.215  40.875  1.00  0.00    -0.504 OA
ATOM     21  H   UNL     1       7.737  -5.835  40.089  1.00  0.00     0.293 HD
ENDBRANCH  17  20
ENDBRANCH   1  12
BRANCH   6  22
ATOM     22  O   UNL     1      11.389   0.848  47.408  1.00  0.00    -0.507 OA
ATOM     23  H   UNL     1      10.498   1.239  47.670  1.00  0.00     0.293 HD
ENDBRANCH   6  22
BRANCH   8  24
ATOM     24  O   UNL     1      14.984   1.125  44.262  1.00  0.00    -0.508 OA
ATOM     25  H   UNL     1      15.221   1.659  43.435  1.00  0.00     0.293 HD
ENDBRANCH   8  24
TORSDOF 5
ENDMDL
MODEL 8
REMARK VINA RESULT:    -6.081      1.821      7.753
REMARK INTER + INTRA:          -7.412
REMARK INTER:                  -7.143
REMARK INTRA:                  -0.270
REMARK UNBOUND:                -0.265
REMARK SMILES O=c1cc(-c2ccc(O)c(O)c2)oc2cc(O)cc(O)c12
REMARK SMILES IDX 4 1 3 2 2 3 1 4 21 5 19 6 18 7 16 8 15 9 14 10 13 11 5 12
REMARK SMILES IDX 6 13 7 14 8 15 12 16 10 17 9 18 11 20 20 22 17 24
REMARK H PARENT 9 19 11 21 20 23 17 25
REMARK Flexibility Score: inf
ROOT
ATOM      1  C   UNL     1       8.856  -6.428  42.000  1.00  0.00     0.138 A 
ATOM      2  C   UNL     1       9.762  -6.389  40.931  1.00  0.00     0.100 A 
ATOM      3  C   UNL     1      10.310  -5.169  40.534  1.00  0.00     0.197 A 
ATOM      4  O   UNL     1      11.162  -5.173  39.609  1.00  0.00    -0.289 OA
ATOM      5  C   UNL     1       9.920  -3.975  41.190  1.00  0.00     0.107 A 
ATOM      6  C   UNL     1      10.386  -2.669  40.849  1.00  0.00     0.134 A 
ATOM      7  C   UNL     1      10.004  -1.575  41.635  1.00  0.00     0.093 A 
ATOM      8  C   UNL     1       9.129  -1.728  42.710  1.00  0.00     0.123 A 
ATOM      9  C   UNL     1       8.629  -2.992  43.021  1.00  0.00     0.094 A 
ATOM     10  C   UNL     1       9.017  -4.110  42.278  1.00  0.00     0.146 A 
ATOM     11  O   UNL     1       8.531  -5.299  42.619  1.00  0.00    -0.456 OA
ENDROOT
BRANCH   1  12
ATOM     12  C   UNL     1       8.242  -7.698  42.461  1.00  0.00     0.021 A 
ATOM     13  C   UNL     1       8.403  -8.097  43.800  1.00  0.00     0.016 A 
ATOM     14  C   UNL     1       7.842  -9.291  44.259  1.00  0.00     0.051 A 
ATOM     15  C   UNL     1       7.119 -10.113  43.385  1.00  0.00     0.157 A 
ATOM     16  C   UNL     1       7.524  -8.536  41.586  1.00  0.00     0.062 A 
ATOM     17  C   UNL     1       6.963  -9.737  42.047  1.00  0.00     0.158 A 
BRANCH  15  18
ATOM     18  O   UNL     1       6.557 -11.304  43.839  1.00  0.00    -0.504 OA
ATOM     19  H   UNL     1       7.129 -12.112  44.057  1.00  0.00     0.293 HD
ENDBRANCH  15  18
BRANCH  17  20
ATOM     20  O   UNL     1       6.252 -10.562  41.178  1.00  0.00    -0.504 OA
ATOM     21  H   UNL     1       6.468 -10.604  40.188  1.00  0.00     0.293 HD
ENDBRANCH  17  20
ENDBRANCH   1  12
BRANCH   6  22
ATOM     22  O   UNL     1      11.199  -2.390  39.747  1.00  0.00    -0.507 OA
ATOM     23  H   UNL     1      10.888  -2.364  38.788  1.00  0.00     0.293 HD
ENDBRANCH   6  22
BRANCH   8  24
ATOM     24  O   UNL     1       8.759  -0.613  43.459  1.00  0.00    -0.508 OA
ATOM     25  H   UNL     1       8.642   0.298  43.031  1.00  0.00     0.293 HD
ENDBRANCH   8  24
TORSDOF 5
ENDMDL
MODEL 9
REMARK VINA RESULT:    -6.077      1.821      7.256
REMARK INTER + INTRA:          -7.408
REMARK INTER:                  -7.135
REMARK INTRA:                  -0.273
REMARK UNBOUND:                -0.265
REMARK SMILES O=c1cc(-c2ccc(O)c(O)c2)oc2cc(O)cc(O)c12
REMARK SMILES IDX 4 1 3 2 2 3 1 4 21 5 19 6 18 7 16 8 15 9 14 10 13 11 5 12
REMARK SMILES IDX 6 13 7 14 8 15 12 16 10 17 9 18 11 20 20 22 17 24
REMARK H PARENT 9 19 11 21 20 23 17 25
REMARK Flexibility Score: inf
ROOT
ATOM      1  C   UNL     1       8.411  -6.350  42.056  1.00  0.00     0.138 A 
ATOM      2  C   UNL     1       7.921  -5.258  42.784  1.00  0.00     0.100 A 
ATOM      3  C   UNL     1       8.378  -3.972  42.494  1.00  0.00     0.197 A 
ATOM      4  O   UNL     1       7.878  -3.007  43.126  1.00  0.00    -0.289 OA
ATOM      5  C   UNL     1       9.359  -3.784  41.489  1.00  0.00     0.107 A 
ATOM      6  C   UNL     1       9.924  -2.523  41.130  1.00  0.00     0.134 A 
ATOM      7  C   UNL     1      10.816  -2.451  40.052  1.00  0.00     0.093 A 
ATOM      8  C   UNL     1      11.207  -3.596  39.360  1.00  0.00     0.123 A 
ATOM      9  C   UNL     1      10.699  -4.840  39.735  1.00  0.00     0.094 A 
ATOM     10  C   UNL     1       9.781  -4.942  40.784  1.00  0.00     0.146 A 
ATOM     11  O   UNL     1       9.308  -6.144  41.097  1.00  0.00    -0.456 OA
ENDROOT
BRANCH   1  12
ATOM     12  C   UNL     1       7.962  -7.739  42.326  1.00  0.00     0.021 A 
ATOM     13  C   UNL     1       7.491  -8.531  41.264  1.00  0.00     0.016 A 
ATOM     14  C   UNL     1       7.055  -9.839  41.491  1.00  0.00     0.051 A 
ATOM     15  C   UNL     1       7.072 -10.374  42.785  1.00  0.00     0.157 A 
ATOM     16  C   UNL     1       7.964  -8.280  43.627  1.00  0.00     0.062 A 
ATOM     17  C   UNL     1       7.523  -9.593  43.854  1.00  0.00     0.158 A 
BRANCH  15  18
ATOM     18  O   UNL     1       6.639 -11.678  43.016  1.00  0.00    -0.504 OA
ATOM     19  H   UNL     1       5.810 -12.049  42.565  1.00  0.00     0.293 HD
ENDBRANCH  15  18
BRANCH  17  20
ATOM     20  O   UNL     1       7.529 -10.125  45.142  1.00  0.00    -0.504 OA
ATOM     21  H   UNL     1       8.368 -10.522  45.549  1.00  0.00     0.293 HD
ENDBRANCH  17  20
ENDBRANCH   1  12
BRANCH   6  22
ATOM     22  O   UNL     1       9.665  -1.327  41.804  1.00  0.00    -0.507 OA
ATOM     23  H   UNL     1       8.771  -0.863  41.839  1.00  0.00     0.293 HD
ENDBRANCH   6  22
BRANCH   8  24
ATOM     24  O   UNL     1      12.109  -3.486  38.303  1.00  0.00    -0.508 OA
ATOM     25  H   UNL     1      13.065  -3.812  38.386  1.00  0.00     0.293 HD
ENDBRANCH   8  24
TORSDOF 5
ENDMDL
