MODEL 1
REMARK VINA RESULT:    -5.291      0.000      0.000
REMARK INTER + INTRA:          -6.632
REMARK INTER:                  -6.374
REMARK INTRA:                  -0.259
REMARK UNBOUND:                -0.259
REMARK SMILES O=c1ccn([C@@H]2O[C@H](CO)[C@@H](O)[C@@H]2O)c(=O)[nH]1
REMARK SMILES IDX 6 1 13 2 11 3 8 4 7 5 5 6 3 7 4 8 2 9 17 10 1 11 15 12 16 14
REMARK SMILES IDX 14 15 12 17 9 19 10 20
REMARK H PARENT 17 13 14 16 12 18 10 21
REMARK Flexibility Score: inf
ROOT
ATOM      1  C   UNL     1     100.291 107.941 116.244  1.00  0.00     0.255 C 
ATOM      2  C   UNL     1     101.385 108.745 115.553  1.00  0.00     0.196 C 
ATOM      3  C   UNL     1     100.699 109.198 114.287  1.00  0.00     0.179 C 
ATOM      4  C   UNL     1      99.569 108.170 114.101  1.00  0.00     0.178 C 
ATOM      5  O   UNL     1      99.481 107.354 115.251  1.00  0.00    -0.347 OA
ENDROOT
BRANCH   1   6
ATOM      6  N   UNL     1     100.851 106.920 117.156  1.00  0.00    -0.271 N 
ATOM      7  C   UNL     1     101.629 104.684 117.552  1.00  0.00     0.090 A 
ATOM      8  C   UNL     1     101.078 105.645 116.710  1.00  0.00     0.099 A 
ATOM      9  C   UNL     1     101.959 105.048 118.853  1.00  0.00     0.253 A 
ATOM     10  N   UNL     1     101.746 106.322 119.272  1.00  0.00    -0.274 N 
ATOM     11  O   UNL     1     102.459 104.199 119.638  1.00  0.00    -0.269 OA
ATOM     12  C   UNL     1     101.206 107.256 118.441  1.00  0.00     0.330 A 
ATOM     13  H   UNL     1     102.004 106.591 120.250  1.00  0.00     0.175 HD
ATOM     14  O   UNL     1     101.042 108.435 118.864  1.00  0.00    -0.248 OA
ENDBRANCH   1   6
BRANCH   2  15
ATOM     15  O   UNL     1     102.484 107.925 115.243  1.00  0.00    -0.386 OA
ATOM     16  H   UNL     1     102.238 107.004 115.519  1.00  0.00     0.211 HD
ENDBRANCH   2  15
BRANCH   3  17
ATOM     17  O   UNL     1     100.164 110.483 114.479  1.00  0.00    -0.387 OA
ATOM     18  H   UNL     1      99.816 110.507 115.409  1.00  0.00     0.211 HD
ENDBRANCH   3  17
BRANCH   4  19
ATOM     19  C   UNL     1      99.775 107.287 112.862  1.00  0.00     0.191 C 
BRANCH  19  20
ATOM     20  O   UNL     1     101.117 107.302 112.450  1.00  0.00    -0.394 OA
ATOM     21  H   UNL     1     101.285 106.446 111.978  1.00  0.00     0.210 HD
ENDBRANCH  19  20
ENDBRANCH   4  19
TORSDOF 5
ENDMDL
MODEL 2
REMARK VINA RESULT:    -5.053     10.967     12.510
REMARK INTER + INTRA:          -6.345
REMARK INTER:                  -6.033
REMARK INTRA:                  -0.312
REMARK UNBOUND:                -0.259
REMARK SMILES O=c1ccn([C@@H]2O[C@H](CO)[C@@H](O)[C@@H]2O)c(=O)[nH]1
REMARK SMILES IDX 6 1 13 2 11 3 8 4 7 5 5 6 3 7 4 8 2 9 17 10 1 11 15 12 16 14
REMARK SMILES IDX 14 15 12 17 9 19 10 20
REMARK H PARENT 17 13 14 16 12 18 10 21
REMARK Flexibility Score: inf
ROOT
ATOM      1  C   UNL     1     101.409 116.936 121.683  1.00  0.00     0.255 C 
ATOM      2  C   UNL     1     100.253 116.542 120.772  1.00  0.00     0.196 C 
ATOM      3  C   UNL     1     100.971 115.963 119.576  1.00  0.00     0.179 C 
ATOM      4  C   UNL     1     102.368 116.603 119.651  1.00  0.00     0.178 C 
ATOM      5  O   UNL     1     102.507 117.294 120.875  1.00  0.00    -0.347 OA
ENDROOT
BRANCH   1   6
ATOM      6  N   UNL     1     101.036 118.032 122.603  1.00  0.00    -0.271 N 
ATOM      7  C   UNL     1     101.044 120.364 123.174  1.00  0.00     0.090 A 
ATOM      8  C   UNL     1     101.412 119.321 122.329  1.00  0.00     0.099 A 
ATOM      9  C   UNL     1     100.273 120.074 124.294  1.00  0.00     0.253 A 
ATOM     10  N   UNL     1      99.892 118.793 124.539  1.00  0.00    -0.274 N 
ATOM     11  O   UNL     1      99.925 120.998 125.077  1.00  0.00    -0.269 OA
ATOM     12  C   UNL     1     100.257 117.779 123.706  1.00  0.00     0.330 A 
ATOM     13  H   UNL     1      99.305 118.584 125.379  1.00  0.00     0.175 HD
ATOM     14  O   UNL     1      99.866 116.605 123.959  1.00  0.00    -0.248 OA
ENDBRANCH   1   6
BRANCH   2  15
ATOM     15  O   UNL     1      99.512 117.675 120.392  1.00  0.00    -0.386 OA
ATOM     16  H   UNL     1      98.586 117.529 120.717  1.00  0.00     0.211 HD
ENDBRANCH   2  15
BRANCH   3  17
ATOM     17  O   UNL     1     101.063 114.568 119.716  1.00  0.00    -0.387 OA
ATOM     18  H   UNL     1     100.468 114.321 120.472  1.00  0.00     0.211 HD
ENDBRANCH   3  17
BRANCH   4  19
ATOM     19  C   UNL     1     102.637 117.567 118.486  1.00  0.00     0.191 C 
BRANCH  19  20
ATOM     20  O   UNL     1     101.877 118.739 118.616  1.00  0.00    -0.394 OA
ATOM     21  H   UNL     1     102.390 119.355 119.199  1.00  0.00     0.210 HD
ENDBRANCH  19  20
ENDBRANCH   4  19
TORSDOF 5
ENDMDL
MODEL 3
REMARK VINA RESULT:    -5.048     11.469     13.460
REMARK INTER + INTRA:          -6.340
REMARK INTER:                  -6.019
REMARK INTRA:                  -0.321
REMARK UNBOUND:                -0.259
REMARK SMILES O=c1ccn([C@@H]2O[C@H](CO)[C@@H](O)[C@@H]2O)c(=O)[nH]1
REMARK SMILES IDX 6 1 13 2 11 3 8 4 7 5 5 6 3 7 4 8 2 9 17 10 1 11 15 12 16 14
REMARK SMILES IDX 14 15 12 17 9 19 10 20
REMARK H PARENT 17 13 14 16 12 18 10 21
REMARK Flexibility Score: inf
ROOT
ATOM      1  C   UNL     1     101.066 118.298 123.128  1.00  0.00     0.255 C 
ATOM      2  C   UNL     1     100.499 117.278 124.106  1.00  0.00     0.196 C 
ATOM      3  C   UNL     1     101.692 116.391 124.372  1.00  0.00     0.179 C 
ATOM      4  C   UNL     1     102.583 116.607 123.137  1.00  0.00     0.178 C 
ATOM      5  O   UNL     1     102.064 117.666 122.359  1.00  0.00    -0.347 OA
ENDROOT
BRANCH   1   6
ATOM      6  N   UNL     1     100.013 118.882 122.269  1.00  0.00    -0.271 N 
ATOM      7  C   UNL     1      98.809 118.929 120.193  1.00  0.00     0.090 A 
ATOM      8  C   UNL     1      99.815 118.405 121.000  1.00  0.00     0.099 A 
ATOM      9  C   UNL     1      98.000 119.936 120.705  1.00  0.00     0.253 A 
ATOM     10  N   UNL     1      98.198 120.383 121.973  1.00  0.00    -0.274 N 
ATOM     11  O   UNL     1      97.081 120.430 119.997  1.00  0.00    -0.269 OA
ATOM     12  C   UNL     1      99.184 119.864 122.756  1.00  0.00     0.330 A 
ATOM     13  H   UNL     1      97.579 121.135 122.355  1.00  0.00     0.175 HD
ATOM     14  O   UNL     1      99.323 120.293 123.935  1.00  0.00    -0.248 OA
ENDBRANCH   1   6
BRANCH   2  15
ATOM     15  O   UNL     1      99.466 116.536 123.507  1.00  0.00    -0.386 OA
ATOM     16  H   UNL     1      98.648 117.096 123.558  1.00  0.00     0.211 HD
ENDBRANCH   2  15
BRANCH   3  17
ATOM     17  O   UNL     1     102.350 116.830 125.534  1.00  0.00    -0.387 OA
ATOM     18  H   UNL     1     102.890 116.063 125.858  1.00  0.00     0.211 HD
ENDBRANCH   3  17
BRANCH   4  19
ATOM     19  C   UNL     1     102.700 115.346 122.269  1.00  0.00     0.191 C 
BRANCH  19  20
ATOM     20  O   UNL     1     101.478 115.045 121.648  1.00  0.00    -0.394 OA
ATOM     21  H   UNL     1     101.666 114.364 120.952  1.00  0.00     0.210 HD
ENDBRANCH  19  20
ENDBRANCH   4  19
TORSDOF 5
ENDMDL
MODEL 4
REMARK VINA RESULT:    -5.027     10.492     12.100
REMARK INTER + INTRA:          -6.314
REMARK INTER:                  -5.992
REMARK INTRA:                  -0.322
REMARK UNBOUND:                -0.259
REMARK SMILES O=c1ccn([C@@H]2O[C@H](CO)[C@@H](O)[C@@H]2O)c(=O)[nH]1
REMARK SMILES IDX 6 1 13 2 11 3 8 4 7 5 5 6 3 7 4 8 2 9 17 10 1 11 15 12 16 14
REMARK SMILES IDX 14 15 12 17 9 19 10 20
REMARK H PARENT 17 13 14 16 12 18 10 21
REMARK Flexibility Score: inf
ROOT
ATOM      1  C   UNL     1     101.560 116.692 122.489  1.00  0.00     0.255 C 
ATOM      2  C   UNL     1     100.049 116.879 122.448  1.00  0.00     0.196 C 
ATOM      3  C   UNL     1      99.911 118.232 121.791  1.00  0.00     0.179 C 
ATOM      4  C   UNL     1     101.266 118.905 122.066  1.00  0.00     0.178 C 
ATOM      5  O   UNL     1     102.159 117.961 122.622  1.00  0.00    -0.347 OA
ENDROOT
BRANCH   1   6
ATOM      6  N   UNL     1     101.972 115.784 123.581  1.00  0.00    -0.271 N 
ATOM      7  C   UNL     1     102.717 115.446 125.838  1.00  0.00     0.090 A 
ATOM      8  C   UNL     1     102.353 116.292 124.795  1.00  0.00     0.099 A 
ATOM      9  C   UNL     1     102.673 114.072 125.628  1.00  0.00     0.253 A 
ATOM     10  N   UNL     1     102.274 113.585 124.424  1.00  0.00    -0.274 N 
ATOM     11  O   UNL     1     102.998 113.282 126.554  1.00  0.00    -0.269 OA
ATOM     12  C   UNL     1     101.919 114.421 123.410  1.00  0.00     0.330 A 
ATOM     13  H   UNL     1     102.235 112.550 124.276  1.00  0.00     0.175 HD
ATOM     14  O   UNL     1     101.535 113.928 122.312  1.00  0.00    -0.248 OA
ENDBRANCH   1   6
BRANCH   2  15
ATOM     15  O   UNL     1      99.516 116.914 123.749  1.00  0.00    -0.386 OA
ATOM     16  H   UNL     1     100.190 116.490 124.342  1.00  0.00     0.211 HD
ENDBRANCH   2  15
BRANCH   3  17
ATOM     17  O   UNL     1      99.719 118.063 120.410  1.00  0.00    -0.387 OA
ATOM     18  H   UNL     1      99.767 118.968 120.006  1.00  0.00     0.211 HD
ENDBRANCH   3  17
BRANCH   4  19
ATOM     19  C   UNL     1     101.144 120.110 123.010  1.00  0.00     0.191 C 
BRANCH  19  20
ATOM     20  O   UNL     1     100.686 119.714 124.276  1.00  0.00    -0.394 OA
ATOM     21  H   UNL     1     101.483 119.450 124.803  1.00  0.00     0.210 HD
ENDBRANCH  19  20
ENDBRANCH   4  19
TORSDOF 5
ENDMDL
MODEL 5
REMARK VINA RESULT:    -4.981      2.766      4.120
REMARK INTER + INTRA:          -6.258
REMARK INTER:                  -6.011
REMARK INTRA:                  -0.247
REMARK UNBOUND:                -0.259
REMARK SMILES O=c1ccn([C@@H]2O[C@H](CO)[C@@H](O)[C@@H]2O)c(=O)[nH]1
REMARK SMILES IDX 6 1 13 2 11 3 8 4 7 5 5 6 3 7 4 8 2 9 17 10 1 11 15 12 16 14
REMARK SMILES IDX 14 15 12 17 9 19 10 20
REMARK H PARENT 17 13 14 16 12 18 10 21
REMARK Flexibility Score: inf
ROOT
ATOM      1  C   UNL     1     101.503 107.881 117.814  1.00  0.00     0.255 C 
ATOM      2  C   UNL     1     100.371 108.455 118.656  1.00  0.00     0.196 C 
ATOM      3  C   UNL     1     100.492 109.936 118.389  1.00  0.00     0.179 C 
ATOM      4  C   UNL     1     101.955 110.104 117.945  1.00  0.00     0.178 C 
ATOM      5  O   UNL     1     102.543 108.832 117.764  1.00  0.00    -0.347 OA
ENDROOT
BRANCH   1   6
ATOM      6  N   UNL     1     101.981 106.586 118.344  1.00  0.00    -0.271 N 
ATOM      7  C   UNL     1     103.360 105.341 119.864  1.00  0.00     0.090 A 
ATOM      8  C   UNL     1     102.923 106.553 119.340  1.00  0.00     0.099 A 
ATOM      9  C   UNL     1     102.812 104.163 119.368  1.00  0.00     0.253 A 
ATOM     10  N   UNL     1     101.865 104.216 118.396  1.00  0.00    -0.274 N 
ATOM     11  O   UNL     1     103.189 103.050 119.824  1.00  0.00    -0.269 OA
ATOM     12  C   UNL     1     101.443 105.407 117.888  1.00  0.00     0.330 A 
ATOM     13  H   UNL     1     101.451 103.326 118.033  1.00  0.00     0.175 HD
ATOM     14  O   UNL     1     100.547 105.413 116.998  1.00  0.00    -0.248 OA
ENDBRANCH   1   6
BRANCH   2  15
ATOM     15  O   UNL     1     100.582 108.189 120.020  1.00  0.00    -0.386 OA
ATOM     16  H   UNL     1     100.773 109.061 120.452  1.00  0.00     0.211 HD
ENDBRANCH   2  15
BRANCH   3  17
ATOM     17  O   UNL     1      99.620 110.296 117.347  1.00  0.00    -0.387 OA
ATOM     18  H   UNL     1      99.351 111.236 117.516  1.00  0.00     0.211 HD
ENDBRANCH   3  17
BRANCH   4  19
ATOM     19  C   UNL     1     102.786 110.912 118.952  1.00  0.00     0.191 C 
BRANCH  19  20
ATOM     20  O   UNL     1     102.832 110.269 120.199  1.00  0.00    -0.394 OA
ATOM     21  H   UNL     1     102.669 110.962 120.889  1.00  0.00     0.210 HD
ENDBRANCH  19  20
ENDBRANCH   4  19
TORSDOF 5
ENDMDL
MODEL 6
REMARK VINA RESULT:    -4.967      9.607     11.811
REMARK INTER + INTRA:          -6.242
REMARK INTER:                  -5.971
REMARK INTRA:                  -0.271
REMARK UNBOUND:                -0.259
REMARK SMILES O=c1ccn([C@@H]2O[C@H](CO)[C@@H](O)[C@@H]2O)c(=O)[nH]1
REMARK SMILES IDX 6 1 13 2 11 3 8 4 7 5 5 6 3 7 4 8 2 9 17 10 1 11 15 12 16 14
REMARK SMILES IDX 14 15 12 17 9 19 10 20
REMARK H PARENT 17 13 14 16 12 18 10 21
REMARK Flexibility Score: inf
ROOT
ATOM      1  C   UNL     1     103.104 114.408 124.363  1.00  0.00     0.255 C 
ATOM      2  C   UNL     1     102.323 113.147 124.708  1.00  0.00     0.196 C 
ATOM      3  C   UNL     1     103.073 112.085 123.938  1.00  0.00     0.179 C 
ATOM      4  C   UNL     1     103.776 112.879 122.823  1.00  0.00     0.178 C 
ATOM      5  O   UNL     1     103.626 114.263 123.062  1.00  0.00    -0.347 OA
ENDROOT
BRANCH   1   6
ATOM      6  N   UNL     1     102.266 115.622 124.476  1.00  0.00    -0.271 N 
ATOM      7  C   UNL     1     100.690 117.159 123.520  1.00  0.00     0.090 A 
ATOM      8  C   UNL     1     101.502 116.034 123.416  1.00  0.00     0.099 A 
ATOM      9  C   UNL     1     100.657 117.848 124.727  1.00  0.00     0.253 A 
ATOM     10  N   UNL     1     101.405 117.413 125.774  1.00  0.00    -0.274 N 
ATOM     11  O   UNL     1      99.931 118.871 124.850  1.00  0.00    -0.269 OA
ATOM     12  C   UNL     1     102.197 116.311 125.663  1.00  0.00     0.330 A 
ATOM     13  H   UNL     1     101.369 117.932 126.682  1.00  0.00     0.175 HD
ATOM     14  O   UNL     1     102.862 115.928 126.666  1.00  0.00    -0.248 OA
ENDBRANCH   1   6
BRANCH   2  15
ATOM     15  O   UNL     1     101.000 113.239 124.244  1.00  0.00    -0.386 OA
ATOM     16  H   UNL     1     101.037 113.134 123.258  1.00  0.00     0.211 HD
ENDBRANCH   2  15
BRANCH   3  17
ATOM     17  O   UNL     1     104.021 111.479 124.779  1.00  0.00    -0.387 OA
ATOM     18  H   UNL     1     104.732 111.117 124.189  1.00  0.00     0.211 HD
ENDBRANCH   3  17
BRANCH   4  19
ATOM     19  C   UNL     1     103.233 112.540 121.427  1.00  0.00     0.191 C 
BRANCH  19  20
ATOM     20  O   UNL     1     101.876 112.878 121.318  1.00  0.00    -0.394 OA
ATOM     21  H   UNL     1     101.511 112.918 122.240  1.00  0.00     0.210 HD
ENDBRANCH  19  20
ENDBRANCH   4  19
TORSDOF 5
ENDMDL
MODEL 7
REMARK VINA RESULT:    -4.962      2.681      5.697
REMARK INTER + INTRA:          -6.235
REMARK INTER:                  -5.924
REMARK INTRA:                  -0.311
REMARK UNBOUND:                -0.259
REMARK SMILES O=c1ccn([C@@H]2O[C@H](CO)[C@@H](O)[C@@H]2O)c(=O)[nH]1
REMARK SMILES IDX 6 1 13 2 11 3 8 4 7 5 5 6 3 7 4 8 2 9 17 10 1 11 15 12 16 14
REMARK SMILES IDX 14 15 12 17 9 19 10 20
REMARK H PARENT 17 13 14 16 12 18 10 21
REMARK Flexibility Score: inf
ROOT
ATOM      1  C   UNL     1     101.485 109.858 118.967  1.00  0.00     0.255 C 
ATOM      2  C   UNL     1     100.363 110.159 119.953  1.00  0.00     0.196 C 
ATOM      3  C   UNL     1     101.119 110.369 121.243  1.00  0.00     0.179 C 
ATOM      4  C   UNL     1     102.440 109.614 121.014  1.00  0.00     0.178 C 
ATOM      5  O   UNL     1     102.523 109.207 119.664  1.00  0.00    -0.347 OA
ENDROOT
BRANCH   1   6
ATOM      6  N   UNL     1     101.011 109.047 117.825  1.00  0.00    -0.271 N 
ATOM      7  C   UNL     1     100.657 106.907 116.797  1.00  0.00     0.090 A 
ATOM      8  C   UNL     1     101.124 107.681 117.854  1.00  0.00     0.099 A 
ATOM      9  C   UNL     1     100.058 107.544 115.716  1.00  0.00     0.253 A 
ATOM     10  N   UNL     1      99.936 108.897 115.714  1.00  0.00    -0.274 N 
ATOM     11  O   UNL     1      99.626 106.868 114.745  1.00  0.00    -0.269 OA
ATOM     12  C   UNL     1     100.395 109.647 116.753  1.00  0.00     0.330 A 
ATOM     13  H   UNL     1      99.476 109.370 114.901  1.00  0.00     0.175 HD
ATOM     14  O   UNL     1     100.245 110.901 116.721  1.00  0.00    -0.248 OA
ENDBRANCH   1   6
BRANCH   2  15
ATOM     15  O   UNL     1      99.497 109.059 120.071  1.00  0.00    -0.386 OA
ATOM     16  H   UNL     1     100.034 108.314 120.448  1.00  0.00     0.211 HD
ENDBRANCH   2  15
BRANCH   3  17
ATOM     17  O   UNL     1     101.364 111.741 121.423  1.00  0.00    -0.387 OA
ATOM     18  H   UNL     1     100.620 112.090 121.979  1.00  0.00     0.211 HD
ENDBRANCH   3  17
BRANCH   4  19
ATOM     19  C   UNL     1     102.582 108.388 121.927  1.00  0.00     0.191 C 
BRANCH  19  20
ATOM     20  O   UNL     1     101.779 107.329 121.477  1.00  0.00    -0.394 OA
ATOM     21  H   UNL     1     101.112 107.148 122.188  1.00  0.00     0.210 HD
ENDBRANCH  19  20
ENDBRANCH   4  19
TORSDOF 5
ENDMDL
MODEL 8
REMARK VINA RESULT:    -4.887      2.461      3.565
REMARK INTER + INTRA:          -6.145
REMARK INTER:                  -6.110
REMARK INTRA:                  -0.036
REMARK UNBOUND:                -0.259
REMARK SMILES O=c1ccn([C@@H]2O[C@H](CO)[C@@H](O)[C@@H]2O)c(=O)[nH]1
REMARK SMILES IDX 6 1 13 2 11 3 8 4 7 5 5 6 3 7 4 8 2 9 17 10 1 11 15 12 16 14
REMARK SMILES IDX 14 15 12 17 9 19 10 20
REMARK H PARENT 17 13 14 16 12 18 10 21
REMARK Flexibility Score: inf
ROOT
ATOM      1  C   UNL     1     101.066 108.470 115.054  1.00  0.00     0.255 C 
ATOM      2  C   UNL     1      99.936 107.764 114.317  1.00  0.00     0.196 C 
ATOM      3  C   UNL     1     100.206 108.141 112.879  1.00  0.00     0.179 C 
ATOM      4  C   UNL     1     101.035 109.432 112.995  1.00  0.00     0.178 C 
ATOM      5  O   UNL     1     101.389 109.646 114.346  1.00  0.00    -0.347 OA
ENDROOT
BRANCH   1   6
ATOM      6  N   UNL     1     100.707 108.767 116.458  1.00  0.00    -0.271 N 
ATOM      7  C   UNL     1     100.676 108.142 118.775  1.00  0.00     0.090 A 
ATOM      8  C   UNL     1     100.985 107.861 117.448  1.00  0.00     0.099 A 
ATOM      9  C   UNL     1     100.093 109.367 119.079  1.00  0.00     0.253 A 
ATOM     10  N   UNL     1      99.844 110.261 118.088  1.00  0.00    -0.274 N 
ATOM     11  O   UNL     1      99.802 109.648 120.273  1.00  0.00    -0.269 OA
ATOM     12  C   UNL     1     100.150 109.978 116.791  1.00  0.00     0.330 A 
ATOM     13  H   UNL     1      99.413 111.185 118.325  1.00  0.00     0.175 HD
ATOM     14  O   UNL     1      99.920 110.845 115.902  1.00  0.00    -0.248 OA
ENDBRANCH   1   6
BRANCH   2  15
ATOM     15  O   UNL     1      98.688 108.265 114.724  1.00  0.00    -0.386 OA
ATOM     16  H   UNL     1      98.393 108.899 114.020  1.00  0.00     0.211 HD
ENDBRANCH   2  15
BRANCH   3  17
ATOM     17  O   UNL     1     100.961 107.128 112.265  1.00  0.00    -0.387 OA
ATOM     18  H   UNL     1     101.893 107.465 112.210  1.00  0.00     0.211 HD
ENDBRANCH   3  17
BRANCH   4  19
ATOM     19  C   UNL     1     100.286 110.661 112.462  1.00  0.00     0.191 C 
BRANCH  19  20
ATOM     20  O   UNL     1      99.045 110.812 113.101  1.00  0.00    -0.394 OA
ATOM     21  H   UNL     1      99.231 111.081 114.037  1.00  0.00     0.210 HD
ENDBRANCH  19  20
ENDBRANCH   4  19
TORSDOF 5
ENDMDL
MODEL 9
REMARK VINA RESULT:    -4.773      2.041      3.306
REMARK INTER + INTRA:          -6.008
REMARK INTER:                  -5.681
REMARK INTRA:                  -0.326
REMARK UNBOUND:                -0.259
REMARK SMILES O=c1ccn([C@@H]2O[C@H](CO)[C@@H](O)[C@@H]2O)c(=O)[nH]1
REMARK SMILES IDX 6 1 13 2 11 3 8 4 7 5 5 6 3 7 4 8 2 9 17 10 1 11 15 12 16 14
REMARK SMILES IDX 14 15 12 17 9 19 10 20
REMARK H PARENT 17 13 14 16 12 18 10 21
REMARK Flexibility Score: inf
ROOT
ATOM      1  C   UNL     1     101.118 108.652 115.497  1.00  0.00     0.255 C 
ATOM      2  C   UNL     1     100.367 107.377 115.135  1.00  0.00     0.196 C 
ATOM      3  C   UNL     1      99.855 107.689 113.749  1.00  0.00     0.179 C 
ATOM      4  C   UNL     1      99.841 109.227 113.708  1.00  0.00     0.178 C 
ATOM      5  O   UNL     1     100.482 109.736 114.859  1.00  0.00    -0.347 OA
ENDROOT
BRANCH   1   6
ATOM      6  N   UNL     1     101.189 108.853 116.960  1.00  0.00    -0.271 N 
ATOM      7  C   UNL     1     100.346 109.870 118.965  1.00  0.00     0.090 A 
ATOM      8  C   UNL     1     100.306 109.694 117.585  1.00  0.00     0.099 A 
ATOM      9  C   UNL     1     101.291 109.163 119.700  1.00  0.00     0.253 A 
ATOM     10  N   UNL     1     102.145 108.318 119.066  1.00  0.00    -0.274 N 
ATOM     11  O   UNL     1     101.351 109.302 120.951  1.00  0.00    -0.269 OA
ATOM     12  C   UNL     1     102.098 108.152 117.715  1.00  0.00     0.330 A 
ATOM     13  H   UNL     1     102.848 107.783 119.627  1.00  0.00     0.175 HD
ATOM     14  O   UNL     1     102.897 107.342 117.167  1.00  0.00    -0.248 OA
ENDBRANCH   1   6
BRANCH   2  15
ATOM     15  O   UNL     1      99.290 107.169 116.014  1.00  0.00    -0.386 OA
ATOM     16  H   UNL     1      99.612 106.543 116.714  1.00  0.00     0.211 HD
ENDBRANCH   2  15
BRANCH   3  17
ATOM     17  O   UNL     1     100.754 107.182 112.795  1.00  0.00    -0.387 OA
ATOM     18  H   UNL     1     101.527 107.805 112.777  1.00  0.00     0.211 HD
ENDBRANCH   3  17
BRANCH   4  19
ATOM     19  C   UNL     1      98.419 109.799 113.620  1.00  0.00     0.191 C 
BRANCH  19  20
ATOM     20  O   UNL     1      97.706 109.563 114.805  1.00  0.00    -0.394 OA
ATOM     21  H   UNL     1      96.919 110.166 114.796  1.00  0.00     0.210 HD
ENDBRANCH  19  20
ENDBRANCH   4  19
TORSDOF 5
ENDMDL
