MODEL 1
REMARK VINA RESULT:    16.016      0.000      0.000
REMARK INTER + INTRA:          16.016
REMARK INTER:                  16.016
REMARK INTRA:                   0.000
REMARK UNBOUND:                 0.000
REMARK SMILES C[C@H]1CCC=C2CC[C@@H]3[C@H](C3(C)C)[C@@]21C
REMARK SMILES IDX 1 1 2 2 3 3 4 4 5 5 6 6 14 7 10 8 9 9 11 10 12 11 13 12 8 13
REMARK SMILES IDX 7 14 15 15
REMARK H PARENT
REMARK Flexibility Score: inf
ROOT
ATOM      1  C   UNL     1     137.610 135.688 163.465  1.00  0.00     0.008 C 
ATOM      2  C   UNL     1     137.411 136.932 162.576  1.00  0.00    -0.004 C 
ATOM      3  C   UNL     1     137.874 136.634 161.114  1.00  0.00     0.008 C 
ATOM      4  C   UNL     1     136.738 136.619 160.089  1.00  0.00     0.027 C 
ATOM      5  C   UNL     1     135.925 137.873 160.206  1.00  0.00    -0.027 C 
ATOM      6  C   UNL     1     135.596 138.364 161.415  1.00  0.00    -0.068 C 
ATOM      7  C   UNL     1     135.966 137.576 162.696  1.00  0.00    -0.005 C 
ATOM      8  C   UNL     1     135.809 138.546 163.923  1.00  0.00     0.009 C 
ATOM      9  C   UNL     1     136.497 139.876 163.453  1.00  0.00    -0.000 C 
ATOM     10  C   UNL     1     136.631 139.420 164.885  1.00  0.00    -0.028 C 
ATOM     11  C   UNL     1     138.003 138.894 165.328  1.00  0.00     0.012 C 
ATOM     12  C   UNL     1     135.843 140.233 165.924  1.00  0.00     0.012 C 
ATOM     13  C   UNL     1     135.382 140.604 162.700  1.00  0.00     0.009 C 
ATOM     14  C   UNL     1     134.885 139.724 161.514  1.00  0.00     0.031 C 
ATOM     15  C   UNL     1     134.875 136.482 162.870  1.00  0.00     0.017 C 
ENDROOT
TORSDOF 0
ENDMDL
MODEL 2
REMARK VINA RESULT:    17.819     12.571     14.741
REMARK INTER + INTRA:          17.819
REMARK INTER:                  17.819
REMARK INTRA:                   0.000
REMARK UNBOUND:                 0.000
REMARK SMILES C[C@H]1CCC=C2CC[C@@H]3[C@H](C3(C)C)[C@@]21C
REMARK SMILES IDX 1 1 2 2 3 3 4 4 5 5 6 6 14 7 10 8 9 9 11 10 12 11 13 12 8 13
REMARK SMILES IDX 7 14 15 15
REMARK H PARENT
REMARK Flexibility Score: inf
ROOT
ATOM      1  C   UNL     1     152.893 136.644 161.861  1.00  0.00     0.008 C 
ATOM      2  C   UNL     1     151.729 135.649 162.038  1.00  0.00    -0.004 C 
ATOM      3  C   UNL     1     151.873 134.879 163.390  1.00  0.00     0.008 C 
ATOM      4  C   UNL     1     150.787 135.209 164.417  1.00  0.00     0.027 C 
ATOM      5  C   UNL     1     149.432 135.058 163.794  1.00  0.00    -0.027 C 
ATOM      6  C   UNL     1     149.197 135.512 162.549  1.00  0.00    -0.068 C 
ATOM      7  C   UNL     1     150.299 136.290 161.789  1.00  0.00    -0.005 C 
ATOM      8  C   UNL     1     149.891 136.350 160.272  1.00  0.00     0.009 C 
ATOM      9  C   UNL     1     149.429 134.887 159.940  1.00  0.00    -0.000 C 
ATOM     10  C   UNL     1     150.188 135.691 158.915  1.00  0.00    -0.028 C 
ATOM     11  C   UNL     1     151.638 135.273 158.629  1.00  0.00     0.012 C 
ATOM     12  C   UNL     1     149.370 136.188 157.712  1.00  0.00     0.012 C 
ATOM     13  C   UNL     1     147.958 134.876 160.363  1.00  0.00     0.009 C 
ATOM     14  C   UNL     1     147.844 135.222 161.879  1.00  0.00     0.031 C 
ATOM     15  C   UNL     1     150.241 137.754 162.308  1.00  0.00     0.017 C 
ENDROOT
TORSDOF 0
ENDMDL
MODEL 3
REMARK VINA RESULT:    18.111      1.259      3.248
REMARK INTER + INTRA:          18.111
REMARK INTER:                  18.111
REMARK INTRA:                   0.000
REMARK UNBOUND:                 0.000
REMARK SMILES C[C@H]1CCC=C2CC[C@@H]3[C@H](C3(C)C)[C@@]21C
REMARK SMILES IDX 1 1 2 2 3 3 4 4 5 5 6 6 14 7 10 8 9 9 11 10 12 11 13 12 8 13
REMARK SMILES IDX 7 14 15 15
REMARK H PARENT
REMARK Flexibility Score: inf
ROOT
ATOM      1  C   UNL     1     136.166 137.533 159.535  1.00  0.00     0.008 C 
ATOM      2  C   UNL     1     135.782 137.244 161.000  1.00  0.00    -0.004 C 
ATOM      3  C   UNL     1     135.275 135.774 161.149  1.00  0.00     0.008 C 
ATOM      4  C   UNL     1     136.196 134.875 161.976  1.00  0.00     0.027 C 
ATOM      5  C   UNL     1     136.504 135.529 163.290  1.00  0.00    -0.027 C 
ATOM      6  C   UNL     1     136.784 136.843 163.351  1.00  0.00    -0.068 C 
ATOM      7  C   UNL     1     136.895 137.671 162.047  1.00  0.00    -0.005 C 
ATOM      8  C   UNL     1     136.845 139.194 162.434  1.00  0.00     0.009 C 
ATOM      9  C   UNL     1     135.665 139.290 163.465  1.00  0.00    -0.000 C 
ATOM     10  C   UNL     1     135.893 140.400 162.469  1.00  0.00    -0.028 C 
ATOM     11  C   UNL     1     134.875 140.537 161.327  1.00  0.00     0.012 C 
ATOM     12  C   UNL     1     136.457 141.710 163.042  1.00  0.00     0.012 C 
ATOM     13  C   UNL     1     136.331 138.945 164.798  1.00  0.00     0.009 C 
ATOM     14  C   UNL     1     136.957 137.520 164.721  1.00  0.00     0.031 C 
ATOM     15  C   UNL     1     138.323 137.417 161.485  1.00  0.00     0.017 C 
ENDROOT
TORSDOF 0
ENDMDL
MODEL 4
REMARK VINA RESULT:    18.329     12.696     14.581
REMARK INTER + INTRA:          18.329
REMARK INTER:                  18.329
REMARK INTRA:                   0.000
REMARK UNBOUND:                 0.000
REMARK SMILES C[C@H]1CCC=C2CC[C@@H]3[C@H](C3(C)C)[C@@]21C
REMARK SMILES IDX 1 1 2 2 3 3 4 4 5 5 6 6 14 7 10 8 9 9 11 10 12 11 13 12 8 13
REMARK SMILES IDX 7 14 15 15
REMARK H PARENT
REMARK Flexibility Score: inf
ROOT
ATOM      1  C   UNL     1     147.704 136.809 161.203  1.00  0.00     0.008 C 
ATOM      2  C   UNL     1     148.809 135.738 161.122  1.00  0.00    -0.004 C 
ATOM      3  C   UNL     1     148.638 134.878 159.829  1.00  0.00     0.008 C 
ATOM      4  C   UNL     1     149.756 135.066 158.800  1.00  0.00     0.027 C 
ATOM      5  C   UNL     1     151.092 134.884 159.457  1.00  0.00    -0.027 C 
ATOM      6  C   UNL     1     151.336 135.415 160.669  1.00  0.00    -0.068 C 
ATOM      7  C   UNL     1     150.271 136.311 161.349  1.00  0.00    -0.005 C 
ATOM      8  C   UNL     1     150.661 136.462 162.864  1.00  0.00     0.009 C 
ATOM      9  C   UNL     1     151.030 135.003 163.313  1.00  0.00    -0.000 C 
ATOM     10  C   UNL     1     150.306 135.926 164.261  1.00  0.00    -0.028 C 
ATOM     11  C   UNL     1     148.830 135.616 164.551  1.00  0.00     0.012 C 
ATOM     12  C   UNL     1     151.135 136.463 165.439  1.00  0.00     0.012 C 
ATOM     13  C   UNL     1     152.503 134.875 162.919  1.00  0.00     0.009 C 
ATOM     14  C   UNL     1     152.659 135.098 161.385  1.00  0.00     0.031 C 
ATOM     15  C   UNL     1     150.423 137.726 160.723  1.00  0.00     0.017 C 
ENDROOT
TORSDOF 0
ENDMDL
