MODEL 1
REMARK VINA RESULT:    -4.069      0.000      0.000
REMARK INTER + INTRA:          -4.432
REMARK INTER:                  -5.021
REMARK INTRA:                   0.589
REMARK UNBOUND:                 0.589
REMARK SMILES C=C1CC[C@H]2[C@@H]1[C@H]1[C@@H](CC[C@H]2C)C1(C)C
REMARK SMILES IDX 6 1 5 2 4 3 3 4 2 5 1 6 11 7 12 8 10 9 7 11 8 12 13 13 14 14
REMARK SMILES IDX 15 15 9 16
REMARK H PARENT
REMARK Flexibility Score: 80.00
ROOT
ATOM      1  C   UNL     1      56.521  44.397  43.294  1.00  0.00     0.022 C 
ATOM      2  C   UNL     1      56.217  45.878  43.676  1.00  0.00    -0.000 C 
ATOM      3  C   UNL     1      54.717  46.124  43.388  1.00  0.00     0.009 C 
ATOM      4  C   UNL     1      54.208  44.964  42.540  1.00  0.00     0.031 C 
ATOM      5  C   UNL     1      55.261  43.922  42.645  1.00  0.00    -0.074 C 
ATOM      6  C   UNL     1      55.070  42.662  42.232  1.00  0.00     0.008 C 
ENDROOT
BRANCH   2   7
ATOM      7  C   UNL     1      57.129  47.003  43.084  1.00  0.00    -0.011 C 
ATOM      8  C   UNL     1      57.099  47.125  41.543  1.00  0.00     0.008 C 
BRANCH   7   9
ATOM      9  C   UNL     1      58.580  46.989  43.645  1.00  0.00     0.004 CG0
ATOM     10  G   UNL     1      59.149  45.595  43.952  1.00  0.00     0.000 G0
ENDBRANCH   7   9
ENDBRANCH   2   7
BRANCH   1  11
ATOM     11  C   UNL     1      57.718  44.158  42.328  1.00  0.00     0.006 C 
ATOM     12  C   UNL     1      59.110  44.705  42.694  1.00  0.00    -0.001 C 
ATOM     13  C   UNL     1      58.845  43.192  42.750  1.00  0.00    -0.029 C 
ATOM     14  C   UNL     1      58.815  42.458  44.106  1.00  0.00     0.012 C 
ATOM     15  C   UNL     1      59.453  42.391  41.592  1.00  0.00     0.012 C 
BRANCH  12  16
ATOM     16  C   UNL     1      59.154  45.587  43.950  1.00  0.00     0.005 CG0
ATOM     17  G   UNL     1      58.582  46.982  43.654  1.00  0.00     0.000 G0
ENDBRANCH  12  16
ENDBRANCH   1  11
TORSDOF 0
ENDMDL
MODEL 2
REMARK VINA RESULT:    -3.031     19.252     21.453
REMARK INTER + INTRA:          -3.151
REMARK INTER:                  -3.743
REMARK INTRA:                   0.592
REMARK UNBOUND:                 0.589
REMARK SMILES C=C1CC[C@H]2[C@@H]1[C@H]1[C@@H](CC[C@H]2C)C1(C)C
REMARK SMILES IDX 6 1 5 2 4 3 3 4 2 5 1 6 11 7 12 8 10 9 7 11 8 12 13 13 14 14
REMARK SMILES IDX 15 15 9 16
REMARK H PARENT
REMARK Flexibility Score: 80.00
ROOT
ATOM      1  C   UNL     1      50.558  31.972  28.913  1.00  0.00     0.022 C 
ATOM      2  C   UNL     1      50.841  33.196  27.990  1.00  0.00    -0.000 C 
ATOM      3  C   UNL     1      51.240  34.376  28.907  1.00  0.00     0.009 C 
ATOM      4  C   UNL     1      50.876  33.998  30.338  1.00  0.00     0.031 C 
ATOM      5  C   UNL     1      50.622  32.536  30.296  1.00  0.00    -0.074 C 
ATOM      6  C   UNL     1      50.509  31.793  31.404  1.00  0.00     0.008 C 
ENDROOT
BRANCH   2   7
ATOM      7  C   UNL     1      49.758  33.601  26.935  1.00  0.00    -0.011 C 
ATOM      8  C   UNL     1      48.403  34.046  27.530  1.00  0.00     0.008 C 
BRANCH   7   9
ATOM      9  C   UNL     1      49.586  32.563  25.789  1.00  0.00     0.004 CG0
ATOM     10  G   UNL     1      49.781  31.096  26.199  1.00  0.00     0.000 G0
ENDBRANCH   7   9
ENDBRANCH   2   7
BRANCH   1  11
ATOM     11  C   UNL     1      49.192  31.251  28.716  1.00  0.00     0.006 C 
ATOM     12  C   UNL     1      48.808  30.721  27.322  1.00  0.00    -0.001 C 
ATOM     13  C   UNL     1      49.175  29.733  28.441  1.00  0.00    -0.029 C 
ATOM     14  C   UNL     1      50.477  28.912  28.355  1.00  0.00     0.012 C 
ATOM     15  C   UNL     1      47.982  28.995  29.062  1.00  0.00     0.012 C 
BRANCH  12  16
ATOM     16  C   UNL     1      49.778  31.094  26.193  1.00  0.00     0.005 CG0
ATOM     17  G   UNL     1      49.586  32.560  25.774  1.00  0.00     0.000 G0
ENDBRANCH  12  16
ENDBRANCH   1  11
TORSDOF 0
ENDMDL
MODEL 3
REMARK VINA RESULT:    -2.881     21.750     23.386
REMARK INTER + INTRA:          -2.966
REMARK INTER:                  -3.548
REMARK INTRA:                   0.582
REMARK UNBOUND:                 0.589
REMARK SMILES C=C1CC[C@H]2[C@@H]1[C@H]1[C@@H](CC[C@H]2C)C1(C)C
REMARK SMILES IDX 6 1 5 2 4 3 3 4 2 5 1 6 11 7 12 8 10 9 7 11 8 12 13 13 14 14
REMARK SMILES IDX 15 15 9 16
REMARK H PARENT
REMARK Flexibility Score: 80.00
ROOT
ATOM      1  C   UNL     1      53.501  28.831  26.254  1.00  0.00     0.022 C 
ATOM      2  C   UNL     1      54.868  28.135  25.976  1.00  0.00    -0.000 C 
ATOM      3  C   UNL     1      54.965  26.924  26.934  1.00  0.00     0.009 C 
ATOM      4  C   UNL     1      53.877  27.075  27.990  1.00  0.00     0.031 C 
ATOM      5  C   UNL     1      52.968  28.120  27.456  1.00  0.00    -0.074 C 
ATOM      6  C   UNL     1      51.761  28.363  27.985  1.00  0.00     0.008 C 
ENDROOT
BRANCH   2   7
ATOM      7  C   UNL     1      56.166  29.008  25.988  1.00  0.00    -0.011 C 
ATOM      8  C   UNL     1      56.494  29.672  27.344  1.00  0.00     0.008 C 
BRANCH   7   9
ATOM      9  C   UNL     1      56.250  30.015  24.804  1.00  0.00     0.004 CG0
ATOM     10  G   UNL     1      54.905  30.600  24.346  1.00  0.00     0.000 G0
ENDBRANCH   7   9
ENDBRANCH   2   7
BRANCH   1  11
ATOM     11  C   UNL     1      53.543  30.361  26.539  1.00  0.00     0.006 C 
ATOM     12  C   UNL     1      54.201  31.305  25.515  1.00  0.00    -0.001 C 
ATOM     13  C   UNL     1      52.673  31.309  25.687  1.00  0.00    -0.029 C 
ATOM     14  C   UNL     1      51.764  30.780  24.560  1.00  0.00     0.012 C 
ATOM     15  C   UNL     1      52.118  32.514  26.457  1.00  0.00     0.012 C 
BRANCH  12  16
ATOM     16  C   UNL     1      54.903  30.608  24.342  1.00  0.00     0.005 CG0
ATOM     17  G   UNL     1      56.246  30.011  24.789  1.00  0.00     0.000 G0
ENDBRANCH  12  16
ENDBRANCH   1  11
TORSDOF 0
ENDMDL
MODEL 4
REMARK VINA RESULT:    -2.855     19.322     21.438
REMARK INTER + INTRA:          -2.933
REMARK INTER:                  -3.513
REMARK INTRA:                   0.580
REMARK UNBOUND:                 0.589
REMARK SMILES C=C1CC[C@H]2[C@@H]1[C@H]1[C@@H](CC[C@H]2C)C1(C)C
REMARK SMILES IDX 6 1 5 2 4 3 3 4 2 5 1 6 11 7 12 8 10 9 7 11 8 12 13 13 14 14
REMARK SMILES IDX 15 15 9 16
REMARK H PARENT
REMARK Flexibility Score: 80.00
ROOT
ATOM      1  C   UNL     1      49.963  31.583  29.117  1.00  0.00     0.022 C 
ATOM      2  C   UNL     1      50.853  32.843  28.889  1.00  0.00    -0.000 C 
ATOM      3  C   UNL     1      50.282  33.970  29.782  1.00  0.00     0.009 C 
ATOM      4  C   UNL     1      48.904  33.534  30.260  1.00  0.00     0.031 C 
ATOM      5  C   UNL     1      48.837  32.081  29.964  1.00  0.00    -0.074 C 
ATOM      6  C   UNL     1      47.875  31.288  30.456  1.00  0.00     0.008 C 
ENDROOT
BRANCH   2   7
ATOM      7  C   UNL     1      51.112  33.319  27.422  1.00  0.00    -0.011 C 
ATOM      8  C   UNL     1      49.850  33.758  26.646  1.00  0.00     0.008 C 
BRANCH   7   9
ATOM      9  C   UNL     1      52.000  32.342  26.597  1.00  0.00     0.004 CG0
ATOM     10  G   UNL     1      51.804  30.853  26.916  1.00  0.00     0.000 G0
ENDBRANCH   7   9
ENDBRANCH   2   7
BRANCH   1  11
ATOM     11  C   UNL     1      49.384  30.900  27.843  1.00  0.00     0.006 C 
ATOM     12  C   UNL     1      50.341  30.441  26.727  1.00  0.00    -0.001 C 
ATOM     13  C   UNL     1      49.642  29.396  27.612  1.00  0.00    -0.029 C 
ATOM     14  C   UNL     1      50.460  28.553  28.610  1.00  0.00     0.012 C 
ATOM     15  C   UNL     1      48.481  28.656  26.936  1.00  0.00     0.012 C 
BRANCH  12  16
ATOM     16  C   UNL     1      51.809  30.844  26.920  1.00  0.00     0.005 CG0
ATOM     17  G   UNL     1      52.007  32.337  26.613  1.00  0.00     0.000 G0
ENDBRANCH  12  16
ENDBRANCH   1  11
TORSDOF 0
ENDMDL
MODEL 5
REMARK VINA RESULT:    -2.728     19.416     21.275
REMARK INTER + INTRA:          -2.777
REMARK INTER:                  -3.367
REMARK INTRA:                   0.590
REMARK UNBOUND:                 0.589
REMARK SMILES C=C1CC[C@H]2[C@@H]1[C@H]1[C@@H](CC[C@H]2C)C1(C)C
REMARK SMILES IDX 6 1 5 2 4 3 3 4 2 5 1 6 11 7 12 8 10 9 7 11 8 12 13 13 14 14
REMARK SMILES IDX 15 15 9 16
REMARK H PARENT
REMARK Flexibility Score: 80.00
ROOT
ATOM      1  C   UNL     1      50.139  30.978  28.758  1.00  0.00     0.022 C 
ATOM      2  C   UNL     1      50.459  32.222  29.641  1.00  0.00    -0.000 C 
ATOM      3  C   UNL     1      49.710  32.033  30.982  1.00  0.00     0.009 C 
ATOM      4  C   UNL     1      48.699  30.908  30.797  1.00  0.00     0.031 C 
ATOM      5  C   UNL     1      49.098  30.237  29.534  1.00  0.00    -0.074 C 
ATOM      6  C   UNL     1      48.598  29.053  29.159  1.00  0.00     0.008 C 
ENDROOT
BRANCH   2   7
ATOM      7  C   UNL     1      50.239  33.646  29.032  1.00  0.00    -0.011 C 
ATOM      8  C   UNL     1      48.778  33.975  28.651  1.00  0.00     0.008 C 
BRANCH   7   9
ATOM      9  C   UNL     1      51.238  33.997  27.891  1.00  0.00     0.004 CG0
ATOM     10  G   UNL     1      51.656  32.816  27.002  1.00  0.00     0.000 G0
ENDBRANCH   7   9
ENDBRANCH   2   7
BRANCH   1  11
ATOM     11  C   UNL     1      49.605  31.261  27.323  1.00  0.00     0.006 C 
ATOM     12  C   UNL     1      50.424  32.151  26.370  1.00  0.00    -0.001 C 
ATOM     13  C   UNL     1      50.332  30.639  26.113  1.00  0.00    -0.029 C 
ATOM     14  C   UNL     1      51.576  29.745  26.289  1.00  0.00     0.012 C 
ATOM     15  C   UNL     1      49.404  30.240  24.959  1.00  0.00     0.012 C 
BRANCH  12  16
ATOM     16  C   UNL     1      51.658  32.814  26.997  1.00  0.00     0.005 CG0
ATOM     17  G   UNL     1      51.247  33.997  27.887  1.00  0.00     0.000 G0
ENDBRANCH  12  16
ENDBRANCH   1  11
TORSDOF 0
ENDMDL
MODEL 6
REMARK VINA RESULT:    -2.644     19.399     21.684
REMARK INTER + INTRA:          -2.674
REMARK INTER:                  -3.269
REMARK INTRA:                   0.596
REMARK UNBOUND:                 0.589
REMARK SMILES C=C1CC[C@H]2[C@@H]1[C@H]1[C@@H](CC[C@H]2C)C1(C)C
REMARK SMILES IDX 6 1 5 2 4 3 3 4 2 5 1 6 11 7 12 8 10 9 7 11 8 12 13 13 14 14
REMARK SMILES IDX 15 15 9 16
REMARK H PARENT
REMARK Flexibility Score: 80.00
ROOT
ATOM      1  C   UNL     1      49.770  33.185  28.177  1.00  0.00     0.022 C 
ATOM      2  C   UNL     1      49.084  32.499  29.397  1.00  0.00    -0.000 C 
ATOM      3  C   UNL     1      49.736  33.082  30.673  1.00  0.00     0.009 C 
ATOM      4  C   UNL     1      51.000  33.823  30.254  1.00  0.00     0.031 C 
ATOM      5  C   UNL     1      50.886  33.974  28.782  1.00  0.00    -0.074 C 
ATOM      6  C   UNL     1      51.687  34.783  28.076  1.00  0.00     0.008 C 
ENDROOT
BRANCH   2   7
ATOM      7  C   UNL     1      49.008  30.936  29.429  1.00  0.00    -0.011 C 
ATOM      8  C   UNL     1      50.375  30.217  29.472  1.00  0.00     0.008 C 
BRANCH   7   9
ATOM      9  C   UNL     1      48.061  30.336  28.350  1.00  0.00     0.004 CG0
ATOM     10  G   UNL     1      48.017  31.102  27.019  1.00  0.00     0.000 G0
ENDBRANCH   7   9
ENDBRANCH   2   7
BRANCH   1  11
ATOM     11  C   UNL     1      50.344  32.242  27.079  1.00  0.00     0.006 C 
ATOM     12  C   UNL     1      49.423  31.204  26.412  1.00  0.00    -0.001 C 
ATOM     13  C   UNL     1      49.896  32.430  25.615  1.00  0.00    -0.029 C 
ATOM     14  C   UNL     1      48.892  33.528  25.211  1.00  0.00     0.012 C 
ATOM     15  C   UNL     1      50.990  32.139  24.580  1.00  0.00     0.012 C 
BRANCH  12  16
ATOM     16  C   UNL     1      48.015  31.098  27.016  1.00  0.00     0.005 CG0
ATOM     17  G   UNL     1      48.053  30.347  28.355  1.00  0.00     0.000 G0
ENDBRANCH  12  16
ENDBRANCH   1  11
TORSDOF 0
ENDMDL
MODEL 7
REMARK VINA RESULT:    -2.633     19.792     22.082
REMARK INTER + INTRA:          -2.660
REMARK INTER:                  -3.242
REMARK INTRA:                   0.581
REMARK UNBOUND:                 0.589
REMARK SMILES C=C1CC[C@H]2[C@@H]1[C@H]1[C@@H](CC[C@H]2C)C1(C)C
REMARK SMILES IDX 6 1 5 2 4 3 3 4 2 5 1 6 11 7 12 8 10 9 7 11 8 12 13 13 14 14
REMARK SMILES IDX 15 15 9 16
REMARK H PARENT
REMARK Flexibility Score: 80.00
ROOT
ATOM      1  C   UNL     1      49.553  31.890  28.794  1.00  0.00     0.022 C 
ATOM      2  C   UNL     1      48.481  30.773  28.976  1.00  0.00    -0.000 C 
ATOM      3  C   UNL     1      48.208  30.646  30.493  1.00  0.00     0.009 C 
ATOM      4  C   UNL     1      49.312  31.394  31.230  1.00  0.00     0.031 C 
ATOM      5  C   UNL     1      49.977  32.219  30.190  1.00  0.00    -0.074 C 
ATOM      6  C   UNL     1      50.842  33.196  30.489  1.00  0.00     0.008 C 
ENDROOT
BRANCH   2   7
ATOM      7  C   UNL     1      48.727  29.385  28.297  1.00  0.00    -0.011 C 
ATOM      8  C   UNL     1      49.973  28.623  28.802  1.00  0.00     0.008 C 
BRANCH   7   9
ATOM      9  C   UNL     1      48.655  29.430  26.743  1.00  0.00     0.004 CG0
ATOM     10  G   UNL     1      49.158  30.732  26.102  1.00  0.00     0.000 G0
ENDBRANCH   7   9
ENDBRANCH   2   7
BRANCH   1  11
ATOM     11  C   UNL     1      50.808  31.521  27.950  1.00  0.00     0.006 C 
ATOM     12  C   UNL     1      50.629  30.992  26.515  1.00  0.00    -0.001 C 
ATOM     13  C   UNL     1      51.190  32.404  26.744  1.00  0.00    -0.029 C 
ATOM     14  C   UNL     1      50.359  33.642  26.352  1.00  0.00     0.012 C 
ATOM     15  C   UNL     1      52.701  32.538  26.516  1.00  0.00     0.012 C 
BRANCH  12  16
ATOM     16  C   UNL     1      49.176  30.734  26.092  1.00  0.00     0.005 CG0
ATOM     17  G   UNL     1      48.647  29.438  26.726  1.00  0.00     0.000 G0
ENDBRANCH  12  16
ENDBRANCH   1  11
TORSDOF 0
ENDMDL
MODEL 8
REMARK VINA RESULT:    -2.618     19.681     21.756
REMARK INTER + INTRA:          -2.641
REMARK INTER:                  -3.241
REMARK INTRA:                   0.599
REMARK UNBOUND:                 0.589
REMARK SMILES C=C1CC[C@H]2[C@@H]1[C@H]1[C@@H](CC[C@H]2C)C1(C)C
REMARK SMILES IDX 6 1 5 2 4 3 3 4 2 5 1 6 11 7 12 8 10 9 7 11 8 12 13 13 14 14
REMARK SMILES IDX 15 15 9 16
REMARK H PARENT
REMARK Flexibility Score: 80.00
ROOT
ATOM      1  C   UNL     1      50.071  31.664  27.777  1.00  0.00     0.022 C 
ATOM      2  C   UNL     1      49.193  32.394  28.838  1.00  0.00    -0.000 C 
ATOM      3  C   UNL     1      49.692  33.857  28.913  1.00  0.00     0.009 C 
ATOM      4  C   UNL     1      51.035  33.929  28.198  1.00  0.00     0.031 C 
ATOM      5  C   UNL     1      51.131  32.661  27.432  1.00  0.00    -0.074 C 
ATOM      6  C   UNL     1      52.059  32.458  26.488  1.00  0.00     0.008 C 
ENDROOT
BRANCH   2   7
ATOM      7  C   UNL     1      49.039  31.745  30.253  1.00  0.00    -0.011 C 
ATOM      8  C   UNL     1      50.351  31.614  31.058  1.00  0.00     0.008 C 
BRANCH   7   9
ATOM      9  C   UNL     1      48.219  30.422  30.245  1.00  0.00     0.004 CG0
ATOM     10  G   UNL     1      48.397  29.549  28.993  1.00  0.00     0.000 G0
ENDBRANCH   7   9
ENDBRANCH   2   7
BRANCH   1  11
ATOM     11  C   UNL     1      50.745  30.334  28.225  1.00  0.00     0.006 C 
ATOM     12  C   UNL     1      49.875  29.196  28.790  1.00  0.00    -0.001 C 
ATOM     13  C   UNL     1      50.507  29.054  27.397  1.00  0.00    -0.029 C 
ATOM     14  C   UNL     1      49.619  29.059  26.137  1.00  0.00     0.012 C 
ATOM     15  C   UNL     1      51.717  28.112  27.335  1.00  0.00     0.012 C 
BRANCH  12  16
ATOM     16  C   UNL     1      48.395  29.548  28.999  1.00  0.00     0.005 CG0
ATOM     17  G   UNL     1      48.216  30.428  30.246  1.00  0.00     0.000 G0
ENDBRANCH  12  16
ENDBRANCH   1  11
TORSDOF 0
ENDMDL
MODEL 9
REMARK VINA RESULT:    -2.451     19.407     21.615
REMARK INTER + INTRA:          -2.435
REMARK INTER:                  -3.026
REMARK INTRA:                   0.592
REMARK UNBOUND:                 0.589
REMARK SMILES C=C1CC[C@H]2[C@@H]1[C@H]1[C@@H](CC[C@H]2C)C1(C)C
REMARK SMILES IDX 6 1 5 2 4 3 3 4 2 5 1 6 11 7 12 8 10 9 7 11 8 12 13 13 14 14
REMARK SMILES IDX 15 15 9 16
REMARK H PARENT
REMARK Flexibility Score: 80.00
ROOT
ATOM      1  C   UNL     1      49.139  30.939  27.857  1.00  0.00     0.022 C 
ATOM      2  C   UNL     1      49.138  31.572  26.433  1.00  0.00    -0.000 C 
ATOM      3  C   UNL     1      49.216  30.408  25.417  1.00  0.00     0.009 C 
ATOM      4  C   UNL     1      49.603  29.148  26.181  1.00  0.00     0.031 C 
ATOM      5  C   UNL     1      49.399  29.488  27.611  1.00  0.00    -0.074 C 
ATOM      6  C   UNL     1      49.403  28.562  28.580  1.00  0.00     0.008 C 
ENDROOT
BRANCH   2   7
ATOM      7  C   UNL     1      50.171  32.705  26.119  1.00  0.00    -0.011 C 
ATOM      8  C   UNL     1      51.654  32.278  26.202  1.00  0.00     0.008 C 
BRANCH   7   9
ATOM      9  C   UNL     1      49.896  34.029  26.889  1.00  0.00     0.004 CG0
ATOM     10  G   UNL     1      49.324  33.857  28.304  1.00  0.00     0.000 G0
ENDBRANCH   7   9
ENDBRANCH   2   7
BRANCH   1  11
ATOM     11  C   UNL     1      50.194  31.486  28.863  1.00  0.00     0.006 C 
ATOM     12  C   UNL     1      50.245  32.996  29.163  1.00  0.00    -0.001 C 
ATOM     13  C   UNL     1      49.723  32.022  30.231  1.00  0.00    -0.029 C 
ATOM     14  C   UNL     1      48.233  32.030  30.628  1.00  0.00     0.012 C 
ATOM     15  C   UNL     1      50.700  31.750  31.382  1.00  0.00     0.012 C 
BRANCH  12  16
ATOM     16  C   UNL     1      49.314  33.863  28.304  1.00  0.00     0.005 CG0
ATOM     17  G   UNL     1      49.884  34.035  26.888  1.00  0.00     0.000 G0
ENDBRANCH  12  16
ENDBRANCH   1  11
TORSDOF 0
ENDMDL
