MODEL 1
REMARK VINA RESULT:    -5.089      0.000      0.000
REMARK INTER + INTRA:          -9.758
REMARK INTER:                  -8.957
REMARK INTRA:                  -0.801
REMARK UNBOUND:                -0.801
REMARK SMILES CCCCCCC=CCCCCCCCC(=O)[O-]
REMARK SMILES IDX 10 1 11 2 12 3 13 4 14 5 15 6 16 7 17 8 18 9 9 10 8 11 7 12
REMARK SMILES IDX 6 13 5 14 4 15 3 16 2 17 1 18
REMARK H PARENT
REMARK Flexibility Score: inf
ROOT
ATOM      1  C   UNL     1       2.026  -1.300  17.575  1.00  0.00     0.004 C 
ENDROOT
BRANCH   1   2
ATOM      2  C   UNL     1       2.048   0.213  17.308  1.00  0.00     0.000 C 
BRANCH   2   3
ATOM      3  C   UNL     1       2.892   0.983  18.335  1.00  0.00     0.000 C 
BRANCH   3   4
ATOM      4  C   UNL     1       3.334   2.340  17.775  1.00  0.00     0.000 C 
BRANCH   4   5
ATOM      5  C   UNL     1       4.481   2.931  18.609  1.00  0.00     0.006 C 
BRANCH   5   6
ATOM      6  C   UNL     1       5.772   3.083  17.795  1.00  0.00     0.053 C 
BRANCH   6   7
ATOM      7  C   UNL     1       6.932   2.409  18.463  1.00  0.00     0.041 C 
ATOM      8  O   UNL     1       6.866   2.093  19.680  1.00  0.00    -0.550 OA
ATOM      9  O   UNL     1       8.073   2.102  17.733  1.00  0.00    -0.550 OA
ENDBRANCH   6   7
ENDBRANCH   5   6
ENDBRANCH   4   5
ENDBRANCH   3   4
ENDBRANCH   2   3
ENDBRANCH   1   2
BRANCH   1  10
ATOM     10  C   UNL     1       1.366  -1.654  18.917  1.00  0.00     0.027 C 
BRANCH  10  11
ATOM     11  C   UNL     1       1.448  -3.131  19.183  1.00  0.00    -0.031 C 
ATOM     12  C   UNL     1       1.409  -3.622  20.430  1.00  0.00    -0.031 C 
BRANCH  12  13
ATOM     13  C   UNL     1       1.538  -5.097  20.704  1.00  0.00     0.027 C 
BRANCH  13  14
ATOM     14  C   UNL     1       2.710  -5.394  21.651  1.00  0.00     0.004 C 
BRANCH  14  15
ATOM     15  C   UNL     1       2.881  -4.370  22.791  1.00  0.00     0.000 C 
BRANCH  15  16
ATOM     16  C   UNL     1       4.315  -3.839  22.986  1.00  0.00    -0.000 C 
BRANCH  16  17
ATOM     17  C   UNL     1       5.268  -4.097  21.806  1.00  0.00    -0.003 C 
ATOM     18  C   UNL     1       6.562  -3.291  21.900  1.00  0.00     0.004 C 
ENDBRANCH  16  17
ENDBRANCH  15  16
ENDBRANCH  14  15
ENDBRANCH  13  14
ENDBRANCH  12  13
ENDBRANCH  10  11
ENDBRANCH   1  10
TORSDOF 13
ENDMDL
MODEL 2
REMARK VINA RESULT:    -5.085      2.277      6.855
REMARK INTER + INTRA:          -9.750
REMARK INTER:                  -9.053
REMARK INTRA:                  -0.697
REMARK UNBOUND:                -0.801
REMARK SMILES CCCCCCC=CCCCCCCCC(=O)[O-]
REMARK SMILES IDX 10 1 11 2 12 3 13 4 14 5 15 6 16 7 17 8 18 9 9 10 8 11 7 12
REMARK SMILES IDX 6 13 5 14 4 15 3 16 2 17 1 18
REMARK H PARENT
REMARK Flexibility Score: inf
ROOT
ATOM      1  C   UNL     1       1.607  -3.408  19.515  1.00  0.00     0.004 C 
ENDROOT
BRANCH   1   2
ATOM      2  C   UNL     1       1.781  -3.994  20.925  1.00  0.00     0.000 C 
BRANCH   2   3
ATOM      3  C   UNL     1       2.396  -5.402  20.909  1.00  0.00     0.000 C 
BRANCH   3   4
ATOM      4  C   UNL     1       3.158  -5.684  22.210  1.00  0.00     0.000 C 
BRANCH   4   5
ATOM      5  C   UNL     1       4.651  -5.362  22.053  1.00  0.00     0.006 C 
BRANCH   5   6
ATOM      6  C   UNL     1       5.015  -3.993  22.644  1.00  0.00     0.053 C 
BRANCH   6   7
ATOM      7  C   UNL     1       6.368  -3.536  22.191  1.00  0.00     0.041 C 
ATOM      8  O   UNL     1       6.858  -3.971  21.116  1.00  0.00    -0.550 OA
ATOM      9  O   UNL     1       7.076  -2.605  22.942  1.00  0.00    -0.550 OA
ENDBRANCH   6   7
ENDBRANCH   5   6
ENDBRANCH   4   5
ENDBRANCH   3   4
ENDBRANCH   2   3
ENDBRANCH   1   2
BRANCH   1  10
ATOM     10  C   UNL     1       0.947  -2.020  19.530  1.00  0.00     0.027 C 
BRANCH  10  11
ATOM     11  C   UNL     1       1.193  -1.295  18.237  1.00  0.00    -0.031 C 
ATOM     12  C   UNL     1       2.120  -0.330  18.139  1.00  0.00    -0.031 C 
BRANCH  12  13
ATOM     13  C   UNL     1       2.337   0.431  16.859  1.00  0.00     0.027 C 
BRANCH  13  14
ATOM     14  C   UNL     1       2.858   1.851  17.128  1.00  0.00     0.004 C 
BRANCH  14  15
ATOM     15  C   UNL     1       3.523   2.033  18.508  1.00  0.00     0.000 C 
BRANCH  15  16
ATOM     16  C   UNL     1       4.633   3.102  18.565  1.00  0.00    -0.000 C 
BRANCH  16  17
ATOM     17  C   UNL     1       5.907   2.758  17.775  1.00  0.00    -0.003 C 
ATOM     18  C   UNL     1       7.180   2.905  18.606  1.00  0.00     0.004 C 
ENDBRANCH  16  17
ENDBRANCH  15  16
ENDBRANCH  14  15
ENDBRANCH  13  14
ENDBRANCH  12  13
ENDBRANCH  10  11
ENDBRANCH   1  10
TORSDOF 13
ENDMDL
MODEL 3
REMARK VINA RESULT:    -4.639     14.188     16.367
REMARK INTER + INTRA:          -8.965
REMARK INTER:                  -7.870
REMARK INTRA:                  -1.095
REMARK UNBOUND:                -0.801
REMARK SMILES CCCCCCC=CCCCCCCCC(=O)[O-]
REMARK SMILES IDX 10 1 11 2 12 3 13 4 14 5 15 6 16 7 17 8 18 9 9 10 8 11 7 12
REMARK SMILES IDX 6 13 5 14 4 15 3 16 2 17 1 18
REMARK H PARENT
REMARK Flexibility Score: inf
ROOT
ATOM      1  C   UNL     1      12.124 -10.417  25.122  1.00  0.00     0.004 C 
ENDROOT
BRANCH   1   2
ATOM      2  C   UNL     1      12.677 -11.616  24.336  1.00  0.00     0.000 C 
BRANCH   2   3
ATOM      3  C   UNL     1      11.602 -12.670  24.030  1.00  0.00     0.000 C 
BRANCH   3   4
ATOM      4  C   UNL     1      12.044 -14.059  24.505  1.00  0.00     0.000 C 
BRANCH   4   5
ATOM      5  C   UNL     1      12.403 -14.041  25.998  1.00  0.00     0.006 C 
BRANCH   5   6
ATOM      6  C   UNL     1      13.592 -14.955  26.321  1.00  0.00     0.053 C 
BRANCH   6   7
ATOM      7  C   UNL     1      14.782 -14.638  25.467  1.00  0.00     0.041 C 
ATOM      8  O   UNL     1      15.170 -15.456  24.591  1.00  0.00    -0.550 OA
ATOM      9  O   UNL     1      15.445 -13.427  25.618  1.00  0.00    -0.550 OA
ENDBRANCH   6   7
ENDBRANCH   5   6
ENDBRANCH   4   5
ENDBRANCH   3   4
ENDBRANCH   2   3
ENDBRANCH   1   2
BRANCH   1  10
ATOM     10  C   UNL     1      12.523 -10.447  26.605  1.00  0.00     0.027 C 
BRANCH  10  11
ATOM     11  C   UNL     1      11.317 -10.298  27.489  1.00  0.00    -0.031 C 
ATOM     12  C   UNL     1      10.606  -9.161  27.519  1.00  0.00    -0.031 C 
BRANCH  12  13
ATOM     13  C   UNL     1       9.425  -8.991  28.438  1.00  0.00     0.027 C 
BRANCH  13  14
ATOM     14  C   UNL     1       9.870  -8.717  29.883  1.00  0.00     0.004 C 
BRANCH  14  15
ATOM     15  C   UNL     1       9.073  -9.495  30.950  1.00  0.00     0.000 C 
BRANCH  15  16
ATOM     16  C   UNL     1       9.730  -9.556  32.343  1.00  0.00    -0.000 C 
BRANCH  16  17
ATOM     17  C   UNL     1      10.223 -10.950  32.768  1.00  0.00    -0.003 C 
ATOM     18  C   UNL     1       9.942 -12.025  31.718  1.00  0.00     0.004 C 
ENDBRANCH  16  17
ENDBRANCH  15  16
ENDBRANCH  14  15
ENDBRANCH  13  14
ENDBRANCH  12  13
ENDBRANCH  10  11
ENDBRANCH   1  10
TORSDOF 13
ENDMDL
MODEL 4
REMARK VINA RESULT:    -4.574      9.713     13.839
REMARK INTER + INTRA:          -8.851
REMARK INTER:                  -7.704
REMARK INTRA:                  -1.147
REMARK UNBOUND:                -0.801
REMARK SMILES CCCCCCC=CCCCCCCCC(=O)[O-]
REMARK SMILES IDX 10 1 11 2 12 3 13 4 14 5 15 6 16 7 17 8 18 9 9 10 8 11 7 12
REMARK SMILES IDX 6 13 5 14 4 15 3 16 2 17 1 18
REMARK H PARENT
REMARK Flexibility Score: inf
ROOT
ATOM      1  C   UNL     1      13.844 -11.781  24.495  1.00  0.00     0.004 C 
ENDROOT
BRANCH   1   2
ATOM      2  C   UNL     1      13.154 -13.153  24.527  1.00  0.00     0.000 C 
BRANCH   2   3
ATOM      3  C   UNL     1      11.674 -13.081  24.122  1.00  0.00     0.000 C 
BRANCH   3   4
ATOM      4  C   UNL     1      11.527 -12.719  22.639  1.00  0.00     0.000 C 
BRANCH   4   5
ATOM      5  C   UNL     1      10.677 -11.452  22.465  1.00  0.00     0.006 C 
BRANCH   5   6
ATOM      6  C   UNL     1      10.577 -11.017  20.997  1.00  0.00     0.053 C 
BRANCH   6   7
ATOM      7  C   UNL     1       9.274 -10.336  20.707  1.00  0.00     0.041 C 
ATOM      8  O   UNL     1       9.242  -9.095  20.492  1.00  0.00    -0.550 OA
ATOM      9  O   UNL     1       8.101 -11.076  20.646  1.00  0.00    -0.550 OA
ENDBRANCH   6   7
ENDBRANCH   5   6
ENDBRANCH   4   5
ENDBRANCH   3   4
ENDBRANCH   2   3
ENDBRANCH   1   2
BRANCH   1  10
ATOM     10  C   UNL     1      14.164 -11.248  25.900  1.00  0.00     0.027 C 
BRANCH  10  11
ATOM     11  C   UNL     1      13.141 -10.238  26.337  1.00  0.00    -0.031 C 
ATOM     12  C   UNL     1      11.971 -10.613  26.876  1.00  0.00    -0.031 C 
BRANCH  12  13
ATOM     13  C   UNL     1      10.924  -9.607  27.272  1.00  0.00     0.027 C 
BRANCH  13  14
ATOM     14  C   UNL     1      10.813  -8.472  26.242  1.00  0.00     0.004 C 
BRANCH  14  15
ATOM     15  C   UNL     1      11.202  -7.082  26.784  1.00  0.00     0.000 C 
BRANCH  15  16
ATOM     16  C   UNL     1      10.631  -5.887  25.994  1.00  0.00    -0.000 C 
BRANCH  16  17
ATOM     17  C   UNL     1       9.096  -5.814  25.949  1.00  0.00    -0.003 C 
ATOM     18  C   UNL     1       8.538  -5.894  24.529  1.00  0.00     0.004 C 
ENDBRANCH  16  17
ENDBRANCH  15  16
ENDBRANCH  14  15
ENDBRANCH  13  14
ENDBRANCH  12  13
ENDBRANCH  10  11
ENDBRANCH   1  10
TORSDOF 13
ENDMDL
MODEL 5
REMARK VINA RESULT:    -4.540      6.852     11.070
REMARK INTER + INTRA:          -8.791
REMARK INTER:                  -7.324
REMARK INTRA:                  -1.468
REMARK UNBOUND:                -0.801
REMARK SMILES CCCCCCC=CCCCCCCCC(=O)[O-]
REMARK SMILES IDX 10 1 11 2 12 3 13 4 14 5 15 6 16 7 17 8 18 9 9 10 8 11 7 12
REMARK SMILES IDX 6 13 5 14 4 15 3 16 2 17 1 18
REMARK H PARENT
REMARK Flexibility Score: inf
ROOT
ATOM      1  C   UNL     1       9.458  -5.153  25.382  1.00  0.00     0.004 C 
ENDROOT
BRANCH   1   2
ATOM      2  C   UNL     1      10.607  -6.008  25.939  1.00  0.00     0.000 C 
BRANCH   2   3
ATOM      3  C   UNL     1      10.501  -7.483  25.525  1.00  0.00     0.000 C 
BRANCH   3   4
ATOM      4  C   UNL     1      11.245  -8.387  26.516  1.00  0.00     0.000 C 
BRANCH   4   5
ATOM      5  C   UNL     1      10.257  -9.204  27.362  1.00  0.00     0.006 C 
BRANCH   5   6
ATOM      6  C   UNL     1       9.927  -8.518  28.694  1.00  0.00     0.053 C 
BRANCH   6   7
ATOM      7  C   UNL     1       8.455  -8.285  28.848  1.00  0.00     0.041 C 
ATOM      8  O   UNL     1       7.844  -8.734  29.853  1.00  0.00    -0.550 OA
ATOM      9  O   UNL     1       7.764  -7.545  27.896  1.00  0.00    -0.550 OA
ENDBRANCH   6   7
ENDBRANCH   5   6
ENDBRANCH   4   5
ENDBRANCH   3   4
ENDBRANCH   2   3
ENDBRANCH   1   2
BRANCH   1  10
ATOM     10  C   UNL     1       8.327  -6.002  24.781  1.00  0.00     0.027 C 
BRANCH  10  11
ATOM     11  C   UNL     1       7.626  -5.259  23.678  1.00  0.00    -0.031 C 
ATOM     12  C   UNL     1       7.380  -5.834  22.492  1.00  0.00    -0.031 C 
BRANCH  12  13
ATOM     13  C   UNL     1       6.720  -5.079  21.369  1.00  0.00     0.027 C 
BRANCH  13  14
ATOM     14  C   UNL     1       5.760  -4.003  21.900  1.00  0.00     0.004 C 
BRANCH  14  15
ATOM     15  C   UNL     1       4.268  -4.307  21.657  1.00  0.00     0.000 C 
BRANCH  15  16
ATOM     16  C   UNL     1       3.357  -4.145  22.890  1.00  0.00    -0.000 C 
BRANCH  16  17
ATOM     17  C   UNL     1       3.836  -4.883  24.152  1.00  0.00    -0.003 C 
ATOM     18  C   UNL     1       3.778  -6.403  24.010  1.00  0.00     0.004 C 
ENDBRANCH  16  17
ENDBRANCH  15  16
ENDBRANCH  14  15
ENDBRANCH  13  14
ENDBRANCH  12  13
ENDBRANCH  10  11
ENDBRANCH   1  10
TORSDOF 13
ENDMDL
MODEL 6
REMARK VINA RESULT:    -4.487     14.052     17.058
REMARK INTER + INTRA:          -8.698
REMARK INTER:                  -7.905
REMARK INTRA:                  -0.792
REMARK UNBOUND:                -0.801
REMARK SMILES CCCCCCC=CCCCCCCCC(=O)[O-]
REMARK SMILES IDX 10 1 11 2 12 3 13 4 14 5 15 6 16 7 17 8 18 9 9 10 8 11 7 12
REMARK SMILES IDX 6 13 5 14 4 15 3 16 2 17 1 18
REMARK H PARENT
REMARK Flexibility Score: inf
ROOT
ATOM      1  C   UNL     1       9.869  -8.786  30.639  1.00  0.00     0.004 C 
ENDROOT
BRANCH   1   2
ATOM      2  C   UNL     1       9.037  -9.686  31.566  1.00  0.00     0.000 C 
BRANCH   2   3
ATOM      3  C   UNL     1       9.597 -11.113  31.663  1.00  0.00     0.000 C 
BRANCH   3   4
ATOM      4  C   UNL     1       9.871 -11.497  33.123  1.00  0.00     0.000 C 
BRANCH   4   5
ATOM      5  C   UNL     1       9.470 -10.359  34.074  1.00  0.00     0.006 C 
BRANCH   5   6
ATOM      6  C   UNL     1       8.368 -10.783  35.053  1.00  0.00     0.053 C 
BRANCH   6   7
ATOM      7  C   UNL     1       7.013 -10.750  34.413  1.00  0.00     0.041 C 
ATOM      8  O   UNL     1       6.358 -11.814  34.260  1.00  0.00    -0.550 OA
ATOM      9  O   UNL     1       6.463  -9.539  34.012  1.00  0.00    -0.550 OA
ENDBRANCH   6   7
ENDBRANCH   5   6
ENDBRANCH   4   5
ENDBRANCH   3   4
ENDBRANCH   2   3
ENDBRANCH   1   2
BRANCH   1  10
ATOM     10  C   UNL     1       9.339  -8.772  29.197  1.00  0.00     0.027 C 
BRANCH  10  11
ATOM     11  C   UNL     1      10.319  -9.418  28.258  1.00  0.00    -0.031 C 
ATOM     12  C   UNL     1      10.659  -8.845  27.094  1.00  0.00    -0.031 C 
BRANCH  12  13
ATOM     13  C   UNL     1      11.604  -9.511  26.131  1.00  0.00     0.027 C 
BRANCH  13  14
ATOM     14  C   UNL     1      12.118 -10.851  26.680  1.00  0.00     0.004 C 
BRANCH  14  15
ATOM     15  C   UNL     1      12.336 -11.935  25.605  1.00  0.00     0.000 C 
BRANCH  15  16
ATOM     16  C   UNL     1      12.291 -13.387  26.121  1.00  0.00    -0.000 C 
BRANCH  16  17
ATOM     17  C   UNL     1      13.007 -14.416  25.229  1.00  0.00    -0.003 C 
ATOM     18  C   UNL     1      13.763 -15.474  26.030  1.00  0.00     0.004 C 
ENDBRANCH  16  17
ENDBRANCH  15  16
ENDBRANCH  14  15
ENDBRANCH  13  14
ENDBRANCH  12  13
ENDBRANCH  10  11
ENDBRANCH   1  10
TORSDOF 13
ENDMDL
MODEL 7
REMARK VINA RESULT:    -4.441     11.136     15.666
REMARK INTER + INTRA:          -8.618
REMARK INTER:                  -7.295
REMARK INTRA:                  -1.323
REMARK UNBOUND:                -0.801
REMARK SMILES CCCCCCC=CCCCCCCCC(=O)[O-]
REMARK SMILES IDX 10 1 11 2 12 3 13 4 14 5 15 6 16 7 17 8 18 9 9 10 8 11 7 12
REMARK SMILES IDX 6 13 5 14 4 15 3 16 2 17 1 18
REMARK H PARENT
REMARK Flexibility Score: inf
ROOT
ATOM      1  C   UNL     1      10.315 -10.763  32.763  1.00  0.00     0.004 C 
ENDROOT
BRANCH   1   2
ATOM      2  C   UNL     1       9.395 -11.413  33.808  1.00  0.00     0.000 C 
BRANCH   2   3
ATOM      3  C   UNL     1       8.085 -10.635  34.009  1.00  0.00     0.000 C 
BRANCH   3   4
ATOM      4  C   UNL     1       6.994 -11.144  33.060  1.00  0.00     0.000 C 
BRANCH   4   5
ATOM      5  C   UNL     1       6.184  -9.975  32.477  1.00  0.00     0.006 C 
BRANCH   5   6
ATOM      6  C   UNL     1       5.498 -10.346  31.156  1.00  0.00     0.053 C 
BRANCH   6   7
ATOM      7  C   UNL     1       4.903  -9.147  30.484  1.00  0.00     0.041 C 
ATOM      8  O   UNL     1       3.871  -8.601  30.956  1.00  0.00    -0.550 OA
ATOM      9  O   UNL     1       5.506  -8.613  29.352  1.00  0.00    -0.550 OA
ENDBRANCH   6   7
ENDBRANCH   5   6
ENDBRANCH   4   5
ENDBRANCH   3   4
ENDBRANCH   2   3
ENDBRANCH   1   2
BRANCH   1  10
ATOM     10  C   UNL     1      10.338  -9.230  32.868  1.00  0.00     0.027 C 
BRANCH  10  11
ATOM     11  C   UNL     1       9.944  -8.597  31.563  1.00  0.00    -0.031 C 
ATOM     12  C   UNL     1       9.303  -9.292  30.611  1.00  0.00    -0.031 C 
BRANCH  12  13
ATOM     13  C   UNL     1       8.948  -8.674  29.285  1.00  0.00     0.027 C 
BRANCH  13  14
ATOM     14  C   UNL     1      10.190  -8.482  28.402  1.00  0.00     0.004 C 
BRANCH  14  15
ATOM     15  C   UNL     1       9.876  -8.175  26.923  1.00  0.00     0.000 C 
BRANCH  15  16
ATOM     16  C   UNL     1       9.360  -6.749  26.644  1.00  0.00    -0.000 C 
BRANCH  16  17
ATOM     17  C   UNL     1       9.754  -6.173  25.274  1.00  0.00    -0.003 C 
ATOM     18  C   UNL     1       9.131  -4.805  25.003  1.00  0.00     0.004 C 
ENDBRANCH  16  17
ENDBRANCH  15  16
ENDBRANCH  14  15
ENDBRANCH  13  14
ENDBRANCH  12  13
ENDBRANCH  10  11
ENDBRANCH   1  10
TORSDOF 13
ENDMDL
MODEL 8
REMARK VINA RESULT:    -4.428     12.608     16.259
REMARK INTER + INTRA:          -8.593
REMARK INTER:                  -6.502
REMARK INTRA:                  -2.091
REMARK UNBOUND:                -0.801
REMARK SMILES CCCCCCC=CCCCCCCCC(=O)[O-]
REMARK SMILES IDX 10 1 11 2 12 3 13 4 14 5 15 6 16 7 17 8 18 9 9 10 8 11 7 12
REMARK SMILES IDX 6 13 5 14 4 15 3 16 2 17 1 18
REMARK H PARENT
REMARK Flexibility Score: inf
ROOT
ATOM      1  C   UNL     1      11.706 -12.983  24.175  1.00  0.00     0.004 C 
ENDROOT
BRANCH   1   2
ATOM      2  C   UNL     1      12.240 -12.924  25.615  1.00  0.00     0.000 C 
BRANCH   2   3
ATOM      3  C   UNL     1      11.982 -11.567  26.287  1.00  0.00     0.000 C 
BRANCH   3   4
ATOM      4  C   UNL     1      13.202 -10.647  26.153  1.00  0.00     0.000 C 
BRANCH   4   5
ATOM      5  C   UNL     1      12.868  -9.415  25.299  1.00  0.00     0.006 C 
BRANCH   5   6
ATOM      6  C   UNL     1      11.374  -9.331  24.960  1.00  0.00     0.053 C 
BRANCH   6   7
ATOM      7  C   UNL     1      10.716  -8.168  25.639  1.00  0.00     0.041 C 
ATOM      8  O   UNL     1       9.907  -7.439  25.006  1.00  0.00    -0.550 OA
ATOM      9  O   UNL     1      10.973  -7.908  26.979  1.00  0.00    -0.550 OA
ENDBRANCH   6   7
ENDBRANCH   5   6
ENDBRANCH   4   5
ENDBRANCH   3   4
ENDBRANCH   2   3
ENDBRANCH   1   2
BRANCH   1  10
ATOM     10  C   UNL     1      12.829 -12.986  23.128  1.00  0.00     0.027 C 
BRANCH  10  11
ATOM     11  C   UNL     1      14.171 -13.168  23.780  1.00  0.00    -0.031 C 
ATOM     12  C   UNL     1      15.189 -12.329  23.537  1.00  0.00    -0.031 C 
BRANCH  12  13
ATOM     13  C   UNL     1      16.547 -12.534  24.152  1.00  0.00     0.027 C 
BRANCH  13  14
ATOM     14  C   UNL     1      16.453 -12.751  25.670  1.00  0.00     0.004 C 
BRANCH  14  15
ATOM     15  C   UNL     1      17.333 -13.899  26.204  1.00  0.00     0.000 C 
BRANCH  15  16
ATOM     16  C   UNL     1      16.565 -15.147  26.682  1.00  0.00    -0.000 C 
BRANCH  16  17
ATOM     17  C   UNL     1      15.818 -15.912  25.576  1.00  0.00    -0.003 C 
ATOM     18  C   UNL     1      14.324 -16.055  25.857  1.00  0.00     0.004 C 
ENDBRANCH  16  17
ENDBRANCH  15  16
ENDBRANCH  14  15
ENDBRANCH  13  14
ENDBRANCH  12  13
ENDBRANCH  10  11
ENDBRANCH   1  10
TORSDOF 13
ENDMDL
MODEL 9
REMARK VINA RESULT:    -4.388     12.327     15.860
REMARK INTER + INTRA:          -8.524
REMARK INTER:                  -6.807
REMARK INTRA:                  -1.717
REMARK UNBOUND:                -0.801
REMARK SMILES CCCCCCC=CCCCCCCCC(=O)[O-]
REMARK SMILES IDX 10 1 11 2 12 3 13 4 14 5 15 6 16 7 17 8 18 9 9 10 8 11 7 12
REMARK SMILES IDX 6 13 5 14 4 15 3 16 2 17 1 18
REMARK H PARENT
REMARK Flexibility Score: inf
ROOT
ATOM      1  C   UNL     1      12.112 -12.955  26.190  1.00  0.00     0.004 C 
ENDROOT
BRANCH   1   2
ATOM      2  C   UNL     1      12.474 -11.461  26.152  1.00  0.00     0.000 C 
BRANCH   2   3
ATOM      3  C   UNL     1      12.070 -10.788  24.832  1.00  0.00     0.000 C 
BRANCH   3   4
ATOM      4  C   UNL     1      11.391  -9.437  25.089  1.00  0.00     0.000 C 
BRANCH   4   5
ATOM      5  C   UNL     1      11.037  -9.275  26.575  1.00  0.00     0.006 C 
BRANCH   5   6
ATOM      6  C   UNL     1      10.042  -8.132  26.813  1.00  0.00     0.053 C 
BRANCH   6   7
ATOM      7  C   UNL     1      10.640  -6.798  26.484  1.00  0.00     0.041 C 
ATOM      8  O   UNL     1      11.561  -6.322  27.200  1.00  0.00    -0.550 OA
ATOM      9  O   UNL     1      10.202  -6.094  25.370  1.00  0.00    -0.550 OA
ENDBRANCH   6   7
ENDBRANCH   5   6
ENDBRANCH   4   5
ENDBRANCH   3   4
ENDBRANCH   2   3
ENDBRANCH   1   2
BRANCH   1  10
ATOM     10  C   UNL     1      11.961 -13.562  24.787  1.00  0.00     0.027 C 
BRANCH  10  11
ATOM     11  C   UNL     1      13.098 -14.496  24.481  1.00  0.00    -0.031 C 
ATOM     12  C   UNL     1      13.711 -15.196  25.447  1.00  0.00    -0.031 C 
BRANCH  12  13
ATOM     13  C   UNL     1      14.880 -16.097  25.151  1.00  0.00     0.027 C 
BRANCH  13  14
ATOM     14  C   UNL     1      16.094 -15.750  26.026  1.00  0.00     0.004 C 
BRANCH  14  15
ATOM     15  C   UNL     1      16.124 -14.290  26.522  1.00  0.00     0.000 C 
BRANCH  15  16
ATOM     16  C   UNL     1      17.147 -13.379  25.815  1.00  0.00    -0.000 C 
BRANCH  16  17
ATOM     17  C   UNL     1      16.761 -12.956  24.387  1.00  0.00    -0.003 C 
ATOM     18  C   UNL     1      15.691 -11.867  24.358  1.00  0.00     0.004 C 
ENDBRANCH  16  17
ENDBRANCH  15  16
ENDBRANCH  14  15
ENDBRANCH  13  14
ENDBRANCH  12  13
ENDBRANCH  10  11
ENDBRANCH   1  10
TORSDOF 13
ENDMDL
