MODEL 1
REMARK VINA RESULT:    -3.653      0.000      0.000
REMARK INTER + INTRA:          -3.933
REMARK INTER:                  -3.866
REMARK INTRA:                  -0.067
REMARK UNBOUND:                -0.067
REMARK SMILES CC(=O)c1ccccc1
REMARK SMILES IDX 4 1 5 2 6 3 7 4 8 5 9 6 2 7 1 8 3 9
REMARK H PARENT
REMARK Flexibility Score: inf
ROOT
ATOM      1  C   UNL     1      14.086  15.944  30.098  1.00  0.00     0.017 A 
ATOM      2  C   UNL     1      13.263  14.894  29.642  1.00  0.00     0.012 A 
ATOM      3  C   UNL     1      11.904  14.864  29.973  1.00  0.00     0.001 A 
ATOM      4  C   UNL     1      11.349  15.876  30.758  1.00  0.00     0.000 A 
ATOM      5  C   UNL     1      12.153  16.922  31.215  1.00  0.00     0.001 A 
ATOM      6  C   UNL     1      13.511  16.959  30.889  1.00  0.00     0.012 A 
ENDROOT
BRANCH   1   7
ATOM      7  C   UNL     1      15.534  15.995  29.758  1.00  0.00     0.159 C 
ATOM      8  C   UNL     1      16.249  17.291  29.523  1.00  0.00     0.093 C 
ATOM      9  O   UNL     1      16.191  14.922  29.661  1.00  0.00    -0.295 OA
ENDBRANCH   1   7
TORSDOF 1
ENDMDL
MODEL 2
REMARK VINA RESULT:    -3.650      1.220      1.331
REMARK INTER + INTRA:          -3.931
REMARK INTER:                  -3.863
REMARK INTRA:                  -0.067
REMARK UNBOUND:                -0.067
REMARK SMILES CC(=O)c1ccccc1
REMARK SMILES IDX 4 1 5 2 6 3 7 4 8 5 9 6 2 7 1 8 3 9
REMARK H PARENT
REMARK Flexibility Score: inf
ROOT
ATOM      1  C   UNL     1      14.195  16.514  30.244  1.00  0.00     0.017 A 
ATOM      2  C   UNL     1      14.062  15.305  29.531  1.00  0.00     0.012 A 
ATOM      3  C   UNL     1      12.836  14.633  29.494  1.00  0.00     0.001 A 
ATOM      4  C   UNL     1      11.728  15.156  30.165  1.00  0.00     0.000 A 
ATOM      5  C   UNL     1      11.845  16.353  30.874  1.00  0.00     0.001 A 
ATOM      6  C   UNL     1      13.067  17.028  30.916  1.00  0.00     0.012 A 
ENDROOT
BRANCH   1   7
ATOM      7  C   UNL     1      15.490  17.243  30.296  1.00  0.00     0.159 C 
ATOM      8  C   UNL     1      15.921  18.009  31.510  1.00  0.00     0.093 C 
ATOM      9  O   UNL     1      16.258  17.225  29.295  1.00  0.00    -0.295 OA
ENDBRANCH   1   7
TORSDOF 1
ENDMDL
MODEL 3
REMARK VINA RESULT:    -3.645      0.027      1.614
REMARK INTER + INTRA:          -3.926
REMARK INTER:                  -3.860
REMARK INTRA:                  -0.065
REMARK UNBOUND:                -0.067
REMARK SMILES CC(=O)c1ccccc1
REMARK SMILES IDX 4 1 5 2 6 3 7 4 8 5 9 6 2 7 1 8 3 9
REMARK H PARENT
REMARK Flexibility Score: inf
ROOT
ATOM      1  C   UNL     1      14.083  15.949  30.098  1.00  0.00     0.017 A 
ATOM      2  C   UNL     1      13.499  16.956  30.894  1.00  0.00     0.012 A 
ATOM      3  C   UNL     1      12.139  16.909  31.214  1.00  0.00     0.001 A 
ATOM      4  C   UNL     1      11.343  15.861  30.748  1.00  0.00     0.000 A 
ATOM      5  C   UNL     1      11.908  14.856  29.960  1.00  0.00     0.001 A 
ATOM      6  C   UNL     1      13.266  14.897  29.635  1.00  0.00     0.012 A 
ENDROOT
BRANCH   1   7
ATOM      7  C   UNL     1      15.528  15.981  29.746  1.00  0.00     0.159 C 
ATOM      8  C   UNL     1      16.247  17.265  29.463  1.00  0.00     0.093 C 
ATOM      9  O   UNL     1      16.179  14.902  29.679  1.00  0.00    -0.295 OA
ENDBRANCH   1   7
TORSDOF 1
ENDMDL
MODEL 4
REMARK VINA RESULT:    -3.589      2.272      3.872
REMARK INTER + INTRA:          -3.866
REMARK INTER:                  -3.800
REMARK INTRA:                  -0.066
REMARK UNBOUND:                -0.067
REMARK SMILES CC(=O)c1ccccc1
REMARK SMILES IDX 4 1 5 2 6 3 7 4 8 5 9 6 2 7 1 8 3 9
REMARK H PARENT
REMARK Flexibility Score: inf
ROOT
ATOM      1  C   UNL     1      12.296  15.550  30.202  1.00  0.00     0.017 A 
ATOM      2  C   UNL     1      13.299  14.881  29.471  1.00  0.00     0.012 A 
ATOM      3  C   UNL     1      14.603  15.382  29.434  1.00  0.00     0.001 A 
ATOM      4  C   UNL     1      14.927  16.553  30.123  1.00  0.00     0.000 A 
ATOM      5  C   UNL     1      13.944  17.225  30.852  1.00  0.00     0.001 A 
ATOM      6  C   UNL     1      12.638  16.730  30.893  1.00  0.00     0.012 A 
ENDROOT
BRANCH   1   7
ATOM      7  C   UNL     1      10.902  15.034  30.254  1.00  0.00     0.159 C 
ATOM      8  C   UNL     1      10.271  14.333  29.089  1.00  0.00     0.093 C 
ATOM      9  O   UNL     1      10.218  15.184  31.304  1.00  0.00    -0.295 OA
ENDBRANCH   1   7
TORSDOF 1
ENDMDL
MODEL 5
REMARK VINA RESULT:    -3.582      2.244      4.135
REMARK INTER + INTRA:          -3.858
REMARK INTER:                  -3.791
REMARK INTRA:                  -0.068
REMARK UNBOUND:                -0.067
REMARK SMILES CC(=O)c1ccccc1
REMARK SMILES IDX 4 1 5 2 6 3 7 4 8 5 9 6 2 7 1 8 3 9
REMARK H PARENT
REMARK Flexibility Score: inf
ROOT
ATOM      1  C   UNL     1      12.372  15.567  30.124  1.00  0.00     0.017 A 
ATOM      2  C   UNL     1      12.701  16.717  30.869  1.00  0.00     0.012 A 
ATOM      3  C   UNL     1      14.006  17.219  30.861  1.00  0.00     0.001 A 
ATOM      4  C   UNL     1      14.998  16.583  30.112  1.00  0.00     0.000 A 
ATOM      5  C   UNL     1      14.686  15.444  29.368  1.00  0.00     0.001 A 
ATOM      6  C   UNL     1      13.384  14.936  29.372  1.00  0.00     0.012 A 
ENDROOT
BRANCH   1   7
ATOM      7  C   UNL     1      10.989  15.017  30.119  1.00  0.00     0.159 C 
ATOM      8  C   UNL     1      10.410  14.336  28.916  1.00  0.00     0.093 C 
ATOM      9  O   UNL     1      10.272  15.120  31.152  1.00  0.00    -0.295 OA
ENDBRANCH   1   7
TORSDOF 1
ENDMDL
MODEL 6
REMARK VINA RESULT:    -3.533      1.715      2.233
REMARK INTER + INTRA:          -3.807
REMARK INTER:                  -3.739
REMARK INTRA:                  -0.068
REMARK UNBOUND:                -0.067
REMARK SMILES CC(=O)c1ccccc1
REMARK SMILES IDX 4 1 5 2 6 3 7 4 8 5 9 6 2 7 1 8 3 9
REMARK H PARENT
REMARK Flexibility Score: inf
ROOT
ATOM      1  C   UNL     1      14.471  17.220  31.176  1.00  0.00     0.017 A 
ATOM      2  C   UNL     1      13.135  17.030  30.768  1.00  0.00     0.012 A 
ATOM      3  C   UNL     1      12.132  16.790  31.712  1.00  0.00     0.001 A 
ATOM      4  C   UNL     1      12.445  16.736  33.072  1.00  0.00     0.000 A 
ATOM      5  C   UNL     1      13.763  16.923  33.490  1.00  0.00     0.001 A 
ATOM      6  C   UNL     1      14.771  17.163  32.552  1.00  0.00     0.012 A 
ENDROOT
BRANCH   1   7
ATOM      7  C   UNL     1      15.553  17.477  30.188  1.00  0.00     0.159 C 
ATOM      8  C   UNL     1      16.752  18.312  30.522  1.00  0.00     0.093 C 
ATOM      9  O   UNL     1      15.471  16.983  29.030  1.00  0.00    -0.295 OA
ENDBRANCH   1   7
TORSDOF 1
ENDMDL
MODEL 7
REMARK VINA RESULT:    -3.509      1.940      4.066
REMARK INTER + INTRA:          -3.781
REMARK INTER:                  -3.717
REMARK INTRA:                  -0.064
REMARK UNBOUND:                -0.067
REMARK SMILES CC(=O)c1ccccc1
REMARK SMILES IDX 4 1 5 2 6 3 7 4 8 5 9 6 2 7 1 8 3 9
REMARK H PARENT
REMARK Flexibility Score: inf
ROOT
ATOM      1  C   UNL     1      14.693  17.219  30.966  1.00  0.00     0.017 A 
ATOM      2  C   UNL     1      15.603  17.617  29.965  1.00  0.00     0.012 A 
ATOM      3  C   UNL     1      16.758  18.331  30.299  1.00  0.00     0.001 A 
ATOM      4  C   UNL     1      17.021  18.656  31.631  1.00  0.00     0.000 A 
ATOM      5  C   UNL     1      16.130  18.268  32.632  1.00  0.00     0.001 A 
ATOM      6  C   UNL     1      14.973  17.555  32.306  1.00  0.00     0.012 A 
ENDROOT
BRANCH   1   7
ATOM      7  C   UNL     1      13.458  16.459  30.631  1.00  0.00     0.159 C 
ATOM      8  C   UNL     1      12.110  16.873  31.139  1.00  0.00     0.093 C 
ATOM      9  O   UNL     1      13.533  15.434  29.899  1.00  0.00    -0.295 OA
ENDBRANCH   1   7
TORSDOF 1
ENDMDL
MODEL 8
REMARK VINA RESULT:    -3.500      2.132      3.771
REMARK INTER + INTRA:          -3.772
REMARK INTER:                  -3.705
REMARK INTRA:                  -0.067
REMARK UNBOUND:                -0.067
REMARK SMILES CC(=O)c1ccccc1
REMARK SMILES IDX 4 1 5 2 6 3 7 4 8 5 9 6 2 7 1 8 3 9
REMARK H PARENT
REMARK Flexibility Score: inf
ROOT
ATOM      1  C   UNL     1      12.888  16.037  30.638  1.00  0.00     0.017 A 
ATOM      2  C   UNL     1      13.426  15.068  29.767  1.00  0.00     0.012 A 
ATOM      3  C   UNL     1      14.647  15.291  29.123  1.00  0.00     0.001 A 
ATOM      4  C   UNL     1      15.347  16.480  29.339  1.00  0.00     0.000 A 
ATOM      5  C   UNL     1      14.827  17.447  30.201  1.00  0.00     0.001 A 
ATOM      6  C   UNL     1      13.607  17.231  30.846  1.00  0.00     0.012 A 
ENDROOT
BRANCH   1   7
ATOM      7  C   UNL     1      11.590  15.818  31.332  1.00  0.00     0.159 C 
ATOM      8  C   UNL     1      10.504  14.974  30.736  1.00  0.00     0.093 C 
ATOM      9  O   UNL     1      11.383  16.354  32.456  1.00  0.00    -0.295 OA
ENDBRANCH   1   7
TORSDOF 1
ENDMDL
MODEL 9
REMARK VINA RESULT:    -3.482      1.877      4.181
REMARK INTER + INTRA:          -3.753
REMARK INTER:                  -3.690
REMARK INTRA:                  -0.063
REMARK UNBOUND:                -0.067
REMARK SMILES CC(=O)c1ccccc1
REMARK SMILES IDX 4 1 5 2 6 3 7 4 8 5 9 6 2 7 1 8 3 9
REMARK H PARENT
REMARK Flexibility Score: inf
ROOT
ATOM      1  C   UNL     1      14.671  17.177  30.891  1.00  0.00     0.017 A 
ATOM      2  C   UNL     1      14.972  17.562  32.213  1.00  0.00     0.012 A 
ATOM      3  C   UNL     1      16.135  18.287  32.494  1.00  0.00     0.001 A 
ATOM      4  C   UNL     1      17.010  18.638  31.464  1.00  0.00     0.000 A 
ATOM      5  C   UNL     1      16.723  18.264  30.150  1.00  0.00     0.001 A 
ATOM      6  C   UNL     1      15.564  17.539  29.862  1.00  0.00     0.012 A 
ENDROOT
BRANCH   1   7
ATOM      7  C   UNL     1      13.440  16.406  30.571  1.00  0.00     0.159 C 
ATOM      8  C   UNL     1      12.095  16.798  31.106  1.00  0.00     0.093 C 
ATOM      9  O   UNL     1      13.515  15.387  29.830  1.00  0.00    -0.295 OA
ENDBRANCH   1   7
TORSDOF 1
ENDMDL
