MODEL 1
REMARK VINA RESULT:    -4.704      0.000      0.000
REMARK INTER + INTRA:          -6.637
REMARK INTER:                  -6.354
REMARK INTRA:                  -0.283
REMARK UNBOUND:                -0.283
REMARK SMILES C=C1C(=O)O[C@@H]2[C@@H]1CCC(C)=CCC[C@@]1(C)O[C@@H]21
REMARK SMILES IDX 6 1 7 2 2 3 1 4 3 5 4 6 5 7 8 8 9 9 10 10 11 11 12 12 18 14
REMARK SMILES IDX 15 15 17 16 16 17 14 18 13 19
REMARK H PARENT
REMARK Flexibility Score: 70.00
ROOT
ATOM      1  C   UNL     1      50.643   7.821   5.468  1.00  0.00     0.216 C 
ATOM      2  C   UNL     1      50.282   7.005   6.761  1.00  0.00     0.070 C 
ATOM      3  C   UNL     1      51.372   7.375   7.725  1.00  0.00     0.037 C 
ATOM      4  C   UNL     1      51.552   6.856   8.939  1.00  0.00     0.021 C 
ATOM      5  C   UNL     1      52.238   8.323   7.079  1.00  0.00     0.334 C 
ATOM      6  O   UNL     1      53.256   8.858   7.592  1.00  0.00    -0.247 OA
ATOM      7  O   UNL     1      51.814   8.570   5.795  1.00  0.00    -0.455 OA
ENDROOT
BRANCH   2   8
ATOM      8  C   UNL     1      48.870   7.357   7.341  1.00  0.00     0.017 C 
BRANCH   8   9
ATOM      9  C   UNL     1      47.707   6.907   6.425  1.00  0.00     0.031 C 
BRANCH   9  10
ATOM     10  C   UNL     1      47.054   8.018   5.605  1.00  0.00    -0.077 C 
ATOM     11  C   UNL     1      46.382   9.149   6.348  1.00  0.00     0.039 C 
ATOM     12  C   UNL     1      46.951   8.030   4.249  1.00  0.00    -0.028 CG0
ATOM     13  G   UNL     1      47.660   7.121   3.273  1.00  0.00     0.000 G0
ENDBRANCH   9  10
ENDBRANCH   8   9
ENDBRANCH   2   8
BRANCH   1  14
ATOM     14  C   UNL     1      50.969   6.932   4.243  1.00  0.00     0.192 C 
ATOM     15  C   UNL     1      50.248   6.960   2.923  1.00  0.00     0.096 C 
ATOM     16  O   UNL     1      51.391   7.745   3.159  1.00  0.00    -0.362 OA
ATOM     17  C   UNL     1      50.538   5.795   1.976  1.00  0.00     0.045 C 
BRANCH  15  18
ATOM     18  C   UNL     1      48.939   7.753   2.685  1.00  0.00     0.042 C 
BRANCH  18  19
ATOM     19  C   UNL     1      47.661   7.129   3.268  1.00  0.00     0.030 CG0
ATOM     20  G   UNL     1      46.943   8.025   4.249  1.00  0.00     0.000 G0
ENDBRANCH  18  19
ENDBRANCH  15  18
ENDBRANCH   1  14
TORSDOF 0
ENDMDL
MODEL 2
REMARK VINA RESULT:    -4.463      2.533      3.661
REMARK INTER + INTRA:          -6.312
REMARK INTER:                  -6.128
REMARK INTRA:                  -0.185
REMARK UNBOUND:                -0.283
REMARK SMILES C=C1C(=O)O[C@@H]2[C@@H]1CCC(C)=CCC[C@@]1(C)O[C@@H]21
REMARK SMILES IDX 6 1 7 2 2 3 1 4 3 5 4 6 5 7 8 8 9 9 10 10 11 11 12 12 18 14
REMARK SMILES IDX 15 15 17 16 16 17 14 18 13 19
REMARK H PARENT
REMARK Flexibility Score: 70.00
ROOT
ATOM      1  C   UNL     1      49.177   7.853   4.160  1.00  0.00     0.216 C 
ATOM      2  C   UNL     1      49.031   9.209   4.941  1.00  0.00     0.070 C 
ATOM      3  C   UNL     1      50.128  10.061   4.370  1.00  0.00     0.037 C 
ATOM      4  C   UNL     1      50.468  11.279   4.790  1.00  0.00     0.021 C 
ATOM      5  C   UNL     1      50.802   9.302   3.354  1.00  0.00     0.334 C 
ATOM      6  O   UNL     1      51.771   9.704   2.657  1.00  0.00    -0.247 OA
ATOM      7  O   UNL     1      50.253   8.047   3.242  1.00  0.00    -0.455 OA
ENDROOT
BRANCH   2   8
ATOM      8  C   UNL     1      47.631   9.884   4.749  1.00  0.00     0.017 C 
BRANCH   8   9
ATOM      9  C   UNL     1      46.655   9.032   3.904  1.00  0.00     0.031 C 
BRANCH   9  10
ATOM     10  C   UNL     1      45.346   8.660   4.597  1.00  0.00    -0.077 C 
ATOM     11  C   UNL     1      44.183   9.618   4.484  1.00  0.00     0.039 C 
ATOM     12  C   UNL     1      45.164   7.567   5.387  1.00  0.00    -0.028 CG0
ATOM     13  G   UNL     1      46.094   6.387   5.537  1.00  0.00     0.000 G0
ENDBRANCH   9  10
ENDBRANCH   8   9
ENDBRANCH   2   8
BRANCH   1  14
ATOM     14  C   UNL     1      49.531   6.649   5.066  1.00  0.00     0.192 C 
ATOM     15  C   UNL     1      48.621   6.023   6.087  1.00  0.00     0.096 C 
ATOM     16  O   UNL     1      48.682   5.553   4.763  1.00  0.00    -0.362 OA
ATOM     17  C   UNL     1      49.282   5.054   7.069  1.00  0.00     0.045 C 
BRANCH  15  18
ATOM     18  C   UNL     1      47.264   6.639   6.509  1.00  0.00     0.042 C 
BRANCH  18  19
ATOM     19  C   UNL     1      46.085   6.381   5.557  1.00  0.00     0.030 CG0
ATOM     20  G   UNL     1      45.169   7.570   5.392  1.00  0.00     0.000 G0
ENDBRANCH  18  19
ENDBRANCH  15  18
ENDBRANCH   1  14
TORSDOF 0
ENDMDL
MODEL 3
REMARK VINA RESULT:    -4.430      1.625      3.721
REMARK INTER + INTRA:          -6.267
REMARK INTER:                  -5.916
REMARK INTRA:                  -0.350
REMARK UNBOUND:                -0.283
REMARK SMILES C=C1C(=O)O[C@@H]2[C@@H]1CCC(C)=CCC[C@@]1(C)O[C@@H]21
REMARK SMILES IDX 6 1 7 2 2 3 1 4 3 5 4 6 5 7 8 8 9 9 10 10 11 11 12 12 18 14
REMARK SMILES IDX 15 15 17 16 16 17 14 18 13 19
REMARK H PARENT
REMARK Flexibility Score: 70.00
ROOT
ATOM      1  C   UNL     1      50.182   7.187   6.657  1.00  0.00     0.216 C 
ATOM      2  C   UNL     1      51.203   8.182   5.996  1.00  0.00     0.070 C 
ATOM      3  C   UNL     1      52.238   8.384   7.065  1.00  0.00     0.037 C 
ATOM      4  C   UNL     1      53.266   9.230   7.007  1.00  0.00     0.021 C 
ATOM      5  C   UNL     1      51.879   7.572   8.195  1.00  0.00     0.334 C 
ATOM      6  O   UNL     1      52.524   7.485   9.273  1.00  0.00    -0.247 OA
ATOM      7  O   UNL     1      50.708   6.895   7.952  1.00  0.00    -0.455 OA
ENDROOT
BRANCH   2   8
ATOM      8  C   UNL     1      51.847   7.624   4.683  1.00  0.00     0.017 C 
BRANCH   8   9
ATOM      9  C   UNL     1      50.959   7.832   3.433  1.00  0.00     0.031 C 
BRANCH   9  10
ATOM     10  C   UNL     1      50.352   6.560   2.845  1.00  0.00    -0.077 C 
ATOM     11  C   UNL     1      51.278   5.579   2.163  1.00  0.00     0.039 C 
ATOM     12  C   UNL     1      49.022   6.274   2.807  1.00  0.00    -0.028 CG0
ATOM     13  G   UNL     1      47.915   6.992   3.540  1.00  0.00     0.000 G0
ENDBRANCH   9  10
ENDBRANCH   8   9
ENDBRANCH   2   8
BRANCH   1  14
ATOM     14  C   UNL     1      48.764   7.781   6.838  1.00  0.00     0.192 C 
ATOM     15  C   UNL     1      47.530   7.343   6.098  1.00  0.00     0.096 C 
ATOM     16  O   UNL     1      47.886   6.783   7.338  1.00  0.00    -0.362 OA
ATOM     17  C   UNL     1      46.316   8.267   6.214  1.00  0.00     0.045 C 
BRANCH  15  18
ATOM     18  C   UNL     1      47.559   6.365   4.897  1.00  0.00     0.042 C 
BRANCH  18  19
ATOM     19  C   UNL     1      47.901   6.987   3.534  1.00  0.00     0.030 CG0
ATOM     20  G   UNL     1      49.022   6.279   2.810  1.00  0.00     0.000 G0
ENDBRANCH  18  19
ENDBRANCH  15  18
ENDBRANCH   1  14
TORSDOF 0
ENDMDL
MODEL 4
REMARK VINA RESULT:    -4.428     16.752     18.802
REMARK INTER + INTRA:          -6.265
REMARK INTER:                  -5.933
REMARK INTRA:                  -0.331
REMARK UNBOUND:                -0.283
REMARK SMILES C=C1C(=O)O[C@@H]2[C@@H]1CCC(C)=CCC[C@@]1(C)O[C@@H]21
REMARK SMILES IDX 6 1 7 2 2 3 1 4 3 5 4 6 5 7 8 8 9 9 10 10 11 11 12 12 18 14
REMARK SMILES IDX 15 15 17 16 16 17 14 18 13 19
REMARK H PARENT
REMARK Flexibility Score: 70.00
ROOT
ATOM      1  C   UNL     1      37.300  14.775  16.629  1.00  0.00     0.216 C 
ATOM      2  C   UNL     1      38.711  14.678  17.314  1.00  0.00     0.070 C 
ATOM      3  C   UNL     1      38.869  13.210  17.585  1.00  0.00     0.037 C 
ATOM      4  C   UNL     1      39.875  12.642  18.249  1.00  0.00     0.021 C 
ATOM      5  C   UNL     1      37.705  12.533  17.083  1.00  0.00     0.334 C 
ATOM      6  O   UNL     1      37.497  11.292  17.131  1.00  0.00    -0.247 OA
ATOM      7  O   UNL     1      36.819  13.434  16.540  1.00  0.00    -0.455 OA
ENDROOT
BRANCH   2   8
ATOM      8  C   UNL     1      39.874  15.215  16.412  1.00  0.00     0.017 C 
BRANCH   8   9
ATOM      9  C   UNL     1      40.023  16.754  16.463  1.00  0.00     0.031 C 
BRANCH   9  10
ATOM     10  C   UNL     1      39.626  17.491  15.185  1.00  0.00    -0.077 C 
ATOM     11  C   UNL     1      40.503  17.325  13.967  1.00  0.00     0.039 C 
ATOM     12  C   UNL     1      38.586  18.361  15.077  1.00  0.00    -0.028 CG0
ATOM     13  G   UNL     1      37.477  18.585  16.077  1.00  0.00     0.000 G0
ENDBRANCH   9  10
ENDBRANCH   8   9
ENDBRANCH   2   8
BRANCH   1  14
ATOM     14  C   UNL     1      36.272  15.601  17.439  1.00  0.00     0.192 C 
ATOM     15  C   UNL     1      35.697  16.929  17.030  1.00  0.00     0.096 C 
ATOM     16  O   UNL     1      35.063  15.716  16.704  1.00  0.00    -0.362 OA
ATOM     17  C   UNL     1      34.942  17.696  18.117  1.00  0.00     0.045 C 
BRANCH  15  18
ATOM     18  C   UNL     1      36.220  17.748  15.823  1.00  0.00     0.042 C 
BRANCH  18  19
ATOM     19  C   UNL     1      37.478  18.591  16.079  1.00  0.00     0.030 CG0
ATOM     20  G   UNL     1      38.576  18.365  15.068  1.00  0.00     0.000 G0
ENDBRANCH  18  19
ENDBRANCH  15  18
ENDBRANCH   1  14
TORSDOF 0
ENDMDL
MODEL 5
REMARK VINA RESULT:    -4.323     17.497     18.866
REMARK INTER + INTRA:          -6.123
REMARK INTER:                  -5.814
REMARK INTRA:                  -0.308
REMARK UNBOUND:                -0.283
REMARK SMILES C=C1C(=O)O[C@@H]2[C@@H]1CCC(C)=CCC[C@@]1(C)O[C@@H]21
REMARK SMILES IDX 6 1 7 2 2 3 1 4 3 5 4 6 5 7 8 8 9 9 10 10 11 11 12 12 18 14
REMARK SMILES IDX 15 15 17 16 16 17 14 18 13 19
REMARK H PARENT
REMARK Flexibility Score: 70.00
ROOT
ATOM      1  C   UNL     1      38.286  14.977  17.191  1.00  0.00     0.216 C 
ATOM      2  C   UNL     1      37.361  13.771  16.791  1.00  0.00     0.070 C 
ATOM      3  C   UNL     1      38.046  12.585  17.405  1.00  0.00     0.037 C 
ATOM      4  C   UNL     1      37.686  11.311  17.255  1.00  0.00     0.021 C 
ATOM      5  C   UNL     1      39.208  13.053  18.109  1.00  0.00     0.334 C 
ATOM      6  O   UNL     1      40.018  12.334  18.751  1.00  0.00    -0.247 OA
ATOM      7  O   UNL     1      39.335  14.416  17.982  1.00  0.00    -0.455 OA
ENDROOT
BRANCH   2   8
ATOM      8  C   UNL     1      35.894  13.915  17.322  1.00  0.00     0.017 C 
BRANCH   8   9
ATOM      9  C   UNL     1      35.102  15.044  16.620  1.00  0.00     0.031 C 
BRANCH   9  10
ATOM     10  C   UNL     1      34.932  16.325  17.435  1.00  0.00    -0.077 C 
ATOM     11  C   UNL     1      34.154  16.248  18.728  1.00  0.00     0.039 C 
ATOM     12  C   UNL     1      35.353  17.559  17.047  1.00  0.00    -0.028 CG0
ATOM     13  G   UNL     1      36.277  17.887  15.898  1.00  0.00     0.000 G0
ENDBRANCH   9  10
ENDBRANCH   8   9
ENDBRANCH   2   8
BRANCH   1  14
ATOM     14  C   UNL     1      38.930  15.695  15.980  1.00  0.00     0.192 C 
ATOM     15  C   UNL     1      38.756  17.147  15.630  1.00  0.00     0.096 C 
ATOM     16  O   UNL     1      39.819  16.703  16.437  1.00  0.00    -0.362 OA
ATOM     17  C   UNL     1      39.231  17.561  14.236  1.00  0.00     0.045 C 
BRANCH  15  18
ATOM     18  C   UNL     1      37.736  18.077  16.332  1.00  0.00     0.042 C 
BRANCH  18  19
ATOM     19  C   UNL     1      36.269  17.908  15.903  1.00  0.00     0.030 CG0
ATOM     20  G   UNL     1      35.341  17.561  17.043  1.00  0.00     0.000 G0
ENDBRANCH  18  19
ENDBRANCH  15  18
ENDBRANCH   1  14
TORSDOF 0
ENDMDL
MODEL 6
REMARK VINA RESULT:    -4.322      2.968      5.177
REMARK INTER + INTRA:          -6.121
REMARK INTER:                  -5.784
REMARK INTRA:                  -0.336
REMARK UNBOUND:                -0.283
REMARK SMILES C=C1C(=O)O[C@@H]2[C@@H]1CCC(C)=CCC[C@@]1(C)O[C@@H]21
REMARK SMILES IDX 6 1 7 2 2 3 1 4 3 5 4 6 5 7 8 8 9 9 10 10 11 11 12 12 18 14
REMARK SMILES IDX 15 15 17 16 16 17 14 18 13 19
REMARK H PARENT
REMARK Flexibility Score: 70.00
ROOT
ATOM      1  C   UNL     1      49.802   8.260   4.385  1.00  0.00     0.216 C 
ATOM      2  C   UNL     1      49.244   8.051   5.839  1.00  0.00     0.070 C 
ATOM      3  C   UNL     1      47.788   7.759   5.617  1.00  0.00     0.037 C 
ATOM      4  C   UNL     1      46.868   7.606   6.568  1.00  0.00     0.021 C 
ATOM      5  C   UNL     1      47.541   7.761   4.201  1.00  0.00     0.334 C 
ATOM      6  O   UNL     1      46.431   7.545   3.647  1.00  0.00    -0.247 OA
ATOM      7  O   UNL     1      48.695   8.046   3.509  1.00  0.00    -0.455 OA
ENDROOT
BRANCH   2   8
ATOM      8  C   UNL     1      49.945   6.881   6.608  1.00  0.00     0.017 C 
BRANCH   8   9
ATOM      9  C   UNL     1      50.786   7.363   7.813  1.00  0.00     0.031 C 
BRANCH   9  10
ATOM     10  C   UNL     1      52.291   7.124   7.695  1.00  0.00    -0.077 C 
ATOM     11  C   UNL     1      52.845   5.812   8.197  1.00  0.00     0.039 C 
ATOM     12  C   UNL     1      53.194   8.040   7.250  1.00  0.00    -0.028 CG0
ATOM     13  G   UNL     1      52.899   9.346   6.554  1.00  0.00     0.000 G0
ENDBRANCH   9  10
ENDBRANCH   8   9
ENDBRANCH   2   8
BRANCH   1  14
ATOM     14  C   UNL     1      50.349   9.686   4.128  1.00  0.00     0.192 C 
ATOM     15  C   UNL     1      51.772  10.128   4.331  1.00  0.00     0.096 C 
ATOM     16  O   UNL     1      51.315   9.649   3.090  1.00  0.00    -0.362 OA
ATOM     17  C   UNL     1      52.013  11.638   4.308  1.00  0.00     0.045 C 
BRANCH  15  18
ATOM     18  C   UNL     1      52.845   9.252   5.024  1.00  0.00     0.042 C 
BRANCH  18  19
ATOM     19  C   UNL     1      52.908   9.356   6.556  1.00  0.00     0.030 CG0
ATOM     20  G   UNL     1      53.190   8.040   7.241  1.00  0.00     0.000 G0
ENDBRANCH  18  19
ENDBRANCH  15  18
ENDBRANCH   1  14
TORSDOF 0
ENDMDL
MODEL 7
REMARK VINA RESULT:    -4.182      2.837      4.776
REMARK INTER + INTRA:          -5.932
REMARK INTER:                  -6.004
REMARK INTRA:                   0.072
REMARK UNBOUND:                -0.283
REMARK SMILES C=C1C(=O)O[C@@H]2[C@@H]1CCC(C)=CCC[C@@]1(C)O[C@@H]21
REMARK SMILES IDX 6 1 7 2 2 3 1 4 3 5 4 6 5 7 8 8 9 9 10 10 11 11 12 12 18 14
REMARK SMILES IDX 15 15 17 16 16 17 14 18 13 19
REMARK H PARENT
REMARK Flexibility Score: 70.00
ROOT
ATOM      1  C   UNL     1      48.133   6.267   5.273  1.00  0.00     0.216 C 
ATOM      2  C   UNL     1      48.086   7.701   5.915  1.00  0.00     0.070 C 
ATOM      3  C   UNL     1      46.627   8.052   5.883  1.00  0.00     0.037 C 
ATOM      4  C   UNL     1      46.097   9.223   6.236  1.00  0.00     0.021 C 
ATOM      5  C   UNL     1      45.910   6.938   5.326  1.00  0.00     0.334 C 
ATOM      6  O   UNL     1      44.664   6.877   5.155  1.00  0.00    -0.247 OA
ATOM      7  O   UNL     1      46.777   5.928   4.983  1.00  0.00    -0.455 OA
ENDROOT
BRANCH   2   8
ATOM      8  C   UNL     1      48.647   7.742   7.377  1.00  0.00     0.017 C 
BRANCH   8   9
ATOM      9  C   UNL     1      49.787   6.725   7.620  1.00  0.00     0.031 C 
BRANCH   9  10
ATOM     10  C   UNL     1      51.166   7.336   7.865  1.00  0.00    -0.077 C 
ATOM     11  C   UNL     1      51.600   7.563   9.294  1.00  0.00     0.039 C 
ATOM     12  C   UNL     1      52.008   7.778   6.892  1.00  0.00    -0.028 CG0
ATOM     13  G   UNL     1      51.892   7.533   5.406  1.00  0.00     0.000 G0
ENDBRANCH   9  10
ENDBRANCH   8   9
ENDBRANCH   2   8
BRANCH   1  14
ATOM     14  C   UNL     1      48.937   6.204   3.952  1.00  0.00     0.192 C 
ATOM     15  C   UNL     1      50.429   6.047   3.841  1.00  0.00     0.096 C 
ATOM     16  O   UNL     1      49.565   4.936   3.833  1.00  0.00    -0.362 OA
ATOM     17  C   UNL     1      51.030   6.315   2.461  1.00  0.00     0.045 C 
BRANCH  15  18
ATOM     18  C   UNL     1      51.387   6.131   5.056  1.00  0.00     0.042 C 
BRANCH  18  19
ATOM     19  C   UNL     1      51.902   7.536   5.406  1.00  0.00     0.030 CG0
ATOM     20  G   UNL     1      52.013   7.788   6.891  1.00  0.00     0.000 G0
ENDBRANCH  18  19
ENDBRANCH  15  18
ENDBRANCH   1  14
TORSDOF 0
ENDMDL
MODEL 8
REMARK VINA RESULT:    -4.139      3.160      5.292
REMARK INTER + INTRA:          -5.873
REMARK INTER:                  -5.530
REMARK INTRA:                  -0.343
REMARK UNBOUND:                -0.283
REMARK SMILES C=C1C(=O)O[C@@H]2[C@@H]1CCC(C)=CCC[C@@]1(C)O[C@@H]21
REMARK SMILES IDX 6 1 7 2 2 3 1 4 3 5 4 6 5 7 8 8 9 9 10 10 11 11 12 12 18 14
REMARK SMILES IDX 15 15 17 16 16 17 14 18 13 19
REMARK H PARENT
REMARK Flexibility Score: 70.00
ROOT
ATOM      1  C   UNL     1      49.676   7.655   6.385  1.00  0.00     0.216 C 
ATOM      2  C   UNL     1      49.295   7.786   4.865  1.00  0.00     0.070 C 
ATOM      3  C   UNL     1      47.820   7.503   4.848  1.00  0.00     0.037 C 
ATOM      4  C   UNL     1      47.057   7.401   3.761  1.00  0.00     0.021 C 
ATOM      5  C   UNL     1      47.392   7.273   6.200  1.00  0.00     0.334 C 
ATOM      6  O   UNL     1      46.215   7.013   6.566  1.00  0.00    -0.247 OA
ATOM      7  O   UNL     1      48.456   7.363   7.067  1.00  0.00    -0.455 OA
ENDROOT
BRANCH   2   8
ATOM      8  C   UNL     1      49.606   9.201   4.271  1.00  0.00     0.017 C 
BRANCH   8   9
ATOM      9  C   UNL     1      51.094   9.387   3.890  1.00  0.00     0.031 C 
BRANCH   9  10
ATOM     10  C   UNL     1      51.883  10.338   4.788  1.00  0.00    -0.077 C 
ATOM     11  C   UNL     1      51.534  11.807   4.749  1.00  0.00     0.039 C 
ATOM     12  C   UNL     1      52.943   9.980   5.563  1.00  0.00    -0.028 CG0
ATOM     13  G   UNL     1      53.393   8.579   5.901  1.00  0.00     0.000 G0
ENDBRANCH   9  10
ENDBRANCH   8   9
ENDBRANCH   2   8
BRANCH   1  14
ATOM     14  C   UNL     1      50.675   6.510   6.678  1.00  0.00     0.192 C 
ATOM     15  C   UNL     1      52.088   6.684   7.163  1.00  0.00     0.096 C 
ATOM     16  O   UNL     1      51.015   6.511   8.056  1.00  0.00    -0.362 OA
ATOM     17  C   UNL     1      52.978   5.442   7.091  1.00  0.00     0.045 C 
BRANCH  15  18
ATOM     18  C   UNL     1      52.799   8.057   7.240  1.00  0.00     0.042 C 
BRANCH  18  19
ATOM     19  C   UNL     1      53.388   8.583   5.922  1.00  0.00     0.030 CG0
ATOM     20  G   UNL     1      52.945   9.985   5.577  1.00  0.00     0.000 G0
ENDBRANCH  18  19
ENDBRANCH  15  18
ENDBRANCH   1  14
TORSDOF 0
ENDMDL
MODEL 9
REMARK VINA RESULT:    -4.052      2.514      4.128
REMARK INTER + INTRA:          -5.756
REMARK INTER:                  -5.411
REMARK INTRA:                  -0.345
REMARK UNBOUND:                -0.283
REMARK SMILES C=C1C(=O)O[C@@H]2[C@@H]1CCC(C)=CCC[C@@]1(C)O[C@@H]21
REMARK SMILES IDX 6 1 7 2 2 3 1 4 3 5 4 6 5 7 8 8 9 9 10 10 11 11 12 12 18 14
REMARK SMILES IDX 15 15 17 16 16 17 14 18 13 19
REMARK H PARENT
REMARK Flexibility Score: 70.00
ROOT
ATOM      1  C   UNL     1      50.080   9.414   4.976  1.00  0.00     0.216 C 
ATOM      2  C   UNL     1      51.303   8.547   4.503  1.00  0.00     0.070 C 
ATOM      3  C   UNL     1      52.269   9.565   3.970  1.00  0.00     0.037 C 
ATOM      4  C   UNL     1      53.426   9.301   3.363  1.00  0.00     0.021 C 
ATOM      5  C   UNL     1      51.691  10.868   4.148  1.00  0.00     0.334 C 
ATOM      6  O   UNL     1      52.224  11.961   3.822  1.00  0.00    -0.247 OA
ATOM      7  O   UNL     1      50.445  10.771   4.722  1.00  0.00    -0.455 OA
ENDROOT
BRANCH   2   8
ATOM      8  C   UNL     1      51.946   7.706   5.658  1.00  0.00     0.017 C 
BRANCH   8   9
ATOM      9  C   UNL     1      51.607   6.199   5.574  1.00  0.00     0.031 C 
BRANCH   9  10
ATOM     10  C   UNL     1      50.761   5.656   6.725  1.00  0.00    -0.077 C 
ATOM     11  C   UNL     1      51.466   5.254   7.998  1.00  0.00     0.039 C 
ATOM     12  C   UNL     1      49.422   5.422   6.666  1.00  0.00    -0.028 CG0
ATOM     13  G   UNL     1      48.464   5.872   5.589  1.00  0.00     0.000 G0
ENDBRANCH   9  10
ENDBRANCH   8   9
ENDBRANCH   2   8
BRANCH   1  14
ATOM     14  C   UNL     1      48.772   9.116   4.203  1.00  0.00     0.192 C 
ATOM     15  C   UNL     1      47.680   8.187   4.655  1.00  0.00     0.096 C 
ATOM     16  O   UNL     1      47.656   9.560   4.959  1.00  0.00    -0.362 OA
ATOM     17  C   UNL     1      46.636   7.816   3.600  1.00  0.00     0.045 C 
BRANCH  15  18
ATOM     18  C   UNL     1      47.817   7.241   5.874  1.00  0.00     0.042 C 
BRANCH  18  19
ATOM     19  C   UNL     1      48.454   5.871   5.592  1.00  0.00     0.030 CG0
ATOM     20  G   UNL     1      49.418   5.419   6.662  1.00  0.00     0.000 G0
ENDBRANCH  18  19
ENDBRANCH  15  18
ENDBRANCH   1  14
TORSDOF 0
ENDMDL
