MODEL 1
REMARK VINA RESULT:    -4.356      0.000      0.000
REMARK INTER + INTRA:         -12.507
REMARK INTER:                  -9.449
REMARK INTRA:                  -3.058
REMARK UNBOUND:                -3.058
REMARK SMILES CCCCCCCCCCCCCCCCCCCCCC(=O)[O-]
REMARK SMILES IDX 12 1 11 2 10 3 9 4 8 5 7 6 6 7 5 8 4 9 3 10 2 11 1 12 13 13
REMARK SMILES IDX 14 14 15 15 16 16 17 17 18 18 19 19 20 20 21 21 22 22 23 23
REMARK SMILES IDX 24 24
REMARK H PARENT
REMARK Flexibility Score: inf
ROOT
ATOM      1  C   UNL     1      50.167  -7.448 -54.305  1.00  0.00     0.000 C 
ENDROOT
BRANCH   1   2
ATOM      2  C   UNL     1      50.935  -6.144 -54.585  1.00  0.00     0.000 C 
BRANCH   2   3
ATOM      3  C   UNL     1      51.549  -6.114 -55.994  1.00  0.00     0.000 C 
BRANCH   3   4
ATOM      4  C   UNL     1      51.124  -4.875 -56.797  1.00  0.00    -0.000 C 
BRANCH   4   5
ATOM      5  C   UNL     1      49.656  -4.985 -57.238  1.00  0.00    -0.000 C 
BRANCH   5   6
ATOM      6  C   UNL     1      48.831  -3.743 -56.865  1.00  0.00    -0.000 C 
BRANCH   6   7
ATOM      7  C   UNL     1      47.699  -4.056 -55.875  1.00  0.00    -0.000 C 
BRANCH   7   8
ATOM      8  C   UNL     1      48.004  -3.464 -54.491  1.00  0.00    -0.000 C 
BRANCH   8   9
ATOM      9  C   UNL     1      46.892  -3.740 -53.465  1.00  0.00    -0.000 C 
BRANCH   9  10
ATOM     10  C   UNL     1      45.733  -4.611 -53.987  1.00  0.00    -0.000 C 
BRANCH  10  11
ATOM     11  C   UNL     1      45.309  -5.732 -53.014  1.00  0.00    -0.003 C 
ATOM     12  C   UNL     1      44.788  -5.187 -51.685  1.00  0.00     0.004 C 
ENDBRANCH  10  11
ENDBRANCH   9  10
ENDBRANCH   8   9
ENDBRANCH   7   8
ENDBRANCH   6   7
ENDBRANCH   5   6
ENDBRANCH   4   5
ENDBRANCH   3   4
ENDBRANCH   2   3
ENDBRANCH   1   2
BRANCH   1  13
ATOM     13  C   UNL     1      48.710  -7.196 -53.888  1.00  0.00     0.000 C 
BRANCH  13  14
ATOM     14  C   UNL     1      47.698  -7.647 -54.956  1.00  0.00     0.000 C 
BRANCH  14  15
ATOM     15  C   UNL     1      48.372  -8.323 -56.161  1.00  0.00     0.000 C 
BRANCH  15  16
ATOM     16  C   UNL     1      47.604  -8.095 -57.471  1.00  0.00     0.000 C 
BRANCH  16  17
ATOM     17  C   UNL     1      47.381  -9.419 -58.214  1.00  0.00     0.000 C 
BRANCH  17  18
ATOM     18  C   UNL     1      46.712 -10.457 -57.300  1.00  0.00     0.000 C 
BRANCH  18  19
ATOM     19  C   UNL     1      47.430 -11.819 -57.312  1.00  0.00     0.000 C 
BRANCH  19  20
ATOM     20  C   UNL     1      48.369 -12.068 -56.118  1.00  0.00     0.006 C 
BRANCH  20  21
ATOM     21  C   UNL     1      49.055 -13.439 -56.171  1.00  0.00     0.053 C 
BRANCH  21  22
ATOM     22  C   UNL     1      48.083 -14.523 -55.825  1.00  0.00     0.041 C 
ATOM     23  O   UNL     1      48.102 -15.615 -56.451  1.00  0.00    -0.550 OA
ATOM     24  O   UNL     1      47.188 -14.345 -54.779  1.00  0.00    -0.550 OA
ENDBRANCH  21  22
ENDBRANCH  20  21
ENDBRANCH  19  20
ENDBRANCH  18  19
ENDBRANCH  17  18
ENDBRANCH  16  17
ENDBRANCH  15  16
ENDBRANCH  14  15
ENDBRANCH  13  14
ENDBRANCH   1  13
TORSDOF 20
ENDMDL
MODEL 2
REMARK VINA RESULT:    -4.333      1.869      3.281
REMARK INTER + INTRA:         -12.457
REMARK INTER:                  -9.540
REMARK INTRA:                  -2.917
REMARK UNBOUND:                -3.058
REMARK SMILES CCCCCCCCCCCCCCCCCCCCCC(=O)[O-]
REMARK SMILES IDX 12 1 11 2 10 3 9 4 8 5 7 6 6 7 5 8 4 9 3 10 2 11 1 12 13 13
REMARK SMILES IDX 14 14 15 15 16 16 17 17 18 18 19 19 20 20 21 21 22 22 23 23
REMARK SMILES IDX 24 24
REMARK H PARENT
REMARK Flexibility Score: inf
ROOT
ATOM      1  C   UNL     1      48.543  -8.534 -55.322  1.00  0.00     0.000 C 
ENDROOT
BRANCH   1   2
ATOM      2  C   UNL     1      49.558  -7.830 -54.404  1.00  0.00     0.000 C 
BRANCH   2   3
ATOM      3  C   UNL     1      49.222  -6.346 -54.184  1.00  0.00     0.000 C 
BRANCH   3   4
ATOM      4  C   UNL     1      50.378  -5.413 -54.582  1.00  0.00    -0.000 C 
BRANCH   4   5
ATOM      5  C   UNL     1      51.583  -6.220 -55.087  1.00  0.00    -0.000 C 
BRANCH   5   6
ATOM      6  C   UNL     1      51.891  -5.961 -56.570  1.00  0.00    -0.000 C 
BRANCH   6   7
ATOM      7  C   UNL     1      51.159  -4.728 -57.122  1.00  0.00    -0.000 C 
BRANCH   7   8
ATOM      8  C   UNL     1      50.204  -5.124 -58.259  1.00  0.00    -0.000 C 
BRANCH   8   9
ATOM      9  C   UNL     1      48.819  -4.466 -58.130  1.00  0.00    -0.000 C 
BRANCH   9  10
ATOM     10  C   UNL     1      48.746  -3.304 -57.122  1.00  0.00    -0.000 C 
BRANCH  10  11
ATOM     11  C   UNL     1      47.616  -3.452 -56.081  1.00  0.00    -0.003 C 
ATOM     12  C   UNL     1      46.655  -4.592 -56.420  1.00  0.00     0.004 C 
ENDBRANCH  10  11
ENDBRANCH   9  10
ENDBRANCH   8   9
ENDBRANCH   7   8
ENDBRANCH   6   7
ENDBRANCH   5   6
ENDBRANCH   4   5
ENDBRANCH   3   4
ENDBRANCH   2   3
ENDBRANCH   1   2
BRANCH   1  13
ATOM     13  C   UNL     1      48.381  -7.824 -56.675  1.00  0.00     0.000 C 
BRANCH  13  14
ATOM     14  C   UNL     1      47.075  -8.205 -57.394  1.00  0.00     0.000 C 
BRANCH  14  15
ATOM     15  C   UNL     1      46.609  -9.631 -57.059  1.00  0.00     0.000 C 
BRANCH  15  16
ATOM     16  C   UNL     1      46.783 -10.600 -58.237  1.00  0.00     0.000 C 
BRANCH  16  17
ATOM     17  C   UNL     1      47.144 -12.007 -57.741  1.00  0.00     0.000 C 
BRANCH  17  18
ATOM     18  C   UNL     1      48.010 -11.938 -56.474  1.00  0.00     0.000 C 
BRANCH  18  19
ATOM     19  C   UNL     1      48.710 -13.271 -56.152  1.00  0.00     0.000 C 
BRANCH  19  20
ATOM     20  C   UNL     1      47.774 -14.398 -55.678  1.00  0.00     0.006 C 
BRANCH  20  21
ATOM     21  C   UNL     1      48.375 -15.796 -55.871  1.00  0.00     0.053 C 
BRANCH  21  22
ATOM     22  C   UNL     1      47.423 -16.677 -56.616  1.00  0.00     0.041 C 
ATOM     23  O   UNL     1      46.807 -16.235 -57.622  1.00  0.00    -0.550 OA
ATOM     24  O   UNL     1      47.251 -17.999 -56.229  1.00  0.00    -0.550 OA
ENDBRANCH  21  22
ENDBRANCH  20  21
ENDBRANCH  19  20
ENDBRANCH  18  19
ENDBRANCH  17  18
ENDBRANCH  16  17
ENDBRANCH  15  16
ENDBRANCH  14  15
ENDBRANCH  13  14
ENDBRANCH   1  13
TORSDOF 20
ENDMDL
MODEL 3
REMARK VINA RESULT:    -4.299      1.122      2.242
REMARK INTER + INTRA:         -12.383
REMARK INTER:                  -9.182
REMARK INTRA:                  -3.201
REMARK UNBOUND:                -3.058
REMARK SMILES CCCCCCCCCCCCCCCCCCCCCC(=O)[O-]
REMARK SMILES IDX 12 1 11 2 10 3 9 4 8 5 7 6 6 7 5 8 4 9 3 10 2 11 1 12 13 13
REMARK SMILES IDX 14 14 15 15 16 16 17 17 18 18 19 19 20 20 21 21 22 22 23 23
REMARK SMILES IDX 24 24
REMARK H PARENT
REMARK Flexibility Score: inf
ROOT
ATOM      1  C   UNL     1      48.306  -8.496 -55.265  1.00  0.00     0.000 C 
ENDROOT
BRANCH   1   2
ATOM      2  C   UNL     1      49.559  -8.058 -54.487  1.00  0.00     0.000 C 
BRANCH   2   3
ATOM      3  C   UNL     1      49.838  -6.552 -54.619  1.00  0.00     0.000 C 
BRANCH   3   4
ATOM      4  C   UNL     1      51.306  -6.250 -54.961  1.00  0.00    -0.000 C 
BRANCH   4   5
ATOM      5  C   UNL     1      51.469  -5.951 -56.459  1.00  0.00    -0.000 C 
BRANCH   5   6
ATOM      6  C   UNL     1      51.059  -4.515 -56.825  1.00  0.00    -0.000 C 
BRANCH   6   7
ATOM      7  C   UNL     1      50.093  -4.459 -58.018  1.00  0.00    -0.000 C 
BRANCH   7   8
ATOM      8  C   UNL     1      48.657  -4.187 -57.546  1.00  0.00    -0.000 C 
BRANCH   8   9
ATOM      9  C   UNL     1      48.595  -3.641 -56.109  1.00  0.00    -0.000 C 
BRANCH   9  10
ATOM     10  C   UNL     1      47.174  -3.504 -55.529  1.00  0.00    -0.000 C 
BRANCH  10  11
ATOM     11  C   UNL     1      47.110  -3.660 -53.995  1.00  0.00    -0.003 C 
ATOM     12  C   UNL     1      46.402  -4.945 -53.567  1.00  0.00     0.004 C 
ENDBRANCH  10  11
ENDBRANCH   9  10
ENDBRANCH   8   9
ENDBRANCH   7   8
ENDBRANCH   6   7
ENDBRANCH   5   6
ENDBRANCH   4   5
ENDBRANCH   3   4
ENDBRANCH   2   3
ENDBRANCH   1   2
BRANCH   1  13
ATOM     13  C   UNL     1      47.600  -7.319 -55.955  1.00  0.00     0.000 C 
BRANCH  13  14
ATOM     14  C   UNL     1      47.255  -7.610 -57.426  1.00  0.00     0.000 C 
BRANCH  14  15
ATOM     15  C   UNL     1      48.499  -7.916 -58.276  1.00  0.00     0.000 C 
BRANCH  15  16
ATOM     16  C   UNL     1      48.367  -9.226 -59.066  1.00  0.00     0.000 C 
BRANCH  16  17
ATOM     17  C   UNL     1      47.258 -10.110 -58.480  1.00  0.00     0.000 C 
BRANCH  17  18
ATOM     18  C   UNL     1      47.788 -11.516 -58.158  1.00  0.00     0.000 C 
BRANCH  18  19
ATOM     19  C   UNL     1      47.901 -11.783 -56.646  1.00  0.00     0.000 C 
BRANCH  19  20
ATOM     20  C   UNL     1      48.689 -13.050 -56.268  1.00  0.00     0.006 C 
BRANCH  20  21
ATOM     21  C   UNL     1      47.841 -14.076 -55.504  1.00  0.00     0.053 C 
BRANCH  21  22
ATOM     22  C   UNL     1      47.486 -15.226 -56.393  1.00  0.00     0.041 C 
ATOM     23  O   UNL     1      48.068 -16.334 -56.259  1.00  0.00    -0.550 OA
ATOM     24  O   UNL     1      46.478 -15.087 -57.337  1.00  0.00    -0.550 OA
ENDBRANCH  21  22
ENDBRANCH  20  21
ENDBRANCH  19  20
ENDBRANCH  18  19
ENDBRANCH  17  18
ENDBRANCH  16  17
ENDBRANCH  15  16
ENDBRANCH  14  15
ENDBRANCH  13  14
ENDBRANCH   1  13
TORSDOF 20
ENDMDL
MODEL 4
REMARK VINA RESULT:    -4.284      3.168      7.384
REMARK INTER + INTRA:         -12.351
REMARK INTER:                  -9.003
REMARK INTRA:                  -3.348
REMARK UNBOUND:                -3.058
REMARK SMILES CCCCCCCCCCCCCCCCCCCCCC(=O)[O-]
REMARK SMILES IDX 12 1 11 2 10 3 9 4 8 5 7 6 6 7 5 8 4 9 3 10 2 11 1 12 13 13
REMARK SMILES IDX 14 14 15 15 16 16 17 17 18 18 19 19 20 20 21 21 22 22 23 23
REMARK SMILES IDX 24 24
REMARK H PARENT
REMARK Flexibility Score: inf
ROOT
ATOM      1  C   UNL     1      48.615  -7.001 -53.783  1.00  0.00     0.000 C 
ENDROOT
BRANCH   1   2
ATOM      2  C   UNL     1      47.442  -7.437 -54.679  1.00  0.00     0.000 C 
BRANCH   2   3
ATOM      3  C   UNL     1      47.911  -8.187 -55.937  1.00  0.00     0.000 C 
BRANCH   3   4
ATOM      4  C   UNL     1      47.256  -7.653 -57.221  1.00  0.00    -0.000 C 
BRANCH   4   5
ATOM      5  C   UNL     1      48.276  -7.581 -58.367  1.00  0.00    -0.000 C 
BRANCH   5   6
ATOM      6  C   UNL     1      48.509  -8.943 -59.040  1.00  0.00    -0.000 C 
BRANCH   6   7
ATOM      7  C   UNL     1      47.230  -9.791 -59.125  1.00  0.00    -0.000 C 
BRANCH   7   8
ATOM      8  C   UNL     1      47.563 -11.290 -59.068  1.00  0.00    -0.000 C 
BRANCH   8   9
ATOM      9  C   UNL     1      47.162 -11.939 -57.733  1.00  0.00    -0.000 C 
BRANCH   9  10
ATOM     10  C   UNL     1      48.123 -11.658 -56.562  1.00  0.00    -0.000 C 
BRANCH  10  11
ATOM     11  C   UNL     1      48.824 -12.920 -56.015  1.00  0.00    -0.003 C 
ATOM     12  C   UNL     1      47.871 -14.107 -55.881  1.00  0.00     0.004 C 
ENDBRANCH  10  11
ENDBRANCH   9  10
ENDBRANCH   8   9
ENDBRANCH   7   8
ENDBRANCH   6   7
ENDBRANCH   5   6
ENDBRANCH   4   5
ENDBRANCH   3   4
ENDBRANCH   2   3
ENDBRANCH   1   2
BRANCH   1  13
ATOM     13  C   UNL     1      49.946  -7.642 -54.201  1.00  0.00     0.000 C 
BRANCH  13  14
ATOM     14  C   UNL     1      50.979  -6.609 -54.685  1.00  0.00     0.000 C 
BRANCH  14  15
ATOM     15  C   UNL     1      50.341  -5.254 -55.034  1.00  0.00     0.000 C 
BRANCH  15  16
ATOM     16  C   UNL     1      50.463  -4.911 -56.526  1.00  0.00     0.000 C 
BRANCH  16  17
ATOM     17  C   UNL     1      49.195  -4.215 -57.035  1.00  0.00     0.000 C 
BRANCH  17  18
ATOM     18  C   UNL     1      48.299  -3.780 -55.865  1.00  0.00     0.000 C 
BRANCH  18  19
ATOM     19  C   UNL     1      46.806  -4.059 -56.117  1.00  0.00     0.000 C 
BRANCH  19  20
ATOM     20  C   UNL     1      45.884  -3.792 -54.913  1.00  0.00     0.006 C 
BRANCH  20  21
ATOM     21  C   UNL     1      46.633  -3.791 -53.574  1.00  0.00     0.053 C 
BRANCH  21  22
ATOM     22  C   UNL     1      45.735  -4.260 -52.473  1.00  0.00     0.041 C 
ATOM     23  O   UNL     1      45.650  -5.486 -52.204  1.00  0.00    -0.550 OA
ATOM     24  O   UNL     1      45.029  -3.337 -51.713  1.00  0.00    -0.550 OA
ENDBRANCH  21  22
ENDBRANCH  20  21
ENDBRANCH  19  20
ENDBRANCH  18  19
ENDBRANCH  17  18
ENDBRANCH  16  17
ENDBRANCH  15  16
ENDBRANCH  14  15
ENDBRANCH  13  14
ENDBRANCH   1  13
TORSDOF 20
ENDMDL
MODEL 5
REMARK VINA RESULT:    -4.222      3.930      7.103
REMARK INTER + INTRA:         -12.216
REMARK INTER:                  -8.097
REMARK INTRA:                  -4.119
REMARK UNBOUND:                -3.058
REMARK SMILES CCCCCCCCCCCCCCCCCCCCCC(=O)[O-]
REMARK SMILES IDX 12 1 11 2 10 3 9 4 8 5 7 6 6 7 5 8 4 9 3 10 2 11 1 12 13 13
REMARK SMILES IDX 14 14 15 15 16 16 17 17 18 18 19 19 20 20 21 21 22 22 23 23
REMARK SMILES IDX 24 24
REMARK H PARENT
REMARK Flexibility Score: inf
ROOT
ATOM      1  C   UNL     1      50.163  -7.384 -54.684  1.00  0.00     0.000 C 
ENDROOT
BRANCH   1   2
ATOM      2  C   UNL     1      48.985  -6.915 -53.811  1.00  0.00     0.000 C 
BRANCH   2   3
ATOM      3  C   UNL     1      47.633  -7.452 -54.308  1.00  0.00     0.000 C 
BRANCH   3   4
ATOM      4  C   UNL     1      47.683  -7.910 -55.775  1.00  0.00    -0.000 C 
BRANCH   4   5
ATOM      5  C   UNL     1      46.975  -6.898 -56.688  1.00  0.00    -0.000 C 
BRANCH   5   6
ATOM      6  C   UNL     1      47.622  -6.801 -58.079  1.00  0.00    -0.000 C 
BRANCH   6   7
ATOM      7  C   UNL     1      49.033  -7.407 -58.122  1.00  0.00    -0.000 C 
BRANCH   7   8
ATOM      8  C   UNL     1      49.932  -6.630 -59.096  1.00  0.00    -0.000 C 
BRANCH   8   9
ATOM      9  C   UNL     1      51.423  -6.714 -58.727  1.00  0.00    -0.000 C 
BRANCH   9  10
ATOM     10  C   UNL     1      52.245  -5.456 -59.066  1.00  0.00    -0.000 C 
BRANCH  10  11
ATOM     11  C   UNL     1      53.290  -5.086 -57.993  1.00  0.00    -0.003 C 
ATOM     12  C   UNL     1      53.884  -3.694 -58.209  1.00  0.00     0.004 C 
ENDBRANCH  10  11
ENDBRANCH   9  10
ENDBRANCH   8   9
ENDBRANCH   7   8
ENDBRANCH   6   7
ENDBRANCH   5   6
ENDBRANCH   4   5
ENDBRANCH   3   4
ENDBRANCH   2   3
ENDBRANCH   1   2
BRANCH   1  13
ATOM     13  C   UNL     1      51.157  -6.254 -54.989  1.00  0.00     0.000 C 
BRANCH  13  14
ATOM     14  C   UNL     1      50.525  -4.856 -54.871  1.00  0.00     0.000 C 
BRANCH  14  15
ATOM     15  C   UNL     1      50.103  -4.281 -56.232  1.00  0.00     0.000 C 
BRANCH  15  16
ATOM     16  C   UNL     1      48.663  -3.747 -56.227  1.00  0.00     0.000 C 
BRANCH  16  17
ATOM     17  C   UNL     1      48.167  -3.522 -54.793  1.00  0.00     0.000 C 
BRANCH  17  18
ATOM     18  C   UNL     1      46.635  -3.412 -54.753  1.00  0.00     0.000 C 
BRANCH  18  19
ATOM     19  C   UNL     1      46.002  -4.248 -53.625  1.00  0.00     0.000 C 
BRANCH  19  20
ATOM     20  C   UNL     1      44.672  -4.932 -53.991  1.00  0.00     0.006 C 
BRANCH  20  21
ATOM     21  C   UNL     1      44.414  -6.210 -53.183  1.00  0.00     0.053 C 
BRANCH  21  22
ATOM     22  C   UNL     1      44.051  -5.871 -51.772  1.00  0.00     0.041 C 
ATOM     23  O   UNL     1      42.857  -5.611 -51.470  1.00  0.00    -0.550 OA
ATOM     24  O   UNL     1      45.024  -5.890 -50.781  1.00  0.00    -0.550 OA
ENDBRANCH  21  22
ENDBRANCH  20  21
ENDBRANCH  19  20
ENDBRANCH  18  19
ENDBRANCH  17  18
ENDBRANCH  16  17
ENDBRANCH  15  16
ENDBRANCH  14  15
ENDBRANCH  13  14
ENDBRANCH   1  13
TORSDOF 20
ENDMDL
MODEL 6
REMARK VINA RESULT:    -4.209      2.858      7.484
REMARK INTER + INTRA:         -12.188
REMARK INTER:                  -9.415
REMARK INTRA:                  -2.773
REMARK UNBOUND:                -3.058
REMARK SMILES CCCCCCCCCCCCCCCCCCCCCC(=O)[O-]
REMARK SMILES IDX 12 1 11 2 10 3 9 4 8 5 7 6 6 7 5 8 4 9 3 10 2 11 1 12 13 13
REMARK SMILES IDX 14 14 15 15 16 16 17 17 18 18 19 19 20 20 21 21 22 22 23 23
REMARK SMILES IDX 24 24
REMARK H PARENT
REMARK Flexibility Score: inf
ROOT
ATOM      1  C   UNL     1      50.309  -7.307 -54.336  1.00  0.00     0.000 C 
ENDROOT
BRANCH   1   2
ATOM      2  C   UNL     1      48.877  -7.021 -53.850  1.00  0.00     0.000 C 
BRANCH   2   3
ATOM      3  C   UNL     1      47.820  -7.315 -54.927  1.00  0.00     0.000 C 
BRANCH   3   4
ATOM      4  C   UNL     1      48.124  -8.597 -55.719  1.00  0.00    -0.000 C 
BRANCH   4   5
ATOM      5  C   UNL     1      47.947  -8.365 -57.226  1.00  0.00    -0.000 C 
BRANCH   5   6
ATOM      6  C   UNL     1      47.060  -9.430 -57.891  1.00  0.00    -0.000 C 
BRANCH   6   7
ATOM      7  C   UNL     1      47.866 -10.446 -58.714  1.00  0.00    -0.000 C 
BRANCH   7   8
ATOM      8  C   UNL     1      47.728 -11.859 -58.126  1.00  0.00    -0.000 C 
BRANCH   8   9
ATOM      9  C   UNL     1      47.998 -11.904 -56.613  1.00  0.00    -0.000 C 
BRANCH   9  10
ATOM     10  C   UNL     1      48.685 -13.190 -56.115  1.00  0.00    -0.000 C 
BRANCH  10  11
ATOM     11  C   UNL     1      47.701 -14.265 -55.607  1.00  0.00    -0.003 C 
ATOM     12  C   UNL     1      48.047 -15.663 -56.117  1.00  0.00     0.004 C 
ENDBRANCH  10  11
ENDBRANCH   9  10
ENDBRANCH   8   9
ENDBRANCH   7   8
ENDBRANCH   6   7
ENDBRANCH   5   6
ENDBRANCH   4   5
ENDBRANCH   3   4
ENDBRANCH   2   3
ENDBRANCH   1   2
BRANCH   1  13
ATOM     13  C   UNL     1      51.087  -6.024 -54.666  1.00  0.00     0.000 C 
BRANCH  13  14
ATOM     14  C   UNL     1      51.729  -6.060 -56.063  1.00  0.00     0.000 C 
BRANCH  14  15
ATOM     15  C   UNL     1      50.731  -5.718 -57.182  1.00  0.00     0.000 C 
BRANCH  15  16
ATOM     16  C   UNL     1      49.974  -4.409 -56.917  1.00  0.00     0.000 C 
BRANCH  16  17
ATOM     17  C   UNL     1      48.479  -4.565 -57.229  1.00  0.00     0.000 C 
BRANCH  17  18
ATOM     18  C   UNL     1      47.632  -3.648 -56.334  1.00  0.00     0.000 C 
BRANCH  18  19
ATOM     19  C   UNL     1      48.124  -3.611 -54.875  1.00  0.00     0.000 C 
BRANCH  19  20
ATOM     20  C   UNL     1      47.040  -3.284 -53.833  1.00  0.00     0.006 C 
BRANCH  20  21
ATOM     21  C   UNL     1      45.748  -4.084 -54.041  1.00  0.00     0.053 C 
BRANCH  21  22
ATOM     22  C   UNL     1      45.464  -4.939 -52.846  1.00  0.00     0.041 C 
ATOM     23  O   UNL     1      45.148  -6.148 -52.993  1.00  0.00    -0.550 OA
ATOM     24  O   UNL     1      45.597  -4.412 -51.569  1.00  0.00    -0.550 OA
ENDBRANCH  21  22
ENDBRANCH  20  21
ENDBRANCH  19  20
ENDBRANCH  18  19
ENDBRANCH  17  18
ENDBRANCH  16  17
ENDBRANCH  15  16
ENDBRANCH  14  15
ENDBRANCH  13  14
ENDBRANCH   1  13
TORSDOF 20
ENDMDL
MODEL 7
REMARK VINA RESULT:    -4.157      3.322      8.740
REMARK INTER + INTRA:         -12.075
REMARK INTER:                  -9.440
REMARK INTRA:                  -2.635
REMARK UNBOUND:                -3.058
REMARK SMILES CCCCCCCCCCCCCCCCCCCCCC(=O)[O-]
REMARK SMILES IDX 12 1 11 2 10 3 9 4 8 5 7 6 6 7 5 8 4 9 3 10 2 11 1 12 13 13
REMARK SMILES IDX 14 14 15 15 16 16 17 17 18 18 19 19 20 20 21 21 22 22 23 23
REMARK SMILES IDX 24 24
REMARK H PARENT
REMARK Flexibility Score: inf
ROOT
ATOM      1  C   UNL     1      47.129  -8.994 -58.350  1.00  0.00     0.000 C 
ENDROOT
BRANCH   1   2
ATOM      2  C   UNL     1      48.090  -9.967 -59.057  1.00  0.00     0.000 C 
BRANCH   2   3
ATOM      3  C   UNL     1      47.863 -11.428 -58.635  1.00  0.00     0.000 C 
BRANCH   3   4
ATOM      4  C   UNL     1      47.248 -11.548 -57.231  1.00  0.00    -0.000 C 
BRANCH   4   5
ATOM      5  C   UNL     1      48.331 -11.835 -56.181  1.00  0.00    -0.000 C 
BRANCH   5   6
ATOM      6  C   UNL     1      48.773 -13.307 -56.171  1.00  0.00    -0.000 C 
BRANCH   6   7
ATOM      7  C   UNL     1      47.639 -14.265 -55.773  1.00  0.00    -0.000 C 
BRANCH   7   8
ATOM      8  C   UNL     1      48.112 -15.726 -55.834  1.00  0.00    -0.000 C 
BRANCH   8   9
ATOM      9  C   UNL     1      47.455 -16.517 -56.977  1.00  0.00    -0.000 C 
BRANCH   9  10
ATOM     10  C   UNL     1      46.011 -16.096 -57.310  1.00  0.00    -0.000 C 
BRANCH  10  11
ATOM     11  C   UNL     1      45.781 -15.784 -58.803  1.00  0.00    -0.003 C 
ATOM     12  C   UNL     1      45.492 -14.304 -59.054  1.00  0.00     0.004 C 
ENDBRANCH  10  11
ENDBRANCH   9  10
ENDBRANCH   8   9
ENDBRANCH   7   8
ENDBRANCH   6   7
ENDBRANCH   5   6
ENDBRANCH   4   5
ENDBRANCH   3   4
ENDBRANCH   2   3
ENDBRANCH   1   2
BRANCH   1  13
ATOM     13  C   UNL     1      47.870  -7.922 -57.536  1.00  0.00     0.000 C 
BRANCH  13  14
ATOM     14  C   UNL     1      47.054  -7.418 -56.333  1.00  0.00     0.000 C 
BRANCH  14  15
ATOM     15  C   UNL     1      47.564  -7.977 -54.996  1.00  0.00     0.000 C 
BRANCH  15  16
ATOM     16  C   UNL     1      49.019  -8.463 -55.076  1.00  0.00     0.000 C 
BRANCH  16  17
ATOM     17  C   UNL     1      49.926  -7.637 -54.155  1.00  0.00     0.000 C 
BRANCH  17  18
ATOM     18  C   UNL     1      50.591  -6.487 -54.926  1.00  0.00     0.000 C 
BRANCH  18  19
ATOM     19  C   UNL     1      50.140  -5.098 -54.438  1.00  0.00     0.000 C 
BRANCH  19  20
ATOM     20  C   UNL     1      48.974  -4.478 -55.230  1.00  0.00     0.006 C 
BRANCH  20  21
ATOM     21  C   UNL     1      48.090  -3.560 -54.376  1.00  0.00     0.053 C 
BRANCH  21  22
ATOM     22  C   UNL     1      46.711  -4.127 -54.256  1.00  0.00     0.041 C 
ATOM     23  O   UNL     1      46.472  -5.041 -53.424  1.00  0.00    -0.550 OA
ATOM     24  O   UNL     1      45.679  -3.613 -55.030  1.00  0.00    -0.550 OA
ENDBRANCH  21  22
ENDBRANCH  20  21
ENDBRANCH  19  20
ENDBRANCH  18  19
ENDBRANCH  17  18
ENDBRANCH  16  17
ENDBRANCH  15  16
ENDBRANCH  14  15
ENDBRANCH  13  14
ENDBRANCH   1  13
TORSDOF 20
ENDMDL
MODEL 8
REMARK VINA RESULT:    -4.139      3.555      6.819
REMARK INTER + INTRA:         -12.037
REMARK INTER:                  -8.113
REMARK INTRA:                  -3.923
REMARK UNBOUND:                -3.058
REMARK SMILES CCCCCCCCCCCCCCCCCCCCCC(=O)[O-]
REMARK SMILES IDX 12 1 11 2 10 3 9 4 8 5 7 6 6 7 5 8 4 9 3 10 2 11 1 12 13 13
REMARK SMILES IDX 14 14 15 15 16 16 17 17 18 18 19 19 20 20 21 21 22 22 23 23
REMARK SMILES IDX 24 24
REMARK H PARENT
REMARK Flexibility Score: inf
ROOT
ATOM      1  C   UNL     1      48.260  -8.697 -55.496  1.00  0.00     0.000 C 
ENDROOT
BRANCH   1   2
ATOM      2  C   UNL     1      47.836  -7.644 -54.456  1.00  0.00     0.000 C 
BRANCH   2   3
ATOM      3  C   UNL     1      49.037  -7.018 -53.730  1.00  0.00     0.000 C 
BRANCH   3   4
ATOM      4  C   UNL     1      50.384  -7.530 -54.265  1.00  0.00    -0.000 C 
BRANCH   4   5
ATOM      5  C   UNL     1      51.176  -6.395 -54.931  1.00  0.00    -0.000 C 
BRANCH   5   6
ATOM      6  C   UNL     1      50.480  -5.030 -54.801  1.00  0.00    -0.000 C 
BRANCH   6   7
ATOM      7  C   UNL     1      50.221  -4.363 -56.160  1.00  0.00    -0.000 C 
BRANCH   7   8
ATOM      8  C   UNL     1      49.782  -5.402 -57.204  1.00  0.00    -0.000 C 
BRANCH   8   9
ATOM      9  C   UNL     1      50.617  -5.340 -58.494  1.00  0.00    -0.000 C 
BRANCH   9  10
ATOM     10  C   UNL     1      51.496  -6.577 -58.757  1.00  0.00    -0.000 C 
BRANCH  10  11
ATOM     11  C   UNL     1      53.010  -6.302 -58.643  1.00  0.00    -0.003 C 
ATOM     12  C   UNL     1      53.313  -4.870 -58.203  1.00  0.00     0.004 C 
ENDBRANCH  10  11
ENDBRANCH   9  10
ENDBRANCH   8   9
ENDBRANCH   7   8
ENDBRANCH   6   7
ENDBRANCH   5   6
ENDBRANCH   4   5
ENDBRANCH   3   4
ENDBRANCH   2   3
ENDBRANCH   1   2
BRANCH   1  13
ATOM     13  C   UNL     1      47.196  -8.913 -56.583  1.00  0.00     0.000 C 
BRANCH  13  14
ATOM     14  C   UNL     1      47.470  -8.095 -57.857  1.00  0.00     0.000 C 
BRANCH  14  15
ATOM     15  C   UNL     1      46.518  -6.898 -58.007  1.00  0.00     0.000 C 
BRANCH  15  16
ATOM     16  C   UNL     1      45.341  -6.953 -57.023  1.00  0.00     0.000 C 
BRANCH  16  17
ATOM     17  C   UNL     1      45.279  -5.679 -56.169  1.00  0.00     0.000 C 
BRANCH  17  18
ATOM     18  C   UNL     1      46.405  -4.706 -56.552  1.00  0.00     0.000 C 
BRANCH  18  19
ATOM     19  C   UNL     1      46.557  -3.542 -55.555  1.00  0.00     0.000 C 
BRANCH  19  20
ATOM     20  C   UNL     1      47.031  -3.951 -54.148  1.00  0.00     0.006 C 
BRANCH  20  21
ATOM     21  C   UNL     1      46.179  -3.340 -53.028  1.00  0.00     0.053 C 
BRANCH  21  22
ATOM     22  C   UNL     1      45.500  -4.416 -52.242  1.00  0.00     0.041 C 
ATOM     23  O   UNL     1      45.573  -5.616 -52.615  1.00  0.00    -0.550 OA
ATOM     24  O   UNL     1      44.826  -4.100 -51.070  1.00  0.00    -0.550 OA
ENDBRANCH  21  22
ENDBRANCH  20  21
ENDBRANCH  19  20
ENDBRANCH  18  19
ENDBRANCH  17  18
ENDBRANCH  16  17
ENDBRANCH  15  16
ENDBRANCH  14  15
ENDBRANCH  13  14
ENDBRANCH   1  13
TORSDOF 20
ENDMDL
MODEL 9
REMARK VINA RESULT:    -4.080      3.535      6.879
REMARK INTER + INTRA:         -11.909
REMARK INTER:                  -8.130
REMARK INTRA:                  -3.779
REMARK UNBOUND:                -3.058
REMARK SMILES CCCCCCCCCCCCCCCCCCCCCC(=O)[O-]
REMARK SMILES IDX 12 1 11 2 10 3 9 4 8 5 7 6 6 7 5 8 4 9 3 10 2 11 1 12 13 13
REMARK SMILES IDX 14 14 15 15 16 16 17 17 18 18 19 19 20 20 21 21 22 22 23 23
REMARK SMILES IDX 24 24
REMARK H PARENT
REMARK Flexibility Score: inf
ROOT
ATOM      1  C   UNL     1      52.155  -5.718 -56.688  1.00  0.00     0.000 C 
ENDROOT
BRANCH   1   2
ATOM      2  C   UNL     1      51.753  -6.248 -55.300  1.00  0.00     0.000 C 
BRANCH   2   3
ATOM      3  C   UNL     1      50.623  -5.424 -54.660  1.00  0.00     0.000 C 
BRANCH   3   4
ATOM      4  C   UNL     1      49.435  -6.294 -54.218  1.00  0.00    -0.000 C 
BRANCH   4   5
ATOM      5  C   UNL     1      49.688  -7.774 -54.544  1.00  0.00    -0.000 C 
BRANCH   5   6
ATOM      6  C   UNL     1      48.522  -8.421 -55.308  1.00  0.00    -0.000 C 
BRANCH   6   7
ATOM      7  C   UNL     1      47.156  -7.842 -54.909  1.00  0.00    -0.000 C 
BRANCH   7   8
ATOM      8  C   UNL     1      46.140  -8.001 -56.051  1.00  0.00    -0.000 C 
BRANCH   8   9
ATOM      9  C   UNL     1      46.408  -9.243 -56.918  1.00  0.00    -0.000 C 
BRANCH   9  10
ATOM     10  C   UNL     1      46.590  -8.956 -58.421  1.00  0.00    -0.000 C 
BRANCH  10  11
ATOM     11  C   UNL     1      47.830  -9.636 -59.039  1.00  0.00    -0.003 C 
ATOM     12  C   UNL     1      47.922 -11.119 -58.682  1.00  0.00     0.004 C 
ENDBRANCH  10  11
ENDBRANCH   9  10
ENDBRANCH   8   9
ENDBRANCH   7   8
ENDBRANCH   6   7
ENDBRANCH   5   6
ENDBRANCH   4   5
ENDBRANCH   3   4
ENDBRANCH   2   3
ENDBRANCH   1   2
BRANCH   1  13
ATOM     13  C   UNL     1      50.956  -5.177 -57.482  1.00  0.00     0.000 C 
BRANCH  13  14
ATOM     14  C   UNL     1      50.062  -6.295 -58.046  1.00  0.00     0.000 C 
BRANCH  14  15
ATOM     15  C   UNL     1      48.569  -5.929 -58.018  1.00  0.00     0.000 C 
BRANCH  15  16
ATOM     16  C   UNL     1      48.316  -4.527 -57.445  1.00  0.00     0.000 C 
BRANCH  16  17
ATOM     17  C   UNL     1      47.034  -4.502 -56.602  1.00  0.00     0.000 C 
BRANCH  17  18
ATOM     18  C   UNL     1      46.961  -3.224 -55.752  1.00  0.00     0.000 C 
BRANCH  18  19
ATOM     19  C   UNL     1      47.469  -3.431 -54.313  1.00  0.00     0.000 C 
BRANCH  19  20
ATOM     20  C   UNL     1      46.372  -3.438 -53.232  1.00  0.00     0.006 C 
BRANCH  20  21
ATOM     21  C   UNL     1      45.873  -4.849 -52.896  1.00  0.00     0.053 C 
BRANCH  21  22
ATOM     22  C   UNL     1      45.151  -4.850 -51.585  1.00  0.00     0.041 C 
ATOM     23  O   UNL     1      44.063  -4.229 -51.461  1.00  0.00    -0.550 OA
ATOM     24  O   UNL     1      45.656  -5.576 -50.515  1.00  0.00    -0.550 OA
ENDBRANCH  21  22
ENDBRANCH  20  21
ENDBRANCH  19  20
ENDBRANCH  18  19
ENDBRANCH  17  18
ENDBRANCH  16  17
ENDBRANCH  15  16
ENDBRANCH  14  15
ENDBRANCH  13  14
ENDBRANCH   1  13
TORSDOF 20
ENDMDL
