MODEL 1
REMARK VINA RESULT:    -8.736      0.000      0.000
REMARK INTER + INTRA:         -10.896
REMARK INTER:                 -10.524
REMARK INTRA:                  -0.372
REMARK UNBOUND:                -0.372
REMARK SMILES O=c1c(O)c(-c2ccc(O)cc2O)oc2cc(O)cc(O)c12
REMARK SMILES IDX 5 1 3 2 2 3 1 4 22 5 20 6 19 7 17 8 16 9 15 10 14 11 6 12
REMARK SMILES IDX 8 13 7 14 9 15 11 16 12 17 10 18 13 20 4 22 21 24 18 26
REMARK H PARENT 10 19 13 21 4 23 21 25 18 27
REMARK Flexibility Score: inf
ROOT
ATOM      1  C   UNL     1     -22.260  70.438   3.043  1.00  0.00     0.184 A 
ATOM      2  C   UNL     1     -22.534  70.297   4.415  1.00  0.00     0.208 A 
ATOM      3  C   UNL     1     -21.804  69.358   5.159  1.00  0.00     0.238 A 
ATOM      4  O   UNL     1     -22.044  69.221   6.390  1.00  0.00    -0.285 OA
ATOM      5  C   UNL     1     -20.812  68.584   4.523  1.00  0.00     0.111 A 
ATOM      6  C   UNL     1     -20.030  67.618   5.201  1.00  0.00     0.134 A 
ATOM      7  C   UNL     1     -19.058  66.890   4.497  1.00  0.00     0.093 A 
ATOM      8  C   UNL     1     -18.854  67.109   3.133  1.00  0.00     0.123 A 
ATOM      9  C   UNL     1     -19.623  68.061   2.457  1.00  0.00     0.094 A 
ATOM     10  C   UNL     1     -20.597  68.797   3.140  1.00  0.00     0.146 A 
ATOM     11  O   UNL     1     -21.316  69.694   2.475  1.00  0.00    -0.451 OA
ENDROOT
BRANCH   1  12
ATOM     12  C   UNL     1     -23.007  71.398   2.203  1.00  0.00     0.063 A 
ATOM     13  C   UNL     1     -23.376  73.696   1.492  1.00  0.00     0.047 A 
ATOM     14  C   UNL     1     -22.653  72.759   2.232  1.00  0.00     0.020 A 
ATOM     15  C   UNL     1     -24.466  73.290   0.718  1.00  0.00     0.119 A 
ATOM     16  C   UNL     1     -24.829  71.939   0.684  1.00  0.00     0.093 A 
ATOM     17  C   UNL     1     -24.106  70.987   1.414  1.00  0.00     0.130 A 
BRANCH  15  18
ATOM     18  O   UNL     1     -25.181  74.237  -0.011  1.00  0.00    -0.508 OA
ATOM     19  H   UNL     1     -24.725  74.839  -0.688  1.00  0.00     0.293 HD
ENDBRANCH  15  18
BRANCH  17  20
ATOM     20  O   UNL     1     -24.490  69.648   1.315  1.00  0.00    -0.507 OA
ATOM     21  H   UNL     1     -24.088  69.007   0.644  1.00  0.00     0.293 HD
ENDBRANCH  17  20
ENDBRANCH   1  12
BRANCH   2  22
ATOM     22  O   UNL     1     -23.507  71.096   5.019  1.00  0.00    -0.502 OA
ATOM     23  H   UNL     1     -23.888  71.919   4.570  1.00  0.00     0.293 HD
ENDBRANCH   2  22
BRANCH   6  24
ATOM     24  O   UNL     1     -20.209  67.376   6.564  1.00  0.00    -0.507 OA
ATOM     25  H   UNL     1     -19.986  68.075   7.263  1.00  0.00     0.293 HD
ENDBRANCH   6  24
BRANCH   8  26
ATOM     26  O   UNL     1     -17.883  66.373   2.457  1.00  0.00    -0.508 OA
ATOM     27  H   UNL     1     -17.022  66.801   2.136  1.00  0.00     0.293 HD
ENDBRANCH   8  26
TORSDOF 6
ENDMDL
MODEL 2
REMARK VINA RESULT:    -8.089      1.862      6.898
REMARK INTER + INTRA:         -10.116
REMARK INTER:                  -9.711
REMARK INTRA:                  -0.405
REMARK UNBOUND:                -0.372
REMARK SMILES O=c1c(O)c(-c2ccc(O)cc2O)oc2cc(O)cc(O)c12
REMARK SMILES IDX 5 1 3 2 2 3 1 4 22 5 20 6 19 7 17 8 16 9 15 10 14 11 6 12
REMARK SMILES IDX 8 13 7 14 9 15 11 16 12 17 10 18 13 20 4 22 21 24 18 26
REMARK H PARENT 10 19 13 21 4 23 21 25 18 27
REMARK Flexibility Score: inf
ROOT
ATOM      1  C   UNL     1     -21.018  68.437   4.232  1.00  0.00     0.184 A 
ATOM      2  C   UNL     1     -21.977  67.606   3.628  1.00  0.00     0.208 A 
ATOM      3  C   UNL     1     -22.960  68.186   2.813  1.00  0.00     0.238 A 
ATOM      4  O   UNL     1     -23.828  67.450   2.269  1.00  0.00    -0.285 OA
ATOM      5  C   UNL     1     -22.962  69.581   2.609  1.00  0.00     0.111 A 
ATOM      6  C   UNL     1     -23.916  70.245   1.800  1.00  0.00     0.134 A 
ATOM      7  C   UNL     1     -23.848  71.638   1.645  1.00  0.00     0.093 A 
ATOM      8  C   UNL     1     -22.848  72.377   2.280  1.00  0.00     0.123 A 
ATOM      9  C   UNL     1     -21.904  71.729   3.081  1.00  0.00     0.094 A 
ATOM     10  C   UNL     1     -21.955  70.341   3.250  1.00  0.00     0.146 A 
ATOM     11  O   UNL     1     -21.046  69.749   4.017  1.00  0.00    -0.451 OA
ENDROOT
BRANCH   1  12
ATOM     12  C   UNL     1     -19.968  67.887   5.115  1.00  0.00     0.063 A 
ATOM     13  C   UNL     1     -19.158  67.453   7.368  1.00  0.00     0.047 A 
ATOM     14  C   UNL     1     -20.156  67.916   6.509  1.00  0.00     0.020 A 
ATOM     15  C   UNL     1     -17.957  66.962   6.852  1.00  0.00     0.119 A 
ATOM     16  C   UNL     1     -17.758  66.931   5.466  1.00  0.00     0.093 A 
ATOM     17  C   UNL     1     -18.755  67.382   4.592  1.00  0.00     0.130 A 
BRANCH  15  18
ATOM     18  O   UNL     1     -16.969  66.509   7.722  1.00  0.00    -0.508 OA
ATOM     19  H   UNL     1     -16.889  65.529   7.968  1.00  0.00     0.293 HD
ENDBRANCH  15  18
BRANCH  17  20
ATOM     20  O   UNL     1     -18.518  67.294   3.219  1.00  0.00    -0.507 OA
ATOM     21  H   UNL     1     -19.123  67.716   2.526  1.00  0.00     0.293 HD
ENDBRANCH  17  20
ENDBRANCH   1  12
BRANCH   2  22
ATOM     22  O   UNL     1     -21.933  66.225   3.831  1.00  0.00    -0.502 OA
ATOM     23  H   UNL     1     -22.492  65.579   3.287  1.00  0.00     0.293 HD
ENDBRANCH   2  22
BRANCH   6  24
ATOM     24  O   UNL     1     -24.927  69.534   1.151  1.00  0.00    -0.507 OA
ATOM     25  H   UNL     1     -25.906  69.694   1.355  1.00  0.00     0.293 HD
ENDBRANCH   6  24
BRANCH   8  26
ATOM     26  O   UNL     1     -22.803  73.760   2.109  1.00  0.00    -0.508 OA
ATOM     27  H   UNL     1     -21.924  74.264   2.099  1.00  0.00     0.293 HD
ENDBRANCH   8  26
TORSDOF 6
ENDMDL
MODEL 3
REMARK VINA RESULT:    -7.750      1.558      3.356
REMARK INTER + INTRA:          -9.707
REMARK INTER:                  -9.447
REMARK INTRA:                  -0.260
REMARK UNBOUND:                -0.372
REMARK SMILES O=c1c(O)c(-c2ccc(O)cc2O)oc2cc(O)cc(O)c12
REMARK SMILES IDX 5 1 3 2 2 3 1 4 22 5 20 6 19 7 17 8 16 9 15 10 14 11 6 12
REMARK SMILES IDX 8 13 7 14 9 15 11 16 12 17 10 18 13 20 4 22 21 24 18 26
REMARK H PARENT 10 19 13 21 4 23 21 25 18 27
REMARK Flexibility Score: inf
ROOT
ATOM      1  C   UNL     1     -22.533  70.914   2.398  1.00  0.00     0.184 A 
ATOM      2  C   UNL     1     -21.665  69.993   1.787  1.00  0.00     0.208 A 
ATOM      3  C   UNL     1     -20.936  69.109   2.597  1.00  0.00     0.238 A 
ATOM      4  O   UNL     1     -20.151  68.280   2.060  1.00  0.00    -0.285 OA
ATOM      5  C   UNL     1     -21.093  69.156   3.997  1.00  0.00     0.111 A 
ATOM      6  C   UNL     1     -20.398  68.299   4.885  1.00  0.00     0.134 A 
ATOM      7  C   UNL     1     -20.613  68.407   6.267  1.00  0.00     0.093 A 
ATOM      8  C   UNL     1     -21.506  69.351   6.778  1.00  0.00     0.123 A 
ATOM      9  C   UNL     1     -22.195  70.201   5.908  1.00  0.00     0.094 A 
ATOM     10  C   UNL     1     -21.995  70.111   4.526  1.00  0.00     0.146 A 
ATOM     11  O   UNL     1     -22.660  70.931   3.721  1.00  0.00    -0.451 OA
ENDROOT
BRANCH   1  12
ATOM     12  C   UNL     1     -23.314  71.882   1.599  1.00  0.00     0.063 A 
ATOM     13  C   UNL     1     -24.876  72.302  -0.220  1.00  0.00     0.047 A 
ATOM     14  C   UNL     1     -24.169  71.408   0.587  1.00  0.00     0.020 A 
ATOM     15  C   UNL     1     -24.737  73.680  -0.033  1.00  0.00     0.119 A 
ATOM     16  C   UNL     1     -23.887  74.162   0.969  1.00  0.00     0.093 A 
ATOM     17  C   UNL     1     -23.180  73.276   1.792  1.00  0.00     0.130 A 
BRANCH  15  18
ATOM     18  O   UNL     1     -25.446  74.558  -0.849  1.00  0.00    -0.508 OA
ATOM     19  H   UNL     1     -26.261  75.055  -0.509  1.00  0.00     0.293 HD
ENDBRANCH  15  18
BRANCH  17  20
ATOM     20  O   UNL     1     -22.374  73.812   2.799  1.00  0.00    -0.507 OA
ATOM     21  H   UNL     1     -22.532  73.639   3.783  1.00  0.00     0.293 HD
ENDBRANCH  17  20
ENDBRANCH   1  12
BRANCH   2  22
ATOM     22  O   UNL     1     -21.549  69.956   0.396  1.00  0.00    -0.502 OA
ATOM     23  H   UNL     1     -20.762  69.525  -0.071  1.00  0.00     0.293 HD
ENDBRANCH   2  22
BRANCH   6  24
ATOM     24  O   UNL     1     -19.500  67.345   4.405  1.00  0.00    -0.507 OA
ATOM     25  H   UNL     1     -18.969  67.493   3.555  1.00  0.00     0.293 HD
ENDBRANCH   6  24
BRANCH   8  26
ATOM     26  O   UNL     1     -21.701  69.436   8.155  1.00  0.00    -0.508 OA
ATOM     27  H   UNL     1     -22.433  68.912   8.620  1.00  0.00     0.293 HD
ENDBRANCH   8  26
TORSDOF 6
ENDMDL
MODEL 4
REMARK VINA RESULT:    -7.487      1.552      6.814
REMARK INTER + INTRA:          -9.391
REMARK INTER:                  -9.120
REMARK INTRA:                  -0.271
REMARK UNBOUND:                -0.372
REMARK SMILES O=c1c(O)c(-c2ccc(O)cc2O)oc2cc(O)cc(O)c12
REMARK SMILES IDX 5 1 3 2 2 3 1 4 22 5 20 6 19 7 17 8 16 9 15 10 14 11 6 12
REMARK SMILES IDX 8 13 7 14 9 15 11 16 12 17 10 18 13 20 4 22 21 24 18 26
REMARK H PARENT 10 19 13 21 4 23 21 25 18 27
REMARK Flexibility Score: inf
ROOT
ATOM      1  C   UNL     1     -21.679  69.507   3.437  1.00  0.00     0.184 A 
ATOM      2  C   UNL     1     -22.545  68.903   2.509  1.00  0.00     0.208 A 
ATOM      3  C   UNL     1     -23.355  69.719   1.706  1.00  0.00     0.238 A 
ATOM      4  O   UNL     1     -24.138  69.188   0.873  1.00  0.00    -0.285 OA
ATOM      5  C   UNL     1     -23.280  71.121   1.839  1.00  0.00     0.111 A 
ATOM      6  C   UNL     1     -24.059  72.016   1.067  1.00  0.00     0.134 A 
ATOM      7  C   UNL     1     -23.924  73.399   1.257  1.00  0.00     0.093 A 
ATOM      8  C   UNL     1     -23.027  73.904   2.200  1.00  0.00     0.123 A 
ATOM      9  C   UNL     1     -22.254  73.027   2.967  1.00  0.00     0.094 A 
ATOM     10  C   UNL     1     -22.375  71.644   2.794  1.00  0.00     0.146 A 
ATOM     11  O   UNL     1     -21.631  70.832   3.536  1.00  0.00    -0.451 OA
ENDROOT
BRANCH   1  12
ATOM     12  C   UNL     1     -20.814  68.699   4.322  1.00  0.00     0.063 A 
ATOM     13  C   UNL     1     -20.152  68.067   6.578  1.00  0.00     0.047 A 
ATOM     14  C   UNL     1     -20.991  68.776   5.716  1.00  0.00     0.020 A 
ATOM     15  C   UNL     1     -19.122  67.276   6.064  1.00  0.00     0.119 A 
ATOM     16  C   UNL     1     -18.936  67.193   4.679  1.00  0.00     0.093 A 
ATOM     17  C   UNL     1     -19.776  67.892   3.803  1.00  0.00     0.130 A 
BRANCH  15  18
ATOM     18  O   UNL     1     -18.291  66.578   6.936  1.00  0.00    -0.508 OA
ATOM     19  H   UNL     1     -18.662  66.088   7.742  1.00  0.00     0.293 HD
ENDBRANCH  15  18
BRANCH  17  20
ATOM     20  O   UNL     1     -19.567  67.745   2.429  1.00  0.00    -0.507 OA
ATOM     21  H   UNL     1     -19.448  66.845   1.982  1.00  0.00     0.293 HD
ENDBRANCH  17  20
ENDBRANCH   1  12
BRANCH   2  22
ATOM     22  O   UNL     1     -22.578  67.512   2.386  1.00  0.00    -0.502 OA
ATOM     23  H   UNL     1     -23.208  67.039   1.749  1.00  0.00     0.293 HD
ENDBRANCH   2  22
BRANCH   6  24
ATOM     24  O   UNL     1     -24.965  71.542   0.116  1.00  0.00    -0.507 OA
ATOM     25  H   UNL     1     -24.690  70.876  -0.596  1.00  0.00     0.293 HD
ENDBRANCH   6  24
BRANCH   8  26
ATOM     26  O   UNL     1     -22.911  75.283   2.368  1.00  0.00    -0.508 OA
ATOM     27  H   UNL     1     -22.188  75.687   2.952  1.00  0.00     0.293 HD
ENDBRANCH   8  26
TORSDOF 6
ENDMDL
MODEL 5
REMARK VINA RESULT:    -7.457      1.475      3.131
REMARK INTER + INTRA:          -9.354
REMARK INTER:                  -8.984
REMARK INTRA:                  -0.371
REMARK UNBOUND:                -0.372
REMARK SMILES O=c1c(O)c(-c2ccc(O)cc2O)oc2cc(O)cc(O)c12
REMARK SMILES IDX 5 1 3 2 2 3 1 4 22 5 20 6 19 7 17 8 16 9 15 10 14 11 6 12
REMARK SMILES IDX 8 13 7 14 9 15 11 16 12 17 10 18 13 20 4 22 21 24 18 26
REMARK H PARENT 10 19 13 21 4 23 21 25 18 27
REMARK Flexibility Score: inf
ROOT
ATOM      1  C   UNL     1     -21.932  70.260   2.072  1.00  0.00     0.184 A 
ATOM      2  C   UNL     1     -20.688  70.019   1.464  1.00  0.00     0.208 A 
ATOM      3  C   UNL     1     -19.860  69.014   1.989  1.00  0.00     0.238 A 
ATOM      4  O   UNL     1     -18.740  68.791   1.454  1.00  0.00    -0.285 OA
ATOM      5  C   UNL     1     -20.294  68.266   3.103  1.00  0.00     0.111 A 
ATOM      6  C   UNL     1     -19.523  67.235   3.691  1.00  0.00     0.134 A 
ATOM      7  C   UNL     1     -20.026  66.533   4.797  1.00  0.00     0.093 A 
ATOM      8  C   UNL     1     -21.282  66.842   5.324  1.00  0.00     0.123 A 
ATOM      9  C   UNL     1     -22.049  67.860   4.749  1.00  0.00     0.094 A 
ATOM     10  C   UNL     1     -21.564  68.571   3.646  1.00  0.00     0.146 A 
ATOM     11  O   UNL     1     -22.312  69.535   3.119  1.00  0.00    -0.451 OA
ENDROOT
BRANCH   1  12
ATOM     12  C   UNL     1     -22.839  71.316   1.575  1.00  0.00     0.063 A 
ATOM     13  C   UNL     1     -24.468  72.057  -0.075  1.00  0.00     0.047 A 
ATOM     14  C   UNL     1     -23.643  71.059   0.449  1.00  0.00     0.020 A 
ATOM     15  C   UNL     1     -24.499  73.324   0.511  1.00  0.00     0.119 A 
ATOM     16  C   UNL     1     -23.701  73.591   1.630  1.00  0.00     0.093 A 
ATOM     17  C   UNL     1     -22.877  72.597   2.172  1.00  0.00     0.130 A 
BRANCH  15  18
ATOM     18  O   UNL     1     -25.323  74.309  -0.026  1.00  0.00    -0.508 OA
ATOM     19  H   UNL     1     -25.778  74.188  -0.924  1.00  0.00     0.293 HD
ENDBRANCH  15  18
BRANCH  17  20
ATOM     20  O   UNL     1     -22.129  72.907   3.310  1.00  0.00    -0.507 OA
ATOM     21  H   UNL     1     -22.296  72.483   4.213  1.00  0.00     0.293 HD
ENDBRANCH  17  20
ENDBRANCH   1  12
BRANCH   2  22
ATOM     22  O   UNL     1     -20.298  70.761   0.347  1.00  0.00    -0.502 OA
ATOM     23  H   UNL     1     -19.545  71.437   0.382  1.00  0.00     0.293 HD
ENDBRANCH   2  22
BRANCH   6  24
ATOM     24  O   UNL     1     -18.264  66.902   3.187  1.00  0.00    -0.507 OA
ATOM     25  H   UNL     1     -17.601  66.357   3.725  1.00  0.00     0.293 HD
ENDBRANCH   6  24
BRANCH   8  26
ATOM     26  O   UNL     1     -21.759  66.130   6.423  1.00  0.00    -0.508 OA
ATOM     27  H   UNL     1     -21.263  66.124   7.306  1.00  0.00     0.293 HD
ENDBRANCH   8  26
TORSDOF 6
ENDMDL
MODEL 6
REMARK VINA RESULT:    -7.201      1.656      6.854
REMARK INTER + INTRA:          -9.046
REMARK INTER:                  -8.732
REMARK INTRA:                  -0.314
REMARK UNBOUND:                -0.372
REMARK SMILES O=c1c(O)c(-c2ccc(O)cc2O)oc2cc(O)cc(O)c12
REMARK SMILES IDX 5 1 3 2 2 3 1 4 22 5 20 6 19 7 17 8 16 9 15 10 14 11 6 12
REMARK SMILES IDX 8 13 7 14 9 15 11 16 12 17 10 18 13 20 4 22 21 24 18 26
REMARK H PARENT 10 19 13 21 4 23 21 25 18 27
REMARK Flexibility Score: inf
ROOT
ATOM      1  C   UNL     1     -21.672  69.667   3.628  1.00  0.00     0.184 A 
ATOM      2  C   UNL     1     -22.506  69.012   2.706  1.00  0.00     0.208 A 
ATOM      3  C   UNL     1     -23.314  69.783   1.856  1.00  0.00     0.238 A 
ATOM      4  O   UNL     1     -24.069  69.206   1.027  1.00  0.00    -0.285 OA
ATOM      5  C   UNL     1     -23.268  71.190   1.938  1.00  0.00     0.111 A 
ATOM      6  C   UNL     1     -24.047  72.040   1.116  1.00  0.00     0.134 A 
ATOM      7  C   UNL     1     -23.941  73.432   1.256  1.00  0.00     0.093 A 
ATOM      8  C   UNL     1     -23.074  73.989   2.199  1.00  0.00     0.123 A 
ATOM      9  C   UNL     1     -22.302  73.155   3.014  1.00  0.00     0.094 A 
ATOM     10  C   UNL     1     -22.393  71.765   2.890  1.00  0.00     0.146 A 
ATOM     11  O   UNL     1     -21.650  70.995   3.677  1.00  0.00    -0.451 OA
ENDROOT
BRANCH   1  12
ATOM     12  C   UNL     1     -20.811  68.909   4.560  1.00  0.00     0.063 A 
ATOM     13  C   UNL     1     -19.023  67.293   4.899  1.00  0.00     0.047 A 
ATOM     14  C   UNL     1     -19.814  68.062   4.043  1.00  0.00     0.020 A 
ATOM     15  C   UNL     1     -19.220  67.351   6.281  1.00  0.00     0.119 A 
ATOM     16  C   UNL     1     -20.212  68.189   6.806  1.00  0.00     0.093 A 
ATOM     17  C   UNL     1     -21.005  68.973   5.960  1.00  0.00     0.130 A 
BRANCH  15  18
ATOM     18  O   UNL     1     -18.427  66.574   7.121  1.00  0.00    -0.508 OA
ATOM     19  H   UNL     1     -17.898  65.785   6.769  1.00  0.00     0.293 HD
ENDBRANCH  15  18
BRANCH  17  20
ATOM     20  O   UNL     1     -21.955  69.817   6.540  1.00  0.00    -0.507 OA
ATOM     21  H   UNL     1     -22.916  69.543   6.693  1.00  0.00     0.293 HD
ENDBRANCH  17  20
ENDBRANCH   1  12
BRANCH   2  22
ATOM     22  O   UNL     1     -22.511  67.617   2.634  1.00  0.00    -0.502 OA
ATOM     23  H   UNL     1     -21.952  67.108   1.961  1.00  0.00     0.293 HD
ENDBRANCH   2  22
BRANCH   6  24
ATOM     24  O   UNL     1     -24.923  71.514   0.165  1.00  0.00    -0.507 OA
ATOM     25  H   UNL     1     -25.896  71.791   0.126  1.00  0.00     0.293 HD
ENDBRANCH   6  24
BRANCH   8  26
ATOM     26  O   UNL     1     -22.987  75.374   2.317  1.00  0.00    -0.508 OA
ATOM     27  H   UNL     1     -23.767  75.976   2.079  1.00  0.00     0.293 HD
ENDBRANCH   8  26
TORSDOF 6
ENDMDL
MODEL 7
REMARK VINA RESULT:    -7.169      1.655      3.336
REMARK INTER + INTRA:          -9.008
REMARK INTER:                  -8.774
REMARK INTRA:                  -0.234
REMARK UNBOUND:                -0.372
REMARK SMILES O=c1c(O)c(-c2ccc(O)cc2O)oc2cc(O)cc(O)c12
REMARK SMILES IDX 5 1 3 2 2 3 1 4 22 5 20 6 19 7 17 8 16 9 15 10 14 11 6 12
REMARK SMILES IDX 8 13 7 14 9 15 11 16 12 17 10 18 13 20 4 22 21 24 18 26
REMARK H PARENT 10 19 13 21 4 23 21 25 18 27
REMARK Flexibility Score: inf
ROOT
ATOM      1  C   UNL     1     -21.655  69.229   3.008  1.00  0.00     0.184 A 
ATOM      2  C   UNL     1     -20.761  68.659   2.086  1.00  0.00     0.208 A 
ATOM      3  C   UNL     1     -19.688  67.893   2.567  1.00  0.00     0.238 A 
ATOM      4  O   UNL     1     -18.877  67.380   1.749  1.00  0.00    -0.285 OA
ATOM      5  C   UNL     1     -19.534  67.706   3.956  1.00  0.00     0.111 A 
ATOM      6  C   UNL     1     -18.482  66.946   4.523  1.00  0.00     0.134 A 
ATOM      7  C   UNL     1     -18.399  66.804   5.916  1.00  0.00     0.093 A 
ATOM      8  C   UNL     1     -19.345  67.404   6.751  1.00  0.00     0.123 A 
ATOM      9  C   UNL     1     -20.386  68.155   6.198  1.00  0.00     0.094 A 
ATOM     10  C   UNL     1     -20.485  68.310   4.811  1.00  0.00     0.146 A 
ATOM     11  O   UNL     1     -21.483  69.031   4.311  1.00  0.00    -0.451 OA
ENDROOT
BRANCH   1  12
ATOM     12  C   UNL     1     -22.794  70.060   2.562  1.00  0.00     0.063 A 
ATOM     13  C   UNL     1     -25.201  70.358   2.358  1.00  0.00     0.047 A 
ATOM     14  C   UNL     1     -24.107  69.621   2.816  1.00  0.00     0.020 A 
ATOM     15  C   UNL     1     -25.003  71.537   1.636  1.00  0.00     0.119 A 
ATOM     16  C   UNL     1     -23.701  71.981   1.376  1.00  0.00     0.093 A 
ATOM     17  C   UNL     1     -22.595  71.257   1.838  1.00  0.00     0.130 A 
BRANCH  15  18
ATOM     18  O   UNL     1     -26.105  72.257   1.182  1.00  0.00    -0.508 OA
ATOM     19  H   UNL     1     -26.533  72.981   1.748  1.00  0.00     0.293 HD
ENDBRANCH  15  18
BRANCH  17  20
ATOM     20  O   UNL     1     -21.319  71.765   1.580  1.00  0.00    -0.507 OA
ATOM     21  H   UNL     1     -20.599  71.831   2.286  1.00  0.00     0.293 HD
ENDBRANCH  17  20
ENDBRANCH   1  12
BRANCH   2  22
ATOM     22  O   UNL     1     -20.955  68.844   0.715  1.00  0.00    -0.502 OA
ATOM     23  H   UNL     1     -20.547  68.230   0.022  1.00  0.00     0.293 HD
ENDBRANCH   2  22
BRANCH   6  24
ATOM     24  O   UNL     1     -17.522  66.334   3.716  1.00  0.00    -0.507 OA
ATOM     25  H   UNL     1     -17.459  65.327   3.633  1.00  0.00     0.293 HD
ENDBRANCH   6  24
BRANCH   8  26
ATOM     26  O   UNL     1     -19.240  67.246   8.132  1.00  0.00    -0.508 OA
ATOM     27  H   UNL     1     -20.033  66.960   8.694  1.00  0.00     0.293 HD
ENDBRANCH   8  26
TORSDOF 6
ENDMDL
MODEL 8
REMARK VINA RESULT:    -6.820     12.973     13.861
REMARK INTER + INTRA:          -8.588
REMARK INTER:                  -8.646
REMARK INTRA:                   0.058
REMARK UNBOUND:                -0.372
REMARK SMILES O=c1c(O)c(-c2ccc(O)cc2O)oc2cc(O)cc(O)c12
REMARK SMILES IDX 5 1 3 2 2 3 1 4 22 5 20 6 19 7 17 8 16 9 15 10 14 11 6 12
REMARK SMILES IDX 8 13 7 14 9 15 11 16 12 17 10 18 13 20 4 22 21 24 18 26
REMARK H PARENT 10 19 13 21 4 23 21 25 18 27
REMARK Flexibility Score: inf
ROOT
ATOM      1  C   UNL     1     -30.561  80.173   6.130  1.00  0.00     0.184 A 
ATOM      2  C   UNL     1     -30.601  80.163   7.535  1.00  0.00     0.208 A 
ATOM      3  C   UNL     1     -29.456  80.550   8.248  1.00  0.00     0.238 A 
ATOM      4  O   UNL     1     -29.479  80.541   9.509  1.00  0.00    -0.285 OA
ATOM      5  C   UNL     1     -28.299  80.946   7.547  1.00  0.00     0.111 A 
ATOM      6  C   UNL     1     -27.105  81.353   8.189  1.00  0.00     0.134 A 
ATOM      7  C   UNL     1     -25.997  81.737   7.419  1.00  0.00     0.093 A 
ATOM      8  C   UNL     1     -26.059  81.722   6.024  1.00  0.00     0.123 A 
ATOM      9  C   UNL     1     -27.235  81.321   5.383  1.00  0.00     0.094 A 
ATOM     10  C   UNL     1     -28.351  80.934   6.132  1.00  0.00     0.146 A 
ATOM     11  O   UNL     1     -29.455  80.555   5.499  1.00  0.00    -0.451 OA
ENDROOT
BRANCH   1  12
ATOM     12  C   UNL     1     -31.730  79.760   5.324  1.00  0.00     0.063 A 
ATOM     13  C   UNL     1     -34.147  79.646   5.065  1.00  0.00     0.047 A 
ATOM     14  C   UNL     1     -33.024  80.073   5.778  1.00  0.00     0.020 A 
ATOM     15  C   UNL     1     -33.996  78.898   3.895  1.00  0.00     0.119 A 
ATOM     16  C   UNL     1     -32.712  78.579   3.437  1.00  0.00     0.093 A 
ATOM     17  C   UNL     1     -31.577  79.009   4.136  1.00  0.00     0.130 A 
BRANCH  15  18
ATOM     18  O   UNL     1     -35.125  78.477   3.199  1.00  0.00    -0.508 OA
ATOM     19  H   UNL     1     -35.830  79.134   2.886  1.00  0.00     0.293 HD
ENDBRANCH  15  18
BRANCH  17  20
ATOM     20  O   UNL     1     -30.321  78.693   3.614  1.00  0.00    -0.507 OA
ATOM     21  H   UNL     1     -30.115  77.808   3.169  1.00  0.00     0.293 HD
ENDBRANCH  17  20
ENDBRANCH   1  12
BRANCH   2  22
ATOM     22  O   UNL     1     -31.770  79.787   8.200  1.00  0.00    -0.502 OA
ATOM     23  H   UNL     1     -32.352  79.022   7.882  1.00  0.00     0.293 HD
ENDBRANCH   2  22
BRANCH   6  24
ATOM     24  O   UNL     1     -27.011  81.379   9.582  1.00  0.00    -0.507 OA
ATOM     25  H   UNL     1     -26.395  82.023  10.062  1.00  0.00     0.293 HD
ENDBRANCH   6  24
BRANCH   8  26
ATOM     26  O   UNL     1     -24.944  82.109   5.283  1.00  0.00    -0.508 OA
ATOM     27  H   UNL     1     -24.346  81.427   4.831  1.00  0.00     0.293 HD
ENDBRANCH   8  26
TORSDOF 6
ENDMDL
MODEL 9
REMARK VINA RESULT:    -6.699      1.786      6.908
REMARK INTER + INTRA:          -8.441
REMARK INTER:                  -8.537
REMARK INTRA:                   0.096
REMARK UNBOUND:                -0.372
REMARK SMILES O=c1c(O)c(-c2ccc(O)cc2O)oc2cc(O)cc(O)c12
REMARK SMILES IDX 5 1 3 2 2 3 1 4 22 5 20 6 19 7 17 8 16 9 15 10 14 11 6 12
REMARK SMILES IDX 8 13 7 14 9 15 11 16 12 17 10 18 13 20 4 22 21 24 18 26
REMARK H PARENT 10 19 13 21 4 23 21 25 18 27
REMARK Flexibility Score: inf
ROOT
ATOM      1  C   UNL     1     -21.546  69.368   3.076  1.00  0.00     0.184 A 
ATOM      2  C   UNL     1     -21.101  70.080   1.948  1.00  0.00     0.208 A 
ATOM      3  C   UNL     1     -22.037  70.790   1.183  1.00  0.00     0.238 A 
ATOM      4  O   UNL     1     -21.651  71.430   0.167  1.00  0.00    -0.285 OA
ATOM      5  C   UNL     1     -23.396  70.782   1.560  1.00  0.00     0.111 A 
ATOM      6  C   UNL     1     -24.403  71.474   0.845  1.00  0.00     0.134 A 
ATOM      7  C   UNL     1     -25.734  71.419   1.288  1.00  0.00     0.093 A 
ATOM      8  C   UNL     1     -26.075  70.689   2.428  1.00  0.00     0.123 A 
ATOM      9  C   UNL     1     -25.086  70.003   3.139  1.00  0.00     0.094 A 
ATOM     10  C   UNL     1     -23.754  70.045   2.714  1.00  0.00     0.146 A 
ATOM     11  O   UNL     1     -22.833  69.383   3.406  1.00  0.00    -0.451 OA
ENDROOT
BRANCH   1  12
ATOM     12  C   UNL     1     -20.609  68.587   3.911  1.00  0.00     0.063 A 
ATOM     13  C   UNL     1     -19.683  68.107   6.110  1.00  0.00     0.047 A 
ATOM     14  C   UNL     1     -20.595  68.790   5.304  1.00  0.00     0.020 A 
ATOM     15  C   UNL     1     -18.769  67.218   5.541  1.00  0.00     0.119 A 
ATOM     16  C   UNL     1     -18.772  67.010   4.157  1.00  0.00     0.093 A 
ATOM     17  C   UNL     1     -19.688  67.681   3.337  1.00  0.00     0.130 A 
BRANCH  15  18
ATOM     18  O   UNL     1     -17.863  66.548   6.359  1.00  0.00    -0.508 OA
ATOM     19  H   UNL     1     -17.647  65.567   6.219  1.00  0.00     0.293 HD
ENDBRANCH  15  18
BRANCH  17  20
ATOM     20  O   UNL     1     -19.671  67.408   1.967  1.00  0.00    -0.507 OA
ATOM     21  H   UNL     1     -19.707  66.470   1.591  1.00  0.00     0.293 HD
ENDBRANCH  17  20
ENDBRANCH   1  12
BRANCH   2  22
ATOM     22  O   UNL     1     -19.745  70.087   1.615  1.00  0.00    -0.502 OA
ATOM     23  H   UNL     1     -19.305  70.872   1.151  1.00  0.00     0.293 HD
ENDBRANCH   2  22
BRANCH   6  24
ATOM     24  O   UNL     1     -24.094  72.213  -0.298  1.00  0.00    -0.507 OA
ATOM     25  H   UNL     1     -24.702  72.947  -0.639  1.00  0.00     0.293 HD
ENDBRANCH   6  24
BRANCH   8  26
ATOM     26  O   UNL     1     -27.404  70.652   2.847  1.00  0.00    -0.508 OA
ATOM     27  H   UNL     1     -27.649  70.615   3.829  1.00  0.00     0.293 HD
ENDBRANCH   8  26
TORSDOF 6
ENDMDL
