MODEL 1
REMARK VINA RESULT:    -3.641      0.000      0.000
REMARK INTER + INTRA:         -13.829
REMARK INTER:                  -9.176
REMARK INTRA:                  -4.653
REMARK UNBOUND:                -4.653
REMARK SMILES CCCCCCCCCCCCCCCCCCCCCCCCCCCC(=O)[O-]
REMARK SMILES IDX 15 1 16 2 17 3 18 4 19 5 20 6 21 7 22 8 23 9 24 10 25 11
REMARK SMILES IDX 26 12 27 13 28 14 29 15 30 16 14 17 13 18 12 19 11 20 10 21
REMARK SMILES IDX 9 22 8 23 7 24 6 25 5 26 4 27 3 28 2 29 1 30
REMARK H PARENT
REMARK Flexibility Score: inf
ROOT
ATOM      1  C   UNL     1      52.860  32.629  87.182  1.00  0.00     0.000 C 
ENDROOT
BRANCH   1   2
ATOM      2  C   UNL     1      53.128  31.467  88.151  1.00  0.00     0.000 C 
BRANCH   2   3
ATOM      3  C   UNL     1      51.836  30.816  88.667  1.00  0.00     0.000 C 
BRANCH   3   4
ATOM      4  C   UNL     1      51.354  31.502  89.952  1.00  0.00     0.000 C 
BRANCH   4   5
ATOM      5  C   UNL     1      50.781  30.478  90.944  1.00  0.00     0.000 C 
BRANCH   5   6
ATOM      6  C   UNL     1      49.414  30.903  91.507  1.00  0.00     0.000 C 
BRANCH   6   7
ATOM      7  C   UNL     1      48.244  30.433  90.626  1.00  0.00     0.000 C 
BRANCH   7   8
ATOM      8  C   UNL     1      46.967  31.263  90.835  1.00  0.00     0.000 C 
BRANCH   8   9
ATOM      9  C   UNL     1      46.008  31.247  89.626  1.00  0.00     0.000 C 
BRANCH   9  10
ATOM     10  C   UNL     1      44.533  31.206  90.055  1.00  0.00     0.000 C 
BRANCH  10  11
ATOM     11  C   UNL     1      44.402  31.266  91.582  1.00  0.00     0.000 C 
BRANCH  11  12
ATOM     12  C   UNL     1      43.731  29.996  92.126  1.00  0.00     0.006 C 
BRANCH  12  13
ATOM     13  C   UNL     1      44.683  29.166  92.997  1.00  0.00     0.053 C 
BRANCH  13  14
ATOM     14  C   UNL     1      45.456  28.175  92.182  1.00  0.00     0.041 C 
ATOM     15  O   UNL     1      46.535  27.694  92.622  1.00  0.00    -0.550 OA
ATOM     16  O   UNL     1      44.973  27.762  90.947  1.00  0.00    -0.550 OA
ENDBRANCH  13  14
ENDBRANCH  12  13
ENDBRANCH  11  12
ENDBRANCH  10  11
ENDBRANCH   9  10
ENDBRANCH   8   9
ENDBRANCH   7   8
ENDBRANCH   6   7
ENDBRANCH   5   6
ENDBRANCH   4   5
ENDBRANCH   3   4
ENDBRANCH   2   3
ENDBRANCH   1   2
BRANCH   1  17
ATOM     17  C   UNL     1      53.515  33.942  87.638  1.00  0.00     0.000 C 
BRANCH  17  18
ATOM     18  C   UNL     1      52.453  35.009  87.932  1.00  0.00     0.000 C 
BRANCH  18  19
ATOM     19  C   UNL     1      51.126  34.676  87.231  1.00  0.00     0.000 C 
BRANCH  19  20
ATOM     20  C   UNL     1      49.947  35.505  87.765  1.00  0.00     0.000 C 
BRANCH  20  21
ATOM     21  C   UNL     1      48.616  34.735  87.726  1.00  0.00     0.000 C 
BRANCH  21  22
ATOM     22  C   UNL     1      48.806  33.219  87.903  1.00  0.00    -0.000 C 
BRANCH  22  23
ATOM     23  C   UNL     1      48.171  32.407  86.764  1.00  0.00    -0.000 C 
BRANCH  23  24
ATOM     24  C   UNL     1      49.105  31.275  86.313  1.00  0.00    -0.000 C 
BRANCH  24  25
ATOM     25  C   UNL     1      50.035  31.689  85.160  1.00  0.00    -0.000 C 
BRANCH  25  26
ATOM     26  C   UNL     1      49.420  32.747  84.220  1.00  0.00    -0.000 C 
BRANCH  26  27
ATOM     27  C   UNL     1      50.397  33.900  83.928  1.00  0.00    -0.000 C 
BRANCH  27  28
ATOM     28  C   UNL     1      51.692  33.425  83.250  1.00  0.00    -0.000 C 
BRANCH  28  29
ATOM     29  C   UNL     1      52.949  34.050  83.872  1.00  0.00    -0.003 C 
ATOM     30  C   UNL     1      53.889  34.586  82.796  1.00  0.00     0.004 C 
ENDBRANCH  28  29
ENDBRANCH  27  28
ENDBRANCH  26  27
ENDBRANCH  25  26
ENDBRANCH  24  25
ENDBRANCH  23  24
ENDBRANCH  22  23
ENDBRANCH  21  22
ENDBRANCH  20  21
ENDBRANCH  19  20
ENDBRANCH  18  19
ENDBRANCH  17  18
ENDBRANCH   1  17
TORSDOF 26
ENDMDL
MODEL 2
REMARK VINA RESULT:    -3.608      1.436      2.357
REMARK INTER + INTRA:         -13.745
REMARK INTER:                  -8.678
REMARK INTRA:                  -5.067
REMARK UNBOUND:                -4.653
REMARK SMILES CCCCCCCCCCCCCCCCCCCCCCCCCCCC(=O)[O-]
REMARK SMILES IDX 15 1 16 2 17 3 18 4 19 5 20 6 21 7 22 8 23 9 24 10 25 11
REMARK SMILES IDX 26 12 27 13 28 14 29 15 30 16 14 17 13 18 12 19 11 20 10 21
REMARK SMILES IDX 9 22 8 23 7 24 6 25 5 26 4 27 3 28 2 29 1 30
REMARK H PARENT
REMARK Flexibility Score: inf
ROOT
ATOM      1  C   UNL     1      53.049  32.927  87.713  1.00  0.00     0.000 C 
ENDROOT
BRANCH   1   2
ATOM      2  C   UNL     1      52.991  31.912  88.866  1.00  0.00     0.000 C 
BRANCH   2   3
ATOM      3  C   UNL     1      53.642  32.439  90.153  1.00  0.00     0.000 C 
BRANCH   3   4
ATOM      4  C   UNL     1      52.654  32.393  91.325  1.00  0.00     0.000 C 
BRANCH   4   5
ATOM      5  C   UNL     1      51.252  31.979  90.851  1.00  0.00     0.000 C 
BRANCH   5   6
ATOM      6  C   UNL     1      50.449  31.254  91.943  1.00  0.00     0.000 C 
BRANCH   6   7
ATOM      7  C   UNL     1      50.520  29.724  91.807  1.00  0.00     0.000 C 
BRANCH   7   8
ATOM      8  C   UNL     1      50.677  29.260  90.350  1.00  0.00     0.000 C 
BRANCH   8   9
ATOM      9  C   UNL     1      49.385  29.380  89.515  1.00  0.00     0.000 C 
BRANCH   9  10
ATOM     10  C   UNL     1      48.228  28.567  90.114  1.00  0.00     0.000 C 
BRANCH  10  11
ATOM     11  C   UNL     1      46.915  29.357  90.061  1.00  0.00     0.000 C 
BRANCH  11  12
ATOM     12  C   UNL     1      47.019  30.652  90.881  1.00  0.00     0.006 C 
BRANCH  12  13
ATOM     13  C   UNL     1      45.732  31.485  90.813  1.00  0.00     0.053 C 
BRANCH  13  14
ATOM     14  C   UNL     1      44.779  31.121  91.911  1.00  0.00     0.041 C 
ATOM     15  O   UNL     1      44.505  31.954  92.816  1.00  0.00    -0.550 OA
ATOM     16  O   UNL     1      44.174  29.872  91.922  1.00  0.00    -0.550 OA
ENDBRANCH  13  14
ENDBRANCH  12  13
ENDBRANCH  11  12
ENDBRANCH  10  11
ENDBRANCH   9  10
ENDBRANCH   8   9
ENDBRANCH   7   8
ENDBRANCH   6   7
ENDBRANCH   5   6
ENDBRANCH   4   5
ENDBRANCH   3   4
ENDBRANCH   2   3
ENDBRANCH   1   2
BRANCH   1  17
ATOM     17  C   UNL     1      53.574  34.300  88.159  1.00  0.00     0.000 C 
BRANCH  17  18
ATOM     18  C   UNL     1      52.453  35.346  88.139  1.00  0.00     0.000 C 
BRANCH  18  19
ATOM     19  C   UNL     1      51.215  34.815  87.398  1.00  0.00     0.000 C 
BRANCH  19  20
ATOM     20  C   UNL     1      49.927  35.563  87.781  1.00  0.00     0.000 C 
BRANCH  20  21
ATOM     21  C   UNL     1      48.682  34.659  87.736  1.00  0.00     0.000 C 
BRANCH  21  22
ATOM     22  C   UNL     1      48.997  33.202  88.116  1.00  0.00    -0.000 C 
BRANCH  22  23
ATOM     23  C   UNL     1      47.876  32.232  87.713  1.00  0.00    -0.000 C 
BRANCH  23  24
ATOM     24  C   UNL     1      48.207  31.535  86.387  1.00  0.00    -0.000 C 
BRANCH  24  25
ATOM     25  C   UNL     1      49.710  31.251  86.217  1.00  0.00    -0.000 C 
BRANCH  25  26
ATOM     26  C   UNL     1      50.296  31.795  84.896  1.00  0.00    -0.000 C 
BRANCH  26  27
ATOM     27  C   UNL     1      49.471  32.968  84.337  1.00  0.00    -0.000 C 
BRANCH  27  28
ATOM     28  C   UNL     1      50.339  34.178  83.959  1.00  0.00    -0.000 C 
BRANCH  28  29
ATOM     29  C   UNL     1      51.842  33.901  84.115  1.00  0.00    -0.003 C 
ATOM     30  C   UNL     1      52.526  33.793  82.755  1.00  0.00     0.004 C 
ENDBRANCH  28  29
ENDBRANCH  27  28
ENDBRANCH  26  27
ENDBRANCH  25  26
ENDBRANCH  24  25
ENDBRANCH  23  24
ENDBRANCH  22  23
ENDBRANCH  21  22
ENDBRANCH  20  21
ENDBRANCH  19  20
ENDBRANCH  18  19
ENDBRANCH  17  18
ENDBRANCH   1  17
TORSDOF 26
ENDMDL
MODEL 3
REMARK VINA RESULT:    -3.584      1.321      3.293
REMARK INTER + INTRA:         -13.685
REMARK INTER:                  -8.418
REMARK INTRA:                  -5.267
REMARK UNBOUND:                -4.653
REMARK SMILES CCCCCCCCCCCCCCCCCCCCCCCCCCCC(=O)[O-]
REMARK SMILES IDX 15 1 16 2 17 3 18 4 19 5 20 6 21 7 22 8 23 9 24 10 25 11
REMARK SMILES IDX 26 12 27 13 28 14 29 15 30 16 14 17 13 18 12 19 11 20 10 21
REMARK SMILES IDX 9 22 8 23 7 24 6 25 5 26 4 27 3 28 2 29 1 30
REMARK H PARENT
REMARK Flexibility Score: inf
ROOT
ATOM      1  C   UNL     1      50.942  30.404  88.047  1.00  0.00     0.000 C 
ENDROOT
BRANCH   1   2
ATOM      2  C   UNL     1      52.455  30.407  88.315  1.00  0.00     0.000 C 
BRANCH   2   3
ATOM      3  C   UNL     1      52.961  31.758  88.841  1.00  0.00     0.000 C 
BRANCH   3   4
ATOM      4  C   UNL     1      51.970  32.360  89.845  1.00  0.00     0.000 C 
BRANCH   4   5
ATOM      5  C   UNL     1      52.596  32.464  91.245  1.00  0.00     0.000 C 
BRANCH   5   6
ATOM      6  C   UNL     1      52.261  31.253  92.132  1.00  0.00     0.000 C 
BRANCH   6   7
ATOM      7  C   UNL     1      50.746  31.038  92.285  1.00  0.00     0.000 C 
BRANCH   7   8
ATOM      8  C   UNL     1      50.314  29.594  91.978  1.00  0.00     0.000 C 
BRANCH   8   9
ATOM      9  C   UNL     1      49.095  29.496  91.036  1.00  0.00     0.000 C 
BRANCH   9  10
ATOM     10  C   UNL     1      48.465  30.868  90.756  1.00  0.00     0.000 C 
BRANCH  10  11
ATOM     11  C   UNL     1      47.433  30.779  89.625  1.00  0.00     0.000 C 
BRANCH  11  12
ATOM     12  C   UNL     1      46.123  31.476  90.020  1.00  0.00     0.006 C 
BRANCH  12  13
ATOM     13  C   UNL     1      45.865  31.412  91.531  1.00  0.00     0.053 C 
BRANCH  13  14
ATOM     14  C   UNL     1      44.958  30.275  91.890  1.00  0.00     0.041 C 
ATOM     15  O   UNL     1      45.399  29.095  91.921  1.00  0.00    -0.550 OA
ATOM     16  O   UNL     1      43.630  30.521  92.217  1.00  0.00    -0.550 OA
ENDBRANCH  13  14
ENDBRANCH  12  13
ENDBRANCH  11  12
ENDBRANCH  10  11
ENDBRANCH   9  10
ENDBRANCH   8   9
ENDBRANCH   7   8
ENDBRANCH   6   7
ENDBRANCH   5   6
ENDBRANCH   4   5
ENDBRANCH   3   4
ENDBRANCH   2   3
ENDBRANCH   1   2
BRANCH   1  17
ATOM     17  C   UNL     1      50.585  30.959  86.660  1.00  0.00     0.000 C 
BRANCH  17  18
ATOM     18  C   UNL     1      49.254  30.378  86.166  1.00  0.00     0.000 C 
BRANCH  18  19
ATOM     19  C   UNL     1      48.121  31.410  86.291  1.00  0.00     0.000 C 
BRANCH  19  20
ATOM     20  C   UNL     1      48.624  32.860  86.202  1.00  0.00     0.000 C 
BRANCH  20  21
ATOM     21  C   UNL     1      48.370  33.655  87.495  1.00  0.00     0.000 C 
BRANCH  21  22
ATOM     22  C   UNL     1      49.574  34.521  87.901  1.00  0.00    -0.000 C 
BRANCH  22  23
ATOM     23  C   UNL     1      50.601  34.673  86.769  1.00  0.00    -0.000 C 
BRANCH  23  24
ATOM     24  C   UNL     1      51.996  34.976  87.334  1.00  0.00    -0.000 C 
BRANCH  24  25
ATOM     25  C   UNL     1      53.131  34.418  86.458  1.00  0.00    -0.000 C 
BRANCH  25  26
ATOM     26  C   UNL     1      52.634  33.561  85.275  1.00  0.00    -0.000 C 
BRANCH  26  27
ATOM     27  C   UNL     1      53.169  34.072  83.925  1.00  0.00    -0.000 C 
BRANCH  27  28
ATOM     28  C   UNL     1      52.082  34.137  82.840  1.00  0.00    -0.000 C 
BRANCH  28  29
ATOM     29  C   UNL     1      50.744  33.546  83.307  1.00  0.00    -0.003 C 
ATOM     30  C   UNL     1      49.584  34.483  82.982  1.00  0.00     0.004 C 
ENDBRANCH  28  29
ENDBRANCH  27  28
ENDBRANCH  26  27
ENDBRANCH  25  26
ENDBRANCH  24  25
ENDBRANCH  23  24
ENDBRANCH  22  23
ENDBRANCH  21  22
ENDBRANCH  20  21
ENDBRANCH  19  20
ENDBRANCH  18  19
ENDBRANCH  17  18
ENDBRANCH   1  17
TORSDOF 26
ENDMDL
MODEL 4
REMARK VINA RESULT:    -3.570      1.310      3.454
REMARK INTER + INTRA:         -13.649
REMARK INTER:                  -8.768
REMARK INTRA:                  -4.881
REMARK UNBOUND:                -4.653
REMARK SMILES CCCCCCCCCCCCCCCCCCCCCCCCCCCC(=O)[O-]
REMARK SMILES IDX 15 1 16 2 17 3 18 4 19 5 20 6 21 7 22 8 23 9 24 10 25 11
REMARK SMILES IDX 26 12 27 13 28 14 29 15 30 16 14 17 13 18 12 19 11 20 10 21
REMARK SMILES IDX 9 22 8 23 7 24 6 25 5 26 4 27 3 28 2 29 1 30
REMARK H PARENT
REMARK Flexibility Score: inf
ROOT
ATOM      1  C   UNL     1      47.895  31.891  86.661  1.00  0.00     0.000 C 
ENDROOT
BRANCH   1   2
ATOM      2  C   UNL     1      48.902  30.736  86.765  1.00  0.00     0.000 C 
BRANCH   2   3
ATOM      3  C   UNL     1      50.316  31.140  86.321  1.00  0.00     0.000 C 
BRANCH   3   4
ATOM      4  C   UNL     1      51.368  30.625  87.312  1.00  0.00     0.000 C 
BRANCH   4   5
ATOM      5  C   UNL     1      51.638  31.657  88.419  1.00  0.00     0.000 C 
BRANCH   5   6
ATOM      6  C   UNL     1      51.427  31.079  89.828  1.00  0.00     0.000 C 
BRANCH   6   7
ATOM      7  C   UNL     1      49.965  31.178  90.292  1.00  0.00     0.000 C 
BRANCH   7   8
ATOM      8  C   UNL     1      49.351  29.809  90.629  1.00  0.00     0.000 C 
BRANCH   8   9
ATOM      9  C   UNL     1      47.884  29.884  91.103  1.00  0.00     0.000 C 
BRANCH   9  10
ATOM     10  C   UNL     1      46.927  30.289  89.972  1.00  0.00     0.000 C 
BRANCH  10  11
ATOM     11  C   UNL     1      46.115  31.532  90.356  1.00  0.00     0.000 C 
BRANCH  11  12
ATOM     12  C   UNL     1      44.625  31.191  90.504  1.00  0.00     0.006 C 
BRANCH  12  13
ATOM     13  C   UNL     1      44.159  31.252  91.964  1.00  0.00     0.053 C 
BRANCH  13  14
ATOM     14  C   UNL     1      43.823  29.891  92.495  1.00  0.00     0.041 C 
ATOM     15  O   UNL     1      42.622  29.563  92.686  1.00  0.00    -0.550 OA
ATOM     16  O   UNL     1      44.835  28.976  92.754  1.00  0.00    -0.550 OA
ENDBRANCH  13  14
ENDBRANCH  12  13
ENDBRANCH  11  12
ENDBRANCH  10  11
ENDBRANCH   9  10
ENDBRANCH   8   9
ENDBRANCH   7   8
ENDBRANCH   6   7
ENDBRANCH   5   6
ENDBRANCH   4   5
ENDBRANCH   3   4
ENDBRANCH   2   3
ENDBRANCH   1   2
BRANCH   1  17
ATOM     17  C   UNL     1      48.178  33.017  87.666  1.00  0.00     0.000 C 
BRANCH  17  18
ATOM     18  C   UNL     1      48.504  34.328  86.941  1.00  0.00     0.000 C 
BRANCH  18  19
ATOM     19  C   UNL     1      49.215  35.317  87.879  1.00  0.00     0.000 C 
BRANCH  19  20
ATOM     20  C   UNL     1      50.747  35.242  87.770  1.00  0.00     0.000 C 
BRANCH  20  21
ATOM     21  C   UNL     1      51.217  34.616  86.446  1.00  0.00     0.000 C 
BRANCH  21  22
ATOM     22  C   UNL     1      52.750  34.563  86.330  1.00  0.00    -0.000 C 
BRANCH  22  23
ATOM     23  C   UNL     1      53.224  34.290  84.894  1.00  0.00    -0.000 C 
BRANCH  23  24
ATOM     24  C   UNL     1      53.035  32.812  84.528  1.00  0.00    -0.000 C 
BRANCH  24  25
ATOM     25  C   UNL     1      52.934  32.578  83.011  1.00  0.00    -0.000 C 
BRANCH  25  26
ATOM     26  C   UNL     1      52.571  33.849  82.213  1.00  0.00    -0.000 C 
BRANCH  26  27
ATOM     27  C   UNL     1      51.076  33.897  81.851  1.00  0.00    -0.000 C 
BRANCH  27  28
ATOM     28  C   UNL     1      50.321  32.625  82.269  1.00  0.00    -0.000 C 
BRANCH  28  29
ATOM     29  C   UNL     1      49.129  32.921  83.190  1.00  0.00    -0.003 C 
ATOM     30  C   UNL     1      49.032  34.411  83.506  1.00  0.00     0.004 C 
ENDBRANCH  28  29
ENDBRANCH  27  28
ENDBRANCH  26  27
ENDBRANCH  25  26
ENDBRANCH  24  25
ENDBRANCH  23  24
ENDBRANCH  22  23
ENDBRANCH  21  22
ENDBRANCH  20  21
ENDBRANCH  19  20
ENDBRANCH  18  19
ENDBRANCH  17  18
ENDBRANCH   1  17
TORSDOF 26
ENDMDL
MODEL 5
REMARK VINA RESULT:    -3.552      3.421      7.943
REMARK INTER + INTRA:         -13.604
REMARK INTER:                  -7.778
REMARK INTRA:                  -5.826
REMARK UNBOUND:                -4.653
REMARK SMILES CCCCCCCCCCCCCCCCCCCCCCCCCCCC(=O)[O-]
REMARK SMILES IDX 15 1 16 2 17 3 18 4 19 5 20 6 21 7 22 8 23 9 24 10 25 11
REMARK SMILES IDX 26 12 27 13 28 14 29 15 30 16 14 17 13 18 12 19 11 20 10 21
REMARK SMILES IDX 9 22 8 23 7 24 6 25 5 26 4 27 3 28 2 29 1 30
REMARK H PARENT
REMARK Flexibility Score: inf
ROOT
ATOM      1  C   UNL     1      48.696  33.630  86.715  1.00  0.00     0.000 C 
ENDROOT
BRANCH   1   2
ATOM      2  C   UNL     1      47.930  32.395  87.214  1.00  0.00     0.000 C 
BRANCH   2   3
ATOM      3  C   UNL     1      48.481  31.083  86.637  1.00  0.00     0.000 C 
BRANCH   3   4
ATOM      4  C   UNL     1      49.662  31.353  85.696  1.00  0.00     0.000 C 
BRANCH   4   5
ATOM      5  C   UNL     1      50.873  30.480  86.064  1.00  0.00     0.000 C 
BRANCH   5   6
ATOM      6  C   UNL     1      52.204  31.088  85.590  1.00  0.00     0.000 C 
BRANCH   6   7
ATOM      7  C   UNL     1      52.145  31.569  84.131  1.00  0.00     0.000 C 
BRANCH   7   8
ATOM      8  C   UNL     1      53.008  32.816  83.877  1.00  0.00     0.000 C 
BRANCH   8   9
ATOM      9  C   UNL     1      52.242  33.978  83.209  1.00  0.00     0.000 C 
BRANCH   9  10
ATOM     10  C   UNL     1      50.858  33.546  82.701  1.00  0.00     0.000 C 
BRANCH  10  11
ATOM     11  C   UNL     1      49.762  34.477  83.232  1.00  0.00     0.000 C 
BRANCH  11  12
ATOM     12  C   UNL     1      48.387  33.795  83.177  1.00  0.00     0.006 C 
BRANCH  12  13
ATOM     13  C   UNL     1      48.384  32.570  82.254  1.00  0.00     0.053 C 
BRANCH  13  14
ATOM     14  C   UNL     1      47.665  32.847  80.969  1.00  0.00     0.041 C 
ATOM     15  O   UNL     1      46.482  32.444  80.804  1.00  0.00    -0.550 OA
ATOM     16  O   UNL     1      48.290  33.573  79.964  1.00  0.00    -0.550 OA
ENDBRANCH  13  14
ENDBRANCH  12  13
ENDBRANCH  11  12
ENDBRANCH  10  11
ENDBRANCH   9  10
ENDBRANCH   8   9
ENDBRANCH   7   8
ENDBRANCH   6   7
ENDBRANCH   5   6
ENDBRANCH   4   5
ENDBRANCH   3   4
ENDBRANCH   2   3
ENDBRANCH   1   2
BRANCH   1  17
ATOM     17  C   UNL     1      48.863  34.703  87.803  1.00  0.00     0.000 C 
BRANCH  17  18
ATOM     18  C   UNL     1      50.289  35.266  87.799  1.00  0.00     0.000 C 
BRANCH  18  19
ATOM     19  C   UNL     1      51.154  34.576  86.732  1.00  0.00     0.000 C 
BRANCH  19  20
ATOM     20  C   UNL     1      52.642  34.946  86.841  1.00  0.00     0.000 C 
BRANCH  20  21
ATOM     21  C   UNL     1      53.471  33.864  87.555  1.00  0.00     0.000 C 
BRANCH  21  22
ATOM     22  C   UNL     1      53.721  34.194  89.037  1.00  0.00    -0.000 C 
BRANCH  22  23
ATOM     23  C   UNL     1      52.969  33.249  89.987  1.00  0.00    -0.000 C 
BRANCH  23  24
ATOM     24  C   UNL     1      52.360  32.070  89.217  1.00  0.00    -0.000 C 
BRANCH  24  25
ATOM     25  C   UNL     1      50.853  31.898  89.476  1.00  0.00    -0.000 C 
BRANCH  25  26
ATOM     26  C   UNL     1      50.531  31.250  90.839  1.00  0.00    -0.000 C 
BRANCH  26  27
ATOM     27  C   UNL     1      49.773  29.920  90.683  1.00  0.00    -0.000 C 
BRANCH  27  28
ATOM     28  C   UNL     1      48.333  30.111  90.183  1.00  0.00    -0.000 C 
BRANCH  28  29
ATOM     29  C   UNL     1      47.556  31.153  91.000  1.00  0.00    -0.003 C 
ATOM     30  C   UNL     1      46.059  31.077  90.710  1.00  0.00     0.004 C 
ENDBRANCH  28  29
ENDBRANCH  27  28
ENDBRANCH  26  27
ENDBRANCH  25  26
ENDBRANCH  24  25
ENDBRANCH  23  24
ENDBRANCH  22  23
ENDBRANCH  21  22
ENDBRANCH  20  21
ENDBRANCH  19  20
ENDBRANCH  18  19
ENDBRANCH  17  18
ENDBRANCH   1  17
TORSDOF 26
ENDMDL
MODEL 6
REMARK VINA RESULT:    -3.549      3.796      8.685
REMARK INTER + INTRA:         -13.598
REMARK INTER:                  -8.864
REMARK INTRA:                  -4.734
REMARK UNBOUND:                -4.653
REMARK SMILES CCCCCCCCCCCCCCCCCCCCCCCCCCCC(=O)[O-]
REMARK SMILES IDX 15 1 16 2 17 3 18 4 19 5 20 6 21 7 22 8 23 9 24 10 25 11
REMARK SMILES IDX 26 12 27 13 28 14 29 15 30 16 14 17 13 18 12 19 11 20 10 21
REMARK SMILES IDX 9 22 8 23 7 24 6 25 5 26 4 27 3 28 2 29 1 30
REMARK H PARENT
REMARK Flexibility Score: inf
ROOT
ATOM      1  C   UNL     1      53.362  33.839  87.811  1.00  0.00     0.000 C 
ENDROOT
BRANCH   1   2
ATOM      2  C   UNL     1      52.482  34.974  87.265  1.00  0.00     0.000 C 
BRANCH   2   3
ATOM      3  C   UNL     1      51.117  35.055  87.964  1.00  0.00     0.000 C 
BRANCH   3   4
ATOM      4  C   UNL     1      49.979  34.773  86.975  1.00  0.00     0.000 C 
BRANCH   4   5
ATOM      5  C   UNL     1      48.750  34.196  87.696  1.00  0.00     0.000 C 
BRANCH   5   6
ATOM      6  C   UNL     1      48.241  32.898  87.048  1.00  0.00     0.000 C 
BRANCH   6   7
ATOM      7  C   UNL     1      49.115  31.683  87.401  1.00  0.00     0.000 C 
BRANCH   7   8
ATOM      8  C   UNL     1      49.841  31.094  86.179  1.00  0.00     0.000 C 
BRANCH   8   9
ATOM      9  C   UNL     1      51.371  31.295  86.206  1.00  0.00     0.000 C 
BRANCH   9  10
ATOM     10  C   UNL     1      51.937  31.639  84.820  1.00  0.00     0.000 C 
BRANCH  10  11
ATOM     11  C   UNL     1      50.912  32.417  83.986  1.00  0.00     0.000 C 
BRANCH  11  12
ATOM     12  C   UNL     1      51.353  33.876  83.794  1.00  0.00     0.006 C 
BRANCH  12  13
ATOM     13  C   UNL     1      52.880  34.023  83.780  1.00  0.00     0.053 C 
BRANCH  13  14
ATOM     14  C   UNL     1      53.399  34.270  82.396  1.00  0.00     0.041 C 
ATOM     15  O   UNL     1      52.630  34.705  81.497  1.00  0.00    -0.550 OA
ATOM     16  O   UNL     1      54.737  34.044  82.104  1.00  0.00    -0.550 OA
ENDBRANCH  13  14
ENDBRANCH  12  13
ENDBRANCH  11  12
ENDBRANCH  10  11
ENDBRANCH   9  10
ENDBRANCH   8   9
ENDBRANCH   7   8
ENDBRANCH   6   7
ENDBRANCH   5   6
ENDBRANCH   4   5
ENDBRANCH   3   4
ENDBRANCH   2   3
ENDBRANCH   1   2
BRANCH   1  17
ATOM     17  C   UNL     1      53.139  33.585  89.309  1.00  0.00     0.000 C 
BRANCH  17  18
ATOM     18  C   UNL     1      52.677  32.144  89.556  1.00  0.00     0.000 C 
BRANCH  18  19
ATOM     19  C   UNL     1      51.271  32.113  90.177  1.00  0.00     0.000 C 
BRANCH  19  20
ATOM     20  C   UNL     1      50.849  30.704  90.625  1.00  0.00     0.000 C 
BRANCH  20  21
ATOM     21  C   UNL     1      49.564  30.711  91.471  1.00  0.00     0.000 C 
BRANCH  21  22
ATOM     22  C   UNL     1      48.339  30.206  90.689  1.00  0.00    -0.000 C 
BRANCH  22  23
ATOM     23  C   UNL     1      47.178  31.211  90.697  1.00  0.00    -0.000 C 
BRANCH  23  24
ATOM     24  C   UNL     1      46.170  30.890  89.585  1.00  0.00    -0.000 C 
BRANCH  24  25
ATOM     25  C   UNL     1      44.714  31.174  89.994  1.00  0.00    -0.000 C 
BRANCH  25  26
ATOM     26  C   UNL     1      44.521  31.335  91.518  1.00  0.00    -0.000 C 
BRANCH  26  27
ATOM     27  C   UNL     1      43.691  30.188  92.120  1.00  0.00    -0.000 C 
BRANCH  27  28
ATOM     28  C   UNL     1      44.466  29.381  93.174  1.00  0.00    -0.000 C 
BRANCH  28  29
ATOM     29  C   UNL     1      44.784  27.952  92.709  1.00  0.00    -0.003 C 
ATOM     30  C   UNL     1      46.263  27.801  92.363  1.00  0.00     0.004 C 
ENDBRANCH  28  29
ENDBRANCH  27  28
ENDBRANCH  26  27
ENDBRANCH  25  26
ENDBRANCH  24  25
ENDBRANCH  23  24
ENDBRANCH  22  23
ENDBRANCH  21  22
ENDBRANCH  20  21
ENDBRANCH  19  20
ENDBRANCH  18  19
ENDBRANCH  17  18
ENDBRANCH   1  17
TORSDOF 26
ENDMDL
MODEL 7
REMARK VINA RESULT:    -3.464      3.477      8.175
REMARK INTER + INTRA:         -13.381
REMARK INTER:                  -8.381
REMARK INTRA:                  -5.000
REMARK UNBOUND:                -4.653
REMARK SMILES CCCCCCCCCCCCCCCCCCCCCCCCCCCC(=O)[O-]
REMARK SMILES IDX 15 1 16 2 17 3 18 4 19 5 20 6 21 7 22 8 23 9 24 10 25 11
REMARK SMILES IDX 26 12 27 13 28 14 29 15 30 16 14 17 13 18 12 19 11 20 10 21
REMARK SMILES IDX 9 22 8 23 7 24 6 25 5 26 4 27 3 28 2 29 1 30
REMARK H PARENT
REMARK Flexibility Score: inf
ROOT
ATOM      1  C   UNL     1      51.274  34.919  88.010  1.00  0.00     0.000 C 
ENDROOT
BRANCH   1   2
ATOM      2  C   UNL     1      49.876  35.505  87.758  1.00  0.00     0.000 C 
BRANCH   2   3
ATOM      3  C   UNL     1      48.992  34.584  86.905  1.00  0.00     0.000 C 
BRANCH   3   4
ATOM      4  C   UNL     1      48.301  33.527  87.777  1.00  0.00     0.000 C 
BRANCH   4   5
ATOM      5  C   UNL     1      48.166  32.193  87.027  1.00  0.00     0.000 C 
BRANCH   5   6
ATOM      6  C   UNL     1      49.327  31.229  87.324  1.00  0.00     0.000 C 
BRANCH   6   7
ATOM      7  C   UNL     1      49.817  30.493  86.067  1.00  0.00     0.000 C 
BRANCH   7   8
ATOM      8  C   UNL     1      50.889  31.279  85.293  1.00  0.00     0.000 C 
BRANCH   8   9
ATOM      9  C   UNL     1      50.407  31.810  83.926  1.00  0.00     0.000 C 
BRANCH   9  10
ATOM     10  C   UNL     1      51.217  33.029  83.458  1.00  0.00     0.000 C 
BRANCH  10  11
ATOM     11  C   UNL     1      50.380  34.311  83.545  1.00  0.00     0.000 C 
BRANCH  11  12
ATOM     12  C   UNL     1      49.062  34.162  82.771  1.00  0.00     0.006 C 
BRANCH  12  13
ATOM     13  C   UNL     1      49.234  34.451  81.274  1.00  0.00     0.053 C 
BRANCH  13  14
ATOM     14  C   UNL     1      48.762  33.306  80.431  1.00  0.00     0.041 C 
ATOM     15  O   UNL     1      49.386  32.211  80.439  1.00  0.00    -0.550 OA
ATOM     16  O   UNL     1      47.617  33.438  79.656  1.00  0.00    -0.550 OA
ENDBRANCH  13  14
ENDBRANCH  12  13
ENDBRANCH  11  12
ENDBRANCH  10  11
ENDBRANCH   9  10
ENDBRANCH   8   9
ENDBRANCH   7   8
ENDBRANCH   6   7
ENDBRANCH   5   6
ENDBRANCH   4   5
ENDBRANCH   3   4
ENDBRANCH   2   3
ENDBRANCH   1   2
BRANCH   1  17
ATOM     17  C   UNL     1      52.007  34.557  86.710  1.00  0.00     0.000 C 
BRANCH  17  18
ATOM     18  C   UNL     1      53.194  33.627  86.992  1.00  0.00     0.000 C 
BRANCH  18  19
ATOM     19  C   UNL     1      53.081  32.996  88.390  1.00  0.00     0.000 C 
BRANCH  19  20
ATOM     20  C   UNL     1      52.914  31.468  88.342  1.00  0.00     0.000 C 
BRANCH  20  21
ATOM     21  C   UNL     1      52.185  30.913  89.577  1.00  0.00     0.000 C 
BRANCH  21  22
ATOM     22  C   UNL     1      51.370  31.989  90.315  1.00  0.00    -0.000 C 
BRANCH  22  23
ATOM     23  C   UNL     1      50.310  31.389  91.251  1.00  0.00    -0.000 C 
BRANCH  23  24
ATOM     24  C   UNL     1      49.904  29.984  90.787  1.00  0.00    -0.000 C 
BRANCH  24  25
ATOM     25  C   UNL     1      48.380  29.774  90.775  1.00  0.00    -0.000 C 
BRANCH  25  26
ATOM     26  C   UNL     1      47.578  31.078  90.580  1.00  0.00    -0.000 C 
BRANCH  26  27
ATOM     27  C   UNL     1      46.228  30.829  89.884  1.00  0.00    -0.000 C 
BRANCH  27  28
ATOM     28  C   UNL     1      45.030  31.298  90.724  1.00  0.00    -0.000 C 
BRANCH  28  29
ATOM     29  C   UNL     1      44.709  30.342  91.882  1.00  0.00    -0.003 C 
ATOM     30  C   UNL     1      44.667  28.893  91.405  1.00  0.00     0.004 C 
ENDBRANCH  28  29
ENDBRANCH  27  28
ENDBRANCH  26  27
ENDBRANCH  25  26
ENDBRANCH  24  25
ENDBRANCH  23  24
ENDBRANCH  22  23
ENDBRANCH  21  22
ENDBRANCH  20  21
ENDBRANCH  19  20
ENDBRANCH  18  19
ENDBRANCH  17  18
ENDBRANCH   1  17
TORSDOF 26
ENDMDL
MODEL 8
REMARK VINA RESULT:    -3.440      1.589      3.725
REMARK INTER + INTRA:         -13.323
REMARK INTER:                  -7.911
REMARK INTRA:                  -5.412
REMARK UNBOUND:                -4.653
REMARK SMILES CCCCCCCCCCCCCCCCCCCCCCCCCCCC(=O)[O-]
REMARK SMILES IDX 15 1 16 2 17 3 18 4 19 5 20 6 21 7 22 8 23 9 24 10 25 11
REMARK SMILES IDX 26 12 27 13 28 14 29 15 30 16 14 17 13 18 12 19 11 20 10 21
REMARK SMILES IDX 9 22 8 23 7 24 6 25 5 26 4 27 3 28 2 29 1 30
REMARK H PARENT
REMARK Flexibility Score: inf
ROOT
ATOM      1  C   UNL     1      50.419  31.712  90.051  1.00  0.00     0.000 C 
ENDROOT
BRANCH   1   2
ATOM      2  C   UNL     1      49.725  30.982  91.212  1.00  0.00     0.000 C 
BRANCH   2   3
ATOM      3  C   UNL     1      50.367  29.623  91.527  1.00  0.00     0.000 C 
BRANCH   3   4
ATOM      4  C   UNL     1      49.575  28.481  90.878  1.00  0.00     0.000 C 
BRANCH   4   5
ATOM      5  C   UNL     1      50.130  28.145  89.485  1.00  0.00     0.000 C 
BRANCH   5   6
ATOM      6  C   UNL     1      49.031  28.082  88.411  1.00  0.00     0.000 C 
BRANCH   6   7
ATOM      7  C   UNL     1      48.864  29.415  87.663  1.00  0.00     0.000 C 
BRANCH   7   8
ATOM      8  C   UNL     1      47.517  29.523  86.927  1.00  0.00     0.000 C 
BRANCH   8   9
ATOM      9  C   UNL     1      46.425  30.260  87.731  1.00  0.00     0.000 C 
BRANCH   9  10
ATOM     10  C   UNL     1      47.015  31.113  88.865  1.00  0.00     0.000 C 
BRANCH  10  11
ATOM     11  C   UNL     1      45.908  31.652  89.780  1.00  0.00     0.000 C 
BRANCH  11  12
ATOM     12  C   UNL     1      46.058  31.103  91.206  1.00  0.00     0.006 C 
BRANCH  12  13
ATOM     13  C   UNL     1      44.791  31.314  92.045  1.00  0.00     0.053 C 
BRANCH  13  14
ATOM     14  C   UNL     1      44.292  30.027  92.626  1.00  0.00     0.041 C 
ATOM     15  O   UNL     1      43.085  29.911  92.972  1.00  0.00    -0.550 OA
ATOM     16  O   UNL     1      45.152  28.945  92.764  1.00  0.00    -0.550 OA
ENDBRANCH  13  14
ENDBRANCH  12  13
ENDBRANCH  11  12
ENDBRANCH  10  11
ENDBRANCH   9  10
ENDBRANCH   8   9
ENDBRANCH   7   8
ENDBRANCH   6   7
ENDBRANCH   5   6
ENDBRANCH   4   5
ENDBRANCH   3   4
ENDBRANCH   2   3
ENDBRANCH   1   2
BRANCH   1  17
ATOM     17  C   UNL     1      51.920  31.925  90.298  1.00  0.00     0.000 C 
BRANCH  17  18
ATOM     18  C   UNL     1      52.755  31.224  89.219  1.00  0.00     0.000 C 
BRANCH  18  19
ATOM     19  C   UNL     1      52.037  31.250  87.860  1.00  0.00     0.000 C 
BRANCH  19  20
ATOM     20  C   UNL     1      52.976  31.615  86.698  1.00  0.00     0.000 C 
BRANCH  20  21
ATOM     21  C   UNL     1      52.820  33.078  86.249  1.00  0.00     0.000 C 
BRANCH  21  22
ATOM     22  C   UNL     1      53.402  34.074  87.267  1.00  0.00    -0.000 C 
BRANCH  22  23
ATOM     23  C   UNL     1      52.317  34.918  87.953  1.00  0.00    -0.000 C 
BRANCH  23  24
ATOM     24  C   UNL     1      51.013  34.893  87.145  1.00  0.00    -0.000 C 
BRANCH  24  25
ATOM     25  C   UNL     1      49.768  34.669  88.021  1.00  0.00    -0.000 C 
BRANCH  25  26
ATOM     26  C   UNL     1      48.605  33.979  87.277  1.00  0.00    -0.000 C 
BRANCH  26  27
ATOM     27  C   UNL     1      49.102  32.897  86.302  1.00  0.00    -0.000 C 
BRANCH  27  28
ATOM     28  C   UNL     1      48.313  32.877  84.983  1.00  0.00    -0.000 C 
BRANCH  28  29
ATOM     29  C   UNL     1      48.519  34.150  84.150  1.00  0.00    -0.003 C 
ATOM     30  C   UNL     1      49.980  34.305  83.733  1.00  0.00     0.004 C 
ENDBRANCH  28  29
ENDBRANCH  27  28
ENDBRANCH  26  27
ENDBRANCH  25  26
ENDBRANCH  24  25
ENDBRANCH  23  24
ENDBRANCH  22  23
ENDBRANCH  21  22
ENDBRANCH  20  21
ENDBRANCH  19  20
ENDBRANCH  18  19
ENDBRANCH  17  18
ENDBRANCH   1  17
TORSDOF 26
ENDMDL
MODEL 9
REMARK VINA RESULT:    -3.439      4.307      8.047
REMARK INTER + INTRA:         -13.318
REMARK INTER:                  -7.856
REMARK INTRA:                  -5.462
REMARK UNBOUND:                -4.653
REMARK SMILES CCCCCCCCCCCCCCCCCCCCCCCCCCCC(=O)[O-]
REMARK SMILES IDX 15 1 16 2 17 3 18 4 19 5 20 6 21 7 22 8 23 9 24 10 25 11
REMARK SMILES IDX 26 12 27 13 28 14 29 15 30 16 14 17 13 18 12 19 11 20 10 21
REMARK SMILES IDX 9 22 8 23 7 24 6 25 5 26 4 27 3 28 2 29 1 30
REMARK H PARENT
REMARK Flexibility Score: inf
ROOT
ATOM      1  C   UNL     1      52.551  31.804  84.966  1.00  0.00     0.000 C 
ENDROOT
BRANCH   1   2
ATOM      2  C   UNL     1      53.275  33.139  85.201  1.00  0.00     0.000 C 
BRANCH   2   3
ATOM      3  C   UNL     1      52.321  34.261  85.637  1.00  0.00     0.000 C 
BRANCH   3   4
ATOM      4  C   UNL     1      52.690  34.782  87.032  1.00  0.00     0.000 C 
BRANCH   4   5
ATOM      5  C   UNL     1      51.453  35.323  87.766  1.00  0.00     0.000 C 
BRANCH   5   6
ATOM      6  C   UNL     1      50.415  34.228  88.061  1.00  0.00     0.000 C 
BRANCH   6   7
ATOM      7  C   UNL     1      48.977  34.688  87.773  1.00  0.00     0.000 C 
BRANCH   7   8
ATOM      8  C   UNL     1      48.617  34.624  86.279  1.00  0.00     0.000 C 
BRANCH   8   9
ATOM      9  C   UNL     1      48.668  33.201  85.685  1.00  0.00     0.000 C 
BRANCH   9  10
ATOM     10  C   UNL     1      48.722  33.213  84.150  1.00  0.00     0.000 C 
BRANCH  10  11
ATOM     11  C   UNL     1      49.438  34.467  83.635  1.00  0.00     0.000 C 
BRANCH  11  12
ATOM     12  C   UNL     1      49.892  34.283  82.179  1.00  0.00     0.006 C 
BRANCH  12  13
ATOM     13  C   UNL     1      51.406  34.061  82.068  1.00  0.00     0.053 C 
BRANCH  13  14
ATOM     14  C   UNL     1      51.913  34.385  80.696  1.00  0.00     0.041 C 
ATOM     15  O   UNL     1      52.554  35.450  80.491  1.00  0.00    -0.550 OA
ATOM     16  O   UNL     1      51.702  33.498  79.649  1.00  0.00    -0.550 OA
ENDBRANCH  13  14
ENDBRANCH  12  13
ENDBRANCH  11  12
ENDBRANCH  10  11
ENDBRANCH   9  10
ENDBRANCH   8   9
ENDBRANCH   7   8
ENDBRANCH   6   7
ENDBRANCH   5   6
ENDBRANCH   4   5
ENDBRANCH   3   4
ENDBRANCH   2   3
ENDBRANCH   1   2
BRANCH   1  17
ATOM     17  C   UNL     1      51.818  31.299  86.217  1.00  0.00     0.000 C 
BRANCH  17  18
ATOM     18  C   UNL     1      52.442  29.994  86.727  1.00  0.00     0.000 C 
BRANCH  18  19
ATOM     19  C   UNL     1      53.015  30.171  88.142  1.00  0.00     0.000 C 
BRANCH  19  20
ATOM     20  C   UNL     1      53.058  31.643  88.587  1.00  0.00     0.000 C 
BRANCH  20  21
ATOM     21  C   UNL     1      53.314  31.798  90.096  1.00  0.00     0.000 C 
BRANCH  21  22
ATOM     22  C   UNL     1      52.125  32.434  90.835  1.00  0.00    -0.000 C 
BRANCH  22  23
ATOM     23  C   UNL     1      51.856  31.778  92.197  1.00  0.00    -0.000 C 
BRANCH  23  24
ATOM     24  C   UNL     1      50.502  31.055  92.198  1.00  0.00    -0.000 C 
BRANCH  24  25
ATOM     25  C   UNL     1      50.562  29.668  91.536  1.00  0.00    -0.000 C 
BRANCH  25  26
ATOM     26  C   UNL     1      49.323  29.342  90.674  1.00  0.00    -0.000 C 
BRANCH  26  27
ATOM     27  C   UNL     1      49.541  29.694  89.191  1.00  0.00    -0.000 C 
BRANCH  27  28
ATOM     28  C   UNL     1      49.077  31.117  88.843  1.00  0.00    -0.000 C 
BRANCH  28  29
ATOM     29  C   UNL     1      47.588  31.181  88.475  1.00  0.00    -0.003 C 
ATOM     30  C   UNL     1      46.763  31.774  89.614  1.00  0.00     0.004 C 
ENDBRANCH  28  29
ENDBRANCH  27  28
ENDBRANCH  26  27
ENDBRANCH  25  26
ENDBRANCH  24  25
ENDBRANCH  23  24
ENDBRANCH  22  23
ENDBRANCH  21  22
ENDBRANCH  20  21
ENDBRANCH  19  20
ENDBRANCH  18  19
ENDBRANCH  17  18
ENDBRANCH   1  17
TORSDOF 26
ENDMDL
