MODEL 1
REMARK VINA RESULT:    -3.547      0.000      0.000
REMARK INTER + INTRA:          -4.654
REMARK INTER:                  -5.206
REMARK INTRA:                   0.552
REMARK UNBOUND:                 0.552
REMARK SMILES C=C1CC=CC(C)(C)CC=C(C)CCC1
REMARK SMILES IDX 2 1 1 2 15 3 14 4 13 5 11 6 12 7 10 8 3 10 4 11 5 12 6 13
REMARK SMILES IDX 7 14 8 15 9 16
REMARK H PARENT
REMARK Flexibility Score: 60.00
ROOT
ATOM      1  C   UNL     1     133.109 136.587 132.243  1.00  0.00    -0.074 C 
ATOM      2  C   UNL     1     133.511 135.984 133.374  1.00  0.00     0.008 C 
ENDROOT
BRANCH   1   3
ATOM      3  C   UNL     1     132.404 135.787 131.161  1.00  0.00     0.031 C 
BRANCH   3   4
ATOM      4  C   UNL     1     133.352 134.783 130.468  1.00  0.00     0.009 C 
BRANCH   4   5
ATOM      5  C   UNL     1     134.174 135.418 129.325  1.00  0.00     0.030 C 
BRANCH   5   6
ATOM      6  C   UNL     1     135.600 135.710 129.760  1.00  0.00    -0.077 C 
ATOM      7  C   UNL     1     136.503 134.532 130.031  1.00  0.00     0.039 C 
ATOM      8  C   UNL     1     136.130 136.953 129.897  1.00  0.00    -0.027 CG0
ATOM      9  G   UNL     1     135.424 138.280 129.678  1.00  0.00     0.000 G0
ENDBRANCH   5   6
ENDBRANCH   4   5
ENDBRANCH   3   4
ENDBRANCH   1   3
BRANCH   1  10
ATOM     10  C   UNL     1     133.344 138.070 132.065  1.00  0.00     0.057 C 
BRANCH  10  11
ATOM     11  C   UNL     1     134.639 138.467 132.729  1.00  0.00    -0.026 C 
ATOM     12  C   UNL     1     135.719 139.022 132.141  1.00  0.00    -0.024 C 
BRANCH  12  13
ATOM     13  C   UNL     1     135.911 139.418 130.672  1.00  0.00    -0.014 C 
ATOM     14  C   UNL     1     135.083 140.705 130.421  1.00  0.00     0.016 C 
ATOM     15  C   UNL     1     137.389 139.773 130.392  1.00  0.00     0.016 C 
BRANCH  13  16
ATOM     16  C   UNL     1     135.428 138.314 129.682  1.00  0.00     0.038 CG0
ATOM     17  G   UNL     1     136.116 136.975 129.888  1.00  0.00     0.000 G0
ENDBRANCH  13  16
ENDBRANCH  12  13
ENDBRANCH  10  11
ENDBRANCH   1  10
TORSDOF 0
ENDMDL
MODEL 2
REMARK VINA RESULT:    -3.467      2.867      5.755
REMARK INTER + INTRA:          -4.536
REMARK INTER:                  -5.005
REMARK INTRA:                   0.469
REMARK UNBOUND:                 0.552
REMARK SMILES C=C1CC=CC(C)(C)CC=C(C)CCC1
REMARK SMILES IDX 2 1 1 2 15 3 14 4 13 5 11 6 12 7 10 8 3 10 4 11 5 12 6 13
REMARK SMILES IDX 7 14 8 15 9 16
REMARK H PARENT
REMARK Flexibility Score: 60.00
ROOT
ATOM      1  C   UNL     1     140.213 137.036 132.004  1.00  0.00    -0.074 C 
ATOM      2  C   UNL     1     141.255 137.576 131.350  1.00  0.00     0.008 C 
ENDROOT
BRANCH   1   3
ATOM      3  C   UNL     1     139.217 137.929 132.724  1.00  0.00     0.031 C 
BRANCH   3   4
ATOM      4  C   UNL     1     138.577 138.967 131.777  1.00  0.00     0.009 C 
BRANCH   4   5
ATOM      5  C   UNL     1     137.421 138.385 130.933  1.00  0.00     0.030 C 
BRANCH   5   6
ATOM      6  C   UNL     1     136.339 137.780 131.811  1.00  0.00    -0.077 C 
ATOM      7  C   UNL     1     135.519 138.721 132.658  1.00  0.00     0.039 C 
ATOM      8  C   UNL     1     136.038 136.457 131.870  1.00  0.00    -0.027 CG0
ATOM      9  G   UNL     1     136.716 135.327 131.114  1.00  0.00     0.000 G0
ENDBRANCH   5   6
ENDBRANCH   4   5
ENDBRANCH   3   4
ENDBRANCH   1   3
BRANCH   1  10
ATOM     10  C   UNL     1     140.029 135.535 132.001  1.00  0.00     0.057 C 
BRANCH  10  11
ATOM     11  C   UNL     1     139.226 135.114 133.207  1.00  0.00    -0.026 C 
ATOM     12  C   UNL     1     138.009 134.530 133.212  1.00  0.00    -0.024 C 
BRANCH  12  13
ATOM     13  C   UNL     1     137.141 134.116 132.016  1.00  0.00    -0.014 C 
ATOM     14  C   UNL     1     137.963 133.115 131.164  1.00  0.00     0.016 C 
ATOM     15  C   UNL     1     135.877 133.367 132.494  1.00  0.00     0.016 C 
BRANCH  13  16
ATOM     16  C   UNL     1     136.740 135.326 131.117  1.00  0.00     0.038 CG0
ATOM     17  G   UNL     1     136.051 136.444 131.880  1.00  0.00     0.000 G0
ENDBRANCH  13  16
ENDBRANCH  12  13
ENDBRANCH  10  11
ENDBRANCH   1  10
TORSDOF 0
ENDMDL
MODEL 3
REMARK VINA RESULT:    -3.373      2.557      4.381
REMARK INTER + INTRA:          -4.399
REMARK INTER:                  -4.956
REMARK INTRA:                   0.558
REMARK UNBOUND:                 0.552
REMARK SMILES C=C1CC=CC(C)(C)CC=C(C)CCC1
REMARK SMILES IDX 2 1 1 2 15 3 14 4 13 5 11 6 12 7 10 8 3 10 4 11 5 12 6 13
REMARK SMILES IDX 7 14 8 15 9 16
REMARK H PARENT
REMARK Flexibility Score: 60.00
ROOT
ATOM      1  C   UNL     1     137.085 140.640 132.313  1.00  0.00    -0.074 C 
ATOM      2  C   UNL     1     136.680 140.490 133.586  1.00  0.00     0.008 C 
ENDROOT
BRANCH   1   3
ATOM      3  C   UNL     1     136.163 141.278 131.289  1.00  0.00     0.031 C 
BRANCH   3   4
ATOM      4  C   UNL     1     135.038 140.320 130.840  1.00  0.00     0.009 C 
BRANCH   4   5
ATOM      5  C   UNL     1     135.105 139.971 129.337  1.00  0.00     0.030 C 
BRANCH   5   6
ATOM      6  C   UNL     1     135.422 138.502 129.118  1.00  0.00    -0.077 C 
ATOM      7  C   UNL     1     134.265 137.535 129.085  1.00  0.00     0.039 C 
ATOM      8  C   UNL     1     136.668 137.997 128.926  1.00  0.00    -0.027 CG0
ATOM      9  G   UNL     1     137.978 138.768 128.914  1.00  0.00     0.000 G0
ENDBRANCH   5   6
ENDBRANCH   4   5
ENDBRANCH   3   4
ENDBRANCH   1   3
BRANCH   1  10
ATOM     10  C   UNL     1     138.471 140.187 131.914  1.00  0.00     0.057 C 
BRANCH  10  11
ATOM     11  C   UNL     1     138.590 138.692 132.080  1.00  0.00    -0.026 C 
ATOM     12  C   UNL     1     138.867 137.786 131.119  1.00  0.00    -0.024 C 
BRANCH  12  13
ATOM     13  C   UNL     1     139.158 138.026 129.632  1.00  0.00    -0.014 C 
ATOM     14  C   UNL     1     140.433 138.903 129.539  1.00  0.00     0.016 C 
ATOM     15  C   UNL     1     139.477 136.693 128.918  1.00  0.00     0.016 C 
BRANCH  13  16
ATOM     16  C   UNL     1     137.992 138.760 128.901  1.00  0.00     0.038 CG0
ATOM     17  G   UNL     1     136.676 138.003 128.951  1.00  0.00     0.000 G0
ENDBRANCH  13  16
ENDBRANCH  12  13
ENDBRANCH  10  11
ENDBRANCH   1  10
TORSDOF 0
ENDMDL
MODEL 4
REMARK VINA RESULT:    -3.331      1.981      2.412
REMARK INTER + INTRA:          -4.337
REMARK INTER:                  -4.941
REMARK INTRA:                   0.604
REMARK UNBOUND:                 0.552
REMARK SMILES C=C1CC=CC(C)(C)CC=C(C)CCC1
REMARK SMILES IDX 2 1 1 2 15 3 14 4 13 5 11 6 12 7 10 8 3 10 4 11 5 12 6 13
REMARK SMILES IDX 7 14 8 15 9 16
REMARK H PARENT
REMARK Flexibility Score: 60.00
ROOT
ATOM      1  C   UNL     1     133.466 136.637 131.992  1.00  0.00    -0.074 C 
ATOM      2  C   UNL     1     132.445 136.141 131.274  1.00  0.00     0.008 C 
ENDROOT
BRANCH   1   3
ATOM      3  C   UNL     1     134.413 135.700 132.722  1.00  0.00     0.031 C 
BRANCH   3   4
ATOM      4  C   UNL     1     135.112 134.714 131.760  1.00  0.00     0.009 C 
BRANCH   4   5
ATOM      5  C   UNL     1     136.472 135.234 131.244  1.00  0.00     0.030 C 
BRANCH   5   6
ATOM      6  C   UNL     1     137.317 135.801 132.372  1.00  0.00    -0.077 C 
ATOM      7  C   UNL     1     137.946 134.824 133.333  1.00  0.00     0.039 C 
ATOM      8  C   UNL     1     137.568 137.122 132.564  1.00  0.00    -0.027 CG0
ATOM      9  G   UNL     1     137.053 138.284 131.732  1.00  0.00     0.000 G0
ENDBRANCH   5   6
ENDBRANCH   4   5
ENDBRANCH   3   4
ENDBRANCH   1   3
BRANCH   1  10
ATOM     10  C   UNL     1     133.679 138.133 132.050  1.00  0.00     0.057 C 
BRANCH  10  11
ATOM     11  C   UNL     1     134.272 138.516 133.383  1.00  0.00    -0.026 C 
ATOM     12  C   UNL     1     135.481 139.073 133.607  1.00  0.00    -0.024 C 
BRANCH  12  13
ATOM     13  C   UNL     1     136.548 139.487 132.586  1.00  0.00    -0.014 C 
ATOM     14  C   UNL     1     135.909 140.532 131.636  1.00  0.00     0.016 C 
ATOM     15  C   UNL     1     137.734 140.185 133.289  1.00  0.00     0.016 C 
BRANCH  13  16
ATOM     16  C   UNL     1     137.062 138.286 131.733  1.00  0.00     0.038 CG0
ATOM     17  G   UNL     1     137.557 137.119 132.569  1.00  0.00     0.000 G0
ENDBRANCH  13  16
ENDBRANCH  12  13
ENDBRANCH  10  11
ENDBRANCH   1  10
TORSDOF 0
ENDMDL
MODEL 5
REMARK VINA RESULT:    -3.329      2.492      4.722
REMARK INTER + INTRA:          -4.334
REMARK INTER:                  -4.752
REMARK INTRA:                   0.417
REMARK UNBOUND:                 0.552
REMARK SMILES C=C1CC=CC(C)(C)CC=C(C)CCC1
REMARK SMILES IDX 2 1 1 2 15 3 14 4 13 5 11 6 12 7 10 8 3 10 4 11 5 12 6 13
REMARK SMILES IDX 7 14 8 15 9 16
REMARK H PARENT
REMARK Flexibility Score: 60.00
ROOT
ATOM      1  C   UNL     1     137.509 133.180 131.954  1.00  0.00    -0.074 C 
ATOM      2  C   UNL     1     138.077 132.190 131.244  1.00  0.00     0.008 C 
ENDROOT
BRANCH   1   3
ATOM      3  C   UNL     1     138.357 134.047 132.868  1.00  0.00     0.031 C 
BRANCH   3   4
ATOM      4  C   UNL     1     139.377 134.899 132.081  1.00  0.00     0.009 C 
BRANCH   4   5
ATOM      5  C   UNL     1     138.714 136.022 131.252  1.00  0.00     0.030 C 
BRANCH   5   6
ATOM      6  C   UNL     1     138.074 137.071 132.146  1.00  0.00    -0.077 C 
ATOM      7  C   UNL     1     138.988 137.911 133.002  1.00  0.00     0.039 C 
ATOM      8  C   UNL     1     136.741 137.325 132.212  1.00  0.00    -0.027 CG0
ATOM      9  G   UNL     1     135.634 136.618 131.448  1.00  0.00     0.000 G0
ENDBRANCH   5   6
ENDBRANCH   4   5
ENDBRANCH   3   4
ENDBRANCH   1   3
BRANCH   1  10
ATOM     10  C   UNL     1     136.025 133.436 131.820  1.00  0.00     0.057 C 
BRANCH  10  11
ATOM     11  C   UNL     1     135.469 133.929 133.133  1.00  0.00    -0.026 C 
ATOM     12  C   UNL     1     134.807 135.084 133.354  1.00  0.00    -0.024 C 
BRANCH  12  13
ATOM     13  C   UNL     1     134.423 136.175 132.347  1.00  0.00    -0.014 C 
ATOM     14  C   UNL     1     133.306 135.601 131.437  1.00  0.00     0.016 C 
ATOM     15  C   UNL     1     133.824 137.401 133.073  1.00  0.00     0.016 C 
BRANCH  13  16
ATOM     16  C   UNL     1     135.620 136.615 131.450  1.00  0.00     0.038 CG0
ATOM     17  G   UNL     1     136.728 137.313 132.220  1.00  0.00     0.000 G0
ENDBRANCH  13  16
ENDBRANCH  12  13
ENDBRANCH  10  11
ENDBRANCH   1  10
TORSDOF 0
ENDMDL
MODEL 6
REMARK VINA RESULT:    -3.287      2.123      4.661
REMARK INTER + INTRA:          -4.272
REMARK INTER:                  -5.003
REMARK INTRA:                   0.731
REMARK UNBOUND:                 0.552
REMARK SMILES C=C1CC=CC(C)(C)CC=C(C)CCC1
REMARK SMILES IDX 2 1 1 2 15 3 14 4 13 5 11 6 12 7 10 8 3 10 4 11 5 12 6 13
REMARK SMILES IDX 7 14 8 15 9 16
REMARK H PARENT
REMARK Flexibility Score: 60.00
ROOT
ATOM      1  C   UNL     1     136.356 140.437 132.079  1.00  0.00    -0.074 C 
ATOM      2  C   UNL     1     135.885 141.270 131.135  1.00  0.00     0.008 C 
ENDROOT
BRANCH   1   3
ATOM      3  C   UNL     1     137.748 140.640 132.650  1.00  0.00     0.031 C 
BRANCH   3   4
ATOM      4  C   UNL     1     138.794 139.728 131.971  1.00  0.00     0.009 C 
BRANCH   4   5
ATOM      5  C   UNL     1     138.784 138.284 132.519  1.00  0.00     0.030 C 
BRANCH   5   6
ATOM      6  C   UNL     1     138.435 137.279 131.434  1.00  0.00    -0.077 C 
ATOM      7  C   UNL     1     139.319 137.234 130.213  1.00  0.00     0.039 C 
ATOM      8  C   UNL     1     137.402 136.400 131.495  1.00  0.00    -0.027 CG0
ATOM      9  G   UNL     1     136.386 136.254 132.615  1.00  0.00     0.000 G0
ENDBRANCH   5   6
ENDBRANCH   4   5
ENDBRANCH   3   4
ENDBRANCH   1   3
BRANCH   1  10
ATOM     10  C   UNL     1     135.481 139.311 132.582  1.00  0.00     0.057 C 
BRANCH  10  11
ATOM     11  C   UNL     1     134.748 138.675 131.427  1.00  0.00    -0.026 C 
ATOM     12  C   UNL     1     134.515 137.360 131.236  1.00  0.00    -0.024 C 
BRANCH  12  13
ATOM     13  C   UNL     1     134.899 136.179 132.137  1.00  0.00    -0.014 C 
ATOM     14  C   UNL     1     133.966 136.210 133.374  1.00  0.00     0.016 C 
ATOM     15  C   UNL     1     134.642 134.837 131.415  1.00  0.00     0.016 C 
BRANCH  13  16
ATOM     16  C   UNL     1     136.378 136.250 132.626  1.00  0.00     0.038 CG0
ATOM     17  G   UNL     1     137.381 136.413 131.496  1.00  0.00     0.000 G0
ENDBRANCH  13  16
ENDBRANCH  12  13
ENDBRANCH  10  11
ENDBRANCH   1  10
TORSDOF 0
ENDMDL
MODEL 7
REMARK VINA RESULT:    -3.247      1.997      4.506
REMARK INTER + INTRA:          -4.213
REMARK INTER:                  -4.646
REMARK INTRA:                   0.432
REMARK UNBOUND:                 0.552
REMARK SMILES C=C1CC=CC(C)(C)CC=C(C)CCC1
REMARK SMILES IDX 2 1 1 2 15 3 14 4 13 5 11 6 12 7 10 8 3 10 4 11 5 12 6 13
REMARK SMILES IDX 7 14 8 15 9 16
REMARK H PARENT
REMARK Flexibility Score: 60.00
ROOT
ATOM      1  C   UNL     1     137.179 140.356 132.457  1.00  0.00    -0.074 C 
ATOM      2  C   UNL     1     138.390 140.017 131.984  1.00  0.00     0.008 C 
ENDROOT
BRANCH   1   3
ATOM      3  C   UNL     1     136.263 141.250 131.639  1.00  0.00     0.031 C 
BRANCH   3   4
ATOM      4  C   UNL     1     136.105 140.749 130.187  1.00  0.00     0.009 C 
BRANCH   4   5
ATOM      5  C   UNL     1     134.834 139.896 129.977  1.00  0.00     0.030 C 
BRANCH   5   6
ATOM      6  C   UNL     1     135.124 138.414 130.137  1.00  0.00    -0.077 C 
ATOM      7  C   UNL     1     135.856 137.719 129.016  1.00  0.00     0.039 C 
ATOM      8  C   UNL     1     134.794 137.673 131.227  1.00  0.00    -0.027 CG0
ATOM      9  G   UNL     1     134.064 138.147 132.472  1.00  0.00     0.000 G0
ENDBRANCH   5   6
ENDBRANCH   4   5
ENDBRANCH   3   4
ENDBRANCH   1   3
BRANCH   1  10
ATOM     10  C   UNL     1     136.727 139.823 133.798  1.00  0.00     0.057 C 
BRANCH  10  11
ATOM     11  C   UNL     1     136.989 138.339 133.875  1.00  0.00    -0.026 C 
ATOM     12  C   UNL     1     136.071 137.350 133.889  1.00  0.00    -0.024 C 
BRANCH  12  13
ATOM     13  C   UNL     1     134.543 137.460 133.804  1.00  0.00    -0.014 C 
ATOM     14  C   UNL     1     133.966 136.021 133.855  1.00  0.00     0.016 C 
ATOM     15  C   UNL     1     133.982 138.212 135.031  1.00  0.00     0.016 C 
BRANCH  13  16
ATOM     16  C   UNL     1     134.062 138.145 132.488  1.00  0.00     0.038 CG0
ATOM     17  G   UNL     1     134.808 137.672 131.253  1.00  0.00     0.000 G0
ENDBRANCH  13  16
ENDBRANCH  12  13
ENDBRANCH  10  11
ENDBRANCH   1  10
TORSDOF 0
ENDMDL
MODEL 8
REMARK VINA RESULT:    -3.215      1.884      4.038
REMARK INTER + INTRA:          -4.167
REMARK INTER:                  -4.781
REMARK INTRA:                   0.614
REMARK UNBOUND:                 0.552
REMARK SMILES C=C1CC=CC(C)(C)CC=C(C)CCC1
REMARK SMILES IDX 2 1 1 2 15 3 14 4 13 5 11 6 12 7 10 8 3 10 4 11 5 12 6 13
REMARK SMILES IDX 7 14 8 15 9 16
REMARK H PARENT
REMARK Flexibility Score: 60.00
ROOT
ATOM      1  C   UNL     1     133.394 136.341 131.748  1.00  0.00    -0.074 C 
ATOM      2  C   UNL     1     132.395 135.863 130.987  1.00  0.00     0.008 C 
ENDROOT
BRANCH   1   3
ATOM      3  C   UNL     1     133.182 137.587 132.590  1.00  0.00     0.031 C 
BRANCH   3   4
ATOM      4  C   UNL     1     134.001 138.789 132.068  1.00  0.00     0.009 C 
BRANCH   4   5
ATOM      5  C   UNL     1     135.213 139.129 132.964  1.00  0.00     0.030 C 
BRANCH   5   6
ATOM      6  C   UNL     1     136.452 139.424 132.136  1.00  0.00    -0.077 C 
ATOM      7  C   UNL     1     136.593 140.810 131.559  1.00  0.00     0.039 C 
ATOM      8  C   UNL     1     137.455 138.539 131.898  1.00  0.00    -0.027 CG0
ATOM      9  G   UNL     1     137.538 137.098 132.373  1.00  0.00     0.000 G0
ENDBRANCH   5   6
ENDBRANCH   4   5
ENDBRANCH   3   4
ENDBRANCH   1   3
BRANCH   1  10
ATOM     10  C   UNL     1     134.721 135.618 131.777  1.00  0.00     0.057 C 
BRANCH  10  11
ATOM     11  C   UNL     1     135.406 135.749 130.439  1.00  0.00    -0.026 C 
ATOM     12  C   UNL     1     136.720 135.953 130.214  1.00  0.00    -0.024 C 
BRANCH  12  13
ATOM     13  C   UNL     1     137.859 136.077 131.235  1.00  0.00    -0.014 C 
ATOM     14  C   UNL     1     138.072 134.679 131.872  1.00  0.00     0.016 C 
ATOM     15  C   UNL     1     139.181 136.457 130.533  1.00  0.00     0.016 C 
BRANCH  13  16
ATOM     16  C   UNL     1     137.541 137.099 132.370  1.00  0.00     0.038 CG0
ATOM     17  G   UNL     1     137.451 138.535 131.882  1.00  0.00     0.000 G0
ENDBRANCH  13  16
ENDBRANCH  12  13
ENDBRANCH  10  11
ENDBRANCH   1  10
TORSDOF 0
ENDMDL
MODEL 9
REMARK VINA RESULT:    -3.107      2.873      4.735
REMARK INTER + INTRA:          -4.008
REMARK INTER:                  -4.844
REMARK INTRA:                   0.836
REMARK UNBOUND:                 0.552
REMARK SMILES C=C1CC=CC(C)(C)CC=C(C)CCC1
REMARK SMILES IDX 2 1 1 2 15 3 14 4 13 5 11 6 12 7 10 8 3 10 4 11 5 12 6 13
REMARK SMILES IDX 7 14 8 15 9 16
REMARK H PARENT
REMARK Flexibility Score: 60.00
ROOT
ATOM      1  C   UNL     1     140.392 137.173 132.038  1.00  0.00    -0.074 C 
ATOM      2  C   UNL     1     141.328 137.747 131.264  1.00  0.00     0.008 C 
ENDROOT
BRANCH   1   3
ATOM      3  C   UNL     1     140.339 135.662 132.180  1.00  0.00     0.031 C 
BRANCH   3   4
ATOM      4  C   UNL     1     139.182 135.202 133.094  1.00  0.00     0.009 C 
BRANCH   4   5
ATOM      5  C   UNL     1     137.985 134.624 132.308  1.00  0.00     0.030 C 
BRANCH   5   6
ATOM      6  C   UNL     1     136.665 135.180 132.814  1.00  0.00    -0.077 C 
ATOM      7  C   UNL     1     135.959 134.417 133.908  1.00  0.00     0.039 C 
ATOM      8  C   UNL     1     136.086 136.326 132.372  1.00  0.00    -0.027 CG0
ATOM      9  G   UNL     1     136.605 137.258 131.291  1.00  0.00     0.000 G0
ENDBRANCH   5   6
ENDBRANCH   4   5
ENDBRANCH   3   4
ENDBRANCH   1   3
BRANCH   1  10
ATOM     10  C   UNL     1     139.405 138.044 132.784  1.00  0.00     0.057 C 
BRANCH  10  11
ATOM     11  C   UNL     1     139.027 139.232 131.936  1.00  0.00    -0.026 C 
ATOM     12  C   UNL     1     137.804 139.530 131.450  1.00  0.00    -0.024 C 
BRANCH  12  13
ATOM     13  C   UNL     1     136.485 138.771 131.647  1.00  0.00    -0.014 C 
ATOM     14  C   UNL     1     136.095 138.890 133.142  1.00  0.00     0.016 C 
ATOM     15  C   UNL     1     135.350 139.432 130.833  1.00  0.00     0.016 C 
BRANCH  13  16
ATOM     16  C   UNL     1     136.599 137.260 131.278  1.00  0.00     0.038 CG0
ATOM     17  G   UNL     1     136.085 136.332 132.366  1.00  0.00     0.000 G0
ENDBRANCH  13  16
ENDBRANCH  12  13
ENDBRANCH  10  11
ENDBRANCH   1  10
TORSDOF 0
ENDMDL
