MODEL 1
REMARK VINA RESULT:    -3.789      0.000      0.000
REMARK INTER + INTRA:          -4.753
REMARK INTER:                  -4.675
REMARK INTRA:                  -0.078
REMARK UNBOUND:                -0.078
REMARK SMILES CCCCCC(=O)[O-]
REMARK SMILES IDX 4 1 5 2 6 3 7 4 8 5 3 6 2 7 1 8
REMARK H PARENT
REMARK Flexibility Score: inf
ROOT
ATOM      1  C   UNL     1     115.313 -83.180  20.368  1.00  0.00     0.006 C 
ENDROOT
BRANCH   1   2
ATOM      2  C   UNL     1     114.009 -83.984  20.484  1.00  0.00     0.053 C 
BRANCH   2   3
ATOM      3  C   UNL     1     112.967 -83.250  21.271  1.00  0.00     0.041 C 
ATOM      4  O   UNL     1     112.471 -83.768  22.306  1.00  0.00    -0.550 OA
ATOM      5  O   UNL     1     112.517 -82.008  20.840  1.00  0.00    -0.550 OA
ENDBRANCH   2   3
ENDBRANCH   1   2
BRANCH   1   6
ATOM      6  C   UNL     1     116.255 -83.310  21.583  1.00  0.00     0.000 C 
BRANCH   6   7
ATOM      7  C   UNL     1     117.755 -83.303  21.245  1.00  0.00    -0.003 C 
ATOM      8  C   UNL     1     118.633 -82.914  22.435  1.00  0.00     0.004 C 
ENDBRANCH   6   7
ENDBRANCH   1   6
TORSDOF 4
ENDMDL
MODEL 2
REMARK VINA RESULT:    -3.772      1.359      1.719
REMARK INTER + INTRA:          -4.731
REMARK INTER:                  -4.650
REMARK INTRA:                  -0.081
REMARK UNBOUND:                -0.078
REMARK SMILES CCCCCC(=O)[O-]
REMARK SMILES IDX 4 1 5 2 6 3 7 4 8 5 3 6 2 7 1 8
REMARK H PARENT
REMARK Flexibility Score: inf
ROOT
ATOM      1  C   UNL     1     116.254 -83.322  21.183  1.00  0.00     0.006 C 
ENDROOT
BRANCH   1   2
ATOM      2  C   UNL     1     114.919 -82.627  21.491  1.00  0.00     0.053 C 
BRANCH   2   3
ATOM      3  C   UNL     1     113.745 -83.488  21.140  1.00  0.00     0.041 C 
ATOM      4  O   UNL     1     113.704 -84.085  20.032  1.00  0.00    -0.550 OA
ATOM      5  O   UNL     1     112.679 -83.604  22.024  1.00  0.00    -0.550 OA
ENDBRANCH   2   3
ENDBRANCH   1   2
BRANCH   1   6
ATOM      6  C   UNL     1     117.361 -83.073  22.229  1.00  0.00     0.000 C 
BRANCH   6   7
ATOM      7  C   UNL     1     118.768 -82.857  21.646  1.00  0.00    -0.003 C 
ATOM      8  C   UNL     1     119.027 -81.407  21.236  1.00  0.00     0.004 C 
ENDBRANCH   6   7
ENDBRANCH   1   6
TORSDOF 4
ENDMDL
MODEL 3
REMARK VINA RESULT:    -3.749      8.186      9.332
REMARK INTER + INTRA:          -4.703
REMARK INTER:                  -4.599
REMARK INTRA:                  -0.104
REMARK UNBOUND:                -0.078
REMARK SMILES CCCCCC(=O)[O-]
REMARK SMILES IDX 4 1 5 2 6 3 7 4 8 5 3 6 2 7 1 8
REMARK H PARENT
REMARK Flexibility Score: inf
ROOT
ATOM      1  C   UNL     1     107.348 -83.853  23.268  1.00  0.00     0.006 C 
ENDROOT
BRANCH   1   2
ATOM      2  C   UNL     1     105.956 -84.098  23.872  1.00  0.00     0.053 C 
BRANCH   2   3
ATOM      3  C   UNL     1     104.867 -83.910  22.861  1.00  0.00     0.041 C 
ATOM      4  O   UNL     1     105.143 -83.528  21.693  1.00  0.00    -0.550 OA
ATOM      5  O   UNL     1     103.541 -84.125  23.219  1.00  0.00    -0.550 OA
ENDBRANCH   2   3
ENDBRANCH   1   2
BRANCH   1   6
ATOM      6  C   UNL     1     108.191 -82.799  24.014  1.00  0.00     0.000 C 
BRANCH   6   7
ATOM      7  C   UNL     1     107.380 -81.776  24.829  1.00  0.00    -0.003 C 
ATOM      8  C   UNL     1     107.470 -82.010  26.337  1.00  0.00     0.004 C 
ENDBRANCH   6   7
ENDBRANCH   1   6
TORSDOF 4
ENDMDL
MODEL 4
REMARK VINA RESULT:    -3.739      3.626      5.114
REMARK INTER + INTRA:          -4.690
REMARK INTER:                  -4.578
REMARK INTRA:                  -0.113
REMARK UNBOUND:                -0.078
REMARK SMILES CCCCCC(=O)[O-]
REMARK SMILES IDX 4 1 5 2 6 3 7 4 8 5 3 6 2 7 1 8
REMARK H PARENT
REMARK Flexibility Score: inf
ROOT
ATOM      1  C   UNL     1     117.007 -83.399  21.477  1.00  0.00     0.006 C 
ENDROOT
BRANCH   1   2
ATOM      2  C   UNL     1     118.403 -82.763  21.393  1.00  0.00     0.053 C 
BRANCH   2   3
ATOM      3  C   UNL     1     119.025 -82.598  22.745  1.00  0.00     0.041 C 
ATOM      4  O   UNL     1     119.028 -81.472  23.309  1.00  0.00    -0.550 OA
ATOM      5  O   UNL     1     119.633 -83.682  23.368  1.00  0.00    -0.550 OA
ENDBRANCH   2   3
ENDBRANCH   1   2
BRANCH   1   6
ATOM      6  C   UNL     1     115.869 -82.405  21.789  1.00  0.00     0.000 C 
BRANCH   6   7
ATOM      7  C   UNL     1     114.716 -82.396  20.771  1.00  0.00    -0.003 C 
ATOM      8  C   UNL     1     114.350 -83.794  20.272  1.00  0.00     0.004 C 
ENDBRANCH   6   7
ENDBRANCH   1   6
TORSDOF 4
ENDMDL
MODEL 5
REMARK VINA RESULT:    -3.720      5.194      7.739
REMARK INTER + INTRA:          -4.667
REMARK INTER:                  -4.567
REMARK INTRA:                  -0.100
REMARK UNBOUND:                -0.078
REMARK SMILES CCCCCC(=O)[O-]
REMARK SMILES IDX 4 1 5 2 6 3 7 4 8 5 3 6 2 7 1 8
REMARK H PARENT
REMARK Flexibility Score: inf
ROOT
ATOM      1  C   UNL     1     108.568 -83.276  23.457  1.00  0.00     0.006 C 
ENDROOT
BRANCH   1   2
ATOM      2  C   UNL     1     109.602 -82.206  23.840  1.00  0.00     0.053 C 
BRANCH   2   3
ATOM      3  C   UNL     1     110.736 -82.149  22.862  1.00  0.00     0.041 C 
ATOM      4  O   UNL     1     111.410 -83.182  22.611  1.00  0.00    -0.550 OA
ATOM      5  O   UNL     1     111.070 -80.944  22.255  1.00  0.00    -0.550 OA
ENDBRANCH   2   3
ENDBRANCH   1   2
BRANCH   1   6
ATOM      6  C   UNL     1     107.209 -83.137  24.174  1.00  0.00     0.000 C 
BRANCH   6   7
ATOM      7  C   UNL     1     106.943 -81.756  24.798  1.00  0.00    -0.003 C 
ATOM      8  C   UNL     1     106.892 -81.791  26.326  1.00  0.00     0.004 C 
ENDBRANCH   6   7
ENDBRANCH   1   6
TORSDOF 4
ENDMDL
MODEL 6
REMARK VINA RESULT:    -3.717      3.313      4.901
REMARK INTER + INTRA:          -4.663
REMARK INTER:                  -4.575
REMARK INTRA:                  -0.088
REMARK UNBOUND:                -0.078
REMARK SMILES CCCCCC(=O)[O-]
REMARK SMILES IDX 4 1 5 2 6 3 7 4 8 5 3 6 2 7 1 8
REMARK H PARENT
REMARK Flexibility Score: inf
ROOT
ATOM      1  C   UNL     1     115.944 -82.496  21.514  1.00  0.00     0.006 C 
ENDROOT
BRANCH   1   2
ATOM      2  C   UNL     1     117.135 -83.456  21.374  1.00  0.00     0.053 C 
BRANCH   2   3
ATOM      3  C   UNL     1     118.416 -82.829  21.832  1.00  0.00     0.041 C 
ATOM      4  O   UNL     1     118.907 -81.856  21.202  1.00  0.00    -0.550 OA
ATOM      5  O   UNL     1     119.086 -83.343  22.936  1.00  0.00    -0.550 OA
ENDBRANCH   2   3
ENDBRANCH   1   2
BRANCH   1   6
ATOM      6  C   UNL     1     114.876 -82.637  20.409  1.00  0.00     0.000 C 
BRANCH   6   7
ATOM      7  C   UNL     1     113.844 -83.754  20.642  1.00  0.00    -0.003 C 
ATOM      8  C   UNL     1     112.885 -83.450  21.793  1.00  0.00     0.004 C 
ENDBRANCH   6   7
ENDBRANCH   1   6
TORSDOF 4
ENDMDL
MODEL 7
REMARK VINA RESULT:    -3.650      3.466      5.023
REMARK INTER + INTRA:          -4.581
REMARK INTER:                  -4.464
REMARK INTRA:                  -0.117
REMARK UNBOUND:                -0.078
REMARK SMILES CCCCCC(=O)[O-]
REMARK SMILES IDX 4 1 5 2 6 3 7 4 8 5 3 6 2 7 1 8
REMARK H PARENT
REMARK Flexibility Score: inf
ROOT
ATOM      1  C   UNL     1     117.341 -83.382  21.151  1.00  0.00     0.006 C 
ENDROOT
BRANCH   1   2
ATOM      2  C   UNL     1     118.560 -82.973  21.991  1.00  0.00     0.053 C 
BRANCH   2   3
ATOM      3  C   UNL     1     118.845 -81.506  21.889  1.00  0.00     0.041 C 
ATOM      4  O   UNL     1     119.311 -81.023  20.823  1.00  0.00    -0.550 OA
ATOM      5  O   UNL     1     118.629 -80.678  22.983  1.00  0.00    -0.550 OA
ENDBRANCH   2   3
ENDBRANCH   1   2
BRANCH   1   6
ATOM      6  C   UNL     1     115.997 -82.820  21.658  1.00  0.00     0.000 C 
BRANCH   6   7
ATOM      7  C   UNL     1     114.927 -82.617  20.573  1.00  0.00    -0.003 C 
ATOM      8  C   UNL     1     114.207 -83.912  20.195  1.00  0.00     0.004 C 
ENDBRANCH   6   7
ENDBRANCH   1   6
TORSDOF 4
ENDMDL
MODEL 8
REMARK VINA RESULT:    -3.600     10.402     11.905
REMARK INTER + INTRA:          -4.519
REMARK INTER:                  -4.376
REMARK INTRA:                  -0.143
REMARK UNBOUND:                -0.078
REMARK SMILES CCCCCC(=O)[O-]
REMARK SMILES IDX 4 1 5 2 6 3 7 4 8 5 3 6 2 7 1 8
REMARK H PARENT
REMARK Flexibility Score: inf
ROOT
ATOM      1  C   UNL     1     103.759 -83.652  19.620  1.00  0.00     0.006 C 
ENDROOT
BRANCH   1   2
ATOM      2  C   UNL     1     102.224 -83.690  19.664  1.00  0.00     0.053 C 
BRANCH   2   3
ATOM      3  C   UNL     1     101.691 -83.271  20.999  1.00  0.00     0.041 C 
ATOM      4  O   UNL     1     100.876 -82.315  21.085  1.00  0.00    -0.550 OA
ATOM      5  O   UNL     1     102.122 -83.914  22.153  1.00  0.00    -0.550 OA
ENDBRANCH   2   3
ENDBRANCH   1   2
BRANCH   1   6
ATOM      6  C   UNL     1     104.368 -82.244  19.781  1.00  0.00     0.000 C 
BRANCH   6   7
ATOM      7  C   UNL     1     105.389 -81.851  18.700  1.00  0.00    -0.003 C 
ATOM      8  C   UNL     1     106.158 -83.048  18.142  1.00  0.00     0.004 C 
ENDBRANCH   6   7
ENDBRANCH   1   6
TORSDOF 4
ENDMDL
MODEL 9
REMARK VINA RESULT:    -3.541      3.666      4.467
REMARK INTER + INTRA:          -4.447
REMARK INTER:                  -4.224
REMARK INTRA:                  -0.222
REMARK UNBOUND:                -0.078
REMARK SMILES CCCCCC(=O)[O-]
REMARK SMILES IDX 4 1 5 2 6 3 7 4 8 5 3 6 2 7 1 8
REMARK H PARENT
REMARK Flexibility Score: inf
ROOT
ATOM      1  C   UNL     1     115.729 -82.304  21.843  1.00  0.00     0.006 C 
ENDROOT
BRANCH   1   2
ATOM      2  C   UNL     1     116.828 -83.296  21.434  1.00  0.00     0.053 C 
BRANCH   2   3
ATOM      3  C   UNL     1     118.188 -82.830  21.855  1.00  0.00     0.041 C 
ATOM      4  O   UNL     1     118.703 -83.257  22.922  1.00  0.00    -0.550 OA
ATOM      5  O   UNL     1     118.872 -81.895  21.087  1.00  0.00    -0.550 OA
ENDBRANCH   2   3
ENDBRANCH   1   2
BRANCH   1   6
ATOM      6  C   UNL     1     114.969 -81.668  20.661  1.00  0.00     0.000 C 
BRANCH   6   7
ATOM      7  C   UNL     1     115.388 -80.228  20.318  1.00  0.00    -0.003 C 
ATOM      8  C   UNL     1     116.176 -79.553  21.440  1.00  0.00     0.004 C 
ENDBRANCH   6   7
ENDBRANCH   1   6
TORSDOF 4
ENDMDL
