MODEL 1
REMARK VINA RESULT:    -2.904      0.000      0.000
REMARK INTER + INTRA:          -3.513
REMARK INTER:                  -3.413
REMARK INTRA:                  -0.100
REMARK UNBOUND:                -0.100
REMARK SMILES CCCCC(=O)[O-]
REMARK SMILES IDX 4 1 5 2 6 3 7 4 3 5 2 6 1 7
REMARK H PARENT
REMARK Flexibility Score: inf
ROOT
ATOM      1  C   UNL     1     -19.951  20.280  42.002  1.00  0.00     0.053 C 
ENDROOT
BRANCH   1   2
ATOM      2  C   UNL     1     -20.351  21.365  41.053  1.00  0.00     0.041 C 
ATOM      3  O   UNL     1     -19.489  22.169  40.610  1.00  0.00    -0.550 OA
ATOM      4  O   UNL     1     -21.686  21.520  40.697  1.00  0.00    -0.550 OA
ENDBRANCH   1   2
BRANCH   1   5
ATOM      5  C   UNL     1     -18.527  19.803  41.703  1.00  0.00     0.006 C 
BRANCH   5   6
ATOM      6  C   UNL     1     -17.702  19.692  42.990  1.00  0.00    -0.003 C 
ATOM      7  C   UNL     1     -17.672  21.019  43.743  1.00  0.00     0.004 C 
ENDBRANCH   5   6
ENDBRANCH   1   5
TORSDOF 3
ENDMDL
MODEL 2
REMARK VINA RESULT:    -2.887      2.495      3.861
REMARK INTER + INTRA:          -3.493
REMARK INTER:                  -3.448
REMARK INTRA:                  -0.045
REMARK UNBOUND:                -0.100
REMARK SMILES CCCCC(=O)[O-]
REMARK SMILES IDX 4 1 5 2 6 3 7 4 3 5 2 6 1 7
REMARK H PARENT
REMARK Flexibility Score: inf
ROOT
ATOM      1  C   UNL     1     -18.316  19.782  42.057  1.00  0.00     0.053 C 
ENDROOT
BRANCH   1   2
ATOM      2  C   UNL     1     -17.729  20.122  43.390  1.00  0.00     0.041 C 
ATOM      3  O   UNL     1     -17.561  21.326  43.720  1.00  0.00    -0.550 OA
ATOM      4  O   UNL     1     -17.321  19.108  44.249  1.00  0.00    -0.550 OA
ENDBRANCH   1   2
BRANCH   1   5
ATOM      5  C   UNL     1     -19.799  20.164  42.009  1.00  0.00     0.006 C 
BRANCH   5   6
ATOM      6  C   UNL     1     -20.016  21.421  41.160  1.00  0.00    -0.003 C 
ATOM      7  C   UNL     1     -21.498  21.766  41.053  1.00  0.00     0.004 C 
ENDBRANCH   5   6
ENDBRANCH   1   5
TORSDOF 3
ENDMDL
MODEL 3
REMARK VINA RESULT:    -2.840      2.259      3.673
REMARK INTER + INTRA:          -3.438
REMARK INTER:                  -3.356
REMARK INTRA:                  -0.082
REMARK UNBOUND:                -0.100
REMARK SMILES CCCCC(=O)[O-]
REMARK SMILES IDX 4 1 5 2 6 3 7 4 3 5 2 6 1 7
REMARK H PARENT
REMARK Flexibility Score: inf
ROOT
ATOM      1  C   UNL     1     -19.073  20.465  42.769  1.00  0.00     0.053 C 
ENDROOT
BRANCH   1   2
ATOM      2  C   UNL     1     -17.976  20.043  41.845  1.00  0.00     0.041 C 
ATOM      3  O   UNL     1     -17.931  18.862  41.412  1.00  0.00    -0.550 OA
ATOM      4  O   UNL     1     -16.972  20.941  41.502  1.00  0.00    -0.550 OA
ENDBRANCH   1   2
BRANCH   1   5
ATOM      5  C   UNL     1     -20.420  20.464  42.040  1.00  0.00     0.006 C 
BRANCH   5   6
ATOM      6  C   UNL     1     -20.435  21.500  40.911  1.00  0.00    -0.003 C 
ATOM      7  C   UNL     1     -21.862  21.884  40.533  1.00  0.00     0.004 C 
ENDBRANCH   5   6
ENDBRANCH   1   5
TORSDOF 3
ENDMDL
MODEL 4
REMARK VINA RESULT:    -2.835      2.207      4.247
REMARK INTER + INTRA:          -3.432
REMARK INTER:                  -3.369
REMARK INTRA:                  -0.063
REMARK UNBOUND:                -0.100
REMARK SMILES CCCCC(=O)[O-]
REMARK SMILES IDX 4 1 5 2 6 3 7 4 3 5 2 6 1 7
REMARK H PARENT
REMARK Flexibility Score: inf
ROOT
ATOM      1  C   UNL     1     -20.335  21.539  40.858  1.00  0.00     0.053 C 
ENDROOT
BRANCH   1   2
ATOM      2  C   UNL     1     -20.013  20.417  41.792  1.00  0.00     0.041 C 
ATOM      3  O   UNL     1     -20.795  20.135  42.738  1.00  0.00    -0.550 OA
ATOM      4  O   UNL     1     -18.823  19.713  41.650  1.00  0.00    -0.550 OA
ENDBRANCH   1   2
BRANCH   1   5
ATOM      5  C   UNL     1     -21.771  22.023  41.074  1.00  0.00     0.006 C 
BRANCH   5   6
ATOM      6  C   UNL     1     -22.562  22.004  39.761  1.00  0.00    -0.003 C 
ATOM      7  C   UNL     1     -21.629  22.060  38.554  1.00  0.00     0.004 C 
ENDBRANCH   5   6
ENDBRANCH   1   5
TORSDOF 3
ENDMDL
MODEL 5
REMARK VINA RESULT:    -2.799      2.512      3.211
REMARK INTER + INTRA:          -3.391
REMARK INTER:                  -3.366
REMARK INTRA:                  -0.025
REMARK UNBOUND:                -0.100
REMARK SMILES CCCCC(=O)[O-]
REMARK SMILES IDX 4 1 5 2 6 3 7 4 3 5 2 6 1 7
REMARK H PARENT
REMARK Flexibility Score: inf
ROOT
ATOM      1  C   UNL     1     -17.568  19.400  42.693  1.00  0.00     0.053 C 
ENDROOT
BRANCH   1   2
ATOM      2  C   UNL     1     -18.678  20.402  42.674  1.00  0.00     0.041 C 
ATOM      3  O   UNL     1     -18.488  21.566  43.115  1.00  0.00    -0.550 OA
ATOM      4  O   UNL     1     -19.938  20.035  42.216  1.00  0.00    -0.550 OA
ENDBRANCH   1   2
BRANCH   1   5
ATOM      5  C   UNL     1     -17.467  18.683  41.344  1.00  0.00     0.006 C 
BRANCH   5   6
ATOM      6  C   UNL     1     -16.928  17.258  41.517  1.00  0.00    -0.003 C 
ATOM      7  C   UNL     1     -16.289  16.750  40.228  1.00  0.00     0.004 C 
ENDBRANCH   5   6
ENDBRANCH   1   5
TORSDOF 3
ENDMDL
MODEL 6
REMARK VINA RESULT:    -2.791     17.450     18.901
REMARK INTER + INTRA:          -3.380
REMARK INTER:                  -3.349
REMARK INTRA:                  -0.031
REMARK UNBOUND:                -0.100
REMARK SMILES CCCCC(=O)[O-]
REMARK SMILES IDX 4 1 5 2 6 3 7 4 3 5 2 6 1 7
REMARK H PARENT
REMARK Flexibility Score: inf
ROOT
ATOM      1  C   UNL     1      -6.415  32.672  48.005  1.00  0.00     0.053 C 
ENDROOT
BRANCH   1   2
ATOM      2  C   UNL     1      -5.536  33.413  48.963  1.00  0.00     0.041 C 
ATOM      3  O   UNL     1      -4.404  33.825  48.595  1.00  0.00    -0.550 OA
ATOM      4  O   UNL     1      -5.946  33.605  50.277  1.00  0.00    -0.550 OA
ENDBRANCH   1   2
BRANCH   1   5
ATOM      5  C   UNL     1      -5.637  31.543  47.324  1.00  0.00     0.006 C 
BRANCH   5   6
ATOM      6  C   UNL     1      -6.454  30.247  47.301  1.00  0.00    -0.003 C 
ATOM      7  C   UNL     1      -7.915  30.522  46.955  1.00  0.00     0.004 C 
ENDBRANCH   5   6
ENDBRANCH   1   5
TORSDOF 3
ENDMDL
MODEL 7
REMARK VINA RESULT:    -2.773      0.630      1.465
REMARK INTER + INTRA:          -3.359
REMARK INTER:                  -3.310
REMARK INTRA:                  -0.049
REMARK UNBOUND:                -0.100
REMARK SMILES CCCCC(=O)[O-]
REMARK SMILES IDX 4 1 5 2 6 3 7 4 3 5 2 6 1 7
REMARK H PARENT
REMARK Flexibility Score: inf
ROOT
ATOM      1  C   UNL     1     -19.743  20.171  41.890  1.00  0.00     0.053 C 
ENDROOT
BRANCH   1   2
ATOM      2  C   UNL     1     -20.294  21.377  41.197  1.00  0.00     0.041 C 
ATOM      3  O   UNL     1     -21.536  21.581  41.173  1.00  0.00    -0.550 OA
ATOM      4  O   UNL     1     -19.439  22.249  40.534  1.00  0.00    -0.550 OA
ENDBRANCH   1   2
BRANCH   1   5
ATOM      5  C   UNL     1     -18.220  20.271  42.015  1.00  0.00     0.006 C 
BRANCH   5   6
ATOM      6  C   UNL     1     -17.809  20.643  43.444  1.00  0.00    -0.003 C 
ATOM      7  C   UNL     1     -17.486  19.400  44.266  1.00  0.00     0.004 C 
ENDBRANCH   5   6
ENDBRANCH   1   5
TORSDOF 3
ENDMDL
MODEL 8
REMARK VINA RESULT:    -2.747     14.770     15.799
REMARK INTER + INTRA:          -3.328
REMARK INTER:                  -3.228
REMARK INTRA:                  -0.100
REMARK UNBOUND:                -0.100
REMARK SMILES CCCCC(=O)[O-]
REMARK SMILES IDX 4 1 5 2 6 3 7 4 3 5 2 6 1 7
REMARK H PARENT
REMARK Flexibility Score: inf
ROOT
ATOM      1  C   UNL     1      -5.358  27.935  46.529  1.00  0.00     0.053 C 
ENDROOT
BRANCH   1   2
ATOM      2  C   UNL     1      -6.322  26.829  46.239  1.00  0.00     0.041 C 
ATOM      3  O   UNL     1      -6.019  25.637  46.511  1.00  0.00    -0.550 OA
ATOM      4  O   UNL     1      -7.535  27.108  45.621  1.00  0.00    -0.550 OA
ENDBRANCH   1   2
BRANCH   1   5
ATOM      5  C   UNL     1      -5.920  29.277  46.052  1.00  0.00     0.006 C 
BRANCH   5   6
ATOM      6  C   UNL     1      -6.455  30.100  47.230  1.00  0.00    -0.003 C 
ATOM      7  C   UNL     1      -7.889  30.554  46.979  1.00  0.00     0.004 C 
ENDBRANCH   5   6
ENDBRANCH   1   5
TORSDOF 3
ENDMDL
MODEL 9
REMARK VINA RESULT:    -2.684      4.002      5.197
REMARK INTER + INTRA:          -3.254
REMARK INTER:                  -3.233
REMARK INTRA:                  -0.021
REMARK UNBOUND:                -0.100
REMARK SMILES CCCCC(=O)[O-]
REMARK SMILES IDX 4 1 5 2 6 3 7 4 3 5 2 6 1 7
REMARK H PARENT
REMARK Flexibility Score: inf
ROOT
ATOM      1  C   UNL     1     -22.627  21.165  37.687  1.00  0.00     0.053 C 
ENDROOT
BRANCH   1   2
ATOM      2  C   UNL     1     -22.269  21.442  36.261  1.00  0.00     0.041 C 
ATOM      3  O   UNL     1     -21.138  21.915  35.972  1.00  0.00    -0.550 OA
ATOM      4  O   UNL     1     -23.203  21.225  35.255  1.00  0.00    -0.550 OA
ENDBRANCH   1   2
BRANCH   1   5
ATOM      5  C   UNL     1     -21.714  21.950  38.633  1.00  0.00     0.006 C 
BRANCH   5   6
ATOM      6  C   UNL     1     -22.297  21.995  40.049  1.00  0.00    -0.003 C 
ATOM      7  C   UNL     1     -21.263  21.562  41.085  1.00  0.00     0.004 C 
ENDBRANCH   5   6
ENDBRANCH   1   5
TORSDOF 3
ENDMDL
