MODEL 1
REMARK VINA RESULT:    -3.259      0.000      0.000
REMARK INTER + INTRA:          -4.375
REMARK INTER:                  -4.212
REMARK INTRA:                  -0.164
REMARK UNBOUND:                -0.164
REMARK SMILES CCCCCCC(=O)[O-]
REMARK SMILES IDX 5 1 6 2 7 3 8 4 9 5 4 6 3 7 2 8 1 9
REMARK H PARENT
REMARK Flexibility Score: inf
ROOT
ATOM      1  C   UNL     1      57.253  27.868  50.394  1.00  0.00     0.006 C 
ENDROOT
BRANCH   1   2
ATOM      2  C   UNL     1      58.293  28.852  49.844  1.00  0.00     0.053 C 
BRANCH   2   3
ATOM      3  C   UNL     1      59.593  28.153  49.601  1.00  0.00     0.041 C 
ATOM      4  O   UNL     1      60.679  28.785  49.691  1.00  0.00    -0.550 OA
ATOM      5  O   UNL     1      59.604  26.815  49.227  1.00  0.00    -0.550 OA
ENDBRANCH   2   3
ENDBRANCH   1   2
BRANCH   1   6
ATOM      6  C   UNL     1      55.888  28.529  50.644  1.00  0.00     0.000 C 
BRANCH   6   7
ATOM      7  C   UNL     1      54.720  27.709  50.075  1.00  0.00    -0.000 C 
BRANCH   7   8
ATOM      8  C   UNL     1      55.177  26.296  49.694  1.00  0.00    -0.003 C 
ATOM      9  C   UNL     1      54.012  25.462  49.169  1.00  0.00     0.004 C 
ENDBRANCH   7   8
ENDBRANCH   6   7
ENDBRANCH   1   6
TORSDOF 5
ENDMDL
MODEL 2
REMARK VINA RESULT:    -3.250     13.129     14.503
REMARK INTER + INTRA:          -4.364
REMARK INTER:                  -4.149
REMARK INTRA:                  -0.215
REMARK UNBOUND:                -0.164
REMARK SMILES CCCCCCC(=O)[O-]
REMARK SMILES IDX 5 1 6 2 7 3 8 4 9 5 4 6 3 7 2 8 1 9
REMARK H PARENT
REMARK Flexibility Score: inf
ROOT
ATOM      1  C   UNL     1      61.700  33.097  60.523  1.00  0.00     0.006 C 
ENDROOT
BRANCH   1   2
ATOM      2  C   UNL     1      62.519  31.805  60.640  1.00  0.00     0.053 C 
BRANCH   2   3
ATOM      3  C   UNL     1      61.845  30.843  61.566  1.00  0.00     0.041 C 
ATOM      4  O   UNL     1      60.739  31.139  62.091  1.00  0.00    -0.550 OA
ATOM      5  O   UNL     1      62.460  29.640  61.888  1.00  0.00    -0.550 OA
ENDBRANCH   2   3
ENDBRANCH   1   2
BRANCH   1   6
ATOM      6  C   UNL     1      62.570  34.360  60.631  1.00  0.00     0.000 C 
BRANCH   6   7
ATOM      7  C   UNL     1      64.012  34.051  61.059  1.00  0.00    -0.000 C 
BRANCH   7   8
ATOM      8  C   UNL     1      64.717  35.315  61.565  1.00  0.00    -0.003 C 
ATOM      9  C   UNL     1      63.792  36.527  61.497  1.00  0.00     0.004 C 
ENDBRANCH   7   8
ENDBRANCH   6   7
ENDBRANCH   1   6
TORSDOF 5
ENDMDL
MODEL 3
REMARK VINA RESULT:    -3.220      0.972      1.372
REMARK INTER + INTRA:          -4.325
REMARK INTER:                  -4.110
REMARK INTRA:                  -0.215
REMARK UNBOUND:                -0.164
REMARK SMILES CCCCCCC(=O)[O-]
REMARK SMILES IDX 5 1 6 2 7 3 8 4 9 5 4 6 3 7 2 8 1 9
REMARK H PARENT
REMARK Flexibility Score: inf
ROOT
ATOM      1  C   UNL     1      58.088  28.819  50.694  1.00  0.00     0.006 C 
ENDROOT
BRANCH   1   2
ATOM      2  C   UNL     1      58.873  28.818  49.376  1.00  0.00     0.053 C 
BRANCH   2   3
ATOM      3  C   UNL     1      59.861  27.694  49.360  1.00  0.00     0.041 C 
ATOM      4  O   UNL     1      61.097  27.937  49.358  1.00  0.00    -0.550 OA
ATOM      5  O   UNL     1      59.418  26.379  49.298  1.00  0.00    -0.550 OA
ENDBRANCH   2   3
ENDBRANCH   1   2
BRANCH   1   6
ATOM      6  C   UNL     1      56.577  28.637  50.483  1.00  0.00     0.000 C 
BRANCH   6   7
ATOM      7  C   UNL     1      56.181  27.167  50.276  1.00  0.00    -0.000 C 
BRANCH   7   8
ATOM      8  C   UNL     1      54.703  27.047  49.885  1.00  0.00    -0.003 C 
ATOM      9  C   UNL     1      53.968  28.367  50.095  1.00  0.00     0.004 C 
ENDBRANCH   7   8
ENDBRANCH   6   7
ENDBRANCH   1   6
TORSDOF 5
ENDMDL
MODEL 4
REMARK VINA RESULT:    -3.206     12.877     14.268
REMARK INTER + INTRA:          -4.306
REMARK INTER:                  -4.149
REMARK INTRA:                  -0.157
REMARK UNBOUND:                -0.164
REMARK SMILES CCCCCCC(=O)[O-]
REMARK SMILES IDX 5 1 6 2 7 3 8 4 9 5 4 6 3 7 2 8 1 9
REMARK H PARENT
REMARK Flexibility Score: inf
ROOT
ATOM      1  C   UNL     1      62.310  33.193  60.633  1.00  0.00     0.006 C 
ENDROOT
BRANCH   1   2
ATOM      2  C   UNL     1      61.192  32.160  60.821  1.00  0.00     0.053 C 
BRANCH   2   3
ATOM      3  C   UNL     1      61.767  30.784  60.938  1.00  0.00     0.041 C 
ATOM      4  O   UNL     1      61.983  30.282  62.073  1.00  0.00    -0.550 OA
ATOM      5  O   UNL     1      62.111  30.075  59.794  1.00  0.00    -0.550 OA
ENDBRANCH   2   3
ENDBRANCH   1   2
BRANCH   1   6
ATOM      6  C   UNL     1      61.779  34.633  60.553  1.00  0.00     0.000 C 
BRANCH   6   7
ATOM      7  C   UNL     1      62.803  35.669  61.038  1.00  0.00    -0.000 C 
BRANCH   7   8
ATOM      8  C   UNL     1      64.149  35.005  61.353  1.00  0.00    -0.003 C 
ATOM      9  C   UNL     1      65.176  36.032  61.818  1.00  0.00     0.004 C 
ENDBRANCH   7   8
ENDBRANCH   6   7
ENDBRANCH   1   6
TORSDOF 5
ENDMDL
MODEL 5
REMARK VINA RESULT:    -3.181      3.483      5.098
REMARK INTER + INTRA:          -4.274
REMARK INTER:                  -4.121
REMARK INTRA:                  -0.153
REMARK UNBOUND:                -0.164
REMARK SMILES CCCCCCC(=O)[O-]
REMARK SMILES IDX 5 1 6 2 7 3 8 4 9 5 4 6 3 7 2 8 1 9
REMARK H PARENT
REMARK Flexibility Score: inf
ROOT
ATOM      1  C   UNL     1      54.763  27.759  50.070  1.00  0.00     0.006 C 
ENDROOT
BRANCH   1   2
ATOM      2  C   UNL     1      55.184  26.313  49.778  1.00  0.00     0.053 C 
BRANCH   2   3
ATOM      3  C   UNL     1      53.979  25.441  49.622  1.00  0.00     0.041 C 
ATOM      4  O   UNL     1      53.294  25.488  48.566  1.00  0.00    -0.550 OA
ATOM      5  O   UNL     1      53.583  24.610  50.663  1.00  0.00    -0.550 OA
ENDBRANCH   2   3
ENDBRANCH   1   2
BRANCH   1   6
ATOM      6  C   UNL     1      55.900  28.595  50.677  1.00  0.00     0.000 C 
BRANCH   6   7
ATOM      7  C   UNL     1      57.286  27.985  50.419  1.00  0.00    -0.000 C 
BRANCH   7   8
ATOM      8  C   UNL     1      58.275  29.054  49.938  1.00  0.00    -0.003 C 
ATOM      9  C   UNL     1      59.484  28.420  49.256  1.00  0.00     0.004 C 
ENDBRANCH   7   8
ENDBRANCH   6   7
ENDBRANCH   1   6
TORSDOF 5
ENDMDL
MODEL 6
REMARK VINA RESULT:    -3.173      3.404      4.973
REMARK INTER + INTRA:          -4.264
REMARK INTER:                  -4.067
REMARK INTRA:                  -0.197
REMARK UNBOUND:                -0.164
REMARK SMILES CCCCCCC(=O)[O-]
REMARK SMILES IDX 5 1 6 2 7 3 8 4 9 5 4 6 3 7 2 8 1 9
REMARK H PARENT
REMARK Flexibility Score: inf
ROOT
ATOM      1  C   UNL     1      56.061  27.043  50.249  1.00  0.00     0.006 C 
ENDROOT
BRANCH   1   2
ATOM      2  C   UNL     1      55.149  28.268  50.391  1.00  0.00     0.053 C 
BRANCH   2   3
ATOM      3  C   UNL     1      53.786  27.968  49.850  1.00  0.00     0.041 C 
ATOM      4  O   UNL     1      52.890  28.853  49.863  1.00  0.00    -0.550 OA
ATOM      5  O   UNL     1      53.491  26.696  49.377  1.00  0.00    -0.550 OA
ENDBRANCH   2   3
ENDBRANCH   1   2
BRANCH   1   6
ATOM      6  C   UNL     1      57.549  27.392  50.409  1.00  0.00     0.000 C 
BRANCH   6   7
ATOM      7  C   UNL     1      57.858  28.849  50.035  1.00  0.00    -0.000 C 
BRANCH   7   8
ATOM      8  C   UNL     1      59.112  28.935  49.157  1.00  0.00    -0.003 C 
ATOM      9  C   UNL     1      59.939  27.657  49.249  1.00  0.00     0.004 C 
ENDBRANCH   7   8
ENDBRANCH   6   7
ENDBRANCH   1   6
TORSDOF 5
ENDMDL
MODEL 7
REMARK VINA RESULT:    -3.171     12.537     13.812
REMARK INTER + INTRA:          -4.261
REMARK INTER:                  -4.045
REMARK INTRA:                  -0.216
REMARK UNBOUND:                -0.164
REMARK SMILES CCCCCCC(=O)[O-]
REMARK SMILES IDX 5 1 6 2 7 3 8 4 9 5 4 6 3 7 2 8 1 9
REMARK H PARENT
REMARK Flexibility Score: inf
ROOT
ATOM      1  C   UNL     1      61.111  31.630  60.466  1.00  0.00     0.006 C 
ENDROOT
BRANCH   1   2
ATOM      2  C   UNL     1      61.213  30.848  61.781  1.00  0.00     0.053 C 
BRANCH   2   3
ATOM      3  C   UNL     1      62.367  29.896  61.732  1.00  0.00     0.041 C 
ATOM      4  O   UNL     1      62.163  28.653  61.715  1.00  0.00    -0.550 OA
ATOM      5  O   UNL     1      63.669  30.380  61.756  1.00  0.00    -0.550 OA
ENDBRANCH   2   3
ENDBRANCH   1   2
BRANCH   1   6
ATOM      6  C   UNL     1      61.486  33.112  60.628  1.00  0.00     0.000 C 
BRANCH   6   7
ATOM      7  C   UNL     1      62.926  33.410  60.183  1.00  0.00    -0.000 C 
BRANCH   7   8
ATOM      8  C   UNL     1      63.525  34.559  61.003  1.00  0.00    -0.003 C 
ATOM      9  C   UNL     1      62.569  35.746  61.071  1.00  0.00     0.004 C 
ENDBRANCH   7   8
ENDBRANCH   6   7
ENDBRANCH   1   6
TORSDOF 5
ENDMDL
MODEL 8
REMARK VINA RESULT:    -3.096     12.944     13.957
REMARK INTER + INTRA:          -4.164
REMARK INTER:                  -4.009
REMARK INTRA:                  -0.155
REMARK UNBOUND:                -0.164
REMARK SMILES CCCCCCC(=O)[O-]
REMARK SMILES IDX 5 1 6 2 7 3 8 4 9 5 4 6 3 7 2 8 1 9
REMARK H PARENT
REMARK Flexibility Score: inf
ROOT
ATOM      1  C   UNL     1      61.950  34.442  60.216  1.00  0.00     0.006 C 
ENDROOT
BRANCH   1   2
ATOM      2  C   UNL     1      62.687  35.520  61.019  1.00  0.00     0.053 C 
BRANCH   2   3
ATOM      3  C   UNL     1      64.167  35.320  60.924  1.00  0.00     0.041 C 
ATOM      4  O   UNL     1      64.866  35.253  61.970  1.00  0.00    -0.550 OA
ATOM      5  O   UNL     1      64.781  35.255  59.680  1.00  0.00    -0.550 OA
ENDBRANCH   2   3
ENDBRANCH   1   2
BRANCH   1   6
ATOM      6  C   UNL     1      62.274  33.019  60.699  1.00  0.00     0.000 C 
BRANCH   6   7
ATOM      7  C   UNL     1      61.065  32.075  60.613  1.00  0.00    -0.000 C 
BRANCH   7   8
ATOM      8  C   UNL     1      61.027  31.123  61.815  1.00  0.00    -0.003 C 
ATOM      9  C   UNL     1      62.198  30.146  61.781  1.00  0.00     0.004 C 
ENDBRANCH   7   8
ENDBRANCH   6   7
ENDBRANCH   1   6
TORSDOF 5
ENDMDL
MODEL 9
REMARK VINA RESULT:    -2.849      1.947      2.502
REMARK INTER + INTRA:          -3.845
REMARK INTER:                  -3.478
REMARK INTRA:                  -0.367
REMARK UNBOUND:                -0.164
REMARK SMILES CCCCCCC(=O)[O-]
REMARK SMILES IDX 5 1 6 2 7 3 8 4 9 5 4 6 3 7 2 8 1 9
REMARK H PARENT
REMARK Flexibility Score: inf
ROOT
ATOM      1  C   UNL     1      58.602  27.697  50.739  1.00  0.00     0.006 C 
ENDROOT
BRANCH   1   2
ATOM      2  C   UNL     1      59.113  26.636  49.757  1.00  0.00     0.053 C 
BRANCH   2   3
ATOM      3  C   UNL     1      59.064  25.279  50.386  1.00  0.00     0.041 C 
ATOM      4  O   UNL     1      58.152  24.993  51.206  1.00  0.00    -0.550 OA
ATOM      5  O   UNL     1      60.054  24.345  50.103  1.00  0.00    -0.550 OA
ENDBRANCH   2   3
ENDBRANCH   1   2
BRANCH   1   6
ATOM      6  C   UNL     1      57.354  28.430  50.221  1.00  0.00     0.000 C 
BRANCH   6   7
ATOM      7  C   UNL     1      56.095  28.105  51.039  1.00  0.00    -0.000 C 
BRANCH   7   8
ATOM      8  C   UNL     1      54.967  27.598  50.133  1.00  0.00    -0.003 C 
ATOM      9  C   UNL     1      55.240  26.175  49.656  1.00  0.00     0.004 C 
ENDBRANCH   7   8
ENDBRANCH   6   7
ENDBRANCH   1   6
TORSDOF 5
ENDMDL
