MODEL 1
REMARK VINA RESULT:    -8.408      0.000      0.000
REMARK INTER + INTRA:          -9.145
REMARK INTER:                  -9.145
REMARK INTRA:                   0.000
REMARK UNBOUND:                 0.000
REMARK SMILES Cc1cc(O)c2c(c1)C(=O)c1cc(O)cc(O)c1C2=O
REMARK SMILES IDX 1 1 2 2 8 3 7 4 6 5 4 6 3 7 19 8 20 9 18 10 11 11 9 12 10 13
REMARK SMILES IDX 12 14 13 15 15 16 16 17 5 18 17 20 14 22
REMARK H PARENT 5 19 17 21 14 23
REMARK Flexibility Score: inf
ROOT
ATOM      1  C   UNL     1      13.556  16.818  19.333  1.00  0.00     0.044 C 
ATOM      2  C   UNL     1      12.785  15.825  18.514  1.00  0.00    -0.047 A 
ATOM      3  C   UNL     1      13.312  15.343  17.312  1.00  0.00     0.016 A 
ATOM      4  C   UNL     1      12.583  14.439  16.518  1.00  0.00     0.038 A 
ATOM      5  C   UNL     1      11.297  14.023  16.928  1.00  0.00     0.076 A 
ATOM      6  C   UNL     1      10.760  14.531  18.135  1.00  0.00     0.127 A 
ATOM      7  C   UNL     1      11.504  15.430  18.911  1.00  0.00     0.050 A 
ATOM      8  C   UNL     1      10.535  13.064  16.079  1.00  0.00     0.201 C 
ATOM      9  O   UNL     1       9.390  12.681  16.441  1.00  0.00    -0.288 OA
ATOM     10  C   UNL     1      11.116  12.551  14.806  1.00  0.00     0.076 A 
ATOM     11  C   UNL     1      12.403  12.980  14.410  1.00  0.00     0.041 A 
ATOM     12  C   UNL     1      13.163  13.930  15.254  1.00  0.00     0.194 C 
ATOM     13  O   UNL     1      14.313  14.307  14.894  1.00  0.00    -0.289 OA
ATOM     14  C   UNL     1      12.961  12.503  13.210  1.00  0.00     0.059 A 
ATOM     15  C   UNL     1      12.254  11.607  12.404  1.00  0.00     0.120 A 
ATOM     16  C   UNL     1      10.985  11.180  12.790  1.00  0.00     0.093 A 
ATOM     17  C   UNL     1      10.409  11.642  13.980  1.00  0.00     0.131 A 
ENDROOT
BRANCH   6  18
ATOM     18  O   UNL     1       9.489  14.153  18.569  1.00  0.00    -0.507 OA
ATOM     19  H   UNL     1       8.805  14.835  18.874  1.00  0.00     0.293 HD
ENDBRANCH   6  18
BRANCH  17  20
ATOM     20  O   UNL     1       9.137  11.194  14.335  1.00  0.00    -0.507 OA
ATOM     21  H   UNL     1       8.979  10.635  15.165  1.00  0.00     0.293 HD
ENDBRANCH  17  20
BRANCH  15  22
ATOM     22  O   UNL     1      12.806  11.134  11.216  1.00  0.00    -0.508 OA
ATOM     23  H   UNL     1      13.267  11.755  10.560  1.00  0.00     0.293 HD
ENDBRANCH  15  22
TORSDOF 3
ENDMDL
MODEL 2
REMARK VINA RESULT:    -7.769      1.525      2.811
REMARK INTER + INTRA:          -8.450
REMARK INTER:                  -8.450
REMARK INTRA:                   0.000
REMARK UNBOUND:                 0.000
REMARK SMILES Cc1cc(O)c2c(c1)C(=O)c1cc(O)cc(O)c1C2=O
REMARK SMILES IDX 1 1 2 2 8 3 7 4 6 5 4 6 3 7 19 8 20 9 18 10 11 11 9 12 10 13
REMARK SMILES IDX 12 14 13 15 15 16 16 17 5 18 17 20 14 22
REMARK H PARENT 5 19 17 21 14 23
REMARK Flexibility Score: inf
ROOT
ATOM      1  C   UNL     1      16.573  17.125  18.115  1.00  0.00     0.044 C 
ATOM      2  C   UNL     1      15.235  16.447  18.126  1.00  0.00    -0.047 A 
ATOM      3  C   UNL     1      14.862  15.607  17.072  1.00  0.00     0.016 A 
ATOM      4  C   UNL     1      13.596  14.994  17.054  1.00  0.00     0.038 A 
ATOM      5  C   UNL     1      12.681  15.240  18.103  1.00  0.00     0.076 A 
ATOM      6  C   UNL     1      13.057  16.108  19.156  1.00  0.00     0.127 A 
ATOM      7  C   UNL     1      14.324  16.707  19.154  1.00  0.00     0.050 A 
ATOM      8  C   UNL     1      11.344  14.583  18.073  1.00  0.00     0.201 C 
ATOM      9  O   UNL     1      10.525  14.790  19.009  1.00  0.00    -0.288 OA
ATOM     10  C   UNL     1      10.966  13.682  16.948  1.00  0.00     0.076 A 
ATOM     11  C   UNL     1      11.892  13.450  15.907  1.00  0.00     0.041 A 
ATOM     12  C   UNL     1      13.223  14.098  15.936  1.00  0.00     0.194 C 
ATOM     13  O   UNL     1      14.045  13.884  15.002  1.00  0.00    -0.289 OA
ATOM     14  C   UNL     1      11.546  12.601  14.839  1.00  0.00     0.059 A 
ATOM     15  C   UNL     1      10.293  11.983  14.799  1.00  0.00     0.120 A 
ATOM     16  C   UNL     1       9.377  12.209  15.824  1.00  0.00     0.093 A 
ATOM     17  C   UNL     1       9.698  13.050  16.897  1.00  0.00     0.131 A 
ENDROOT
BRANCH   6  18
ATOM     18  O   UNL     1      12.179  16.385  20.204  1.00  0.00    -0.507 OA
ATOM     19  H   UNL     1      11.725  15.647  20.729  1.00  0.00     0.293 HD
ENDBRANCH   6  18
BRANCH  17  20
ATOM     20  O   UNL     1       8.756  13.253  17.905  1.00  0.00    -0.507 OA
ATOM     21  H   UNL     1       8.771  12.719  18.766  1.00  0.00     0.293 HD
ENDBRANCH  17  20
BRANCH  15  22
ATOM     22  O   UNL     1       9.949  11.143  13.743  1.00  0.00    -0.508 OA
ATOM     23  H   UNL     1       9.724  10.166  13.894  1.00  0.00     0.293 HD
ENDBRANCH  15  22
TORSDOF 3
ENDMDL
MODEL 3
REMARK VINA RESULT:    -7.697      1.298      3.522
REMARK INTER + INTRA:          -8.372
REMARK INTER:                  -8.372
REMARK INTRA:                   0.000
REMARK UNBOUND:                 0.000
REMARK SMILES Cc1cc(O)c2c(c1)C(=O)c1cc(O)cc(O)c1C2=O
REMARK SMILES IDX 1 1 2 2 8 3 7 4 6 5 4 6 3 7 19 8 20 9 18 10 11 11 9 12 10 13
REMARK SMILES IDX 12 14 13 15 15 16 16 17 5 18 17 20 14 22
REMARK H PARENT 5 19 17 21 14 23
REMARK Flexibility Score: inf
ROOT
ATOM      1  C   UNL     1      13.674  16.766  19.869  1.00  0.00     0.044 C 
ATOM      2  C   UNL     1      13.362  15.930  18.663  1.00  0.00    -0.047 A 
ATOM      3  C   UNL     1      12.125  15.288  18.552  1.00  0.00     0.016 A 
ATOM      4  C   UNL     1      11.834  14.474  17.443  1.00  0.00     0.038 A 
ATOM      5  C   UNL     1      12.805  14.286  16.434  1.00  0.00     0.076 A 
ATOM      6  C   UNL     1      14.063  14.922  16.563  1.00  0.00     0.127 A 
ATOM      7  C   UNL     1      14.332  15.730  17.676  1.00  0.00     0.050 A 
ATOM      8  C   UNL     1      12.484  13.422  15.263  1.00  0.00     0.201 C 
ATOM      9  O   UNL     1      13.342  13.256  14.355  1.00  0.00    -0.288 OA
ATOM     10  C   UNL     1      11.157  12.753  15.155  1.00  0.00     0.076 A 
ATOM     11  C   UNL     1      10.198  12.950  16.175  1.00  0.00     0.041 A 
ATOM     12  C   UNL     1      10.513  13.812  17.337  1.00  0.00     0.194 C 
ATOM     13  O   UNL     1       9.650  13.983  18.243  1.00  0.00    -0.289 OA
ATOM     14  C   UNL     1       8.942  12.323  16.083  1.00  0.00     0.059 A 
ATOM     15  C   UNL     1       8.631  11.508  14.992  1.00  0.00     0.120 A 
ATOM     16  C   UNL     1       9.573  11.311  13.984  1.00  0.00     0.093 A 
ATOM     17  C   UNL     1      10.831  11.924  14.053  1.00  0.00     0.131 A 
ENDROOT
BRANCH   6  18
ATOM     18  O   UNL     1      15.053  14.753  15.594  1.00  0.00    -0.507 OA
ATOM     19  H   UNL     1      15.046  15.275  14.727  1.00  0.00     0.293 HD
ENDBRANCH   6  18
BRANCH  17  20
ATOM     20  O   UNL     1      11.749  11.705  13.026  1.00  0.00    -0.507 OA
ATOM     21  H   UNL     1      11.469  11.318  12.132  1.00  0.00     0.293 HD
ENDBRANCH  17  20
BRANCH  15  22
ATOM     22  O   UNL     1       7.388  10.887  14.900  1.00  0.00    -0.508 OA
ATOM     23  H   UNL     1       7.292   9.940  14.549  1.00  0.00     0.293 HD
ENDBRANCH  15  22
TORSDOF 3
ENDMDL
MODEL 4
REMARK VINA RESULT:    -7.687      2.458      3.603
REMARK INTER + INTRA:          -8.361
REMARK INTER:                  -8.361
REMARK INTRA:                   0.000
REMARK UNBOUND:                 0.000
REMARK SMILES Cc1cc(O)c2c(c1)C(=O)c1cc(O)cc(O)c1C2=O
REMARK SMILES IDX 1 1 2 2 8 3 7 4 6 5 4 6 3 7 19 8 20 9 18 10 11 11 9 12 10 13
REMARK SMILES IDX 12 14 13 15 15 16 16 17 5 18 17 20 14 22
REMARK H PARENT 5 19 17 21 14 23
REMARK Flexibility Score: inf
ROOT
ATOM      1  C   UNL     1      16.491  15.611  17.082  1.00  0.00     0.044 C 
ATOM      2  C   UNL     1      15.316  14.754  17.450  1.00  0.00    -0.047 A 
ATOM      3  C   UNL     1      14.314  14.490  16.512  1.00  0.00     0.016 A 
ATOM      4  C   UNL     1      13.191  13.717  16.857  1.00  0.00     0.038 A 
ATOM      5  C   UNL     1      13.062  13.211  18.169  1.00  0.00     0.076 A 
ATOM      6  C   UNL     1      14.070  13.499  19.121  1.00  0.00     0.127 A 
ATOM      7  C   UNL     1      15.181  14.270  18.756  1.00  0.00     0.050 A 
ATOM      8  C   UNL     1      11.868  12.391  18.522  1.00  0.00     0.201 C 
ATOM      9  O   UNL     1      11.749  11.930  19.688  1.00  0.00    -0.288 OA
ATOM     10  C   UNL     1      10.814  12.112  17.507  1.00  0.00     0.076 A 
ATOM     11  C   UNL     1      10.958  12.628  16.199  1.00  0.00     0.041 A 
ATOM     12  C   UNL     1      12.145  13.438  15.846  1.00  0.00     0.194 C 
ATOM     13  O   UNL     1      12.267  13.895  14.674  1.00  0.00    -0.289 OA
ATOM     14  C   UNL     1       9.968  12.370  15.233  1.00  0.00     0.059 A 
ATOM     15  C   UNL     1       8.843  11.606  15.553  1.00  0.00     0.120 A 
ATOM     16  C   UNL     1       8.697  11.094  16.841  1.00  0.00     0.093 A 
ATOM     17  C   UNL     1       9.668  11.338  17.820  1.00  0.00     0.131 A 
ENDROOT
BRANCH   6  18
ATOM     18  O   UNL     1      13.974  13.027  20.431  1.00  0.00    -0.507 OA
ATOM     19  H   UNL     1      13.080  12.819  20.859  1.00  0.00     0.293 HD
ENDBRANCH   6  18
BRANCH  17  20
ATOM     20  O   UNL     1       9.488  10.811  19.098  1.00  0.00    -0.507 OA
ATOM     21  H   UNL     1       8.860  11.238  19.770  1.00  0.00     0.293 HD
ENDBRANCH  17  20
BRANCH  15  22
ATOM     22  O   UNL     1       7.863  11.350  14.597  1.00  0.00    -0.508 OA
ATOM     23  H   UNL     1       7.485  12.088  14.014  1.00  0.00     0.293 HD
ENDBRANCH  15  22
TORSDOF 3
ENDMDL
MODEL 5
REMARK VINA RESULT:    -7.662      1.929      5.633
REMARK INTER + INTRA:          -8.334
REMARK INTER:                  -8.334
REMARK INTRA:                   0.000
REMARK UNBOUND:                 0.000
REMARK SMILES Cc1cc(O)c2c(c1)C(=O)c1cc(O)cc(O)c1C2=O
REMARK SMILES IDX 1 1 2 2 8 3 7 4 6 5 4 6 3 7 19 8 20 9 18 10 11 11 9 12 10 13
REMARK SMILES IDX 12 14 13 15 15 16 16 17 5 18 17 20 14 22
REMARK H PARENT 5 19 17 21 14 23
REMARK Flexibility Score: inf
ROOT
ATOM      1  C   UNL     1      10.047  11.303  13.999  1.00  0.00     0.044 C 
ATOM      2  C   UNL     1      10.457  12.252  15.086  1.00  0.00    -0.047 A 
ATOM      3  C   UNL     1      11.740  12.808  15.091  1.00  0.00     0.016 A 
ATOM      4  C   UNL     1      12.147  13.671  16.124  1.00  0.00     0.038 A 
ATOM      5  C   UNL     1      11.257  13.971  17.180  1.00  0.00     0.076 A 
ATOM      6  C   UNL     1       9.967  13.389  17.181  1.00  0.00     0.127 A 
ATOM      7  C   UNL     1       9.582  12.533  16.141  1.00  0.00     0.050 A 
ATOM      8  C   UNL     1      11.699  14.889  18.268  1.00  0.00     0.201 C 
ATOM      9  O   UNL     1      10.910  15.168  19.210  1.00  0.00    -0.288 OA
ATOM     10  C   UNL     1      13.067  15.480  18.253  1.00  0.00     0.076 A 
ATOM     11  C   UNL     1      13.944  15.167  17.190  1.00  0.00     0.041 A 
ATOM     12  C   UNL     1      13.506  14.259  16.106  1.00  0.00     0.194 C 
ATOM     13  O   UNL     1      14.296  13.985  15.159  1.00  0.00    -0.289 OA
ATOM     14  C   UNL     1      15.238  15.719  17.165  1.00  0.00     0.059 A 
ATOM     15  C   UNL     1      15.665  16.577  18.182  1.00  0.00     0.120 A 
ATOM     16  C   UNL     1      14.803  16.890  19.231  1.00  0.00     0.093 A 
ATOM     17  C   UNL     1      13.511  16.352  19.278  1.00  0.00     0.131 A 
ENDROOT
BRANCH   6  18
ATOM     18  O   UNL     1       9.063  13.652  18.211  1.00  0.00    -0.507 OA
ATOM     19  H   UNL     1       8.574  12.909  18.695  1.00  0.00     0.293 HD
ENDBRANCH   6  18
BRANCH  17  20
ATOM     20  O   UNL     1      12.676  16.686  20.344  1.00  0.00    -0.507 OA
ATOM     21  H   UNL     1      12.475  16.032  21.092  1.00  0.00     0.293 HD
ENDBRANCH  17  20
BRANCH  15  22
ATOM     22  O   UNL     1      16.945  17.125  18.158  1.00  0.00    -0.508 OA
ATOM     23  H   UNL     1      17.517  17.102  17.321  1.00  0.00     0.293 HD
ENDBRANCH  15  22
TORSDOF 3
ENDMDL
MODEL 6
REMARK VINA RESULT:    -7.646      1.775      6.085
REMARK INTER + INTRA:          -8.317
REMARK INTER:                  -8.317
REMARK INTRA:                   0.000
REMARK UNBOUND:                 0.000
REMARK SMILES Cc1cc(O)c2c(c1)C(=O)c1cc(O)cc(O)c1C2=O
REMARK SMILES IDX 1 1 2 2 8 3 7 4 6 5 4 6 3 7 19 8 20 9 18 10 11 11 9 12 10 13
REMARK SMILES IDX 12 14 13 15 15 16 16 17 5 18 17 20 14 22
REMARK H PARENT 5 19 17 21 14 23
REMARK Flexibility Score: inf
ROOT
ATOM      1  C   UNL     1       7.487  11.122  15.038  1.00  0.00     0.044 C 
ATOM      2  C   UNL     1       8.845  11.736  15.214  1.00  0.00    -0.047 A 
ATOM      3  C   UNL     1       9.091  12.609  16.278  1.00  0.00     0.016 A 
ATOM      4  C   UNL     1      10.349  13.219  16.433  1.00  0.00     0.038 A 
ATOM      5  C   UNL     1      11.375  12.962  15.496  1.00  0.00     0.076 A 
ATOM      6  C   UNL     1      11.112  12.094  14.409  1.00  0.00     0.127 A 
ATOM      7  C   UNL     1       9.852  11.496  14.275  1.00  0.00     0.050 A 
ATOM      8  C   UNL     1      12.704  13.612  15.672  1.00  0.00     0.201 C 
ATOM      9  O   UNL     1      13.627  13.382  14.845  1.00  0.00    -0.288 OA
ATOM     10  C   UNL     1      12.953  14.532  16.817  1.00  0.00     0.076 A 
ATOM     11  C   UNL     1      11.915  14.779  17.744  1.00  0.00     0.041 A 
ATOM     12  C   UNL     1      10.594  14.131  17.573  1.00  0.00     0.194 C 
ATOM     13  O   UNL     1       9.673  14.357  18.406  1.00  0.00    -0.289 OA
ATOM     14  C   UNL     1      12.138  15.646  18.829  1.00  0.00     0.059 A 
ATOM     15  C   UNL     1      13.379  16.265  19.002  1.00  0.00     0.120 A 
ATOM     16  C   UNL     1      14.406  16.023  18.091  1.00  0.00     0.093 A 
ATOM     17  C   UNL     1      14.207  15.164  17.003  1.00  0.00     0.131 A 
ENDROOT
BRANCH   6  18
ATOM     18  O   UNL     1      12.095  11.823  13.456  1.00  0.00    -0.507 OA
ATOM     19  H   UNL     1      12.733  12.538  13.128  1.00  0.00     0.293 HD
ENDBRANCH   6  18
BRANCH  17  20
ATOM     20  O   UNL     1      15.257  14.946  16.111  1.00  0.00    -0.507 OA
ATOM     21  H   UNL     1      16.074  14.404  16.369  1.00  0.00     0.293 HD
ENDBRANCH  17  20
BRANCH  15  22
ATOM     22  O   UNL     1      13.602  17.123  20.076  1.00  0.00    -0.508 OA
ATOM     23  H   UNL     1      14.414  17.728  20.112  1.00  0.00     0.293 HD
ENDBRANCH  15  22
TORSDOF 3
ENDMDL
MODEL 7
REMARK VINA RESULT:    -7.646      1.332      5.506
REMARK INTER + INTRA:          -8.316
REMARK INTER:                  -8.316
REMARK INTRA:                   0.000
REMARK UNBOUND:                 0.000
REMARK SMILES Cc1cc(O)c2c(c1)C(=O)c1cc(O)cc(O)c1C2=O
REMARK SMILES IDX 1 1 2 2 8 3 7 4 6 5 4 6 3 7 19 8 20 9 18 10 11 11 9 12 10 13
REMARK SMILES IDX 12 14 13 15 15 16 16 17 5 18 17 20 14 22
REMARK H PARENT 5 19 17 21 14 23
REMARK Flexibility Score: inf
ROOT
ATOM      1  C   UNL     1      12.498  11.126  11.620  1.00  0.00     0.044 C 
ATOM      2  C   UNL     1      11.967  11.739  12.882  1.00  0.00    -0.047 A 
ATOM      3  C   UNL     1      12.760  12.619  13.626  1.00  0.00     0.016 A 
ATOM      4  C   UNL     1      12.286  13.172  14.829  1.00  0.00     0.038 A 
ATOM      5  C   UNL     1      11.002  12.826  15.305  1.00  0.00     0.076 A 
ATOM      6  C   UNL     1      10.213  11.918  14.558  1.00  0.00     0.127 A 
ATOM      7  C   UNL     1      10.704  11.380  13.361  1.00  0.00     0.050 A 
ATOM      8  C   UNL     1      10.511  13.420  16.580  1.00  0.00     0.201 C 
ATOM      9  O   UNL     1       9.363  13.122  17.008  1.00  0.00    -0.288 OA
ATOM     10  C   UNL     1      11.364  14.364  17.355  1.00  0.00     0.076 A 
ATOM     11  C   UNL     1      12.647  14.698  16.866  1.00  0.00     0.041 A 
ATOM     12  C   UNL     1      13.135  14.112  15.597  1.00  0.00     0.194 C 
ATOM     13  O   UNL     1      14.283  14.416  15.166  1.00  0.00    -0.289 OA
ATOM     14  C   UNL     1      13.461  15.588  17.590  1.00  0.00     0.059 A 
ATOM     15  C   UNL     1      13.013  16.148  18.789  1.00  0.00     0.120 A 
ATOM     16  C   UNL     1      11.748  15.822  19.275  1.00  0.00     0.093 A 
ATOM     17  C   UNL     1      10.920  14.938  18.572  1.00  0.00     0.131 A 
ENDROOT
BRANCH   6  18
ATOM     18  O   UNL     1       8.944  11.541  14.999  1.00  0.00    -0.507 OA
ATOM     19  H   UNL     1       8.597  10.597  14.886  1.00  0.00     0.293 HD
ENDBRANCH   6  18
BRANCH  17  20
ATOM     20  O   UNL     1       9.660  14.635  19.089  1.00  0.00    -0.507 OA
ATOM     21  H   UNL     1       8.831  15.146  18.811  1.00  0.00     0.293 HD
ENDBRANCH  17  20
BRANCH  15  22
ATOM     22  O   UNL     1      13.818  17.030  19.506  1.00  0.00    -0.508 OA
ATOM     23  H   UNL     1      14.534  17.585  19.050  1.00  0.00     0.293 HD
ENDBRANCH  15  22
TORSDOF 3
ENDMDL
MODEL 8
REMARK VINA RESULT:    -7.421      1.815      3.532
REMARK INTER + INTRA:          -8.071
REMARK INTER:                  -8.071
REMARK INTRA:                   0.000
REMARK UNBOUND:                 0.000
REMARK SMILES Cc1cc(O)c2c(c1)C(=O)c1cc(O)cc(O)c1C2=O
REMARK SMILES IDX 1 1 2 2 8 3 7 4 6 5 4 6 3 7 19 8 20 9 18 10 11 11 9 12 10 13
REMARK SMILES IDX 12 14 13 15 15 16 16 17 5 18 17 20 14 22
REMARK H PARENT 5 19 17 21 14 23
REMARK Flexibility Score: inf
ROOT
ATOM      1  C   UNL     1      12.874  13.675  21.333  1.00  0.00     0.044 C 
ATOM      2  C   UNL     1      13.147  13.814  19.865  1.00  0.00    -0.047 A 
ATOM      3  C   UNL     1      12.417  13.064  18.938  1.00  0.00     0.016 A 
ATOM      4  C   UNL     1      12.689  13.159  17.561  1.00  0.00     0.038 A 
ATOM      5  C   UNL     1      13.720  14.009  17.105  1.00  0.00     0.076 A 
ATOM      6  C   UNL     1      14.470  14.750  18.050  1.00  0.00     0.127 A 
ATOM      7  C   UNL     1      14.182  14.641  19.417  1.00  0.00     0.050 A 
ATOM      8  C   UNL     1      13.997  14.103  15.644  1.00  0.00     0.201 C 
ATOM      9  O   UNL     1      14.910  14.865  15.228  1.00  0.00    -0.288 OA
ATOM     10  C   UNL     1      13.203  13.304  14.669  1.00  0.00     0.076 A 
ATOM     11  C   UNL     1      12.176  12.456  15.143  1.00  0.00     0.041 A 
ATOM     12  C   UNL     1      11.897  12.365  16.594  1.00  0.00     0.194 C 
ATOM     13  O   UNL     1      10.977  11.605  17.008  1.00  0.00    -0.289 OA
ATOM     14  C   UNL     1      11.420  11.697  14.231  1.00  0.00     0.059 A 
ATOM     15  C   UNL     1      11.673  11.773  12.859  1.00  0.00     0.120 A 
ATOM     16  C   UNL     1      12.684  12.608  12.387  1.00  0.00     0.093 A 
ATOM     17  C   UNL     1      13.451  13.374  13.275  1.00  0.00     0.131 A 
ENDROOT
BRANCH   6  18
ATOM     18  O   UNL     1      15.504  15.593  17.642  1.00  0.00    -0.507 OA
ATOM     19  H   UNL     1      16.477  15.338  17.755  1.00  0.00     0.293 HD
ENDBRANCH   6  18
BRANCH  17  20
ATOM     20  O   UNL     1      14.454  14.198  12.767  1.00  0.00    -0.507 OA
ATOM     21  H   UNL     1      14.269  15.153  12.482  1.00  0.00     0.293 HD
ENDBRANCH  17  20
BRANCH  15  22
ATOM     22  O   UNL     1      10.925  11.022  11.955  1.00  0.00    -0.508 OA
ATOM     23  H   UNL     1       9.940  10.838  12.106  1.00  0.00     0.293 HD
ENDBRANCH  15  22
TORSDOF 3
ENDMDL
MODEL 9
REMARK VINA RESULT:    -7.373      2.687      5.339
REMARK INTER + INTRA:          -8.019
REMARK INTER:                  -8.019
REMARK INTRA:                   0.000
REMARK UNBOUND:                 0.000
REMARK SMILES Cc1cc(O)c2c(c1)C(=O)c1cc(O)cc(O)c1C2=O
REMARK SMILES IDX 1 1 2 2 8 3 7 4 6 5 4 6 3 7 19 8 20 9 18 10 11 11 9 12 10 13
REMARK SMILES IDX 12 14 13 15 15 16 16 17 5 18 17 20 14 22
REMARK H PARENT 5 19 17 21 14 23
REMARK Flexibility Score: inf
ROOT
ATOM      1  C   UNL     1       7.790  11.148  15.017  1.00  0.00     0.044 C 
ATOM      2  C   UNL     1       8.879  11.522  15.979  1.00  0.00    -0.047 A 
ATOM      3  C   UNL     1       9.982  12.263  15.542  1.00  0.00     0.016 A 
ATOM      4  C   UNL     1      11.026  12.588  16.426  1.00  0.00     0.038 A 
ATOM      5  C   UNL     1      10.972  12.152  17.769  1.00  0.00     0.076 A 
ATOM      6  C   UNL     1       9.863  11.384  18.200  1.00  0.00     0.127 A 
ATOM      7  C   UNL     1       8.834  11.072  17.302  1.00  0.00     0.050 A 
ATOM      8  C   UNL     1      12.084  12.505  18.697  1.00  0.00     0.201 C 
ATOM      9  O   UNL     1      12.040  12.126  19.898  1.00  0.00    -0.288 OA
ATOM     10  C   UNL     1      13.247  13.304  18.217  1.00  0.00     0.076 A 
ATOM     11  C   UNL     1      13.285  13.730  16.870  1.00  0.00     0.041 A 
ATOM     12  C   UNL     1      12.180  13.384  15.948  1.00  0.00     0.194 C 
ATOM     13  O   UNL     1      12.222  13.770  14.746  1.00  0.00    -0.289 OA
ATOM     14  C   UNL     1      14.379  14.484  16.407  1.00  0.00     0.059 A 
ATOM     15  C   UNL     1      15.429  14.818  17.267  1.00  0.00     0.120 A 
ATOM     16  C   UNL     1      15.395  14.401  18.596  1.00  0.00     0.093 A 
ATOM     17  C   UNL     1      14.317  13.648  19.080  1.00  0.00     0.131 A 
ENDROOT
BRANCH   6  18
ATOM     18  O   UNL     1       9.778  10.925  19.514  1.00  0.00    -0.507 OA
ATOM     19  H   UNL     1      10.568  10.500  19.984  1.00  0.00     0.293 HD
ENDBRANCH   6  18
BRANCH  17  20
ATOM     20  O   UNL     1      14.317  13.247  20.416  1.00  0.00    -0.507 OA
ATOM     21  H   UNL     1      15.147  13.313  20.994  1.00  0.00     0.293 HD
ENDBRANCH  17  20
BRANCH  15  22
ATOM     22  O   UNL     1      16.512  15.565  16.809  1.00  0.00    -0.508 OA
ATOM     23  H   UNL     1      16.701  16.496  17.163  1.00  0.00     0.293 HD
ENDBRANCH  15  22
TORSDOF 3
ENDMDL
