MODEL 1
REMARK VINA RESULT:    -4.333      0.000      0.000
REMARK INTER + INTRA:          -6.250
REMARK INTER:                  -5.852
REMARK INTRA:                  -0.397
REMARK UNBOUND:                -0.397
REMARK SMILES CCCCCCCC(=O)[O-]
REMARK SMILES IDX 5 1 6 2 7 3 8 4 9 5 10 6 4 7 3 8 2 9 1 10
REMARK H PARENT
REMARK Flexibility Score: inf
ROOT
ATOM      1  C   UNL     1      63.499 -26.806  -2.986  1.00  0.00     0.000 C 
ENDROOT
BRANCH   1   2
ATOM      2  C   UNL     1      62.574 -25.580  -3.090  1.00  0.00     0.006 C 
BRANCH   2   3
ATOM      3  C   UNL     1      61.113 -25.977  -3.344  1.00  0.00     0.053 C 
BRANCH   3   4
ATOM      4  C   UNL     1      60.507 -25.186  -4.463  1.00  0.00     0.041 C 
ATOM      5  O   UNL     1      60.753 -25.490  -5.660  1.00  0.00    -0.550 OA
ATOM      6  O   UNL     1      59.648 -24.131  -4.184  1.00  0.00    -0.550 OA
ENDBRANCH   3   4
ENDBRANCH   2   3
ENDBRANCH   1   2
BRANCH   1   7
ATOM      7  C   UNL     1      63.618 -27.337  -1.548  1.00  0.00     0.000 C 
BRANCH   7   8
ATOM      8  C   UNL     1      63.271 -28.829  -1.436  1.00  0.00    -0.000 C 
BRANCH   8   9
ATOM      9  C   UNL     1      62.193 -29.062  -0.372  1.00  0.00    -0.003 C 
ATOM     10  C   UNL     1      60.795 -28.851  -0.946  1.00  0.00     0.004 C 
ENDBRANCH   8   9
ENDBRANCH   7   8
ENDBRANCH   1   7
TORSDOF 6
ENDMDL
MODEL 2
REMARK VINA RESULT:    -4.296      3.025      4.826
REMARK INTER + INTRA:          -6.200
REMARK INTER:                  -5.893
REMARK INTRA:                  -0.307
REMARK UNBOUND:                -0.397
REMARK SMILES CCCCCCCC(=O)[O-]
REMARK SMILES IDX 5 1 6 2 7 3 8 4 9 5 10 6 4 7 3 8 2 9 1 10
REMARK H PARENT
REMARK Flexibility Score: inf
ROOT
ATOM      1  C   UNL     1      63.604 -26.993  -1.996  1.00  0.00     0.000 C 
ENDROOT
BRANCH   1   2
ATOM      2  C   UNL     1      63.159 -28.462  -1.874  1.00  0.00     0.006 C 
BRANCH   2   3
ATOM      3  C   UNL     1      62.884 -28.864  -0.418  1.00  0.00     0.053 C 
BRANCH   3   4
ATOM      4  C   UNL     1      61.423 -29.086  -0.167  1.00  0.00     0.041 C 
ATOM      5  O   UNL     1      60.989 -29.167   1.012  1.00  0.00    -0.550 OA
ATOM      6  O   UNL     1      60.540 -29.176  -1.234  1.00  0.00    -0.550 OA
ENDBRANCH   3   4
ENDBRANCH   2   3
ENDBRANCH   1   2
BRANCH   1   7
ATOM      7  C   UNL     1      62.776 -26.208  -3.026  1.00  0.00     0.000 C 
BRANCH   7   8
ATOM      8  C   UNL     1      61.287 -26.130  -2.655  1.00  0.00    -0.000 C 
BRANCH   8   9
ATOM      9  C   UNL     1      60.546 -25.150  -3.571  1.00  0.00    -0.003 C 
ATOM     10  C   UNL     1      60.972 -25.325  -5.025  1.00  0.00     0.004 C 
ENDBRANCH   8   9
ENDBRANCH   7   8
ENDBRANCH   1   7
TORSDOF 6
ENDMDL
MODEL 3
REMARK VINA RESULT:    -4.252      3.199      4.685
REMARK INTER + INTRA:          -6.141
REMARK INTER:                  -5.763
REMARK INTRA:                  -0.378
REMARK UNBOUND:                -0.397
REMARK SMILES CCCCCCCC(=O)[O-]
REMARK SMILES IDX 5 1 6 2 7 3 8 4 9 5 10 6 4 7 3 8 2 9 1 10
REMARK H PARENT
REMARK Flexibility Score: inf
ROOT
ATOM      1  C   UNL     1      63.626 -27.837  -1.324  1.00  0.00     0.000 C 
ENDROOT
BRANCH   1   2
ATOM      2  C   UNL     1      62.755 -29.001  -0.817  1.00  0.00     0.006 C 
BRANCH   2   3
ATOM      3  C   UNL     1      61.290 -28.859  -1.251  1.00  0.00     0.053 C 
BRANCH   3   4
ATOM      4  C   UNL     1      60.343 -29.219  -0.146  1.00  0.00     0.041 C 
ATOM      5  O   UNL     1      60.741 -29.232   1.048  1.00  0.00    -0.550 OA
ATOM      6  O   UNL     1      59.016 -29.510  -0.434  1.00  0.00    -0.550 OA
ENDBRANCH   3   4
ENDBRANCH   2   3
ENDBRANCH   1   2
BRANCH   1   7
ATOM      7  C   UNL     1      63.217 -27.361  -2.728  1.00  0.00     0.000 C 
BRANCH   7   8
ATOM      8  C   UNL     1      62.799 -25.883  -2.754  1.00  0.00    -0.000 C 
BRANCH   8   9
ATOM      9  C   UNL     1      61.545 -25.685  -3.612  1.00  0.00    -0.003 C 
ATOM     10  C   UNL     1      60.294 -25.582  -2.744  1.00  0.00     0.004 C 
ENDBRANCH   8   9
ENDBRANCH   7   8
ENDBRANCH   1   7
TORSDOF 6
ENDMDL
MODEL 4
REMARK VINA RESULT:    -4.235      0.773      1.528
REMARK INTER + INTRA:          -6.118
REMARK INTER:                  -5.801
REMARK INTRA:                  -0.316
REMARK UNBOUND:                -0.397
REMARK SMILES CCCCCCCC(=O)[O-]
REMARK SMILES IDX 5 1 6 2 7 3 8 4 9 5 10 6 4 7 3 8 2 9 1 10
REMARK H PARENT
REMARK Flexibility Score: inf
ROOT
ATOM      1  C   UNL     1      62.440 -25.940  -2.737  1.00  0.00     0.000 C 
ENDROOT
BRANCH   1   2
ATOM      2  C   UNL     1      60.977 -26.197  -3.142  1.00  0.00     0.006 C 
BRANCH   2   3
ATOM      3  C   UNL     1      60.156 -24.901  -3.195  1.00  0.00     0.053 C 
BRANCH   3   4
ATOM      4  C   UNL     1      59.868 -24.482  -4.605  1.00  0.00     0.041 C 
ATOM      5  O   UNL     1      59.436 -23.323  -4.845  1.00  0.00    -0.550 OA
ATOM      6  O   UNL     1      60.105 -25.359  -5.655  1.00  0.00    -0.550 OA
ENDBRANCH   3   4
ENDBRANCH   2   3
ENDBRANCH   1   2
BRANCH   1   7
ATOM      7  C   UNL     1      63.289 -27.222  -2.744  1.00  0.00     0.000 C 
BRANCH   7   8
ATOM      8  C   UNL     1      63.591 -27.741  -1.330  1.00  0.00    -0.000 C 
BRANCH   8   9
ATOM      9  C   UNL     1      62.958 -29.119  -1.107  1.00  0.00    -0.003 C 
ATOM     10  C   UNL     1      61.472 -28.997  -0.780  1.00  0.00     0.004 C 
ENDBRANCH   8   9
ENDBRANCH   7   8
ENDBRANCH   1   7
TORSDOF 6
ENDMDL
MODEL 5
REMARK VINA RESULT:    -4.230      0.998      1.244
REMARK INTER + INTRA:          -6.111
REMARK INTER:                  -5.767
REMARK INTRA:                  -0.344
REMARK UNBOUND:                -0.397
REMARK SMILES CCCCCCCC(=O)[O-]
REMARK SMILES IDX 5 1 6 2 7 3 8 4 9 5 10 6 4 7 3 8 2 9 1 10
REMARK H PARENT
REMARK Flexibility Score: inf
ROOT
ATOM      1  C   UNL     1      63.482 -26.611  -3.058  1.00  0.00     0.000 C 
ENDROOT
BRANCH   1   2
ATOM      2  C   UNL     1      62.352 -25.567  -3.112  1.00  0.00     0.006 C 
BRANCH   2   3
ATOM      3  C   UNL     1      60.985 -26.176  -2.772  1.00  0.00     0.053 C 
BRANCH   3   4
ATOM      4  C   UNL     1      59.869 -25.198  -2.987  1.00  0.00     0.041 C 
ATOM      5  O   UNL     1      60.003 -24.257  -3.812  1.00  0.00    -0.550 OA
ATOM      6  O   UNL     1      58.673 -25.344  -2.297  1.00  0.00    -0.550 OA
ENDBRANCH   3   4
ENDBRANCH   2   3
ENDBRANCH   1   2
BRANCH   1   7
ATOM      7  C   UNL     1      63.686 -27.188  -1.648  1.00  0.00     0.000 C 
BRANCH   7   8
ATOM      8  C   UNL     1      63.523 -28.715  -1.603  1.00  0.00    -0.000 C 
BRANCH   8   9
ATOM      9  C   UNL     1      62.773 -29.149  -0.339  1.00  0.00    -0.003 C 
ATOM     10  C   UNL     1      61.270 -28.937  -0.489  1.00  0.00     0.004 C 
ENDBRANCH   8   9
ENDBRANCH   7   8
ENDBRANCH   1   7
TORSDOF 6
ENDMDL
MODEL 6
REMARK VINA RESULT:    -4.227      3.268      4.744
REMARK INTER + INTRA:          -6.107
REMARK INTER:                  -5.728
REMARK INTRA:                  -0.380
REMARK UNBOUND:                -0.397
REMARK SMILES CCCCCCCC(=O)[O-]
REMARK SMILES IDX 5 1 6 2 7 3 8 4 9 5 10 6 4 7 3 8 2 9 1 10
REMARK H PARENT
REMARK Flexibility Score: inf
ROOT
ATOM      1  C   UNL     1      62.903 -28.875  -0.628  1.00  0.00     0.000 C 
ENDROOT
BRANCH   1   2
ATOM      2  C   UNL     1      61.532 -29.112   0.030  1.00  0.00     0.006 C 
BRANCH   2   3
ATOM      3  C   UNL     1      60.379 -29.000  -0.978  1.00  0.00     0.053 C 
BRANCH   3   4
ATOM      4  C   UNL     1      59.097 -29.541  -0.422  1.00  0.00     0.041 C 
ATOM      5  O   UNL     1      59.119 -30.393   0.505  1.00  0.00    -0.550 OA
ATOM      6  O   UNL     1      57.880 -29.083  -0.908  1.00  0.00    -0.550 OA
ENDBRANCH   3   4
ENDBRANCH   2   3
ENDBRANCH   1   2
BRANCH   1   7
ATOM      7  C   UNL     1      62.791 -28.189  -1.999  1.00  0.00     0.000 C 
BRANCH   7   8
ATOM      8  C   UNL     1      63.603 -26.887  -2.079  1.00  0.00    -0.000 C 
BRANCH   8   9
ATOM      9  C   UNL     1      62.914 -25.867  -2.991  1.00  0.00    -0.003 C 
ATOM     10  C   UNL     1      61.395 -25.994  -2.912  1.00  0.00     0.004 C 
ENDBRANCH   8   9
ENDBRANCH   7   8
ENDBRANCH   1   7
TORSDOF 6
ENDMDL
MODEL 7
REMARK VINA RESULT:    -4.226      1.240      2.065
REMARK INTER + INTRA:          -6.105
REMARK INTER:                  -5.827
REMARK INTRA:                  -0.278
REMARK UNBOUND:                -0.397
REMARK SMILES CCCCCCCC(=O)[O-]
REMARK SMILES IDX 5 1 6 2 7 3 8 4 9 5 10 6 4 7 3 8 2 9 1 10
REMARK H PARENT
REMARK Flexibility Score: inf
ROOT
ATOM      1  C   UNL     1      63.597 -27.719  -1.288  1.00  0.00     0.000 C 
ENDROOT
BRANCH   1   2
ATOM      2  C   UNL     1      63.283 -27.315  -2.740  1.00  0.00     0.006 C 
BRANCH   2   3
ATOM      3  C   UNL     1      62.828 -25.854  -2.849  1.00  0.00     0.053 C 
BRANCH   3   4
ATOM      4  C   UNL     1      61.405 -25.745  -3.306  1.00  0.00     0.041 C 
ATOM      5  O   UNL     1      60.464 -25.844  -2.476  1.00  0.00    -0.550 OA
ATOM      6  O   UNL     1      61.120 -25.506  -4.644  1.00  0.00    -0.550 OA
ENDBRANCH   3   4
ENDBRANCH   2   3
ENDBRANCH   1   2
BRANCH   1   7
ATOM      7  C   UNL     1      62.851 -28.991  -0.853  1.00  0.00     0.000 C 
BRANCH   7   8
ATOM      8  C   UNL     1      61.330 -28.877  -1.035  1.00  0.00    -0.000 C 
BRANCH   8   9
ATOM      9  C   UNL     1      60.599 -29.153   0.283  1.00  0.00    -0.003 C 
ATOM     10  C   UNL     1      59.248 -29.819   0.037  1.00  0.00     0.004 C 
ENDBRANCH   8   9
ENDBRANCH   7   8
ENDBRANCH   1   7
TORSDOF 6
ENDMDL
MODEL 8
REMARK VINA RESULT:    -4.215      3.297      4.782
REMARK INTER + INTRA:          -6.090
REMARK INTER:                  -5.702
REMARK INTRA:                  -0.389
REMARK UNBOUND:                -0.397
REMARK SMILES CCCCCCCC(=O)[O-]
REMARK SMILES IDX 5 1 6 2 7 3 8 4 9 5 10 6 4 7 3 8 2 9 1 10
REMARK H PARENT
REMARK Flexibility Score: inf
ROOT
ATOM      1  C   UNL     1      62.903 -25.968  -2.852  1.00  0.00     0.000 C 
ENDROOT
BRANCH   1   2
ATOM      2  C   UNL     1      63.289 -27.376  -2.364  1.00  0.00     0.006 C 
BRANCH   2   3
ATOM      3  C   UNL     1      62.075 -28.169  -1.862  1.00  0.00     0.053 C 
BRANCH   3   4
ATOM      4  C   UNL     1      62.331 -28.794  -0.525  1.00  0.00     0.041 C 
ATOM      5  O   UNL     1      63.512 -28.993  -0.134  1.00  0.00    -0.550 OA
ATOM      6  O   UNL     1      61.267 -29.131   0.302  1.00  0.00    -0.550 OA
ENDBRANCH   3   4
ENDBRANCH   2   3
ENDBRANCH   1   2
BRANCH   1   7
ATOM      7  C   UNL     1      61.382 -25.788  -2.993  1.00  0.00     0.000 C 
BRANCH   7   8
ATOM      8  C   UNL     1      60.954 -25.470  -4.434  1.00  0.00    -0.000 C 
BRANCH   8   9
ATOM      9  C   UNL     1      59.495 -25.873  -4.673  1.00  0.00    -0.003 C 
ATOM     10  C   UNL     1      58.999 -26.820  -3.584  1.00  0.00     0.004 C 
ENDBRANCH   8   9
ENDBRANCH   7   8
ENDBRANCH   1   7
TORSDOF 6
ENDMDL
MODEL 9
REMARK VINA RESULT:    -4.157      1.182      2.177
REMARK INTER + INTRA:          -6.012
REMARK INTER:                  -5.796
REMARK INTRA:                  -0.216
REMARK UNBOUND:                -0.397
REMARK SMILES CCCCCCCC(=O)[O-]
REMARK SMILES IDX 5 1 6 2 7 3 8 4 9 5 10 6 4 7 3 8 2 9 1 10
REMARK H PARENT
REMARK Flexibility Score: inf
ROOT
ATOM      1  C   UNL     1      61.248 -26.406  -2.696  1.00  0.00     0.000 C 
ENDROOT
BRANCH   1   2
ATOM      2  C   UNL     1      60.349 -25.248  -3.167  1.00  0.00     0.006 C 
BRANCH   2   3
ATOM      3  C   UNL     1      59.869 -25.439  -4.612  1.00  0.00     0.053 C 
BRANCH   3   4
ATOM      4  C   UNL     1      59.866 -24.149  -5.374  1.00  0.00     0.041 C 
ATOM      5  O   UNL     1      59.184 -23.173  -4.964  1.00  0.00    -0.550 OA
ATOM      6  O   UNL     1      60.640 -24.015  -6.519  1.00  0.00    -0.550 OA
ENDBRANCH   3   4
ENDBRANCH   2   3
ENDBRANCH   1   2
BRANCH   1   7
ATOM      7  C   UNL     1      62.744 -26.058  -2.765  1.00  0.00     0.000 C 
BRANCH   7   8
ATOM      8  C   UNL     1      63.631 -27.119  -2.095  1.00  0.00    -0.000 C 
BRANCH   8   9
ATOM      9  C   UNL     1      62.809 -28.354  -1.709  1.00  0.00    -0.003 C 
ATOM     10  C   UNL     1      63.267 -28.925  -0.371  1.00  0.00     0.004 C 
ENDBRANCH   8   9
ENDBRANCH   7   8
ENDBRANCH   1   7
TORSDOF 6
ENDMDL
