MODEL 1
REMARK VINA RESULT:    -4.853      0.000      0.000
REMARK INTER + INTRA:          -9.602
REMARK INTER:                  -8.258
REMARK INTRA:                  -1.344
REMARK UNBOUND:                -1.344
REMARK SMILES CCCCCCCCCCCCCC(=O)[O-]
REMARK SMILES IDX 8 1 9 2 10 3 11 4 12 5 13 6 14 7 15 8 16 9 7 10 6 11 5 12
REMARK SMILES IDX 4 13 3 14 2 15 1 16
REMARK H PARENT
REMARK Flexibility Score: inf
ROOT
ATOM      1  C   UNL     1      -3.889  11.425  -7.679  1.00  0.00     0.000 C 
ENDROOT
BRANCH   1   2
ATOM      2  C   UNL     1      -2.457  10.881  -7.568  1.00  0.00     0.000 C 
BRANCH   2   3
ATOM      3  C   UNL     1      -1.621  11.281  -8.789  1.00  0.00     0.000 C 
BRANCH   3   4
ATOM      4  C   UNL     1      -0.376  12.075  -8.368  1.00  0.00     0.000 C 
BRANCH   4   5
ATOM      5  C   UNL     1       0.686  11.196  -7.690  1.00  0.00     0.006 C 
BRANCH   5   6
ATOM      6  C   UNL     1       1.129  10.019  -8.569  1.00  0.00     0.053 C 
BRANCH   6   7
ATOM      7  C   UNL     1       2.615  10.021  -8.735  1.00  0.00     0.041 C 
ATOM      8  O   UNL     1       3.351  10.525  -7.845  1.00  0.00    -0.550 OA
ATOM      9  O   UNL     1       3.192   9.424  -9.848  1.00  0.00    -0.550 OA
ENDBRANCH   6   7
ENDBRANCH   5   6
ENDBRANCH   4   5
ENDBRANCH   3   4
ENDBRANCH   2   3
ENDBRANCH   1   2
BRANCH   1  10
ATOM     10  C   UNL     1      -4.002  12.596  -8.668  1.00  0.00     0.000 C 
BRANCH  10  11
ATOM     11  C   UNL     1      -5.321  12.577  -9.460  1.00  0.00    -0.000 C 
BRANCH  11  12
ATOM     12  C   UNL     1      -5.654  11.182 -10.013  1.00  0.00    -0.000 C 
BRANCH  12  13
ATOM     13  C   UNL     1      -4.732  10.771 -11.174  1.00  0.00    -0.000 C 
BRANCH  13  14
ATOM     14  C   UNL     1      -4.167   9.352 -11.005  1.00  0.00    -0.000 C 
BRANCH  14  15
ATOM     15  C   UNL     1      -4.891   8.555  -9.911  1.00  0.00    -0.003 C 
ATOM     16  C   UNL     1      -5.679   7.393 -10.509  1.00  0.00     0.004 C 
ENDBRANCH  14  15
ENDBRANCH  13  14
ENDBRANCH  12  13
ENDBRANCH  11  12
ENDBRANCH  10  11
ENDBRANCH   1  10
TORSDOF 12
ENDMDL
MODEL 2
REMARK VINA RESULT:    -4.820      1.128      1.728
REMARK INTER + INTRA:          -9.545
REMARK INTER:                  -8.200
REMARK INTRA:                  -1.345
REMARK UNBOUND:                -1.344
REMARK SMILES CCCCCCCCCCCCCC(=O)[O-]
REMARK SMILES IDX 8 1 9 2 10 3 11 4 12 5 13 6 14 7 15 8 16 9 7 10 6 11 5 12
REMARK SMILES IDX 4 13 3 14 2 15 1 16
REMARK H PARENT
REMARK Flexibility Score: inf
ROOT
ATOM      1  C   UNL     1      -3.172  10.237 -10.517  1.00  0.00     0.000 C 
ENDROOT
BRANCH   1   2
ATOM      2  C   UNL     1      -3.084  10.237  -8.983  1.00  0.00     0.000 C 
BRANCH   2   3
ATOM      3  C   UNL     1      -1.625  10.284  -8.516  1.00  0.00     0.000 C 
BRANCH   3   4
ATOM      4  C   UNL     1      -1.018  11.677  -8.746  1.00  0.00     0.000 C 
BRANCH   4   5
ATOM      5  C   UNL     1       0.457  11.757  -8.323  1.00  0.00     0.006 C 
BRANCH   5   6
ATOM      6  C   UNL     1       0.994  10.421  -7.793  1.00  0.00     0.053 C 
BRANCH   6   7
ATOM      7  C   UNL     1       2.370  10.165  -8.323  1.00  0.00     0.041 C 
ATOM      8  O   UNL     1       3.380  10.499  -7.649  1.00  0.00    -0.550 OA
ATOM      9  O   UNL     1       2.537   9.514  -9.539  1.00  0.00    -0.550 OA
ENDBRANCH   6   7
ENDBRANCH   5   6
ENDBRANCH   4   5
ENDBRANCH   3   4
ENDBRANCH   2   3
ENDBRANCH   1   2
BRANCH   1  10
ATOM     10  C   UNL     1      -4.509  10.792 -11.032  1.00  0.00     0.000 C 
BRANCH  10  11
ATOM     11  C   UNL     1      -5.359  11.420  -9.914  1.00  0.00    -0.000 C 
BRANCH  11  12
ATOM     12  C   UNL     1      -6.722  10.729  -9.753  1.00  0.00    -0.000 C 
BRANCH  12  13
ATOM     13  C   UNL     1      -6.741   9.312 -10.352  1.00  0.00    -0.000 C 
BRANCH  13  14
ATOM     14  C   UNL     1      -6.417   8.227  -9.313  1.00  0.00    -0.000 C 
BRANCH  14  15
ATOM     15  C   UNL     1      -5.329   7.256  -9.795  1.00  0.00    -0.003 C 
ATOM     16  C   UNL     1      -5.272   7.207 -11.319  1.00  0.00     0.004 C 
ENDBRANCH  14  15
ENDBRANCH  13  14
ENDBRANCH  12  13
ENDBRANCH  11  12
ENDBRANCH  10  11
ENDBRANCH   1  10
TORSDOF 12
ENDMDL
MODEL 3
REMARK VINA RESULT:    -4.810      3.121      6.477
REMARK INTER + INTRA:          -9.529
REMARK INTER:                  -8.423
REMARK INTRA:                  -1.106
REMARK UNBOUND:                -1.344
REMARK SMILES CCCCCCCCCCCCCC(=O)[O-]
REMARK SMILES IDX 8 1 9 2 10 3 11 4 12 5 13 6 14 7 15 8 16 9 7 10 6 11 5 12
REMARK SMILES IDX 4 13 3 14 2 15 1 16
REMARK H PARENT
REMARK Flexibility Score: inf
ROOT
ATOM      1  C   UNL     1      -4.555  11.936  -9.790  1.00  0.00     0.000 C 
ENDROOT
BRANCH   1   2
ATOM      2  C   UNL     1      -5.046  11.068 -10.959  1.00  0.00     0.000 C 
BRANCH   2   3
ATOM      3  C   UNL     1      -6.399  10.425 -10.634  1.00  0.00     0.000 C 
BRANCH   3   4
ATOM      4  C   UNL     1      -6.423   9.887  -9.195  1.00  0.00     0.000 C 
BRANCH   4   5
ATOM      5  C   UNL     1      -5.961   8.425  -9.101  1.00  0.00     0.006 C 
BRANCH   5   6
ATOM      6  C   UNL     1      -6.361   7.598 -10.330  1.00  0.00     0.053 C 
BRANCH   6   7
ATOM      7  C   UNL     1      -5.143   7.109 -11.048  1.00  0.00     0.041 C 
ATOM      8  O   UNL     1      -5.251   6.258 -11.972  1.00  0.00    -0.550 OA
ATOM      9  O   UNL     1      -3.893   7.626 -10.732  1.00  0.00    -0.550 OA
ENDBRANCH   6   7
ENDBRANCH   5   6
ENDBRANCH   4   5
ENDBRANCH   3   4
ENDBRANCH   2   3
ENDBRANCH   1   2
BRANCH   1  10
ATOM     10  C   UNL     1      -3.054  11.758  -9.512  1.00  0.00     0.000 C 
BRANCH  10  11
ATOM     11  C   UNL     1      -2.719  10.370  -8.941  1.00  0.00    -0.000 C 
BRANCH  11  12
ATOM     12  C   UNL     1      -1.276  10.280  -8.420  1.00  0.00    -0.000 C 
BRANCH  12  13
ATOM     13  C   UNL     1      -0.581  11.652  -8.365  1.00  0.00    -0.000 C 
BRANCH  13  14
ATOM     14  C   UNL     1       0.951  11.541  -8.398  1.00  0.00    -0.000 C 
BRANCH  14  15
ATOM     15  C   UNL     1       1.442  10.102  -8.184  1.00  0.00    -0.003 C 
ATOM     16  C   UNL     1       2.615   9.780  -9.106  1.00  0.00     0.004 C 
ENDBRANCH  14  15
ENDBRANCH  13  14
ENDBRANCH  12  13
ENDBRANCH  11  12
ENDBRANCH  10  11
ENDBRANCH   1  10
TORSDOF 12
ENDMDL
MODEL 4
REMARK VINA RESULT:    -4.809      1.218      2.607
REMARK INTER + INTRA:          -9.527
REMARK INTER:                  -8.188
REMARK INTRA:                  -1.339
REMARK UNBOUND:                -1.344
REMARK SMILES CCCCCCCCCCCCCC(=O)[O-]
REMARK SMILES IDX 8 1 9 2 10 3 11 4 12 5 13 6 14 7 15 8 16 9 7 10 6 11 5 12
REMARK SMILES IDX 4 13 3 14 2 15 1 16
REMARK H PARENT
REMARK Flexibility Score: inf
ROOT
ATOM      1  C   UNL     1      -3.056  10.395  -8.518  1.00  0.00     0.000 C 
ENDROOT
BRANCH   1   2
ATOM      2  C   UNL     1      -2.189  11.349  -7.682  1.00  0.00     0.000 C 
BRANCH   2   3
ATOM      3  C   UNL     1      -1.097  11.996  -8.541  1.00  0.00     0.000 C 
BRANCH   3   4
ATOM      4  C   UNL     1       0.183  12.226  -7.724  1.00  0.00     0.000 C 
BRANCH   4   5
ATOM      5  C   UNL     1       0.739  10.929  -7.114  1.00  0.00     0.006 C 
BRANCH   5   6
ATOM      6  C   UNL     1       1.048   9.864  -8.174  1.00  0.00     0.053 C 
BRANCH   6   7
ATOM      7  C   UNL     1       2.493   9.914  -8.558  1.00  0.00     0.041 C 
ATOM      8  O   UNL     1       2.868   9.465  -9.674  1.00  0.00    -0.550 OA
ATOM      9  O   UNL     1       3.420  10.501  -7.705  1.00  0.00    -0.550 OA
ENDBRANCH   6   7
ENDBRANCH   5   6
ENDBRANCH   4   5
ENDBRANCH   3   4
ENDBRANCH   2   3
ENDBRANCH   1   2
BRANCH   1  10
ATOM     10  C   UNL     1      -2.829  10.562 -10.029  1.00  0.00     0.000 C 
BRANCH  10  11
ATOM     11  C   UNL     1      -3.931   9.894 -10.869  1.00  0.00    -0.000 C 
BRANCH  11  12
ATOM     12  C   UNL     1      -5.094  10.850 -11.182  1.00  0.00    -0.000 C 
BRANCH  12  13
ATOM     13  C   UNL     1      -6.420  10.391 -10.551  1.00  0.00    -0.000 C 
BRANCH  13  14
ATOM     14  C   UNL     1      -6.890  11.321  -9.421  1.00  0.00    -0.000 C 
BRANCH  14  15
ATOM     15  C   UNL     1      -6.143  12.662  -9.413  1.00  0.00    -0.003 C 
ATOM     16  C   UNL     1      -5.564  12.960  -8.032  1.00  0.00     0.004 C 
ENDBRANCH  14  15
ENDBRANCH  13  14
ENDBRANCH  12  13
ENDBRANCH  11  12
ENDBRANCH  10  11
ENDBRANCH   1  10
TORSDOF 12
ENDMDL
MODEL 5
REMARK VINA RESULT:    -4.715      1.173      3.068
REMARK INTER + INTRA:          -9.367
REMARK INTER:                  -7.878
REMARK INTRA:                  -1.488
REMARK UNBOUND:                -1.344
REMARK SMILES CCCCCCCCCCCCCC(=O)[O-]
REMARK SMILES IDX 8 1 9 2 10 3 11 4 12 5 13 6 14 7 15 8 16 9 7 10 6 11 5 12
REMARK SMILES IDX 4 13 3 14 2 15 1 16
REMARK H PARENT
REMARK Flexibility Score: inf
ROOT
ATOM      1  C   UNL     1      -4.176   9.259 -11.025  1.00  0.00     0.000 C 
ENDROOT
BRANCH   1   2
ATOM      2  C   UNL     1      -3.150  10.312 -10.581  1.00  0.00     0.000 C 
BRANCH   2   3
ATOM      3  C   UNL     1      -2.663  10.036  -9.153  1.00  0.00     0.000 C 
BRANCH   3   4
ATOM      4  C   UNL     1      -1.531  10.998  -8.762  1.00  0.00     0.000 C 
BRANCH   4   5
ATOM      5  C   UNL     1      -0.235  10.265  -8.383  1.00  0.00     0.006 C 
BRANCH   5   6
ATOM      6  C   UNL     1       0.985  11.196  -8.360  1.00  0.00     0.053 C 
BRANCH   6   7
ATOM      7  C   UNL     1       2.248  10.403  -8.486  1.00  0.00     0.041 C 
ATOM      8  O   UNL     1       2.360   9.530  -9.386  1.00  0.00    -0.550 OA
ATOM      9  O   UNL     1       3.319  10.662  -7.639  1.00  0.00    -0.550 OA
ENDBRANCH   6   7
ENDBRANCH   5   6
ENDBRANCH   4   5
ENDBRANCH   3   4
ENDBRANCH   2   3
ENDBRANCH   1   2
BRANCH   1  10
ATOM     10  C   UNL     1      -5.613   9.627 -10.623  1.00  0.00     0.000 C 
BRANCH  10  11
ATOM     11  C   UNL     1      -5.965  11.087 -10.957  1.00  0.00    -0.000 C 
BRANCH  11  12
ATOM     12  C   UNL     1      -6.367  11.895  -9.714  1.00  0.00    -0.000 C 
BRANCH  12  13
ATOM     13  C   UNL     1      -5.350  12.998  -9.372  1.00  0.00    -0.000 C 
BRANCH  13  14
ATOM     14  C   UNL     1      -4.760  12.841  -7.962  1.00  0.00    -0.000 C 
BRANCH  14  15
ATOM     15  C   UNL     1      -5.386  11.673  -7.187  1.00  0.00    -0.003 C 
ATOM     16  C   UNL     1      -4.459  11.193  -6.074  1.00  0.00     0.004 C 
ENDBRANCH  14  15
ENDBRANCH  13  14
ENDBRANCH  12  13
ENDBRANCH  11  12
ENDBRANCH  10  11
ENDBRANCH   1  10
TORSDOF 12
ENDMDL
MODEL 6
REMARK VINA RESULT:    -4.667      3.215      6.430
REMARK INTER + INTRA:          -9.285
REMARK INTER:                  -8.252
REMARK INTRA:                  -1.033
REMARK UNBOUND:                -1.344
REMARK SMILES CCCCCCCCCCCCCC(=O)[O-]
REMARK SMILES IDX 8 1 9 2 10 3 11 4 12 5 13 6 14 7 15 8 16 9 7 10 6 11 5 12
REMARK SMILES IDX 4 13 3 14 2 15 1 16
REMARK H PARENT
REMARK Flexibility Score: inf
ROOT
ATOM      1  C   UNL     1      -3.981  12.046  -8.352  1.00  0.00     0.000 C 
ENDROOT
BRANCH   1   2
ATOM      2  C   UNL     1      -4.873  13.035  -9.117  1.00  0.00     0.000 C 
BRANCH   2   3
ATOM      3  C   UNL     1      -6.316  12.524  -9.198  1.00  0.00     0.000 C 
BRANCH   3   4
ATOM      4  C   UNL     1      -6.352  10.995  -9.338  1.00  0.00     0.000 C 
BRANCH   4   5
ATOM      5  C   UNL     1      -6.215  10.530 -10.796  1.00  0.00     0.006 C 
BRANCH   5   6
ATOM      6  C   UNL     1      -4.905   9.774 -11.056  1.00  0.00     0.053 C 
BRANCH   6   7
ATOM      7  C   UNL     1      -5.092   8.309 -10.817  1.00  0.00     0.041 C 
ATOM      8  O   UNL     1      -4.092   7.548 -10.735  1.00  0.00    -0.550 OA
ATOM      9  O   UNL     1      -6.369   7.791 -10.638  1.00  0.00    -0.550 OA
ENDBRANCH   6   7
ENDBRANCH   5   6
ENDBRANCH   4   5
ENDBRANCH   3   4
ENDBRANCH   2   3
ENDBRANCH   1   2
BRANCH   1  10
ATOM     10  C   UNL     1      -2.597  11.876  -8.999  1.00  0.00     0.000 C 
BRANCH  10  11
ATOM     11  C   UNL     1      -2.083  10.428  -8.924  1.00  0.00    -0.000 C 
BRANCH  11  12
ATOM     12  C   UNL     1      -0.809  10.298  -8.074  1.00  0.00    -0.000 C 
BRANCH  12  13
ATOM     13  C   UNL     1       0.015  11.597  -8.043  1.00  0.00    -0.000 C 
BRANCH  13  14
ATOM     14  C   UNL     1       1.514  11.351  -8.272  1.00  0.00    -0.000 C 
BRANCH  14  15
ATOM     15  C   UNL     1       1.864   9.858  -8.334  1.00  0.00    -0.003 C 
ATOM     16  C   UNL     1       2.880   9.577  -9.438  1.00  0.00     0.004 C 
ENDBRANCH  14  15
ENDBRANCH  13  14
ENDBRANCH  12  13
ENDBRANCH  11  12
ENDBRANCH  10  11
ENDBRANCH   1  10
TORSDOF 12
ENDMDL
MODEL 7
REMARK VINA RESULT:    -4.663      1.532      2.163
REMARK INTER + INTRA:          -9.278
REMARK INTER:                  -7.448
REMARK INTRA:                  -1.830
REMARK UNBOUND:                -1.344
REMARK SMILES CCCCCCCCCCCCCC(=O)[O-]
REMARK SMILES IDX 8 1 9 2 10 3 11 4 12 5 13 6 14 7 15 8 16 9 7 10 6 11 5 12
REMARK SMILES IDX 4 13 3 14 2 15 1 16
REMARK H PARENT
REMARK Flexibility Score: inf
ROOT
ATOM      1  C   UNL     1      -3.356  11.349  -7.365  1.00  0.00     0.000 C 
ENDROOT
BRANCH   1   2
ATOM      2  C   UNL     1      -2.628  12.415  -8.196  1.00  0.00     0.000 C 
BRANCH   2   3
ATOM      3  C   UNL     1      -1.380  11.831  -8.868  1.00  0.00     0.000 C 
BRANCH   3   4
ATOM      4  C   UNL     1      -1.233  10.335  -8.550  1.00  0.00     0.000 C 
BRANCH   4   5
ATOM      5  C   UNL     1       0.193   9.957  -8.122  1.00  0.00     0.006 C 
BRANCH   5   6
ATOM      6  C   UNL     1       1.148  11.158  -8.122  1.00  0.00     0.053 C 
BRANCH   6   7
ATOM      7  C   UNL     1       1.499  11.544  -6.720  1.00  0.00     0.041 C 
ATOM      8  O   UNL     1       2.706  11.674  -6.382  1.00  0.00    -0.550 OA
ATOM      9  O   UNL     1       0.494  11.807  -5.797  1.00  0.00    -0.550 OA
ENDBRANCH   6   7
ENDBRANCH   5   6
ENDBRANCH   4   5
ENDBRANCH   3   4
ENDBRANCH   2   3
ENDBRANCH   1   2
BRANCH   1  10
ATOM     10  C   UNL     1      -4.879  11.555  -7.343  1.00  0.00     0.000 C 
BRANCH  10  11
ATOM     11  C   UNL     1      -5.315  12.828  -8.090  1.00  0.00    -0.000 C 
BRANCH  11  12
ATOM     12  C   UNL     1      -6.219  12.523  -9.294  1.00  0.00    -0.000 C 
BRANCH  12  13
ATOM     13  C   UNL     1      -6.041  11.087  -9.818  1.00  0.00    -0.000 C 
BRANCH  13  14
ATOM     14  C   UNL     1      -5.154  11.022 -11.071  1.00  0.00    -0.000 C 
BRANCH  14  15
ATOM     15  C   UNL     1      -4.081   9.928 -10.978  1.00  0.00    -0.003 C 
ATOM     16  C   UNL     1      -4.474   8.858  -9.964  1.00  0.00     0.004 C 
ENDBRANCH  14  15
ENDBRANCH  13  14
ENDBRANCH  12  13
ENDBRANCH  11  12
ENDBRANCH  10  11
ENDBRANCH   1  10
TORSDOF 12
ENDMDL
MODEL 8
REMARK VINA RESULT:    -4.653      1.023      1.810
REMARK INTER + INTRA:          -9.262
REMARK INTER:                  -8.288
REMARK INTRA:                  -0.975
REMARK UNBOUND:                -1.344
REMARK SMILES CCCCCCCCCCCCCC(=O)[O-]
REMARK SMILES IDX 8 1 9 2 10 3 11 4 12 5 13 6 14 7 15 8 16 9 7 10 6 11 5 12
REMARK SMILES IDX 4 13 3 14 2 15 1 16
REMARK H PARENT
REMARK Flexibility Score: inf
ROOT
ATOM      1  C   UNL     1      -5.110  12.970  -9.236  1.00  0.00     0.000 C 
ENDROOT
BRANCH   1   2
ATOM      2  C   UNL     1      -4.116  11.981  -8.609  1.00  0.00     0.000 C 
BRANCH   2   3
ATOM      3  C   UNL     1      -2.727  12.120  -9.244  1.00  0.00     0.000 C 
BRANCH   3   4
ATOM      4  C   UNL     1      -1.899  10.842  -9.044  1.00  0.00     0.000 C 
BRANCH   4   5
ATOM      5  C   UNL     1      -0.461  11.132  -8.586  1.00  0.00     0.006 C 
BRANCH   5   6
ATOM      6  C   UNL     1       0.362   9.855  -8.376  1.00  0.00     0.053 C 
BRANCH   6   7
ATOM      7  C   UNL     1       1.825  10.160  -8.444  1.00  0.00     0.041 C 
ATOM      8  O   UNL     1       2.347  10.949  -7.613  1.00  0.00    -0.550 OA
ATOM      9  O   UNL     1       2.622   9.536  -9.396  1.00  0.00    -0.550 OA
ENDBRANCH   6   7
ENDBRANCH   5   6
ENDBRANCH   4   5
ENDBRANCH   3   4
ENDBRANCH   2   3
ENDBRANCH   1   2
BRANCH   1  10
ATOM     10  C   UNL     1      -6.360  12.275  -9.798  1.00  0.00     0.000 C 
BRANCH  10  11
ATOM     11  C   UNL     1      -6.016  11.092 -10.719  1.00  0.00    -0.000 C 
BRANCH  11  12
ATOM     12  C   UNL     1      -6.800   9.820 -10.361  1.00  0.00    -0.000 C 
BRANCH  12  13
ATOM     13  C   UNL     1      -5.924   8.760  -9.671  1.00  0.00    -0.000 C 
BRANCH  13  14
ATOM     14  C   UNL     1      -4.686   8.386 -10.501  1.00  0.00    -0.000 C 
BRANCH  14  15
ATOM     15  C   UNL     1      -4.930   7.175 -11.412  1.00  0.00    -0.003 C 
ATOM     16  C   UNL     1      -5.969   6.234 -10.809  1.00  0.00     0.004 C 
ENDBRANCH  14  15
ENDBRANCH  13  14
ENDBRANCH  12  13
ENDBRANCH  11  12
ENDBRANCH  10  11
ENDBRANCH   1  10
TORSDOF 12
ENDMDL
MODEL 9
REMARK VINA RESULT:    -4.525      2.385      3.167
REMARK INTER + INTRA:          -9.044
REMARK INTER:                  -7.881
REMARK INTRA:                  -1.163
REMARK UNBOUND:                -1.344
REMARK SMILES CCCCCCCCCCCCCC(=O)[O-]
REMARK SMILES IDX 8 1 9 2 10 3 11 4 12 5 13 6 14 7 15 8 16 9 7 10 6 11 5 12
REMARK SMILES IDX 4 13 3 14 2 15 1 16
REMARK H PARENT
REMARK Flexibility Score: inf
ROOT
ATOM      1  C   UNL     1      -2.072  10.814  -9.125  1.00  0.00     0.000 C 
ENDROOT
BRANCH   1   2
ATOM      2  C   UNL     1      -1.456  10.378  -7.787  1.00  0.00     0.000 C 
BRANCH   2   3
ATOM      3  C   UNL     1       0.027  10.028  -7.953  1.00  0.00     0.000 C 
BRANCH   3   4
ATOM      4  C   UNL     1       0.873  11.296  -8.150  1.00  0.00     0.000 C 
BRANCH   4   5
ATOM      5  C   UNL     1       1.770  11.604  -6.942  1.00  0.00     0.006 C 
BRANCH   5   6
ATOM      6  C   UNL     1       0.967  11.978  -5.689  1.00  0.00     0.053 C 
BRANCH   6   7
ATOM      7  C   UNL     1       0.568  13.419  -5.736  1.00  0.00     0.041 C 
ATOM      8  O   UNL     1       1.357  14.308  -5.319  1.00  0.00    -0.550 OA
ATOM      9  O   UNL     1      -0.655  13.785  -6.285  1.00  0.00    -0.550 OA
ENDBRANCH   6   7
ENDBRANCH   5   6
ENDBRANCH   4   5
ENDBRANCH   3   4
ENDBRANCH   2   3
ENDBRANCH   1   2
BRANCH   1  10
ATOM     10  C   UNL     1      -2.509  12.288  -9.122  1.00  0.00     0.000 C 
BRANCH  10  11
ATOM     11  C   UNL     1      -3.776  12.527  -8.283  1.00  0.00    -0.000 C 
BRANCH  11  12
ATOM     12  C   UNL     1      -4.973  12.972  -9.137  1.00  0.00    -0.000 C 
BRANCH  12  13
ATOM     13  C   UNL     1      -6.058  11.887  -9.244  1.00  0.00    -0.000 C 
BRANCH  13  14
ATOM     14  C   UNL     1      -6.270  11.403 -10.687  1.00  0.00    -0.000 C 
BRANCH  14  15
ATOM     15  C   UNL     1      -5.049  10.658 -11.244  1.00  0.00    -0.003 C 
ATOM     16  C   UNL     1      -5.014   9.214 -10.750  1.00  0.00     0.004 C 
ENDBRANCH  14  15
ENDBRANCH  13  14
ENDBRANCH  12  13
ENDBRANCH  11  12
ENDBRANCH  10  11
ENDBRANCH   1  10
TORSDOF 12
ENDMDL
