MODEL 1
REMARK VINA RESULT:    -3.963      0.000      0.000
REMARK INTER + INTRA:          -6.832
REMARK INTER:                  -5.354
REMARK INTRA:                  -1.478
REMARK UNBOUND:                -1.478
REMARK SMILES CC(=O)CCC=C(C)CCC=C(C)C
REMARK SMILES IDX 7 1 6 2 8 3 9 4 10 5 11 6 13 7 12 8 14 9 5 10 4 11 2 12 3 13
REMARK SMILES IDX 1 14
REMARK H PARENT
REMARK Flexibility Score: inf
ROOT
ATOM      1  C   UNL     1      17.654  51.963  33.323  1.00  0.00    -0.077 C 
ATOM      2  C   UNL     1      16.321  52.006  33.095  1.00  0.00    -0.028 C 
ATOM      3  C   UNL     1      18.586  52.083  32.146  1.00  0.00     0.039 C 
ENDROOT
BRANCH   1   4
ATOM      4  C   UNL     1      18.251  51.879  34.715  1.00  0.00     0.034 C 
BRANCH   4   5
ATOM      5  C   UNL     1      19.043  53.149  35.038  1.00  0.00     0.032 C 
BRANCH   5   6
ATOM      6  C   UNL     1      18.126  54.344  35.118  1.00  0.00    -0.028 C 
ATOM      7  C   UNL     1      19.293  55.567  33.270  1.00  0.00     0.039 C 
ATOM      8  C   UNL     1      18.242  55.449  34.349  1.00  0.00    -0.080 C 
ATOM      9  C   UNL     1      17.275  56.584  34.570  1.00  0.00     0.039 C 
ENDBRANCH   5   6
ENDBRANCH   4   5
ENDBRANCH   1   4
BRANCH   2  10
ATOM     10  C   UNL     1      15.258  51.891  34.159  1.00  0.00     0.035 C 
BRANCH  10  11
ATOM     11  C   UNL     1      14.723  53.264  34.592  1.00  0.00     0.079 C 
BRANCH  11  12
ATOM     12  C   UNL     1      14.660  53.388  36.095  1.00  0.00     0.130 C 
ATOM     13  O   UNL     1      14.011  54.291  36.598  1.00  0.00    -0.300 OA
ATOM     14  C   UNL     1      15.368  52.412  36.987  1.00  0.00     0.087 C 
ENDBRANCH  11  12
ENDBRANCH  10  11
ENDBRANCH   2  10
TORSDOF 6
ENDMDL
MODEL 2
REMARK VINA RESULT:    -3.933     14.850     16.544
REMARK INTER + INTRA:          -6.791
REMARK INTER:                  -5.853
REMARK INTRA:                  -0.938
REMARK UNBOUND:                -1.478
REMARK SMILES CC(=O)CCC=C(C)CCC=C(C)C
REMARK SMILES IDX 7 1 6 2 8 3 9 4 10 5 11 6 13 7 12 8 14 9 5 10 4 11 2 12 3 13
REMARK SMILES IDX 1 14
REMARK H PARENT
REMARK Flexibility Score: inf
ROOT
ATOM      1  C   UNL     1      13.482  62.639  24.080  1.00  0.00    -0.077 C 
ATOM      2  C   UNL     1      14.269  61.843  23.321  1.00  0.00    -0.028 C 
ATOM      3  C   UNL     1      14.124  63.440  25.183  1.00  0.00     0.039 C 
ENDROOT
BRANCH   1   4
ATOM      4  C   UNL     1      11.998  62.821  23.822  1.00  0.00     0.034 C 
BRANCH   4   5
ATOM      5  C   UNL     1      11.740  64.130  23.069  1.00  0.00     0.032 C 
BRANCH   5   6
ATOM      6  C   UNL     1      10.838  65.037  23.868  1.00  0.00    -0.028 C 
ATOM      7  C   UNL     1      12.611  66.774  24.202  1.00  0.00     0.039 C 
ATOM      8  C   UNL     1      11.222  66.216  24.405  1.00  0.00    -0.080 C 
ATOM      9  C   UNL     1      10.220  66.997  25.216  1.00  0.00     0.039 C 
ENDBRANCH   5   6
ENDBRANCH   4   5
ENDBRANCH   1   4
BRANCH   2  10
ATOM     10  C   UNL     1      13.783  60.973  22.188  1.00  0.00     0.035 C 
BRANCH  10  11
ATOM     11  C   UNL     1      13.962  61.652  20.822  1.00  0.00     0.079 C 
BRANCH  11  12
ATOM     12  C   UNL     1      12.739  61.487  19.955  1.00  0.00     0.130 C 
ATOM     13  O   UNL     1      12.156  60.415  19.931  1.00  0.00    -0.300 OA
ATOM     14  C   UNL     1      12.211  62.623  19.129  1.00  0.00     0.087 C 
ENDBRANCH  11  12
ENDBRANCH  10  11
ENDBRANCH   2  10
TORSDOF 6
ENDMDL
MODEL 3
REMARK VINA RESULT:    -3.824     14.663     16.184
REMARK INTER + INTRA:          -6.644
REMARK INTER:                  -5.567
REMARK INTRA:                  -1.077
REMARK UNBOUND:                -1.478
REMARK SMILES CC(=O)CCC=C(C)CCC=C(C)C
REMARK SMILES IDX 7 1 6 2 8 3 9 4 10 5 11 6 13 7 12 8 14 9 5 10 4 11 2 12 3 13
REMARK SMILES IDX 1 14
REMARK H PARENT
REMARK Flexibility Score: inf
ROOT
ATOM      1  C   UNL     1      13.147  61.398  23.845  1.00  0.00    -0.077 C 
ATOM      2  C   UNL     1      12.054  62.190  23.932  1.00  0.00    -0.028 C 
ATOM      3  C   UNL     1      13.051  59.987  24.363  1.00  0.00     0.039 C 
ENDROOT
BRANCH   1   4
ATOM      4  C   UNL     1      14.437  61.840  23.181  1.00  0.00     0.034 C 
BRANCH   4   5
ATOM      5  C   UNL     1      14.635  61.108  21.850  1.00  0.00     0.032 C 
BRANCH   5   6
ATOM      6  C   UNL     1      13.953  61.849  20.727  1.00  0.00    -0.028 C 
ATOM      7  C   UNL     1      12.157  60.123  20.463  1.00  0.00     0.039 C 
ATOM      8  C   UNL     1      12.854  61.407  20.077  1.00  0.00    -0.080 C 
ATOM      9  C   UNL     1      12.306  62.237  18.944  1.00  0.00     0.039 C 
ENDBRANCH   5   6
ENDBRANCH   4   5
ENDBRANCH   1   4
BRANCH   2  10
ATOM     10  C   UNL     1      11.987  63.625  23.470  1.00  0.00     0.035 C 
BRANCH  10  11
ATOM     11  C   UNL     1      11.286  64.529  24.495  1.00  0.00     0.079 C 
BRANCH  11  12
ATOM     12  C   UNL     1      11.413  65.987  24.128  1.00  0.00     0.130 C 
ATOM     13  O   UNL     1      10.451  66.578  23.664  1.00  0.00    -0.300 OA
ATOM     14  C   UNL     1      12.697  66.735  24.337  1.00  0.00     0.087 C 
ENDBRANCH  11  12
ENDBRANCH  10  11
ENDBRANCH   2  10
TORSDOF 6
ENDMDL
MODEL 4
REMARK VINA RESULT:    -3.733     13.674     14.980
REMARK INTER + INTRA:          -6.520
REMARK INTER:                  -4.907
REMARK INTRA:                  -1.613
REMARK UNBOUND:                -1.478
REMARK SMILES CC(=O)CCC=C(C)CCC=C(C)C
REMARK SMILES IDX 7 1 6 2 8 3 9 4 10 5 11 6 13 7 12 8 14 9 5 10 4 11 2 12 3 13
REMARK SMILES IDX 1 14
REMARK H PARENT
REMARK Flexibility Score: inf
ROOT
ATOM      1  C   UNL     1      16.243  61.878  22.420  1.00  0.00    -0.077 C 
ATOM      2  C   UNL     1      15.223  61.664  23.283  1.00  0.00    -0.028 C 
ATOM      3  C   UNL     1      17.639  61.984  22.975  1.00  0.00     0.039 C 
ENDROOT
BRANCH   1   4
ATOM      4  C   UNL     1      16.054  61.937  20.917  1.00  0.00     0.034 C 
BRANCH   4   5
ATOM      5  C   UNL     1      16.674  60.706  20.248  1.00  0.00     0.032 C 
BRANCH   5   6
ATOM      6  C   UNL     1      15.785  59.500  20.421  1.00  0.00    -0.028 C 
ATOM      7  C   UNL     1      17.385  58.340  21.959  1.00  0.00     0.039 C 
ATOM      8  C   UNL     1      16.102  58.418  21.165  1.00  0.00    -0.080 C 
ATOM      9  C   UNL     1      15.129  57.268  21.212  1.00  0.00     0.039 C 
ENDBRANCH   5   6
ENDBRANCH   4   5
ENDBRANCH   1   4
BRANCH   2  10
ATOM     10  C   UNL     1      13.771  61.542  22.892  1.00  0.00     0.035 C 
BRANCH  10  11
ATOM     11  C   UNL     1      13.246  60.109  23.057  1.00  0.00     0.079 C 
BRANCH  11  12
ATOM     12  C   UNL     1      12.074  59.837  22.147  1.00  0.00     0.130 C 
ATOM     13  O   UNL     1      11.004  59.496  22.627  1.00  0.00    -0.300 OA
ATOM     14  C   UNL     1      12.189  59.992  20.659  1.00  0.00     0.087 C 
ENDBRANCH  11  12
ENDBRANCH  10  11
ENDBRANCH   2  10
TORSDOF 6
ENDMDL
MODEL 5
REMARK VINA RESULT:    -3.709     13.904     15.508
REMARK INTER + INTRA:          -6.488
REMARK INTER:                  -5.104
REMARK INTRA:                  -1.384
REMARK UNBOUND:                -1.478
REMARK SMILES CC(=O)CCC=C(C)CCC=C(C)C
REMARK SMILES IDX 7 1 6 2 8 3 9 4 10 5 11 6 13 7 12 8 14 9 5 10 4 11 2 12 3 13
REMARK SMILES IDX 1 14
REMARK H PARENT
REMARK Flexibility Score: inf
ROOT
ATOM      1  C   UNL     1      17.184  61.199  21.942  1.00  0.00    -0.077 C 
ATOM      2  C   UNL     1      16.016  61.854  21.754  1.00  0.00    -0.028 C 
ATOM      3  C   UNL     1      18.055  61.608  23.101  1.00  0.00     0.039 C 
ENDROOT
BRANCH   1   4
ATOM      4  C   UNL     1      17.618  60.022  21.090  1.00  0.00     0.034 C 
BRANCH   4   5
ATOM      5  C   UNL     1      17.340  58.701  21.814  1.00  0.00     0.032 C 
BRANCH   5   6
ATOM      6  C   UNL     1      16.070  58.068  21.303  1.00  0.00    -0.028 C 
ATOM      7  C   UNL     1      14.757  58.666  23.350  1.00  0.00     0.039 C 
ATOM      8  C   UNL     1      14.909  58.022  21.992  1.00  0.00    -0.080 C 
ATOM      9  C   UNL     1      13.730  57.319  21.369  1.00  0.00     0.039 C 
ENDBRANCH   5   6
ENDBRANCH   4   5
ENDBRANCH   1   4
BRANCH   2  10
ATOM     10  C   UNL     1      15.037  61.573  20.640  1.00  0.00     0.035 C 
BRANCH  10  11
ATOM     11  C   UNL     1      13.595  61.453  21.154  1.00  0.00     0.079 C 
BRANCH  11  12
ATOM     12  C   UNL     1      12.616  61.255  20.024  1.00  0.00     0.130 C 
ATOM     13  O   UNL     1      12.058  60.177  19.891  1.00  0.00    -0.300 OA
ATOM     14  C   UNL     1      12.298  62.364  19.065  1.00  0.00     0.087 C 
ENDBRANCH  11  12
ENDBRANCH  10  11
ENDBRANCH   2  10
TORSDOF 6
ENDMDL
MODEL 6
REMARK VINA RESULT:    -3.705     14.071     15.475
REMARK INTER + INTRA:          -6.482
REMARK INTER:                  -5.529
REMARK INTRA:                  -0.953
REMARK UNBOUND:                -1.478
REMARK SMILES CC(=O)CCC=C(C)CCC=C(C)C
REMARK SMILES IDX 7 1 6 2 8 3 9 4 10 5 11 6 13 7 12 8 14 9 5 10 4 11 2 12 3 13
REMARK SMILES IDX 1 14
REMARK H PARENT
REMARK Flexibility Score: inf
ROOT
ATOM      1  C   UNL     1      13.278  61.258  20.549  1.00  0.00    -0.077 C 
ATOM      2  C   UNL     1      12.802  61.870  21.657  1.00  0.00    -0.028 C 
ATOM      3  C   UNL     1      12.757  61.702  19.206  1.00  0.00     0.039 C 
ENDROOT
BRANCH   1   4
ATOM      4  C   UNL     1      14.366  60.202  20.590  1.00  0.00     0.034 C 
BRANCH   4   5
ATOM      5  C   UNL     1      15.693  60.778  20.087  1.00  0.00     0.032 C 
BRANCH   5   6
ATOM      6  C   UNL     1      16.251  61.774  21.073  1.00  0.00    -0.028 C 
ATOM      7  C   UNL     1      17.579  60.048  22.310  1.00  0.00     0.039 C 
ATOM      8  C   UNL     1      17.079  61.457  22.092  1.00  0.00    -0.080 C 
ATOM      9  C   UNL     1      17.525  62.555  23.024  1.00  0.00     0.039 C 
ENDBRANCH   5   6
ENDBRANCH   4   5
ENDBRANCH   1   4
BRANCH   2  10
ATOM     10  C   UNL     1      13.212  61.539  23.071  1.00  0.00     0.035 C 
BRANCH  10  11
ATOM     11  C   UNL     1      13.322  62.793  23.949  1.00  0.00     0.079 C 
BRANCH  11  12
ATOM     12  C   UNL     1      11.964  63.311  24.354  1.00  0.00     0.130 C 
ATOM     13  O   UNL     1      11.352  62.759  25.254  1.00  0.00    -0.300 OA
ATOM     14  C   UNL     1      11.352  64.504  23.680  1.00  0.00     0.087 C 
ENDBRANCH  11  12
ENDBRANCH  10  11
ENDBRANCH   2  10
TORSDOF 6
ENDMDL
MODEL 7
REMARK VINA RESULT:    -3.691      2.883      5.956
REMARK INTER + INTRA:          -6.463
REMARK INTER:                  -5.636
REMARK INTRA:                  -0.827
REMARK UNBOUND:                -1.478
REMARK SMILES CC(=O)CCC=C(C)CCC=C(C)C
REMARK SMILES IDX 7 1 6 2 8 3 9 4 10 5 11 6 13 7 12 8 14 9 5 10 4 11 2 12 3 13
REMARK SMILES IDX 1 14
REMARK H PARENT
REMARK Flexibility Score: inf
ROOT
ATOM      1  C   UNL     1      15.974  52.141  35.399  1.00  0.00    -0.077 C 
ATOM      2  C   UNL     1      16.916  52.893  36.010  1.00  0.00    -0.028 C 
ATOM      3  C   UNL     1      15.009  51.365  36.257  1.00  0.00     0.039 C 
ENDROOT
BRANCH   1   4
ATOM      4  C   UNL     1      15.795  52.104  33.893  1.00  0.00     0.034 C 
BRANCH   4   5
ATOM      5  C   UNL     1      14.355  51.724  33.532  1.00  0.00     0.032 C 
BRANCH   5   6
ATOM      6  C   UNL     1      14.336  50.665  32.457  1.00  0.00    -0.028 C 
ATOM      7  C   UNL     1      12.850  49.134  33.768  1.00  0.00     0.039 C 
ATOM      8  C   UNL     1      13.685  49.486  32.560  1.00  0.00    -0.080 C 
ATOM      9  C   UNL     1      13.790  48.506  31.419  1.00  0.00     0.039 C 
ENDBRANCH   5   6
ENDBRANCH   4   5
ENDBRANCH   1   4
BRANCH   2  10
ATOM     10  C   UNL     1      17.960  53.719  35.298  1.00  0.00     0.035 C 
BRANCH  10  11
ATOM     11  C   UNL     1      19.273  52.947  35.102  1.00  0.00     0.079 C 
BRANCH  11  12
ATOM     12  C   UNL     1      19.724  52.973  33.663  1.00  0.00     0.130 C 
ATOM     13  O   UNL     1      20.461  53.868  33.279  1.00  0.00    -0.300 OA
ATOM     14  C   UNL     1      19.298  51.912  32.693  1.00  0.00     0.087 C 
ENDBRANCH  11  12
ENDBRANCH  10  11
ENDBRANCH   2  10
TORSDOF 6
ENDMDL
MODEL 8
REMARK VINA RESULT:    -3.676     13.930     15.372
REMARK INTER + INTRA:          -6.443
REMARK INTER:                  -5.075
REMARK INTRA:                  -1.367
REMARK UNBOUND:                -1.478
REMARK SMILES CC(=O)CCC=C(C)CCC=C(C)C
REMARK SMILES IDX 7 1 6 2 8 3 9 4 10 5 11 6 13 7 12 8 14 9 5 10 4 11 2 12 3 13
REMARK SMILES IDX 1 14
REMARK H PARENT
REMARK Flexibility Score: inf
ROOT
ATOM      1  C   UNL     1      17.094  60.006  21.261  1.00  0.00    -0.077 C 
ATOM      2  C   UNL     1      16.482  60.897  20.448  1.00  0.00    -0.028 C 
ATOM      3  C   UNL     1      18.464  60.344  21.791  1.00  0.00     0.039 C 
ENDROOT
BRANCH   1   4
ATOM      4  C   UNL     1      16.435  58.721  21.724  1.00  0.00     0.034 C 
BRANCH   4   5
ATOM      5  C   UNL     1      16.004  58.836  23.189  1.00  0.00     0.032 C 
BRANCH   5   6
ATOM      6  C   UNL     1      14.564  59.273  23.289  1.00  0.00    -0.028 C 
ATOM      7  C   UNL     1      15.151  61.601  24.001  1.00  0.00     0.039 C 
ATOM      8  C   UNL     1      14.164  60.504  23.677  1.00  0.00    -0.080 C 
ATOM      9  C   UNL     1      12.686  60.785  23.770  1.00  0.00     0.039 C 
ENDBRANCH   5   6
ENDBRANCH   4   5
ENDBRANCH   1   4
BRANCH   2  10
ATOM     10  C   UNL     1      15.119  60.707  19.829  1.00  0.00     0.035 C 
BRANCH  10  11
ATOM     11  C   UNL     1      14.088  61.699  20.387  1.00  0.00     0.079 C 
BRANCH  11  12
ATOM     12  C   UNL     1      12.735  61.514  19.745  1.00  0.00     0.130 C 
ATOM     13  O   UNL     1      12.133  60.463  19.898  1.00  0.00    -0.300 OA
ATOM     14  C   UNL     1      12.103  62.605  18.932  1.00  0.00     0.087 C 
ENDBRANCH  11  12
ENDBRANCH  10  11
ENDBRANCH   2  10
TORSDOF 6
ENDMDL
MODEL 9
REMARK VINA RESULT:    -3.638      2.511      4.363
REMARK INTER + INTRA:          -6.392
REMARK INTER:                  -4.647
REMARK INTRA:                  -1.745
REMARK UNBOUND:                -1.478
REMARK SMILES CC(=O)CCC=C(C)CCC=C(C)C
REMARK SMILES IDX 7 1 6 2 8 3 9 4 10 5 11 6 13 7 12 8 14 9 5 10 4 11 2 12 3 13
REMARK SMILES IDX 1 14
REMARK H PARENT
REMARK Flexibility Score: inf
ROOT
ATOM      1  C   UNL     1      15.915  53.030  34.907  1.00  0.00    -0.077 C 
ATOM      2  C   UNL     1      17.025  52.495  35.465  1.00  0.00    -0.028 C 
ATOM      3  C   UNL     1      14.829  53.540  35.819  1.00  0.00     0.039 C 
ENDROOT
BRANCH   1   4
ATOM      4  C   UNL     1      15.747  53.210  33.410  1.00  0.00     0.034 C 
BRANCH   4   5
ATOM      5  C   UNL     1      15.749  54.697  33.044  1.00  0.00     0.032 C 
BRANCH   5   6
ATOM      6  C   UNL     1      17.123  55.138  32.607  1.00  0.00    -0.028 C 
ATOM      7  C   UNL     1      17.596  56.340  34.753  1.00  0.00     0.039 C 
ATOM      8  C   UNL     1      17.954  55.898  33.353  1.00  0.00    -0.080 C 
ATOM      9  C   UNL     1      19.284  56.297  32.767  1.00  0.00     0.039 C 
ENDBRANCH   5   6
ENDBRANCH   4   5
ENDBRANCH   1   4
BRANCH   2  10
ATOM     10  C   UNL     1      18.195  51.933  34.696  1.00  0.00     0.035 C 
BRANCH  10  11
ATOM     11  C   UNL     1      19.406  52.878  34.715  1.00  0.00     0.079 C 
BRANCH  11  12
ATOM     12  C   UNL     1      20.178  52.819  33.420  1.00  0.00     0.130 C 
ATOM     13  O   UNL     1      21.314  53.263  33.375  1.00  0.00    -0.300 OA
ATOM     14  C   UNL     1      19.583  52.210  32.185  1.00  0.00     0.087 C 
ENDBRANCH  11  12
ENDBRANCH  10  11
ENDBRANCH   2  10
TORSDOF 6
ENDMDL
