MODEL 1
REMARK VINA RESULT:    13.844      0.000      0.000
REMARK INTER + INTRA:          17.931
REMARK INTER:                  17.891
REMARK INTRA:                   0.039
REMARK UNBOUND:                 0.039
REMARK SMILES CCO[C@H]1O[C@H](CO)[C@@H](O)[C@H](O)[C@H]1O
REMARK SMILES IDX 4 1 13 2 11 3 9 4 6 5 5 6 3 7 2 8 1 9 14 10 12 12 7 14 8 15
REMARK SMILES IDX 10 17
REMARK H PARENT 14 11 12 13 8 16 10 18
REMARK Flexibility Score: inf
ROOT
ATOM      1  C   UNL     1      85.154 108.517 105.504  1.00  0.00     0.281 C 
ATOM      2  C   UNL     1      83.812 108.046 106.095  1.00  0.00     0.202 C 
ATOM      3  C   UNL     1      83.170 106.981 105.192  1.00  0.00     0.179 C 
ATOM      4  C   UNL     1      83.107 107.495 103.743  1.00  0.00     0.177 C 
ATOM      5  C   UNL     1      84.506 107.988 103.308  1.00  0.00     0.178 C 
ATOM      6  O   UNL     1      84.979 109.003 104.180  1.00  0.00    -0.341 OA
ENDROOT
BRANCH   1   7
ATOM      7  O   UNL     1      86.108 107.465 105.554  1.00  0.00    -0.350 OA
BRANCH   7   8
ATOM      8  C   UNL     1      87.007 107.672 106.624  1.00  0.00     0.160 C 
ATOM      9  C   UNL     1      87.113 109.164 106.900  1.00  0.00     0.035 C 
ENDBRANCH   7   8
ENDBRANCH   1   7
BRANCH   2  10
ATOM     10  O   UNL     1      84.028 107.526 107.383  1.00  0.00    -0.385 OA
ATOM     11  H   UNL     1      83.312 106.857 107.546  1.00  0.00     0.211 HD
ENDBRANCH   2  10
BRANCH   3  12
ATOM     12  O   UNL     1      81.875 106.700 105.658  1.00  0.00    -0.387 OA
ATOM     13  H   UNL     1      81.443 107.573 105.854  1.00  0.00     0.211 HD
ENDBRANCH   3  12
BRANCH   5  14
ATOM     14  C   UNL     1      84.490 108.546 101.876  1.00  0.00     0.191 C 
BRANCH  14  15
ATOM     15  O   UNL     1      84.237 109.926 101.875  1.00  0.00    -0.394 OA
ATOM     16  H   UNL     1      84.817 110.326 101.177  1.00  0.00     0.210 HD
ENDBRANCH  14  15
ENDBRANCH   5  14
BRANCH   4  17
ATOM     17  O   UNL     1      82.687 106.460 102.890  1.00  0.00    -0.387 OA
ATOM     18  H   UNL     1      83.285 106.474 102.099  1.00  0.00     0.211 HD
ENDBRANCH   4  17
TORSDOF 7
ENDMDL
MODEL 2
REMARK VINA RESULT:    14.102      1.593      3.833
REMARK INTER + INTRA:          18.264
REMARK INTER:                  18.561
REMARK INTRA:                  -0.297
REMARK UNBOUND:                 0.039
REMARK SMILES CCO[C@H]1O[C@H](CO)[C@@H](O)[C@H](O)[C@H]1O
REMARK SMILES IDX 4 1 13 2 11 3 9 4 6 5 5 6 3 7 2 8 1 9 14 10 12 12 7 14 8 15
REMARK SMILES IDX 10 17
REMARK H PARENT 14 11 12 13 8 16 10 18
REMARK Flexibility Score: inf
ROOT
ATOM      1  C   UNL     1      84.409 108.627 103.070  1.00  0.00     0.281 C 
ATOM      2  C   UNL     1      83.207 107.714 103.373  1.00  0.00     0.202 C 
ATOM      3  C   UNL     1      82.853 107.768 104.868  1.00  0.00     0.179 C 
ATOM      4  C   UNL     1      84.112 107.501 105.711  1.00  0.00     0.177 C 
ATOM      5  C   UNL     1      85.249 108.445 105.258  1.00  0.00     0.178 C 
ATOM      6  O   UNL     1      85.526 108.275 103.876  1.00  0.00    -0.341 OA
ENDROOT
BRANCH   1   7
ATOM      7  O   UNL     1      84.046 109.989 103.244  1.00  0.00    -0.350 OA
BRANCH   7   8
ATOM      8  C   UNL     1      84.866 110.818 102.447  1.00  0.00     0.160 C 
ATOM      9  C   UNL     1      84.860 112.225 103.024  1.00  0.00     0.035 C 
ENDBRANCH   7   8
ENDBRANCH   1   7
BRANCH   2  10
ATOM     10  O   UNL     1      82.108 108.119 102.598  1.00  0.00    -0.385 OA
ATOM     11  H   UNL     1      81.380 108.352 103.231  1.00  0.00     0.211 HD
ENDBRANCH   2  10
BRANCH   3  12
ATOM     12  O   UNL     1      81.875 106.798 105.145  1.00  0.00    -0.387 OA
ATOM     13  H   UNL     1      82.123 105.983 104.636  1.00  0.00     0.211 HD
ENDBRANCH   3  12
BRANCH   5  14
ATOM     14  C   UNL     1      86.543 108.195 106.048  1.00  0.00     0.191 C 
BRANCH  14  15
ATOM     15  O   UNL     1      86.728 109.175 107.036  1.00  0.00    -0.394 OA
ATOM     16  H   UNL     1      87.696 109.190 107.251  1.00  0.00     0.210 HD
ENDBRANCH  14  15
ENDBRANCH   5  14
BRANCH   4  17
ATOM     17  O   UNL     1      83.828 107.725 107.070  1.00  0.00    -0.387 OA
ATOM     18  H   UNL     1      82.870 107.976 107.129  1.00  0.00     0.211 HD
ENDBRANCH   4  17
TORSDOF 7
ENDMDL
MODEL 3
REMARK VINA RESULT:    14.145     18.963     20.195
REMARK INTER + INTRA:          18.319
REMARK INTER:                  18.179
REMARK INTRA:                   0.140
REMARK UNBOUND:                 0.039
REMARK SMILES CCO[C@H]1O[C@H](CO)[C@@H](O)[C@H](O)[C@H]1O
REMARK SMILES IDX 4 1 13 2 11 3 9 4 6 5 5 6 3 7 2 8 1 9 14 10 12 12 7 14 8 15
REMARK SMILES IDX 10 17
REMARK H PARENT 14 11 12 13 8 16 10 18
REMARK Flexibility Score: inf
ROOT
ATOM      1  C   UNL     1      85.292 122.422 119.601  1.00  0.00     0.281 C 
ATOM      2  C   UNL     1      84.534 122.880 118.342  1.00  0.00     0.202 C 
ATOM      3  C   UNL     1      85.338 122.541 117.076  1.00  0.00     0.179 C 
ATOM      4  C   UNL     1      86.774 123.077 117.211  1.00  0.00     0.177 C 
ATOM      5  C   UNL     1      87.385 122.588 118.544  1.00  0.00     0.178 C 
ATOM      6  O   UNL     1      86.590 122.999 119.646  1.00  0.00    -0.341 OA
ENDROOT
BRANCH   1   7
ATOM      7  O   UNL     1      85.348 121.004 119.651  1.00  0.00    -0.350 OA
BRANCH   7   8
ATOM      8  C   UNL     1      84.316 120.504 120.476  1.00  0.00     0.160 C 
ATOM      9  C   UNL     1      83.788 119.208 119.881  1.00  0.00     0.035 C 
ENDBRANCH   7   8
ENDBRANCH   1   7
BRANCH   2  10
ATOM     10  O   UNL     1      83.277 122.255 118.302  1.00  0.00    -0.385 OA
ATOM     11  H   UNL     1      83.359 121.483 117.682  1.00  0.00     0.211 HD
ENDBRANCH   2  10
BRANCH   3  12
ATOM     12  O   UNL     1      84.711 123.124 115.962  1.00  0.00    -0.387 OA
ATOM     13  H   UNL     1      84.766 124.108 116.081  1.00  0.00     0.211 HD
ENDBRANCH   3  12
BRANCH   5  14
ATOM     14  C   UNL     1      88.811 123.125 118.745  1.00  0.00     0.191 C 
BRANCH  14  15
ATOM     15  O   UNL     1      89.446 122.480 119.818  1.00  0.00    -0.394 OA
ATOM     16  H   UNL     1      90.041 121.789 119.428  1.00  0.00     0.210 HD
ENDBRANCH  14  15
ENDBRANCH   5  14
BRANCH   4  17
ATOM     17  O   UNL     1      87.555 122.615 116.138  1.00  0.00    -0.387 OA
ATOM     18  H   UNL     1      87.479 121.626 116.128  1.00  0.00     0.211 HD
ENDBRANCH   4  17
TORSDOF 7
ENDMDL
MODEL 4
REMARK VINA RESULT:    14.206      1.981      3.384
REMARK INTER + INTRA:          18.398
REMARK INTER:                  13.808
REMARK INTRA:                   4.590
REMARK UNBOUND:                 0.039
REMARK SMILES CCO[C@H]1O[C@H](CO)[C@@H](O)[C@H](O)[C@H]1O
REMARK SMILES IDX 4 1 13 2 11 3 9 4 6 5 5 6 3 7 2 8 1 9 14 10 12 12 7 14 8 15
REMARK SMILES IDX 10 17
REMARK H PARENT 14 11 12 13 8 16 10 18
REMARK Flexibility Score: inf
ROOT
ATOM      1  C   UNL     1      82.550 108.641 104.653  1.00  0.00     0.281 C 
ATOM      2  C   UNL     1      83.706 107.980 105.428  1.00  0.00     0.202 C 
ATOM      3  C   UNL     1      84.698 107.320 104.456  1.00  0.00     0.179 C 
ATOM      4  C   UNL     1      83.940 106.395 103.487  1.00  0.00     0.177 C 
ATOM      5  C   UNL     1      82.777 107.173 102.831  1.00  0.00     0.178 C 
ATOM      6  O   UNL     1      81.899 107.695 103.817  1.00  0.00    -0.341 OA
ENDROOT
BRANCH   1   7
ATOM      7  O   UNL     1      83.030 109.753 103.911  1.00  0.00    -0.350 OA
BRANCH   7   8
ATOM      8  C   UNL     1      84.349 109.510 103.468  1.00  0.00     0.160 C 
ATOM      9  C   UNL     1      84.324 109.204 101.979  1.00  0.00     0.035 C 
ENDBRANCH   7   8
ENDBRANCH   1   7
BRANCH   2  10
ATOM     10  O   UNL     1      84.360 108.950 106.205  1.00  0.00    -0.385 OA
ATOM     11  H   UNL     1      83.758 109.740 106.246  1.00  0.00     0.211 HD
ENDBRANCH   2  10
BRANCH   3  12
ATOM     12  O   UNL     1      85.639 106.579 105.190  1.00  0.00    -0.387 OA
ATOM     13  H   UNL     1      86.252 106.158 104.532  1.00  0.00     0.211 HD
ENDBRANCH   3  12
BRANCH   5  14
ATOM     14  C   UNL     1      81.965 106.282 101.877  1.00  0.00     0.191 C 
BRANCH  14  15
ATOM     15  O   UNL     1      82.424 104.957 101.913  1.00  0.00    -0.394 OA
ATOM     16  H   UNL     1      83.411 104.989 101.810  1.00  0.00     0.210 HD
ENDBRANCH  14  15
ENDBRANCH   5  14
BRANCH   4  17
ATOM     17  O   UNL     1      84.817 105.932 102.491  1.00  0.00    -0.387 OA
ATOM     18  H   UNL     1      84.296 105.875 101.649  1.00  0.00     0.211 HD
ENDBRANCH   4  17
TORSDOF 7
ENDMDL
MODEL 5
REMARK VINA RESULT:    14.249      1.720      4.004
REMARK INTER + INTRA:          18.453
REMARK INTER:                  15.974
REMARK INTRA:                   2.478
REMARK UNBOUND:                 0.039
REMARK SMILES CCO[C@H]1O[C@H](CO)[C@@H](O)[C@H](O)[C@H]1O
REMARK SMILES IDX 4 1 13 2 11 3 9 4 6 5 5 6 3 7 2 8 1 9 14 10 12 12 7 14 8 15
REMARK SMILES IDX 10 17
REMARK H PARENT 14 11 12 13 8 16 10 18
REMARK Flexibility Score: inf
ROOT
ATOM      1  C   UNL     1      84.024 106.617 102.715  1.00  0.00     0.281 C 
ATOM      2  C   UNL     1      82.732 107.246 103.269  1.00  0.00     0.202 C 
ATOM      3  C   UNL     1      83.063 108.341 104.296  1.00  0.00     0.179 C 
ATOM      4  C   UNL     1      84.033 107.787 105.354  1.00  0.00     0.177 C 
ATOM      5  C   UNL     1      85.247 107.136 104.654  1.00  0.00     0.178 C 
ATOM      6  O   UNL     1      84.829 106.108 103.770  1.00  0.00    -0.341 OA
ENDROOT
BRANCH   1   7
ATOM      7  O   UNL     1      84.731 107.564 101.927  1.00  0.00    -0.350 OA
BRANCH   7   8
ATOM      8  C   UNL     1      84.029 108.789 101.891  1.00  0.00     0.160 C 
ATOM      9  C   UNL     1      84.985 109.920 102.238  1.00  0.00     0.035 C 
ENDBRANCH   7   8
ENDBRANCH   1   7
BRANCH   2  10
ATOM     10  O   UNL     1      81.983 107.783 102.209  1.00  0.00    -0.385 OA
ATOM     11  H   UNL     1      81.121 108.091 102.592  1.00  0.00     0.211 HD
ENDBRANCH   2  10
BRANCH   3  12
ATOM     12  O   UNL     1      81.876 108.771 104.911  1.00  0.00    -0.387 OA
ATOM     13  H   UNL     1      82.034 108.752 105.891  1.00  0.00     0.211 HD
ENDBRANCH   3  12
BRANCH   5  14
ATOM     14  C   UNL     1      86.232 106.535 105.669  1.00  0.00     0.191 C 
BRANCH  14  15
ATOM     15  O   UNL     1      87.020 107.535 106.259  1.00  0.00    -0.394 OA
ATOM     16  H   UNL     1      86.901 107.455 107.241  1.00  0.00     0.210 HD
ENDBRANCH  14  15
ENDBRANCH   5  14
BRANCH   4  17
ATOM     17  O   UNL     1      84.473 108.831 106.186  1.00  0.00    -0.387 OA
ATOM     18  H   UNL     1      84.294 109.681 105.705  1.00  0.00     0.211 HD
ENDBRANCH   4  17
TORSDOF 7
ENDMDL
MODEL 6
REMARK VINA RESULT:    14.269      1.758      2.944
REMARK INTER + INTRA:          18.479
REMARK INTER:                  15.399
REMARK INTRA:                   3.080
REMARK UNBOUND:                 0.039
REMARK SMILES CCO[C@H]1O[C@H](CO)[C@@H](O)[C@H](O)[C@H]1O
REMARK SMILES IDX 4 1 13 2 11 3 9 4 6 5 5 6 3 7 2 8 1 9 14 10 12 12 7 14 8 15
REMARK SMILES IDX 10 17
REMARK H PARENT 14 11 12 13 8 16 10 18
REMARK Flexibility Score: inf
ROOT
ATOM      1  C   UNL     1      82.282 108.453 104.421  1.00  0.00     0.281 C 
ATOM      2  C   UNL     1      82.284 107.244 103.467  1.00  0.00     0.202 C 
ATOM      3  C   UNL     1      83.685 107.033 102.869  1.00  0.00     0.179 C 
ATOM      4  C   UNL     1      84.196 108.352 102.262  1.00  0.00     0.177 C 
ATOM      5  C   UNL     1      84.078 109.483 103.308  1.00  0.00     0.178 C 
ATOM      6  O   UNL     1      82.737 109.622 103.753  1.00  0.00    -0.341 OA
ENDROOT
BRANCH   1   7
ATOM      7  O   UNL     1      83.063 108.170 105.573  1.00  0.00    -0.350 OA
BRANCH   7   8
ATOM      8  C   UNL     1      84.198 107.409 105.218  1.00  0.00     0.160 C 
ATOM      9  C   UNL     1      85.401 107.919 105.995  1.00  0.00     0.035 C 
ENDBRANCH   7   8
ENDBRANCH   1   7
BRANCH   2  10
ATOM     10  O   UNL     1      81.878 106.097 104.169  1.00  0.00    -0.385 OA
ATOM     11  H   UNL     1      81.130 106.372 104.762  1.00  0.00     0.211 HD
ENDBRANCH   2  10
BRANCH   3  12
ATOM     12  O   UNL     1      83.617 106.042 101.875  1.00  0.00    -0.387 OA
ATOM     13  H   UNL     1      82.665 105.770 101.803  1.00  0.00     0.211 HD
ENDBRANCH   3  12
BRANCH   5  14
ATOM     14  C   UNL     1      84.544 110.832 102.739  1.00  0.00     0.191 C 
BRANCH  14  15
ATOM     15  O   UNL     1      83.913 111.901 103.395  1.00  0.00    -0.394 OA
ATOM     16  H   UNL     1      84.336 111.982 104.289  1.00  0.00     0.210 HD
ENDBRANCH  14  15
ENDBRANCH   5  14
BRANCH   4  17
ATOM     17  O   UNL     1      85.539 108.206 101.875  1.00  0.00    -0.387 OA
ATOM     18  H   UNL     1      86.072 108.112 102.707  1.00  0.00     0.211 HD
ENDBRANCH   4  17
TORSDOF 7
ENDMDL
