MODEL 1
REMARK VINA RESULT:    -4.023      0.000      0.000
REMARK INTER + INTRA:          -6.602
REMARK INTER:                  -5.905
REMARK INTRA:                  -0.697
REMARK UNBOUND:                -0.697
REMARK SMILES O=C([O-])CCCCCCCC(=O)[O-]
REMARK SMILES IDX 7 1 6 2 5 3 4 4 2 5 1 6 3 7 8 8 9 9 10 10 11 11 12 12 13 13
REMARK H PARENT
REMARK Flexibility Score: inf
ROOT
ATOM      1  C   UNL     1      -2.749   5.773  -9.627  1.00  0.00     0.000 C 
ENDROOT
BRANCH   1   2
ATOM      2  C   UNL     1      -4.052   4.991  -9.410  1.00  0.00     0.000 C 
BRANCH   2   3
ATOM      3  C   UNL     1      -4.071   3.705 -10.248  1.00  0.00     0.006 C 
BRANCH   3   4
ATOM      4  C   UNL     1      -4.315   2.456  -9.391  1.00  0.00     0.053 C 
BRANCH   4   5
ATOM      5  C   UNL     1      -5.777   2.165  -9.238  1.00  0.00     0.041 C 
ATOM      6  O   UNL     1      -6.375   1.454 -10.087  1.00  0.00    -0.550 OA
ATOM      7  O   UNL     1      -6.471   2.653  -8.138  1.00  0.00    -0.550 OA
ENDBRANCH   4   5
ENDBRANCH   3   4
ENDBRANCH   2   3
ENDBRANCH   1   2
BRANCH   1   8
ATOM      8  C   UNL     1      -1.804   5.689  -8.407  1.00  0.00     0.000 C 
BRANCH   8   9
ATOM      9  C   UNL     1      -0.630   4.711  -8.604  1.00  0.00     0.006 C 
BRANCH   9  10
ATOM     10  C   UNL     1      -0.882   3.308  -8.032  1.00  0.00     0.053 C 
BRANCH  10  11
ATOM     11  C   UNL     1      -0.361   2.233  -8.938  1.00  0.00     0.041 C 
ATOM     12  O   UNL     1      -0.794   2.135 -10.116  1.00  0.00    -0.550 OA
ATOM     13  O   UNL     1       0.616   1.354  -8.488  1.00  0.00    -0.550 OA
ENDBRANCH  10  11
ENDBRANCH   9  10
ENDBRANCH   8   9
ENDBRANCH   1   8
TORSDOF 8
ENDMDL
MODEL 2
REMARK VINA RESULT:    -3.994      0.912      1.633
REMARK INTER + INTRA:          -6.559
REMARK INTER:                  -6.082
REMARK INTRA:                  -0.477
REMARK UNBOUND:                -0.697
REMARK SMILES O=C([O-])CCCCCCCC(=O)[O-]
REMARK SMILES IDX 7 1 6 2 5 3 4 4 2 5 1 6 3 7 8 8 9 9 10 10 11 11 12 12 13 13
REMARK H PARENT
REMARK Flexibility Score: inf
ROOT
ATOM      1  C   UNL     1      -2.224   5.816  -8.505  1.00  0.00     0.000 C 
ENDROOT
BRANCH   1   2
ATOM      2  C   UNL     1      -3.168   5.167  -9.527  1.00  0.00     0.000 C 
BRANCH   2   3
ATOM      3  C   UNL     1      -4.229   4.304  -8.828  1.00  0.00     0.006 C 
BRANCH   3   4
ATOM      4  C   UNL     1      -4.491   2.989  -9.573  1.00  0.00     0.053 C 
BRANCH   4   5
ATOM      5  C   UNL     1      -5.914   2.542  -9.426  1.00  0.00     0.041 C 
ATOM      6  O   UNL     1      -6.697   3.158  -8.657  1.00  0.00    -0.550 OA
ATOM      7  O   UNL     1      -6.383   1.464 -10.166  1.00  0.00    -0.550 OA
ENDBRANCH   4   5
ENDBRANCH   3   4
ENDBRANCH   2   3
ENDBRANCH   1   2
BRANCH   1   8
ATOM      8  C   UNL     1      -0.763   5.343  -8.673  1.00  0.00     0.000 C 
BRANCH   8   9
ATOM      9  C   UNL     1      -0.635   3.840  -8.989  1.00  0.00     0.006 C 
BRANCH   9  10
ATOM     10  C   UNL     1      -0.906   2.923  -7.788  1.00  0.00     0.053 C 
BRANCH  10  11
ATOM     11  C   UNL     1       0.070   1.787  -7.721  1.00  0.00     0.041 C 
ATOM     12  O   UNL     1       0.360   1.268  -6.611  1.00  0.00    -0.550 OA
ATOM     13  O   UNL     1       0.643   1.288  -8.884  1.00  0.00    -0.550 OA
ENDBRANCH  10  11
ENDBRANCH   9  10
ENDBRANCH   8   9
ENDBRANCH   1   8
TORSDOF 8
ENDMDL
MODEL 3
REMARK VINA RESULT:    -3.940      0.995      5.064
REMARK INTER + INTRA:          -6.480
REMARK INTER:                  -5.953
REMARK INTRA:                  -0.527
REMARK UNBOUND:                -0.697
REMARK SMILES O=C([O-])CCCCCCCC(=O)[O-]
REMARK SMILES IDX 7 1 6 2 5 3 4 4 2 5 1 6 3 7 8 8 9 9 10 10 11 11 12 12 13 13
REMARK H PARENT
REMARK Flexibility Score: inf
ROOT
ATOM      1  C   UNL     1      -2.395   4.897  -9.772  1.00  0.00     0.000 C 
ENDROOT
BRANCH   1   2
ATOM      2  C   UNL     1      -1.438   4.770  -8.578  1.00  0.00     0.000 C 
BRANCH   2   3
ATOM      3  C   UNL     1      -1.277   3.303  -8.154  1.00  0.00     0.006 C 
BRANCH   3   4
ATOM      4  C   UNL     1      -0.923   2.392  -9.336  1.00  0.00     0.053 C 
BRANCH   4   5
ATOM      5  C   UNL     1       0.398   1.713  -9.137  1.00  0.00     0.041 C 
ATOM      6  O   UNL     1       0.540   0.854  -8.228  1.00  0.00    -0.550 OA
ATOM      7  O   UNL     1       1.464   2.006  -9.979  1.00  0.00    -0.550 OA
ENDBRANCH   4   5
ENDBRANCH   3   4
ENDBRANCH   2   3
ENDBRANCH   1   2
BRANCH   1   8
ATOM      8  C   UNL     1      -3.787   5.423  -9.356  1.00  0.00     0.000 C 
BRANCH   8   9
ATOM      9  C   UNL     1      -4.784   4.304  -8.996  1.00  0.00     0.006 C 
BRANCH   9  10
ATOM     10  C   UNL     1      -4.886   3.194 -10.051  1.00  0.00     0.053 C 
BRANCH  10  11
ATOM     11  C   UNL     1      -5.716   2.041  -9.572  1.00  0.00     0.041 C 
ATOM     12  O   UNL     1      -6.372   1.350 -10.394  1.00  0.00    -0.550 OA
ATOM     13  O   UNL     1      -5.748   1.717  -8.221  1.00  0.00    -0.550 OA
ENDBRANCH  10  11
ENDBRANCH   9  10
ENDBRANCH   8   9
ENDBRANCH   1   8
TORSDOF 8
ENDMDL
MODEL 4
REMARK VINA RESULT:    -3.697      1.594      5.382
REMARK INTER + INTRA:          -6.122
REMARK INTER:                  -5.713
REMARK INTRA:                  -0.410
REMARK UNBOUND:                -0.697
REMARK SMILES O=C([O-])CCCCCCCC(=O)[O-]
REMARK SMILES IDX 7 1 6 2 5 3 4 4 2 5 1 6 3 7 8 8 9 9 10 10 11 11 12 12 13 13
REMARK H PARENT
REMARK Flexibility Score: inf
ROOT
ATOM      1  C   UNL     1      -1.322   3.582  -8.742  1.00  0.00     0.000 C 
ENDROOT
BRANCH   1   2
ATOM      2  C   UNL     1      -0.529   2.610  -7.856  1.00  0.00     0.000 C 
BRANCH   2   3
ATOM      3  C   UNL     1       0.218   1.572  -8.706  1.00  0.00     0.006 C 
BRANCH   3   4
ATOM      4  C   UNL     1       0.701   2.154 -10.041  1.00  0.00     0.053 C 
BRANCH   4   5
ATOM      5  C   UNL     1       0.244   1.327 -11.205  1.00  0.00     0.041 C 
ATOM      6  O   UNL     1       1.074   0.916 -12.056  1.00  0.00    -0.550 OA
ATOM      7  O   UNL     1      -1.097   0.984 -11.329  1.00  0.00    -0.550 OA
ENDBRANCH   4   5
ENDBRANCH   3   4
ENDBRANCH   2   3
ENDBRANCH   1   2
BRANCH   1   8
ATOM      8  C   UNL     1      -2.769   3.100  -8.993  1.00  0.00     0.000 C 
BRANCH   8   9
ATOM      9  C   UNL     1      -3.805   4.240  -8.996  1.00  0.00     0.006 C 
BRANCH   9  10
ATOM     10  C   UNL     1      -5.120   3.889  -9.707  1.00  0.00     0.053 C 
BRANCH  10  11
ATOM     11  C   UNL     1      -5.922   2.885  -8.934  1.00  0.00     0.041 C 
ATOM     12  O   UNL     1      -5.911   1.672  -9.273  1.00  0.00    -0.550 OA
ATOM     13  O   UNL     1      -6.663   3.283  -7.829  1.00  0.00    -0.550 OA
ENDBRANCH  10  11
ENDBRANCH   9  10
ENDBRANCH   8   9
ENDBRANCH   1   8
TORSDOF 8
ENDMDL
MODEL 5
REMARK VINA RESULT:    -3.510      2.141      2.757
REMARK INTER + INTRA:          -5.848
REMARK INTER:                  -5.253
REMARK INTRA:                  -0.595
REMARK UNBOUND:                -0.697
REMARK SMILES O=C([O-])CCCCCCCC(=O)[O-]
REMARK SMILES IDX 7 1 6 2 5 3 4 4 2 5 1 6 3 7 8 8 9 9 10 10 11 11 12 12 13 13
REMARK H PARENT
REMARK Flexibility Score: inf
ROOT
ATOM      1  C   UNL     1      -1.854   2.026 -11.066  1.00  0.00     0.000 C 
ENDROOT
BRANCH   1   2
ATOM      2  C   UNL     1      -3.200   2.683 -11.405  1.00  0.00     0.000 C 
BRANCH   2   3
ATOM      3  C   UNL     1      -4.330   2.104 -10.543  1.00  0.00     0.006 C 
BRANCH   3   4
ATOM      4  C   UNL     1      -4.316   2.662  -9.115  1.00  0.00     0.053 C 
BRANCH   4   5
ATOM      5  C   UNL     1      -4.610   4.131  -9.090  1.00  0.00     0.041 C 
ATOM      6  O   UNL     1      -5.666   4.576  -9.611  1.00  0.00    -0.550 OA
ATOM      7  O   UNL     1      -3.731   5.005  -8.461  1.00  0.00    -0.550 OA
ENDBRANCH   4   5
ENDBRANCH   3   4
ENDBRANCH   2   3
ENDBRANCH   1   2
BRANCH   1   8
ATOM      8  C   UNL     1      -0.669   3.009 -11.202  1.00  0.00     0.000 C 
BRANCH   8   9
ATOM      9  C   UNL     1       0.413   2.821 -10.121  1.00  0.00     0.006 C 
BRANCH   9  10
ATOM     10  C   UNL     1       0.131   1.667  -9.148  1.00  0.00     0.053 C 
BRANCH  10  11
ATOM     11  C   UNL     1      -0.255   2.165  -7.788  1.00  0.00     0.041 C 
ATOM     12  O   UNL     1      -1.057   3.128  -7.671  1.00  0.00    -0.550 OA
ATOM     13  O   UNL     1       0.255   1.553  -6.649  1.00  0.00    -0.550 OA
ENDBRANCH  10  11
ENDBRANCH   9  10
ENDBRANCH   8   9
ENDBRANCH   1   8
TORSDOF 8
ENDMDL
MODEL 6
REMARK VINA RESULT:    -3.486      2.442      2.908
REMARK INTER + INTRA:          -5.813
REMARK INTER:                  -5.277
REMARK INTRA:                  -0.536
REMARK UNBOUND:                -0.697
REMARK SMILES O=C([O-])CCCCCCCC(=O)[O-]
REMARK SMILES IDX 7 1 6 2 5 3 4 4 2 5 1 6 3 7 8 8 9 9 10 10 11 11 12 12 13 13
REMARK H PARENT
REMARK Flexibility Score: inf
ROOT
ATOM      1  C   UNL     1      -2.894   4.037  -9.824  1.00  0.00     0.000 C 
ENDROOT
BRANCH   1   2
ATOM      2  C   UNL     1      -3.966   5.036  -9.368  1.00  0.00     0.000 C 
BRANCH   2   3
ATOM      3  C   UNL     1      -5.308   4.332  -9.120  1.00  0.00     0.006 C 
BRANCH   3   4
ATOM      4  C   UNL     1      -5.730   3.453 -10.304  1.00  0.00     0.053 C 
BRANCH   4   5
ATOM      5  C   UNL     1      -6.051   2.054  -9.870  1.00  0.00     0.041 C 
ATOM      6  O   UNL     1      -5.701   1.647  -8.732  1.00  0.00    -0.550 OA
ATOM      7  O   UNL     1      -6.766   1.212 -10.713  1.00  0.00    -0.550 OA
ENDBRANCH   4   5
ENDBRANCH   3   4
ENDBRANCH   2   3
ENDBRANCH   1   2
BRANCH   1   8
ATOM      8  C   UNL     1      -2.162   3.377  -8.633  1.00  0.00     0.000 C 
BRANCH   8   9
ATOM      9  C   UNL     1      -0.851   4.088  -8.246  1.00  0.00     0.006 C 
BRANCH   9  10
ATOM     10  C   UNL     1      -0.300   5.019  -9.335  1.00  0.00     0.053 C 
BRANCH  10  11
ATOM     11  C   UNL     1      -0.199   6.437  -8.860  1.00  0.00     0.041 C 
ATOM     12  O   UNL     1      -1.243   7.098  -8.617  1.00  0.00    -0.550 OA
ATOM     13  O   UNL     1       1.046   7.022  -8.666  1.00  0.00    -0.550 OA
ENDBRANCH  10  11
ENDBRANCH   9  10
ENDBRANCH   8   9
ENDBRANCH   1   8
TORSDOF 8
ENDMDL
MODEL 7
REMARK VINA RESULT:    -3.461      1.307      5.098
REMARK INTER + INTRA:          -5.776
REMARK INTER:                  -5.175
REMARK INTRA:                  -0.601
REMARK UNBOUND:                -0.697
REMARK SMILES O=C([O-])CCCCCCCC(=O)[O-]
REMARK SMILES IDX 7 1 6 2 5 3 4 4 2 5 1 6 3 7 8 8 9 9 10 10 11 11 12 12 13 13
REMARK H PARENT
REMARK Flexibility Score: inf
ROOT
ATOM      1  C   UNL     1      -4.013   5.296 -10.093  1.00  0.00     0.000 C 
ENDROOT
BRANCH   1   2
ATOM      2  C   UNL     1      -2.794   6.204  -9.869  1.00  0.00     0.000 C 
BRANCH   2   3
ATOM      3  C   UNL     1      -2.149   5.934  -8.503  1.00  0.00     0.006 C 
BRANCH   3   4
ATOM      4  C   UNL     1      -0.691   5.475  -8.630  1.00  0.00     0.053 C 
BRANCH   4   5
ATOM      5  C   UNL     1      -0.590   3.994  -8.835  1.00  0.00     0.041 C 
ATOM      6  O   UNL     1      -0.107   3.532  -9.901  1.00  0.00    -0.550 OA
ATOM      7  O   UNL     1      -1.003   3.125  -7.832  1.00  0.00    -0.550 OA
ENDBRANCH   4   5
ENDBRANCH   3   4
ENDBRANCH   2   3
ENDBRANCH   1   2
BRANCH   1   8
ATOM      8  C   UNL     1      -4.226   4.302  -8.930  1.00  0.00     0.000 C 
BRANCH   8   9
ATOM      9  C   UNL     1      -4.258   2.828  -9.379  1.00  0.00     0.006 C 
BRANCH   9  10
ATOM     10  C   UNL     1      -5.531   2.076  -8.965  1.00  0.00     0.053 C 
BRANCH  10  11
ATOM     11  C   UNL     1      -6.598   2.162 -10.014  1.00  0.00     0.041 C 
ATOM     12  O   UNL     1      -7.333   3.182 -10.086  1.00  0.00    -0.550 OA
ATOM     13  O   UNL     1      -6.767   1.127 -10.926  1.00  0.00    -0.550 OA
ENDBRANCH  10  11
ENDBRANCH   9  10
ENDBRANCH   8   9
ENDBRANCH   1   8
TORSDOF 8
ENDMDL
MODEL 8
REMARK VINA RESULT:    -3.455      1.954      5.548
REMARK INTER + INTRA:          -5.768
REMARK INTER:                  -5.325
REMARK INTRA:                  -0.443
REMARK UNBOUND:                -0.697
REMARK SMILES O=C([O-])CCCCCCCC(=O)[O-]
REMARK SMILES IDX 7 1 6 2 5 3 4 4 2 5 1 6 3 7 8 8 9 9 10 10 11 11 12 12 13 13
REMARK H PARENT
REMARK Flexibility Score: inf
ROOT
ATOM      1  C   UNL     1      -2.291   2.933 -11.047  1.00  0.00     0.000 C 
ENDROOT
BRANCH   1   2
ATOM      2  C   UNL     1      -1.227   1.827 -10.994  1.00  0.00     0.000 C 
BRANCH   2   3
ATOM      3  C   UNL     1       0.030   2.305 -10.254  1.00  0.00     0.006 C 
BRANCH   3   4
ATOM      4  C   UNL     1       0.355   1.430  -9.036  1.00  0.00     0.053 C 
BRANCH   4   5
ATOM      5  C   UNL     1      -0.114   2.059  -7.759  1.00  0.00     0.041 C 
ATOM      6  O   UNL     1       0.224   1.570  -6.650  1.00  0.00    -0.550 OA
ATOM      7  O   UNL     1      -0.899   3.205  -7.797  1.00  0.00    -0.550 OA
ENDBRANCH   4   5
ENDBRANCH   3   4
ENDBRANCH   2   3
ENDBRANCH   1   2
BRANCH   1   8
ATOM      8  C   UNL     1      -3.597   2.527 -10.327  1.00  0.00     0.000 C 
BRANCH   8   9
ATOM      9  C   UNL     1      -4.074   3.561  -9.289  1.00  0.00     0.006 C 
BRANCH   9  10
ATOM     10  C   UNL     1      -5.445   4.176  -9.605  1.00  0.00     0.053 C 
BRANCH  10  11
ATOM     11  C   UNL     1      -6.565   3.384  -9.000  1.00  0.00     0.041 C 
ATOM     12  O   UNL     1      -6.537   3.080  -7.779  1.00  0.00    -0.550 OA
ATOM     13  O   UNL     1      -7.650   3.001  -9.779  1.00  0.00    -0.550 OA
ENDBRANCH  10  11
ENDBRANCH   9  10
ENDBRANCH   8   9
ENDBRANCH   1   8
TORSDOF 8
ENDMDL
MODEL 9
REMARK VINA RESULT:    -3.434      2.200      3.252
REMARK INTER + INTRA:          -5.736
REMARK INTER:                  -5.149
REMARK INTRA:                  -0.587
REMARK UNBOUND:                -0.697
REMARK SMILES O=C([O-])CCCCCCCC(=O)[O-]
REMARK SMILES IDX 7 1 6 2 5 3 4 4 2 5 1 6 3 7 8 8 9 9 10 10 11 11 12 12 13 13
REMARK H PARENT
REMARK Flexibility Score: inf
ROOT
ATOM      1  C   UNL     1      -1.617   2.644  -9.932  1.00  0.00     0.000 C 
ENDROOT
BRANCH   1   2
ATOM      2  C   UNL     1      -3.040   2.448 -10.475  1.00  0.00     0.000 C 
BRANCH   2   3
ATOM      3  C   UNL     1      -4.083   3.048  -9.522  1.00  0.00     0.006 C 
BRANCH   3   4
ATOM      4  C   UNL     1      -5.260   2.096  -9.275  1.00  0.00     0.053 C 
BRANCH   4   5
ATOM      5  C   UNL     1      -6.501   2.837  -8.879  1.00  0.00     0.041 C 
ATOM      6  O   UNL     1      -6.606   3.327  -7.724  1.00  0.00    -0.550 OA
ATOM      7  O   UNL     1      -7.527   3.015  -9.799  1.00  0.00    -0.550 OA
ENDBRANCH   4   5
ENDBRANCH   3   4
ENDBRANCH   2   3
ENDBRANCH   1   2
BRANCH   1   8
ATOM      8  C   UNL     1      -1.609   3.312  -8.538  1.00  0.00     0.000 C 
BRANCH   8   9
ATOM      9  C   UNL     1      -0.810   4.629  -8.492  1.00  0.00     0.006 C 
BRANCH   9  10
ATOM     10  C   UNL     1      -1.683   5.887  -8.384  1.00  0.00     0.053 C 
BRANCH  10  11
ATOM     11  C   UNL     1      -2.089   6.403  -9.732  1.00  0.00     0.041 C 
ATOM     12  O   UNL     1      -1.405   6.117 -10.750  1.00  0.00    -0.550 OA
ATOM     13  O   UNL     1      -3.232   7.181  -9.868  1.00  0.00    -0.550 OA
ENDBRANCH  10  11
ENDBRANCH   9  10
ENDBRANCH   8   9
ENDBRANCH   1   8
TORSDOF 8
ENDMDL
