MODEL 1
REMARK VINA RESULT:    -4.409      0.000      0.000
REMARK INTER + INTRA:         -10.358
REMARK INTER:                  -8.018
REMARK INTRA:                  -2.340
REMARK UNBOUND:                -2.340
REMARK SMILES CCCCCC=CCC=CCCCCCCCC(=O)[O-]
REMARK SMILES IDX 11 1 12 2 13 3 14 4 15 5 16 6 17 7 18 8 19 9 20 10 10 11
REMARK SMILES IDX 9 12 8 13 7 14 6 15 5 16 4 17 3 18 2 19 1 20
REMARK H PARENT
REMARK Flexibility Score: inf
ROOT
ATOM      1  C   UNL     1      29.155  13.716 -17.621  1.00  0.00     0.027 C 
ENDROOT
BRANCH   1   2
ATOM      2  C   UNL     1      29.745  15.082 -17.246  1.00  0.00     0.004 C 
BRANCH   2   3
ATOM      3  C   UNL     1      30.530  15.051 -15.921  1.00  0.00     0.000 C 
BRANCH   3   4
ATOM      4  C   UNL     1      29.661  15.118 -14.651  1.00  0.00     0.000 C 
BRANCH   4   5
ATOM      5  C   UNL     1      29.613  13.787 -13.887  1.00  0.00     0.000 C 
BRANCH   5   6
ATOM      6  C   UNL     1      28.169  13.296 -13.727  1.00  0.00     0.006 C 
BRANCH   6   7
ATOM      7  C   UNL     1      27.675  13.504 -12.293  1.00  0.00     0.053 C 
BRANCH   7   8
ATOM      8  C   UNL     1      26.861  14.755 -12.194  1.00  0.00     0.041 C 
ATOM      9  O   UNL     1      25.605  14.702 -12.282  1.00  0.00    -0.550 OA
ATOM     10  O   UNL     1      27.483  15.974 -11.963  1.00  0.00    -0.550 OA
ENDBRANCH   7   8
ENDBRANCH   6   7
ENDBRANCH   5   6
ENDBRANCH   4   5
ENDBRANCH   3   4
ENDBRANCH   2   3
ENDBRANCH   1   2
BRANCH   1  11
ATOM     11  C   UNL     1      30.247  12.752 -18.013  1.00  0.00    -0.031 C 
ATOM     12  C   UNL     1      30.395  11.521 -17.490  1.00  0.00    -0.027 C 
BRANCH  12  13
ATOM     13  C   UNL     1      29.507  10.966 -16.404  1.00  0.00     0.054 C 
BRANCH  13  14
ATOM     14  C   UNL     1      30.321  10.427 -15.261  1.00  0.00    -0.027 C 
ATOM     15  C   UNL     1      29.746  10.047 -14.110  1.00  0.00    -0.031 C 
BRANCH  15  16
ATOM     16  C   UNL     1      30.555   9.488 -12.972  1.00  0.00     0.027 C 
BRANCH  16  17
ATOM     17  C   UNL     1      29.647   9.010 -11.829  1.00  0.00     0.004 C 
BRANCH  17  18
ATOM     18  C   UNL     1      30.055   9.592 -10.467  1.00  0.00     0.000 C 
BRANCH  18  19
ATOM     19  C   UNL     1      29.528  11.018 -10.253  1.00  0.00    -0.003 C 
ATOM     20  C   UNL     1      30.635  12.050 -10.455  1.00  0.00     0.004 C 
ENDBRANCH  18  19
ENDBRANCH  17  18
ENDBRANCH  16  17
ENDBRANCH  15  16
ENDBRANCH  13  14
ENDBRANCH  12  13
ENDBRANCH   1  11
TORSDOF 14
ENDMDL
MODEL 2
REMARK VINA RESULT:    -4.260      2.517      4.854
REMARK INTER + INTRA:         -10.086
REMARK INTER:                  -7.999
REMARK INTRA:                  -2.087
REMARK UNBOUND:                -2.340
REMARK SMILES CCCCCC=CCC=CCCCCCCCC(=O)[O-]
REMARK SMILES IDX 11 1 12 2 13 3 14 4 15 5 16 6 17 7 18 8 19 9 20 10 10 11
REMARK SMILES IDX 9 12 8 13 7 14 6 15 5 16 4 17 3 18 2 19 1 20
REMARK H PARENT
REMARK Flexibility Score: inf
ROOT
ATOM      1  C   UNL     1      28.931  13.616 -17.340  1.00  0.00     0.027 C 
ENDROOT
BRANCH   1   2
ATOM      2  C   UNL     1      29.654  12.979 -18.536  1.00  0.00     0.004 C 
BRANCH   2   3
ATOM      3  C   UNL     1      30.867  12.127 -18.117  1.00  0.00     0.000 C 
BRANCH   3   4
ATOM      4  C   UNL     1      30.713  10.615 -18.364  1.00  0.00     0.000 C 
BRANCH   4   5
ATOM      5  C   UNL     1      30.767   9.789 -17.070  1.00  0.00     0.000 C 
BRANCH   5   6
ATOM      6  C   UNL     1      30.684  10.693 -15.835  1.00  0.00     0.006 C 
BRANCH   6   7
ATOM      7  C   UNL     1      29.392  10.435 -15.053  1.00  0.00     0.053 C 
BRANCH   7   8
ATOM      8  C   UNL     1      29.701   9.870 -13.703  1.00  0.00     0.041 C 
ATOM      9  O   UNL     1      30.698  10.285 -13.055  1.00  0.00    -0.550 OA
ATOM     10  O   UNL     1      28.864   8.915 -13.141  1.00  0.00    -0.550 OA
ENDBRANCH   7   8
ENDBRANCH   6   7
ENDBRANCH   5   6
ENDBRANCH   4   5
ENDBRANCH   3   4
ENDBRANCH   2   3
ENDBRANCH   1   2
BRANCH   1  11
ATOM     11  C   UNL     1      29.598  14.908 -16.939  1.00  0.00    -0.031 C 
ATOM     12  C   UNL     1      30.215  15.109 -15.761  1.00  0.00    -0.027 C 
BRANCH  12  13
ATOM     13  C   UNL     1      30.275  14.073 -14.665  1.00  0.00     0.054 C 
BRANCH  13  14
ATOM     14  C   UNL     1      29.149  14.253 -13.687  1.00  0.00    -0.027 C 
ATOM     15  C   UNL     1      28.592  15.455 -13.474  1.00  0.00    -0.031 C 
BRANCH  15  16
ATOM     16  C   UNL     1      27.451  15.635 -12.510  1.00  0.00     0.027 C 
BRANCH  16  17
ATOM     17  C   UNL     1      27.538  14.626 -11.356  1.00  0.00     0.004 C 
BRANCH  17  18
ATOM     18  C   UNL     1      26.292  13.731 -11.258  1.00  0.00     0.000 C 
BRANCH  18  19
ATOM     19  C   UNL     1      26.623  12.311 -10.776  1.00  0.00    -0.003 C 
ATOM     20  C   UNL     1      28.068  11.941 -11.104  1.00  0.00     0.004 C 
ENDBRANCH  18  19
ENDBRANCH  17  18
ENDBRANCH  16  17
ENDBRANCH  15  16
ENDBRANCH  13  14
ENDBRANCH  12  13
ENDBRANCH   1  11
TORSDOF 14
ENDMDL
MODEL 3
REMARK VINA RESULT:    -4.252      2.660      6.537
REMARK INTER + INTRA:         -10.072
REMARK INTER:                  -7.767
REMARK INTRA:                  -2.304
REMARK UNBOUND:                -2.340
REMARK SMILES CCCCCC=CCC=CCCCCCCCC(=O)[O-]
REMARK SMILES IDX 11 1 12 2 13 3 14 4 15 5 16 6 17 7 18 8 19 9 20 10 10 11
REMARK SMILES IDX 9 12 8 13 7 14 6 15 5 16 4 17 3 18 2 19 1 20
REMARK H PARENT
REMARK Flexibility Score: inf
ROOT
ATOM      1  C   UNL     1      26.622  12.480 -10.703  1.00  0.00     0.027 C 
ENDROOT
BRANCH   1   2
ATOM      2  C   UNL     1      27.716  11.732 -11.479  1.00  0.00     0.004 C 
BRANCH   2   3
ATOM      3  C   UNL     1      28.756  11.069 -10.556  1.00  0.00     0.000 C 
BRANCH   3   4
ATOM      4  C   UNL     1      30.222  11.287 -10.972  1.00  0.00     0.000 C 
BRANCH   4   5
ATOM      5  C   UNL     1      30.374  12.269 -12.143  1.00  0.00     0.000 C 
BRANCH   5   6
ATOM      6  C   UNL     1      30.850  11.548 -13.408  1.00  0.00     0.006 C 
BRANCH   6   7
ATOM      7  C   UNL     1      29.729  11.466 -14.448  1.00  0.00     0.053 C 
BRANCH   7   8
ATOM      8  C   UNL     1      29.409  10.040 -14.764  1.00  0.00     0.041 C 
ATOM      9  O   UNL     1      29.349   9.654 -15.962  1.00  0.00    -0.550 OA
ATOM     10  O   UNL     1      29.219   9.125 -13.737  1.00  0.00    -0.550 OA
ENDBRANCH   7   8
ENDBRANCH   6   7
ENDBRANCH   5   6
ENDBRANCH   4   5
ENDBRANCH   3   4
ENDBRANCH   2   3
ENDBRANCH   1   2
BRANCH   1  11
ATOM     11  C   UNL     1      25.762  13.290 -11.641  1.00  0.00    -0.031 C 
ATOM     12  C   UNL     1      26.088  14.510 -12.105  1.00  0.00    -0.027 C 
BRANCH  12  13
ATOM     13  C   UNL     1      27.344  15.245 -11.704  1.00  0.00     0.054 C 
BRANCH  13  14
ATOM     14  C   UNL     1      28.005  15.878 -12.895  1.00  0.00    -0.027 C 
ATOM     15  C   UNL     1      28.875  15.197 -13.657  1.00  0.00    -0.031 C 
BRANCH  15  16
ATOM     16  C   UNL     1      29.523  15.822 -14.862  1.00  0.00     0.027 C 
BRANCH  16  17
ATOM     17  C   UNL     1      30.886  15.177 -15.154  1.00  0.00     0.004 C 
BRANCH  17  18
ATOM     18  C   UNL     1      30.882  14.342 -16.443  1.00  0.00     0.000 C 
BRANCH  18  19
ATOM     19  C   UNL     1      29.658  14.627 -17.326  1.00  0.00    -0.003 C 
ATOM     20  C   UNL     1      28.819  13.368 -17.528  1.00  0.00     0.004 C 
ENDBRANCH  18  19
ENDBRANCH  17  18
ENDBRANCH  16  17
ENDBRANCH  15  16
ENDBRANCH  13  14
ENDBRANCH  12  13
ENDBRANCH   1  11
TORSDOF 14
ENDMDL
MODEL 4
REMARK VINA RESULT:    -4.158      1.180      5.092
REMARK INTER + INTRA:          -9.901
REMARK INTER:                  -7.606
REMARK INTRA:                  -2.295
REMARK UNBOUND:                -2.340
REMARK SMILES CCCCCC=CCC=CCCCCCCCC(=O)[O-]
REMARK SMILES IDX 11 1 12 2 13 3 14 4 15 5 16 6 17 7 18 8 19 9 20 10 10 11
REMARK SMILES IDX 9 12 8 13 7 14 6 15 5 16 4 17 3 18 2 19 1 20
REMARK H PARENT
REMARK Flexibility Score: inf
ROOT
ATOM      1  C   UNL     1      29.917   9.831 -10.150  1.00  0.00     0.027 C 
ENDROOT
BRANCH   1   2
ATOM      2  C   UNL     1      30.727  11.108  -9.887  1.00  0.00     0.004 C 
BRANCH   2   3
ATOM      3  C   UNL     1      30.634  12.124 -11.041  1.00  0.00     0.000 C 
BRANCH   3   4
ATOM      4  C   UNL     1      29.218  12.661 -11.319  1.00  0.00     0.000 C 
BRANCH   4   5
ATOM      5  C   UNL     1      28.885  12.726 -12.817  1.00  0.00     0.000 C 
BRANCH   5   6
ATOM      6  C   UNL     1      28.215  14.058 -13.174  1.00  0.00     0.006 C 
BRANCH   6   7
ATOM      7  C   UNL     1      27.491  14.650 -11.961  1.00  0.00     0.053 C 
BRANCH   7   8
ATOM      8  C   UNL     1      26.029  14.341 -12.021  1.00  0.00     0.041 C 
ATOM      9  O   UNL     1      25.599  13.229 -11.617  1.00  0.00    -0.550 OA
ATOM     10  O   UNL     1      25.134  15.297 -12.484  1.00  0.00    -0.550 OA
ENDBRANCH   7   8
ENDBRANCH   6   7
ENDBRANCH   5   6
ENDBRANCH   4   5
ENDBRANCH   3   4
ENDBRANCH   2   3
ENDBRANCH   1   2
BRANCH   1  11
ATOM     11  C   UNL     1      30.748   8.815 -10.893  1.00  0.00    -0.031 C 
ATOM     12  C   UNL     1      30.440   8.327 -12.109  1.00  0.00    -0.027 C 
BRANCH  12  13
ATOM     13  C   UNL     1      29.190   8.705 -12.865  1.00  0.00     0.054 C 
BRANCH  13  14
ATOM     14  C   UNL     1      29.525   9.405 -14.152  1.00  0.00    -0.027 C 
ATOM     15  C   UNL     1      30.685  10.060 -14.310  1.00  0.00    -0.031 C 
BRANCH  15  16
ATOM     16  C   UNL     1      31.032  10.744 -15.604  1.00  0.00     0.027 C 
BRANCH  16  17
ATOM     17  C   UNL     1      29.776  11.000 -16.449  1.00  0.00     0.004 C 
BRANCH  17  18
ATOM     18  C   UNL     1      29.876  12.285 -17.285  1.00  0.00     0.000 C 
BRANCH  18  19
ATOM     19  C   UNL     1      28.892  13.369 -16.819  1.00  0.00    -0.003 C 
ATOM     20  C   UNL     1      29.581  14.728 -16.711  1.00  0.00     0.004 C 
ENDBRANCH  18  19
ENDBRANCH  17  18
ENDBRANCH  16  17
ENDBRANCH  15  16
ENDBRANCH  13  14
ENDBRANCH  12  13
ENDBRANCH   1  11
TORSDOF 14
ENDMDL
MODEL 5
REMARK VINA RESULT:    -4.111     16.210     18.410
REMARK INTER + INTRA:          -9.816
REMARK INTER:                  -7.158
REMARK INTRA:                  -2.658
REMARK UNBOUND:                -2.340
REMARK SMILES CCCCCC=CCC=CCCCCCCCC(=O)[O-]
REMARK SMILES IDX 11 1 12 2 13 3 14 4 15 5 16 6 17 7 18 8 19 9 20 10 10 11
REMARK SMILES IDX 9 12 8 13 7 14 6 15 5 16 4 17 3 18 2 19 1 20
REMARK H PARENT
REMARK Flexibility Score: inf
ROOT
ATOM      1  C   UNL     1      13.971  -0.819 -13.005  1.00  0.00     0.027 C 
ENDROOT
BRANCH   1   2
ATOM      2  C   UNL     1      14.373  -0.555 -14.463  1.00  0.00     0.004 C 
BRANCH   2   3
ATOM      3  C   UNL     1      15.382  -1.586 -15.001  1.00  0.00     0.000 C 
BRANCH   3   4
ATOM      4  C   UNL     1      16.747  -1.003 -15.412  1.00  0.00     0.000 C 
BRANCH   4   5
ATOM      5  C   UNL     1      16.853   0.509 -15.162  1.00  0.00     0.000 C 
BRANCH   5   6
ATOM      6  C   UNL     1      17.294   1.247 -16.431  1.00  0.00     0.006 C 
BRANCH   6   7
ATOM      7  C   UNL     1      16.418   0.856 -17.625  1.00  0.00     0.053 C 
BRANCH   7   8
ATOM      8  C   UNL     1      15.251   1.784 -17.746  1.00  0.00     0.041 C 
ATOM      9  O   UNL     1      15.391   2.910 -18.294  1.00  0.00    -0.550 OA
ATOM     10  O   UNL     1      13.999   1.390 -17.294  1.00  0.00    -0.550 OA
ENDBRANCH   7   8
ENDBRANCH   6   7
ENDBRANCH   5   6
ENDBRANCH   4   5
ENDBRANCH   3   4
ENDBRANCH   2   3
ENDBRANCH   1   2
BRANCH   1  11
ATOM     11  C   UNL     1      14.722   0.094 -12.070  1.00  0.00    -0.031 C 
ATOM     12  C   UNL     1      15.888  -0.221 -11.476  1.00  0.00    -0.027 C 
BRANCH  12  13
ATOM     13  C   UNL     1      16.569  -1.558 -11.637  1.00  0.00     0.054 C 
BRANCH  13  14
ATOM     14  C   UNL     1      18.046  -1.449 -11.381  1.00  0.00    -0.027 C 
ATOM     15  C   UNL     1      18.929  -1.401 -12.390  1.00  0.00    -0.031 C 
BRANCH  15  16
ATOM     16  C   UNL     1      20.406  -1.271 -12.137  1.00  0.00     0.027 C 
BRANCH  16  17
ATOM     17  C   UNL     1      21.209  -1.465 -13.432  1.00  0.00     0.004 C 
BRANCH  17  18
ATOM     18  C   UNL     1      20.310  -1.584 -14.672  1.00  0.00     0.000 C 
BRANCH  18  19
ATOM     19  C   UNL     1      20.580  -0.480 -15.704  1.00  0.00    -0.003 C 
ATOM     20  C   UNL     1      20.227  -0.946 -17.115  1.00  0.00     0.004 C 
ENDBRANCH  18  19
ENDBRANCH  17  18
ENDBRANCH  16  17
ENDBRANCH  15  16
ENDBRANCH  13  14
ENDBRANCH  12  13
ENDBRANCH   1  11
TORSDOF 14
ENDMDL
MODEL 6
REMARK VINA RESULT:    -4.109      2.647      4.691
REMARK INTER + INTRA:          -9.812
REMARK INTER:                  -7.403
REMARK INTRA:                  -2.408
REMARK UNBOUND:                -2.340
REMARK SMILES CCCCCC=CCC=CCCCCCCCC(=O)[O-]
REMARK SMILES IDX 11 1 12 2 13 3 14 4 15 5 16 6 17 7 18 8 19 9 20 10 10 11
REMARK SMILES IDX 9 12 8 13 7 14 6 15 5 16 4 17 3 18 2 19 1 20
REMARK H PARENT
REMARK Flexibility Score: inf
ROOT
ATOM      1  C   UNL     1      29.337  13.594 -15.815  1.00  0.00     0.027 C 
ENDROOT
BRANCH   1   2
ATOM      2  C   UNL     1      28.524  12.521 -15.077  1.00  0.00     0.004 C 
BRANCH   2   3
ATOM      3  C   UNL     1      29.266  11.176 -14.972  1.00  0.00     0.000 C 
BRANCH   3   4
ATOM      4  C   UNL     1      30.699  11.268 -14.415  1.00  0.00     0.000 C 
BRANCH   4   5
ATOM      5  C   UNL     1      30.972  10.255 -13.293  1.00  0.00     0.000 C 
BRANCH   5   6
ATOM      6  C   UNL     1      29.663   9.759 -12.669  1.00  0.00     0.006 C 
BRANCH   6   7
ATOM      7  C   UNL     1      29.889   9.278 -11.232  1.00  0.00     0.053 C 
BRANCH   7   8
ATOM      8  C   UNL     1      29.691  10.402 -10.265  1.00  0.00     0.041 C 
ATOM      9  O   UNL     1      28.552  10.919 -10.119  1.00  0.00    -0.550 OA
ATOM     10  O   UNL     1      30.754  10.852  -9.494  1.00  0.00    -0.550 OA
ENDBRANCH   7   8
ENDBRANCH   6   7
ENDBRANCH   5   6
ENDBRANCH   4   5
ENDBRANCH   3   4
ENDBRANCH   2   3
ENDBRANCH   1   2
BRANCH   1  11
ATOM     11  C   UNL     1      28.845  13.757 -17.231  1.00  0.00    -0.031 C 
ATOM     12  C   UNL     1      29.464  13.248 -18.312  1.00  0.00    -0.027 C 
BRANCH  12  13
ATOM     13  C   UNL     1      30.764  12.485 -18.244  1.00  0.00     0.054 C 
BRANCH  13  14
ATOM     14  C   UNL     1      30.604  11.092 -18.785  1.00  0.00    -0.027 C 
ATOM     15  C   UNL     1      30.695  10.017 -17.987  1.00  0.00    -0.031 C 
BRANCH  15  16
ATOM     16  C   UNL     1      30.514   8.623 -18.522  1.00  0.00     0.027 C 
BRANCH  16  17
ATOM     17  C   UNL     1      30.118   7.648 -17.404  1.00  0.00     0.004 C 
BRANCH  17  18
ATOM     18  C   UNL     1      30.951   7.841 -16.127  1.00  0.00     0.000 C 
BRANCH  18  19
ATOM     19  C   UNL     1      30.449   6.980 -14.959  1.00  0.00    -0.003 C 
ATOM     20  C   UNL     1      28.928   6.845 -14.990  1.00  0.00     0.004 C 
ENDBRANCH  18  19
ENDBRANCH  17  18
ENDBRANCH  16  17
ENDBRANCH  15  16
ENDBRANCH  13  14
ENDBRANCH  12  13
ENDBRANCH   1  11
TORSDOF 14
ENDMDL
MODEL 7
REMARK VINA RESULT:    -4.089      3.054      4.914
REMARK INTER + INTRA:          -9.776
REMARK INTER:                  -7.892
REMARK INTRA:                  -1.883
REMARK UNBOUND:                -2.340
REMARK SMILES CCCCCC=CCC=CCCCCCCCC(=O)[O-]
REMARK SMILES IDX 11 1 12 2 13 3 14 4 15 5 16 6 17 7 18 8 19 9 20 10 10 11
REMARK SMILES IDX 9 12 8 13 7 14 6 15 5 16 4 17 3 18 2 19 1 20
REMARK H PARENT
REMARK Flexibility Score: inf
ROOT
ATOM      1  C   UNL     1      29.257  13.146 -17.908  1.00  0.00     0.027 C 
ENDROOT
BRANCH   1   2
ATOM      2  C   UNL     1      29.245  14.681 -17.922  1.00  0.00     0.004 C 
BRANCH   2   3
ATOM      3  C   UNL     1      30.184  15.296 -16.867  1.00  0.00     0.000 C 
BRANCH   3   4
ATOM      4  C   UNL     1      29.833  14.951 -15.408  1.00  0.00     0.000 C 
BRANCH   4   5
ATOM      5  C   UNL     1      30.786  13.916 -14.791  1.00  0.00     0.000 C 
BRANCH   5   6
ATOM      6  C   UNL     1      30.008  12.842 -14.022  1.00  0.00     0.006 C 
BRANCH   6   7
ATOM      7  C   UNL     1      28.502  13.120 -14.064  1.00  0.00     0.053 C 
BRANCH   7   8
ATOM      8  C   UNL     1      27.976  13.364 -12.685  1.00  0.00     0.041 C 
ATOM      9  O   UNL     1      28.736  13.254 -11.688  1.00  0.00    -0.550 OA
ATOM     10  O   UNL     1      26.656  13.755 -12.504  1.00  0.00    -0.550 OA
ENDBRANCH   7   8
ENDBRANCH   6   7
ENDBRANCH   5   6
ENDBRANCH   4   5
ENDBRANCH   3   4
ENDBRANCH   2   3
ENDBRANCH   1   2
BRANCH   1  11
ATOM     11  C   UNL     1      30.626  12.619 -18.263  1.00  0.00    -0.031 C 
ATOM     12  C   UNL     1      31.088  11.408 -17.903  1.00  0.00    -0.027 C 
BRANCH  12  13
ATOM     13  C   UNL     1      30.306  10.438 -17.052  1.00  0.00     0.054 C 
BRANCH  13  14
ATOM     14  C   UNL     1      30.166   9.107 -17.738  1.00  0.00    -0.027 C 
ATOM     15  C   UNL     1      30.912   8.789 -18.807  1.00  0.00    -0.031 C 
BRANCH  15  16
ATOM     16  C   UNL     1      30.788   7.451 -19.482  1.00  0.00     0.027 C 
BRANCH  16  17
ATOM     17  C   UNL     1      29.957   6.477 -18.634  1.00  0.00     0.004 C 
BRANCH  17  18
ATOM     18  C   UNL     1      29.133   5.502 -19.488  1.00  0.00     0.000 C 
BRANCH  18  19
ATOM     19  C   UNL     1      27.624   5.769 -19.397  1.00  0.00    -0.003 C 
ATOM     20  C   UNL     1      27.289   6.624 -18.177  1.00  0.00     0.004 C 
ENDBRANCH  18  19
ENDBRANCH  17  18
ENDBRANCH  16  17
ENDBRANCH  15  16
ENDBRANCH  13  14
ENDBRANCH  12  13
ENDBRANCH   1  11
TORSDOF 14
ENDMDL
MODEL 8
REMARK VINA RESULT:    -4.038      2.206      6.010
REMARK INTER + INTRA:          -9.683
REMARK INTER:                  -7.457
REMARK INTRA:                  -2.226
REMARK UNBOUND:                -2.340
REMARK SMILES CCCCCC=CCC=CCCCCCCCC(=O)[O-]
REMARK SMILES IDX 11 1 12 2 13 3 14 4 15 5 16 6 17 7 18 8 19 9 20 10 10 11
REMARK SMILES IDX 9 12 8 13 7 14 6 15 5 16 4 17 3 18 2 19 1 20
REMARK H PARENT
REMARK Flexibility Score: inf
ROOT
ATOM      1  C   UNL     1      30.786   8.950 -11.321  1.00  0.00     0.027 C 
ENDROOT
BRANCH   1   2
ATOM      2  C   UNL     1      29.993   7.979 -12.207  1.00  0.00     0.004 C 
BRANCH   2   3
ATOM      3  C   UNL     1      29.878   8.460 -13.666  1.00  0.00     0.000 C 
BRANCH   3   4
ATOM      4  C   UNL     1      30.558   9.810 -13.959  1.00  0.00     0.000 C 
BRANCH   4   5
ATOM      5  C   UNL     1      29.833  10.624 -15.041  1.00  0.00     0.000 C 
BRANCH   5   6
ATOM      6  C   UNL     1      30.827  11.444 -15.871  1.00  0.00     0.006 C 
BRANCH   6   7
ATOM      7  C   UNL     1      30.757  12.928 -15.499  1.00  0.00     0.053 C 
BRANCH   7   8
ATOM      8  C   UNL     1      29.998  13.693 -16.536  1.00  0.00     0.041 C 
ATOM      9  O   UNL     1      29.734  13.164 -17.648  1.00  0.00    -0.550 OA
ATOM     10  O   UNL     1      29.542  14.975 -16.260  1.00  0.00    -0.550 OA
ENDBRANCH   7   8
ENDBRANCH   6   7
ENDBRANCH   5   6
ENDBRANCH   4   5
ENDBRANCH   3   4
ENDBRANCH   2   3
ENDBRANCH   1   2
BRANCH   1  11
ATOM     11  C   UNL     1      29.909   9.521 -10.235  1.00  0.00    -0.031 C 
ATOM     12  C   UNL     1      29.879  10.820  -9.889  1.00  0.00    -0.027 C 
BRANCH  12  13
ATOM     13  C   UNL     1      30.764  11.869 -10.517  1.00  0.00     0.054 C 
BRANCH  13  14
ATOM     14  C   UNL     1      30.121  12.459 -11.741  1.00  0.00    -0.027 C 
ATOM     15  C   UNL     1      28.790  12.609 -11.829  1.00  0.00    -0.031 C 
BRANCH  15  16
ATOM     16  C   UNL     1      28.145  13.218 -13.043  1.00  0.00     0.027 C 
BRANCH  16  17
ATOM     17  C   UNL     1      28.190  14.752 -12.984  1.00  0.00     0.004 C 
BRANCH  17  18
ATOM     18  C   UNL     1      27.337  15.325 -11.843  1.00  0.00     0.000 C 
BRANCH  18  19
ATOM     19  C   UNL     1      25.895  14.795 -11.862  1.00  0.00    -0.003 C 
ATOM     20  C   UNL     1      25.532  14.143 -10.530  1.00  0.00     0.004 C 
ENDBRANCH  18  19
ENDBRANCH  17  18
ENDBRANCH  16  17
ENDBRANCH  15  16
ENDBRANCH  13  14
ENDBRANCH  12  13
ENDBRANCH   1  11
TORSDOF 14
ENDMDL
MODEL 9
REMARK VINA RESULT:    -4.035      2.001      4.188
REMARK INTER + INTRA:          -9.677
REMARK INTER:                  -7.641
REMARK INTRA:                  -2.036
REMARK UNBOUND:                -2.340
REMARK SMILES CCCCCC=CCC=CCCCCCCCC(=O)[O-]
REMARK SMILES IDX 11 1 12 2 13 3 14 4 15 5 16 6 17 7 18 8 19 9 20 10 10 11
REMARK SMILES IDX 9 12 8 13 7 14 6 15 5 16 4 17 3 18 2 19 1 20
REMARK H PARENT
REMARK Flexibility Score: inf
ROOT
ATOM      1  C   UNL     1      28.725  12.200 -15.976  1.00  0.00     0.027 C 
ENDROOT
BRANCH   1   2
ATOM      2  C   UNL     1      29.770  12.621 -14.933  1.00  0.00     0.004 C 
BRANCH   2   3
ATOM      3  C   UNL     1      30.755  11.491 -14.584  1.00  0.00     0.000 C 
BRANCH   3   4
ATOM      4  C   UNL     1      30.738  11.049 -13.109  1.00  0.00     0.000 C 
BRANCH   4   5
ATOM      5  C   UNL     1      29.388  10.456 -12.677  1.00  0.00     0.000 C 
BRANCH   5   6
ATOM      6  C   UNL     1      28.963  10.996 -11.307  1.00  0.00     0.006 C 
BRANCH   6   7
ATOM      7  C   UNL     1      29.216  12.504 -11.210  1.00  0.00     0.053 C 
BRANCH   7   8
ATOM      8  C   UNL     1      27.957  13.265 -11.476  1.00  0.00     0.041 C 
ATOM      9  O   UNL     1      27.963  14.241 -12.272  1.00  0.00    -0.550 OA
ATOM     10  O   UNL     1      26.767  12.873 -10.878  1.00  0.00    -0.550 OA
ENDBRANCH   7   8
ENDBRANCH   6   7
ENDBRANCH   5   6
ENDBRANCH   4   5
ENDBRANCH   3   4
ENDBRANCH   2   3
ENDBRANCH   1   2
BRANCH   1  11
ATOM     11  C   UNL     1      28.637  13.217 -17.086  1.00  0.00    -0.031 C 
ATOM     12  C   UNL     1      29.572  13.382 -18.039  1.00  0.00    -0.027 C 
BRANCH  12  13
ATOM     13  C   UNL     1      30.859  12.594 -18.087  1.00  0.00     0.054 C 
BRANCH  13  14
ATOM     14  C   UNL     1      30.652  11.259 -18.746  1.00  0.00    -0.027 C 
ATOM     15  C   UNL     1      30.919  10.112 -18.101  1.00  0.00    -0.031 C 
BRANCH  15  16
ATOM     16  C   UNL     1      30.694   8.774 -18.750  1.00  0.00     0.027 C 
BRANCH  16  17
ATOM     17  C   UNL     1      29.811   7.875 -17.872  1.00  0.00     0.004 C 
BRANCH  17  18
ATOM     18  C   UNL     1      29.283   8.600 -16.625  1.00  0.00     0.000 C 
BRANCH  18  19
ATOM     19  C   UNL     1      29.652   7.876 -15.322  1.00  0.00    -0.003 C 
ATOM     20  C   UNL     1      29.084   6.458 -15.300  1.00  0.00     0.004 C 
ENDBRANCH  18  19
ENDBRANCH  17  18
ENDBRANCH  16  17
ENDBRANCH  15  16
ENDBRANCH  13  14
ENDBRANCH  12  13
ENDBRANCH   1  11
TORSDOF 14
ENDMDL
