MODEL 1
REMARK VINA RESULT:    -3.859      0.000      0.000
REMARK INTER + INTRA:          -5.991
REMARK INTER:                  -5.213
REMARK INTRA:                  -0.779
REMARK UNBOUND:                -0.779
REMARK SMILES CC(=O)OCC=C(C)CCC=C(C)C
REMARK SMILES IDX 7 1 6 2 8 3 9 4 10 5 11 6 13 7 12 8 14 9 5 10 4 11 2 12 3 13
REMARK SMILES IDX 1 14
REMARK H PARENT
REMARK Flexibility Score: inf
ROOT
ATOM      1  C   UNL     1      22.227  51.352  51.925  1.00  0.00    -0.074 C 
ATOM      2  C   UNL     1      21.185  51.816  52.649  1.00  0.00     0.013 C 
ATOM      3  C   UNL     1      23.599  51.194  52.533  1.00  0.00     0.039 C 
ENDROOT
BRANCH   1   4
ATOM      4  C   UNL     1      22.023  51.007  50.464  1.00  0.00     0.034 C 
BRANCH   4   5
ATOM      5  C   UNL     1      21.304  52.132  49.708  1.00  0.00     0.032 C 
BRANCH   5   6
ATOM      6  C   UNL     1      22.269  53.070  49.019  1.00  0.00    -0.028 C 
ATOM      7  C   UNL     1      22.090  54.833  50.790  1.00  0.00     0.039 C 
ATOM      8  C   UNL     1      22.653  54.270  49.507  1.00  0.00    -0.080 C 
ATOM      9  C   UNL     1      23.658  55.071  48.721  1.00  0.00     0.039 C 
ENDBRANCH   5   6
ENDBRANCH   4   5
ENDBRANCH   1   4
BRANCH   2  10
ATOM     10  C   UNL     1      21.294  52.197  54.103  1.00  0.00     0.260 C 
BRANCH  10  11
ATOM     11  O   UNL     1      20.020  52.116  54.740  1.00  0.00    -0.462 OA
BRANCH  11  12
ATOM     12  C   UNL     1      19.190  53.224  54.937  1.00  0.00     0.302 C 
ATOM     13  O   UNL     1      18.182  53.149  55.693  1.00  0.00    -0.253 OA
ATOM     14  C   UNL     1      19.474  54.494  54.210  1.00  0.00     0.139 C 
ENDBRANCH  11  12
ENDBRANCH  10  11
ENDBRANCH   2  10
TORSDOF 6
ENDMDL
MODEL 2
REMARK VINA RESULT:    -3.785      2.413      5.250
REMARK INTER + INTRA:          -5.891
REMARK INTER:                  -4.952
REMARK INTRA:                  -0.939
REMARK UNBOUND:                -0.779
REMARK SMILES CC(=O)OCC=C(C)CCC=C(C)C
REMARK SMILES IDX 7 1 6 2 8 3 9 4 10 5 11 6 13 7 12 8 14 9 5 10 4 11 2 12 3 13
REMARK SMILES IDX 1 14
REMARK H PARENT
REMARK Flexibility Score: inf
ROOT
ATOM      1  C   UNL     1      22.191  51.246  52.851  1.00  0.00    -0.074 C 
ATOM      2  C   UNL     1      21.232  51.643  51.985  1.00  0.00     0.013 C 
ATOM      3  C   UNL     1      23.583  50.900  52.379  1.00  0.00     0.039 C 
ENDROOT
BRANCH   1   4
ATOM      4  C   UNL     1      21.859  51.119  54.323  1.00  0.00     0.034 C 
BRANCH   4   5
ATOM      5  C   UNL     1      21.706  52.491  54.993  1.00  0.00     0.032 C 
BRANCH   5   6
ATOM      6  C   UNL     1      20.392  52.629  55.727  1.00  0.00    -0.028 C 
ATOM      7  C   UNL     1      19.422  54.218  54.050  1.00  0.00     0.039 C 
ATOM      8  C   UNL     1      19.349  53.375  55.301  1.00  0.00    -0.080 C 
ATOM      9  C   UNL     1      18.088  53.376  56.125  1.00  0.00     0.039 C 
ENDBRANCH   5   6
ENDBRANCH   4   5
ENDBRANCH   1   4
BRANCH   2  10
ATOM     10  C   UNL     1      21.465  51.786  50.503  1.00  0.00     0.260 C 
BRANCH  10  11
ATOM     11  O   UNL     1      21.396  53.156  50.115  1.00  0.00    -0.462 OA
BRANCH  11  12
ATOM     12  C   UNL     1      22.313  54.122  50.542  1.00  0.00     0.302 C 
ATOM     13  O   UNL     1      23.548  53.980  50.327  1.00  0.00    -0.253 OA
ATOM     14  C   UNL     1      21.828  55.310  51.301  1.00  0.00     0.139 C 
ENDBRANCH  11  12
ENDBRANCH  10  11
ENDBRANCH   2  10
TORSDOF 6
ENDMDL
MODEL 3
REMARK VINA RESULT:    -3.642     11.894     13.993
REMARK INTER + INTRA:          -5.698
REMARK INTER:                  -4.747
REMARK INTRA:                  -0.950
REMARK UNBOUND:                -0.779
REMARK SMILES CC(=O)OCC=C(C)CCC=C(C)C
REMARK SMILES IDX 7 1 6 2 8 3 9 4 10 5 11 6 13 7 12 8 14 9 5 10 4 11 2 12 3 13
REMARK SMILES IDX 1 14
REMARK H PARENT
REMARK Flexibility Score: inf
ROOT
ATOM      1  C   UNL     1      22.119  53.161  40.148  1.00  0.00    -0.074 C 
ATOM      2  C   UNL     1      22.060  52.158  39.244  1.00  0.00     0.013 C 
ATOM      3  C   UNL     1      22.790  54.474  39.823  1.00  0.00     0.039 C 
ENDROOT
BRANCH   1   4
ATOM      4  C   UNL     1      21.523  52.959  41.525  1.00  0.00     0.034 C 
BRANCH   4   5
ATOM      5  C   UNL     1      19.996  52.816  41.470  1.00  0.00     0.032 C 
BRANCH   5   6
ATOM      6  C   UNL     1      19.296  54.153  41.394  1.00  0.00    -0.028 C 
ATOM      7  C   UNL     1      18.841  53.971  38.937  1.00  0.00     0.039 C 
ATOM      8  C   UNL     1      18.748  54.671  40.272  1.00  0.00    -0.080 C 
ATOM      9  C   UNL     1      18.045  56.000  40.368  1.00  0.00     0.039 C 
ENDBRANCH   5   6
ENDBRANCH   4   5
ENDBRANCH   1   4
BRANCH   2  10
ATOM     10  C   UNL     1      22.636  52.262  37.856  1.00  0.00     0.260 C 
BRANCH  10  11
ATOM     11  O   UNL     1      21.628  52.644  36.922  1.00  0.00    -0.462 OA
BRANCH  11  12
ATOM     12  C   UNL     1      20.713  51.742  36.368  1.00  0.00     0.302 C 
ATOM     13  O   UNL     1      19.549  52.115  36.054  1.00  0.00    -0.253 OA
ATOM     14  C   UNL     1      21.105  50.315  36.192  1.00  0.00     0.139 C 
ENDBRANCH  11  12
ENDBRANCH  10  11
ENDBRANCH   2  10
TORSDOF 6
ENDMDL
MODEL 4
REMARK VINA RESULT:    -3.592      3.172      6.147
REMARK INTER + INTRA:          -5.630
REMARK INTER:                  -4.876
REMARK INTRA:                  -0.754
REMARK UNBOUND:                -0.779
REMARK SMILES CC(=O)OCC=C(C)CCC=C(C)C
REMARK SMILES IDX 7 1 6 2 8 3 9 4 10 5 11 6 13 7 12 8 14 9 5 10 4 11 2 12 3 13
REMARK SMILES IDX 1 14
REMARK H PARENT
REMARK Flexibility Score: inf
ROOT
ATOM      1  C   UNL     1      22.039  51.215  53.387  1.00  0.00    -0.074 C 
ATOM      2  C   UNL     1      23.340  51.005  53.087  1.00  0.00     0.013 C 
ATOM      3  C   UNL     1      21.087  51.814  52.380  1.00  0.00     0.039 C 
ENDROOT
BRANCH   1   4
ATOM      4  C   UNL     1      21.529  50.867  54.769  1.00  0.00     0.034 C 
BRANCH   4   5
ATOM      5  C   UNL     1      21.446  52.104  55.674  1.00  0.00     0.032 C 
BRANCH   5   6
ATOM      6  C   UNL     1      20.029  52.414  56.096  1.00  0.00    -0.028 C 
ATOM      7  C   UNL     1      19.874  54.477  54.683  1.00  0.00     0.039 C 
ATOM      8  C   UNL     1      19.301  53.456  55.639  1.00  0.00    -0.080 C 
ATOM      9  C   UNL     1      17.883  53.606  56.124  1.00  0.00     0.039 C 
ENDBRANCH   5   6
ENDBRANCH   4   5
ENDBRANCH   1   4
BRANCH   2  10
ATOM     10  C   UNL     1      23.941  51.331  51.744  1.00  0.00     0.260 C 
BRANCH  10  11
ATOM     11  O   UNL     1      23.694  50.278  50.815  1.00  0.00    -0.462 OA
BRANCH  11  12
ATOM     12  C   UNL     1      23.513  50.491  49.444  1.00  0.00     0.302 C 
ATOM     13  O   UNL     1      24.119  49.782  48.595  1.00  0.00    -0.253 OA
ATOM     14  C   UNL     1      22.630  51.600  48.984  1.00  0.00     0.139 C 
ENDBRANCH  11  12
ENDBRANCH  10  11
ENDBRANCH   2  10
TORSDOF 6
ENDMDL
MODEL 5
REMARK VINA RESULT:    -3.584     11.870     14.145
REMARK INTER + INTRA:          -5.620
REMARK INTER:                  -4.570
REMARK INTRA:                  -1.050
REMARK UNBOUND:                -0.779
REMARK SMILES CC(=O)OCC=C(C)CCC=C(C)C
REMARK SMILES IDX 7 1 6 2 8 3 9 4 10 5 11 6 13 7 12 8 14 9 5 10 4 11 2 12 3 13
REMARK SMILES IDX 1 14
REMARK H PARENT
REMARK Flexibility Score: inf
ROOT
ATOM      1  C   UNL     1      19.197  54.359  39.368  1.00  0.00    -0.074 C 
ATOM      2  C   UNL     1      18.945  53.389  38.461  1.00  0.00     0.013 C 
ATOM      3  C   UNL     1      19.661  55.732  38.944  1.00  0.00     0.039 C 
ENDROOT
BRANCH   1   4
ATOM      4  C   UNL     1      19.038  54.058  40.844  1.00  0.00     0.034 C 
BRANCH   4   5
ATOM      5  C   UNL     1      20.073  53.036  41.332  1.00  0.00     0.032 C 
BRANCH   5   6
ATOM      6  C   UNL     1      21.419  53.667  41.605  1.00  0.00    -0.028 C 
ATOM      7  C   UNL     1      22.520  52.592  39.628  1.00  0.00     0.039 C 
ATOM      8  C   UNL     1      22.516  53.501  40.835  1.00  0.00    -0.080 C 
ATOM      9  C   UNL     1      23.776  54.233  41.217  1.00  0.00     0.039 C 
ENDBRANCH   5   6
ENDBRANCH   4   5
ENDBRANCH   1   4
BRANCH   2  10
ATOM     10  C   UNL     1      19.087  53.591  36.975  1.00  0.00     0.260 C 
BRANCH  10  11
ATOM     11  O   UNL     1      19.418  52.363  36.331  1.00  0.00    -0.462 OA
BRANCH  11  12
ATOM     12  C   UNL     1      20.676  51.758  36.432  1.00  0.00     0.302 C 
ATOM     13  O   UNL     1      20.806  50.626  36.974  1.00  0.00    -0.253 OA
ATOM     14  C   UNL     1      21.880  52.482  35.935  1.00  0.00     0.139 C 
ENDBRANCH  11  12
ENDBRANCH  10  11
ENDBRANCH   2  10
TORSDOF 6
ENDMDL
MODEL 6
REMARK VINA RESULT:    -3.578      2.839      4.942
REMARK INTER + INTRA:          -5.612
REMARK INTER:                  -4.731
REMARK INTRA:                  -0.881
REMARK UNBOUND:                -0.779
REMARK SMILES CC(=O)OCC=C(C)CCC=C(C)C
REMARK SMILES IDX 7 1 6 2 8 3 9 4 10 5 11 6 13 7 12 8 14 9 5 10 4 11 2 12 3 13
REMARK SMILES IDX 1 14
REMARK H PARENT
REMARK Flexibility Score: inf
ROOT
ATOM      1  C   UNL     1      22.031  51.276  53.315  1.00  0.00    -0.074 C 
ATOM      2  C   UNL     1      21.432  51.430  52.114  1.00  0.00     0.013 C 
ATOM      3  C   UNL     1      23.496  50.926  53.425  1.00  0.00     0.039 C 
ENDROOT
BRANCH   1   4
ATOM      4  C   UNL     1      21.213  51.432  54.580  1.00  0.00     0.034 C 
BRANCH   4   5
ATOM      5  C   UNL     1      20.510  52.794  54.640  1.00  0.00     0.032 C 
BRANCH   5   6
ATOM      6  C   UNL     1      21.467  53.923  54.942  1.00  0.00    -0.028 C 
ATOM      7  C   UNL     1      21.189  54.994  52.694  1.00  0.00     0.039 C 
ATOM      8  C   UNL     1      21.759  54.932  54.092  1.00  0.00    -0.080 C 
ATOM      9  C   UNL     1      22.704  56.009  54.558  1.00  0.00     0.039 C 
ENDBRANCH   5   6
ENDBRANCH   4   5
ENDBRANCH   1   4
BRANCH   2  10
ATOM     10  C   UNL     1      22.160  51.282  50.802  1.00  0.00     0.260 C 
BRANCH  10  11
ATOM     11  O   UNL     1      21.367  51.782  49.729  1.00  0.00    -0.462 OA
BRANCH  11  12
ATOM     12  C   UNL     1      21.825  52.739  48.816  1.00  0.00     0.302 C 
ATOM     13  O   UNL     1      21.529  52.657  47.593  1.00  0.00    -0.253 OA
ATOM     14  C   UNL     1      22.713  53.839  49.290  1.00  0.00     0.139 C 
ENDBRANCH  11  12
ENDBRANCH  10  11
ENDBRANCH   2  10
TORSDOF 6
ENDMDL
MODEL 7
REMARK VINA RESULT:    -3.511      1.072      1.770
REMARK INTER + INTRA:          -5.521
REMARK INTER:                  -4.864
REMARK INTRA:                  -0.656
REMARK UNBOUND:                -0.779
REMARK SMILES CC(=O)OCC=C(C)CCC=C(C)C
REMARK SMILES IDX 7 1 6 2 8 3 9 4 10 5 11 6 13 7 12 8 14 9 5 10 4 11 2 12 3 13
REMARK SMILES IDX 1 14
REMARK H PARENT
REMARK Flexibility Score: inf
ROOT
ATOM      1  C   UNL     1      22.363  51.319  53.065  1.00  0.00    -0.074 C 
ATOM      2  C   UNL     1      22.348  51.169  54.408  1.00  0.00     0.013 C 
ATOM      3  C   UNL     1      21.096  51.590  52.290  1.00  0.00     0.039 C 
ENDROOT
BRANCH   1   4
ATOM      4  C   UNL     1      23.671  51.186  52.315  1.00  0.00     0.034 C 
BRANCH   4   5
ATOM      5  C   UNL     1      23.461  51.195  50.795  1.00  0.00     0.032 C 
BRANCH   5   6
ATOM      6  C   UNL     1      23.749  52.545  50.183  1.00  0.00    -0.028 C 
ATOM      7  C   UNL     1      21.599  52.617  48.897  1.00  0.00     0.039 C 
ATOM      8  C   UNL     1      22.912  53.208  49.354  1.00  0.00    -0.080 C 
ATOM      9  C   UNL     1      23.326  54.569  48.860  1.00  0.00     0.039 C 
ENDBRANCH   5   6
ENDBRANCH   4   5
ENDBRANCH   1   4
BRANCH   2  10
ATOM     10  C   UNL     1      21.094  51.272  55.238  1.00  0.00     0.260 C 
BRANCH  10  11
ATOM     11  O   UNL     1      20.779  52.636  55.505  1.00  0.00    -0.462 OA
BRANCH  11  12
ATOM     12  C   UNL     1      19.523  53.198  55.250  1.00  0.00     0.302 C 
ATOM     13  O   UNL     1      18.489  52.748  55.814  1.00  0.00    -0.253 OA
ATOM     14  C   UNL     1      19.403  54.310  54.264  1.00  0.00     0.139 C 
ENDBRANCH  11  12
ENDBRANCH  10  11
ENDBRANCH   2  10
TORSDOF 6
ENDMDL
MODEL 8
REMARK VINA RESULT:    -3.457     10.755     12.783
REMARK INTER + INTRA:          -5.449
REMARK INTER:                  -4.464
REMARK INTRA:                  -0.985
REMARK UNBOUND:                -0.779
REMARK SMILES CC(=O)OCC=C(C)CCC=C(C)C
REMARK SMILES IDX 7 1 6 2 8 3 9 4 10 5 11 6 13 7 12 8 14 9 5 10 4 11 2 12 3 13
REMARK SMILES IDX 1 14
REMARK H PARENT
REMARK Flexibility Score: inf
ROOT
ATOM      1  C   UNL     1      22.333  53.375  40.604  1.00  0.00    -0.074 C 
ATOM      2  C   UNL     1      21.224  52.678  40.937  1.00  0.00     0.013 C 
ATOM      3  C   UNL     1      22.606  54.742  41.183  1.00  0.00     0.039 C 
ENDROOT
BRANCH   1   4
ATOM      4  C   UNL     1      23.312  52.787  39.610  1.00  0.00     0.034 C 
BRANCH   4   5
ATOM      5  C   UNL     1      22.939  53.142  38.164  1.00  0.00     0.032 C 
BRANCH   5   6
ATOM      6  C   UNL     1      22.431  51.947  37.391  1.00  0.00    -0.028 C 
ATOM      7  C   UNL     1      20.049  52.723  37.416  1.00  0.00     0.039 C 
ATOM      8  C   UNL     1      21.144  51.760  37.023  1.00  0.00    -0.080 C 
ATOM      9  C   UNL     1      20.802  50.535  36.216  1.00  0.00     0.039 C 
ENDBRANCH   5   6
ENDBRANCH   4   5
ENDBRANCH   1   4
BRANCH   2  10
ATOM     10  C   UNL     1      20.188  53.186  41.906  1.00  0.00     0.260 C 
BRANCH  10  11
ATOM     11  O   UNL     1      18.971  53.487  41.228  1.00  0.00    -0.462 OA
BRANCH  11  12
ATOM     12  C   UNL     1      18.523  54.792  40.996  1.00  0.00     0.302 C 
ATOM     13  O   UNL     1      17.726  55.352  41.797  1.00  0.00    -0.253 OA
ATOM     14  C   UNL     1      18.958  55.509  39.764  1.00  0.00     0.139 C 
ENDBRANCH  11  12
ENDBRANCH  10  11
ENDBRANCH   2  10
TORSDOF 6
ENDMDL
MODEL 9
REMARK VINA RESULT:    -3.427     11.119     13.398
REMARK INTER + INTRA:          -5.408
REMARK INTER:                  -4.118
REMARK INTRA:                  -1.290
REMARK UNBOUND:                -0.779
REMARK SMILES CC(=O)OCC=C(C)CCC=C(C)C
REMARK SMILES IDX 7 1 6 2 8 3 9 4 10 5 11 6 13 7 12 8 14 9 5 10 4 11 2 12 3 13
REMARK SMILES IDX 1 14
REMARK H PARENT
REMARK Flexibility Score: inf
ROOT
ATOM      1  C   UNL     1      19.225  54.305  38.075  1.00  0.00    -0.074 C 
ATOM      2  C   UNL     1      18.832  53.883  39.297  1.00  0.00     0.013 C 
ATOM      3  C   UNL     1      19.642  55.735  37.832  1.00  0.00     0.039 C 
ENDROOT
BRANCH   1   4
ATOM      4  C   UNL     1      19.225  53.330  36.915  1.00  0.00     0.034 C 
BRANCH   4   5
ATOM      5  C   UNL     1      20.640  53.093  36.370  1.00  0.00     0.032 C 
BRANCH   5   6
ATOM      6  C   UNL     1      21.513  52.339  37.346  1.00  0.00    -0.028 C 
ATOM      7  C   UNL     1      23.069  54.267  37.713  1.00  0.00     0.039 C 
ATOM      8  C   UNL     1      22.587  52.861  37.978  1.00  0.00    -0.080 C 
ATOM      9  C   UNL     1      23.332  51.992  38.957  1.00  0.00     0.039 C 
ENDBRANCH   5   6
ENDBRANCH   4   5
ENDBRANCH   1   4
BRANCH   2  10
ATOM     10  C   UNL     1      18.787  54.782  40.506  1.00  0.00     0.260 C 
BRANCH  10  11
ATOM     11  O   UNL     1      19.482  54.187  41.599  1.00  0.00    -0.462 OA
BRANCH  11  12
ATOM     12  C   UNL     1      20.792  53.703  41.504  1.00  0.00     0.302 C 
ATOM     13  O   UNL     1      21.036  52.472  41.631  1.00  0.00    -0.253 OA
ATOM     14  C   UNL     1      21.915  54.661  41.297  1.00  0.00     0.139 C 
ENDBRANCH  11  12
ENDBRANCH  10  11
ENDBRANCH   2  10
TORSDOF 6
ENDMDL
