MODEL 1
REMARK VINA RESULT:    -3.550      0.000      0.000
REMARK INTER + INTRA:          -8.430
REMARK INTER:                  -6.455
REMARK INTRA:                  -1.975
REMARK UNBOUND:                -1.975
REMARK SMILES CCCCCCCCCCCCCC[C@@H](C)C(=O)[O-]
REMARK SMILES IDX 9 1 10 2 11 3 12 4 13 5 14 6 15 7 16 8 17 9 18 10 19 11 8 12
REMARK SMILES IDX 7 13 6 14 5 15 4 16 3 17 2 18 1 19
REMARK H PARENT
REMARK Flexibility Score: inf
ROOT
ATOM      1  C   UNL     1     -93.701 145.560 242.896  1.00  0.00     0.000 C 
ENDROOT
BRANCH   1   2
ATOM      2  C   UNL     1     -95.104 144.950 243.098  1.00  0.00     0.000 C 
BRANCH   2   3
ATOM      3  C   UNL     1     -96.262 145.964 243.134  1.00  0.00     0.000 C 
BRANCH   3   4
ATOM      4  C   UNL     1     -96.771 146.340 241.731  1.00  0.00     0.000 C 
BRANCH   4   5
ATOM      5  C   UNL     1     -96.729 147.856 241.476  1.00  0.00     0.001 C 
BRANCH   5   6
ATOM      6  C   UNL     1     -96.296 148.655 242.720  1.00  0.00     0.009 C 
BRANCH   6   7
ATOM      7  C   UNL     1     -97.423 149.570 243.241  1.00  0.00     0.032 C 
ATOM      8  C   UNL     1     -98.450 149.847 242.138  1.00  0.00     0.014 C 
BRANCH   7   9
ATOM      9  C   UNL     1     -98.110 148.974 244.442  1.00  0.00     0.044 C 
ATOM     10  O   UNL     1     -99.365 148.867 244.473  1.00  0.00    -0.550 OA
ATOM     11  O   UNL     1     -97.359 148.539 245.526  1.00  0.00    -0.550 OA
ENDBRANCH   7   9
ENDBRANCH   6   7
ENDBRANCH   5   6
ENDBRANCH   4   5
ENDBRANCH   3   4
ENDBRANCH   2   3
ENDBRANCH   1   2
BRANCH   1  12
ATOM     12  C   UNL     1     -92.876 144.942 241.753  1.00  0.00     0.000 C 
BRANCH  12  13
ATOM     13  C   UNL     1     -92.447 145.931 240.654  1.00  0.00    -0.000 C 
BRANCH  13  14
ATOM     14  C   UNL     1     -93.243 147.255 240.665  1.00  0.00    -0.000 C 
BRANCH  14  15
ATOM     15  C   UNL     1     -93.949 147.529 239.330  1.00  0.00    -0.000 C 
BRANCH  15  16
ATOM     16  C   UNL     1     -93.961 146.273 238.446  1.00  0.00    -0.000 C 
BRANCH  16  17
ATOM     17  C   UNL     1     -93.792 146.599 236.953  1.00  0.00    -0.000 C 
BRANCH  17  18
ATOM     18  C   UNL     1     -92.753 145.701 236.265  1.00  0.00    -0.003 C 
ATOM     19  C   UNL     1     -91.978 144.875 237.287  1.00  0.00     0.004 C 
ENDBRANCH  17  18
ENDBRANCH  16  17
ENDBRANCH  15  16
ENDBRANCH  14  15
ENDBRANCH  13  14
ENDBRANCH  12  13
ENDBRANCH   1  12
TORSDOF 14
ENDMDL
MODEL 2
REMARK VINA RESULT:    -3.542      1.381      2.965
REMARK INTER + INTRA:          -8.416
REMARK INTER:                  -6.143
REMARK INTRA:                  -2.273
REMARK UNBOUND:                -1.975
REMARK SMILES CCCCCCCCCCCCCC[C@@H](C)C(=O)[O-]
REMARK SMILES IDX 9 1 10 2 11 3 12 4 13 5 14 6 15 7 16 8 17 9 18 10 19 11 8 12
REMARK SMILES IDX 7 13 6 14 5 15 4 16 3 17 2 18 1 19
REMARK H PARENT
REMARK Flexibility Score: inf
ROOT
ATOM      1  C   UNL     1     -92.458 145.737 240.516  1.00  0.00     0.000 C 
ENDROOT
BRANCH   1   2
ATOM      2  C   UNL     1     -92.925 147.159 240.892  1.00  0.00     0.000 C 
BRANCH   2   3
ATOM      3  C   UNL     1     -93.725 147.263 242.203  1.00  0.00     0.000 C 
BRANCH   3   4
ATOM      4  C   UNL     1     -94.991 146.388 242.203  1.00  0.00     0.000 C 
BRANCH   4   5
ATOM      5  C   UNL     1     -96.245 147.167 242.631  1.00  0.00     0.001 C 
BRANCH   5   6
ATOM      6  C   UNL     1     -95.954 148.655 242.908  1.00  0.00     0.009 C 
BRANCH   6   7
ATOM      7  C   UNL     1     -97.233 149.439 243.267  1.00  0.00     0.032 C 
ATOM      8  C   UNL     1     -98.165 149.540 242.054  1.00  0.00     0.014 C 
BRANCH   7   9
ATOM      9  C   UNL     1     -97.965 148.807 244.422  1.00  0.00     0.044 C 
ATOM     10  O   UNL     1     -97.424 148.731 245.557  1.00  0.00    -0.550 OA
ATOM     11  O   UNL     1     -99.245 148.301 244.238  1.00  0.00    -0.550 OA
ENDBRANCH   7   9
ENDBRANCH   6   7
ENDBRANCH   5   6
ENDBRANCH   4   5
ENDBRANCH   3   4
ENDBRANCH   2   3
ENDBRANCH   1   2
BRANCH   1  12
ATOM     12  C   UNL     1     -92.736 145.320 239.060  1.00  0.00     0.000 C 
BRANCH  12  13
ATOM     13  C   UNL     1     -94.220 145.091 238.722  1.00  0.00    -0.000 C 
BRANCH  13  14
ATOM     14  C   UNL     1     -94.624 145.601 237.321  1.00  0.00    -0.000 C 
BRANCH  14  15
ATOM     15  C   UNL     1     -93.870 146.875 236.918  1.00  0.00    -0.000 C 
BRANCH  15  16
ATOM     16  C   UNL     1     -94.802 148.097 236.944  1.00  0.00    -0.000 C 
BRANCH  16  17
ATOM     17  C   UNL     1     -94.818 148.799 238.312  1.00  0.00    -0.000 C 
BRANCH  17  18
ATOM     18  C   UNL     1     -96.017 148.380 239.177  1.00  0.00    -0.003 C 
ATOM     19  C   UNL     1     -97.322 148.486 238.395  1.00  0.00     0.004 C 
ENDBRANCH  17  18
ENDBRANCH  16  17
ENDBRANCH  15  16
ENDBRANCH  14  15
ENDBRANCH  13  14
ENDBRANCH  12  13
ENDBRANCH   1  12
TORSDOF 14
ENDMDL
MODEL 3
REMARK VINA RESULT:    -3.487      3.028      6.230
REMARK INTER + INTRA:          -8.315
REMARK INTER:                  -6.369
REMARK INTRA:                  -1.946
REMARK UNBOUND:                -1.975
REMARK SMILES CCCCCCCCCCCCCC[C@@H](C)C(=O)[O-]
REMARK SMILES IDX 9 1 10 2 11 3 12 4 13 5 14 6 15 7 16 8 17 9 18 10 19 11 8 12
REMARK SMILES IDX 7 13 6 14 5 15 4 16 3 17 2 18 1 19
REMARK H PARENT
REMARK Flexibility Score: inf
ROOT
ATOM      1  C   UNL     1     -93.827 145.806 242.763  1.00  0.00     0.000 C 
ENDROOT
BRANCH   1   2
ATOM      2  C   UNL     1     -92.935 145.098 241.722  1.00  0.00     0.000 C 
BRANCH   2   3
ATOM      3  C   UNL     1     -92.573 145.940 240.485  1.00  0.00     0.000 C 
BRANCH   3   4
ATOM      4  C   UNL     1     -93.414 147.225 240.370  1.00  0.00     0.000 C 
BRANCH   4   5
ATOM      5  C   UNL     1     -94.283 147.248 239.102  1.00  0.00     0.001 C 
BRANCH   5   6
ATOM      6  C   UNL     1     -95.006 148.594 238.903  1.00  0.00     0.009 C 
BRANCH   6   7
ATOM      7  C   UNL     1     -94.699 149.219 237.527  1.00  0.00     0.032 C 
ATOM      8  C   UNL     1     -94.636 148.138 236.442  1.00  0.00     0.014 C 
BRANCH   7   9
ATOM      9  C   UNL     1     -95.719 150.261 237.151  1.00  0.00     0.044 C 
ATOM     10  O   UNL     1     -96.888 150.211 237.621  1.00  0.00    -0.550 OA
ATOM     11  O   UNL     1     -95.375 151.286 236.280  1.00  0.00    -0.550 OA
ENDBRANCH   7   9
ENDBRANCH   6   7
ENDBRANCH   5   6
ENDBRANCH   4   5
ENDBRANCH   3   4
ENDBRANCH   2   3
ENDBRANCH   1   2
BRANCH   1  12
ATOM     12  C   UNL     1     -95.117 145.054 243.138  1.00  0.00     0.000 C 
BRANCH  12  13
ATOM     13  C   UNL     1     -96.376 145.935 243.235  1.00  0.00    -0.000 C 
BRANCH  13  14
ATOM     14  C   UNL     1     -97.058 146.197 241.875  1.00  0.00    -0.000 C 
BRANCH  14  15
ATOM     15  C   UNL     1     -97.183 147.694 241.556  1.00  0.00    -0.000 C 
BRANCH  15  16
ATOM     16  C   UNL     1     -96.315 148.532 242.507  1.00  0.00    -0.000 C 
BRANCH  16  17
ATOM     17  C   UNL     1     -97.114 149.635 243.219  1.00  0.00    -0.000 C 
BRANCH  17  18
ATOM     18  C   UNL     1     -98.209 149.073 244.138  1.00  0.00    -0.003 C 
ATOM     19  C   UNL     1     -97.639 148.689 245.501  1.00  0.00     0.004 C 
ENDBRANCH  17  18
ENDBRANCH  16  17
ENDBRANCH  15  16
ENDBRANCH  14  15
ENDBRANCH  13  14
ENDBRANCH  12  13
ENDBRANCH   1  12
TORSDOF 14
ENDMDL
MODEL 4
REMARK VINA RESULT:    -3.485      3.935      6.259
REMARK INTER + INTRA:          -8.312
REMARK INTER:                  -6.380
REMARK INTRA:                  -1.933
REMARK UNBOUND:                -1.975
REMARK SMILES CCCCCCCCCCCCCC[C@@H](C)C(=O)[O-]
REMARK SMILES IDX 9 1 10 2 11 3 12 4 13 5 14 6 15 7 16 8 17 9 18 10 19 11 8 12
REMARK SMILES IDX 7 13 6 14 5 15 4 16 3 17 2 18 1 19
REMARK H PARENT
REMARK Flexibility Score: inf
ROOT
ATOM      1  C   UNL     1     -93.471 145.887 238.604  1.00  0.00     0.000 C 
ENDROOT
BRANCH   1   2
ATOM      2  C   UNL     1     -94.285 147.114 238.143  1.00  0.00     0.000 C 
BRANCH   2   3
ATOM      3  C   UNL     1     -95.732 147.176 238.665  1.00  0.00     0.000 C 
BRANCH   3   4
ATOM      4  C   UNL     1     -96.154 148.595 239.087  1.00  0.00     0.000 C 
BRANCH   4   5
ATOM      5  C   UNL     1     -97.399 149.089 238.331  1.00  0.00     0.001 C 
BRANCH   5   6
ATOM      6  C   UNL     1     -97.050 149.756 236.987  1.00  0.00     0.009 C 
BRANCH   6   7
ATOM      7  C   UNL     1     -95.901 150.776 237.127  1.00  0.00     0.032 C 
ATOM      8  C   UNL     1     -94.686 150.339 236.302  1.00  0.00     0.014 C 
BRANCH   7   9
ATOM      9  C   UNL     1     -96.333 152.158 236.710  1.00  0.00     0.044 C 
ATOM     10  O   UNL     1     -96.838 152.354 235.572  1.00  0.00    -0.550 OA
ATOM     11  O   UNL     1     -96.173 153.227 237.582  1.00  0.00    -0.550 OA
ENDBRANCH   7   9
ENDBRANCH   6   7
ENDBRANCH   5   6
ENDBRANCH   4   5
ENDBRANCH   3   4
ENDBRANCH   2   3
ENDBRANCH   1   2
BRANCH   1  12
ATOM     12  C   UNL     1     -93.418 145.671 240.128  1.00  0.00     0.000 C 
BRANCH  12  13
ATOM     13  C   UNL     1     -92.791 146.829 240.925  1.00  0.00    -0.000 C 
BRANCH  13  14
ATOM     14  C   UNL     1     -93.703 147.379 242.044  1.00  0.00    -0.000 C 
BRANCH  14  15
ATOM     15  C   UNL     1     -94.834 146.408 242.412  1.00  0.00    -0.000 C 
BRANCH  15  16
ATOM     16  C   UNL     1     -96.166 147.154 242.585  1.00  0.00    -0.000 C 
BRANCH  16  17
ATOM     17  C   UNL     1     -95.977 148.671 242.745  1.00  0.00    -0.000 C 
BRANCH  17  18
ATOM     18  C   UNL     1     -97.231 149.369 243.294  1.00  0.00    -0.003 C 
ATOM     19  C   UNL     1     -97.596 148.834 244.676  1.00  0.00     0.004 C 
ENDBRANCH  17  18
ENDBRANCH  16  17
ENDBRANCH  15  16
ENDBRANCH  14  15
ENDBRANCH  13  14
ENDBRANCH  12  13
ENDBRANCH   1  12
TORSDOF 14
ENDMDL
MODEL 5
REMARK VINA RESULT:    -3.475      4.131      5.277
REMARK INTER + INTRA:          -8.294
REMARK INTER:                  -6.532
REMARK INTRA:                  -1.762
REMARK UNBOUND:                -1.975
REMARK SMILES CCCCCCCCCCCCCC[C@@H](C)C(=O)[O-]
REMARK SMILES IDX 9 1 10 2 11 3 12 4 13 5 14 6 15 7 16 8 17 9 18 10 19 11 8 12
REMARK SMILES IDX 7 13 6 14 5 15 4 16 3 17 2 18 1 19
REMARK H PARENT
REMARK Flexibility Score: inf
ROOT
ATOM      1  C   UNL     1     -94.124 147.245 241.707  1.00  0.00     0.000 C 
ENDROOT
BRANCH   1   2
ATOM      2  C   UNL     1     -95.088 147.910 240.703  1.00  0.00     0.000 C 
BRANCH   2   3
ATOM      3  C   UNL     1     -94.439 148.402 239.396  1.00  0.00     0.000 C 
BRANCH   3   4
ATOM      4  C   UNL     1     -95.407 148.369 238.199  1.00  0.00     0.000 C 
BRANCH   4   5
ATOM      5  C   UNL     1     -94.826 149.056 236.953  1.00  0.00     0.001 C 
BRANCH   5   6
ATOM      6  C   UNL     1     -94.856 150.593 237.054  1.00  0.00     0.009 C 
BRANCH   6   7
ATOM      7  C   UNL     1     -96.295 151.148 237.024  1.00  0.00     0.032 C 
ATOM      8  C   UNL     1     -96.288 152.676 237.150  1.00  0.00     0.014 C 
BRANCH   7   9
ATOM      9  C   UNL     1     -97.019 150.741 235.768  1.00  0.00     0.044 C 
ATOM     10  O   UNL     1     -98.134 150.158 235.833  1.00  0.00    -0.550 OA
ATOM     11  O   UNL     1     -96.458 151.009 234.527  1.00  0.00    -0.550 OA
ENDBRANCH   7   9
ENDBRANCH   6   7
ENDBRANCH   5   6
ENDBRANCH   4   5
ENDBRANCH   3   4
ENDBRANCH   2   3
ENDBRANCH   1   2
BRANCH   1  12
ATOM     12  C   UNL     1     -92.711 146.959 241.167  1.00  0.00     0.000 C 
BRANCH  12  13
ATOM     13  C   UNL     1     -92.433 145.484 240.826  1.00  0.00    -0.000 C 
BRANCH  13  14
ATOM     14  C   UNL     1     -92.220 145.224 239.318  1.00  0.00    -0.000 C 
BRANCH  14  15
ATOM     15  C   UNL     1     -93.543 145.110 238.548  1.00  0.00    -0.000 C 
BRANCH  15  16
ATOM     16  C   UNL     1     -93.335 145.394 237.052  1.00  0.00    -0.000 C 
BRANCH  16  17
ATOM     17  C   UNL     1     -91.873 145.213 236.614  1.00  0.00    -0.000 C 
BRANCH  17  18
ATOM     18  C   UNL     1     -91.455 146.210 235.523  1.00  0.00    -0.003 C 
ATOM     19  C   UNL     1     -92.670 146.914 234.927  1.00  0.00     0.004 C 
ENDBRANCH  17  18
ENDBRANCH  16  17
ENDBRANCH  15  16
ENDBRANCH  14  15
ENDBRANCH  13  14
ENDBRANCH  12  13
ENDBRANCH   1  12
TORSDOF 14
ENDMDL
MODEL 6
REMARK VINA RESULT:    -3.460      3.084      4.830
REMARK INTER + INTRA:          -8.268
REMARK INTER:                  -6.559
REMARK INTRA:                  -1.709
REMARK UNBOUND:                -1.975
REMARK SMILES CCCCCCCCCCCCCC[C@@H](C)C(=O)[O-]
REMARK SMILES IDX 9 1 10 2 11 3 12 4 13 5 14 6 15 7 16 8 17 9 18 10 19 11 8 12
REMARK SMILES IDX 7 13 6 14 5 15 4 16 3 17 2 18 1 19
REMARK H PARENT
REMARK Flexibility Score: inf
ROOT
ATOM      1  C   UNL     1     -94.430 146.693 238.844  1.00  0.00     0.000 C 
ENDROOT
BRANCH   1   2
ATOM      2  C   UNL     1     -93.651 146.056 240.013  1.00  0.00     0.000 C 
BRANCH   2   3
ATOM      3  C   UNL     1     -92.933 147.049 240.945  1.00  0.00     0.000 C 
BRANCH   3   4
ATOM      4  C   UNL     1     -93.680 147.270 242.272  1.00  0.00     0.000 C 
BRANCH   4   5
ATOM      5  C   UNL     1     -94.637 146.114 242.609  1.00  0.00     0.001 C 
BRANCH   5   6
ATOM      6  C   UNL     1     -96.037 146.605 243.025  1.00  0.00     0.009 C 
BRANCH   6   7
ATOM      7  C   UNL     1     -96.407 147.942 242.349  1.00  0.00     0.032 C 
ATOM      8  C   UNL     1     -97.302 147.701 241.128  1.00  0.00     0.014 C 
BRANCH   7   9
ATOM      9  C   UNL     1     -97.092 148.878 243.309  1.00  0.00     0.044 C 
ATOM     10  O   UNL     1     -97.053 148.663 244.550  1.00  0.00    -0.550 OA
ATOM     11  O   UNL     1     -97.775 149.987 242.828  1.00  0.00    -0.550 OA
ENDBRANCH   7   9
ENDBRANCH   6   7
ENDBRANCH   5   6
ENDBRANCH   4   5
ENDBRANCH   3   4
ENDBRANCH   2   3
ENDBRANCH   1   2
BRANCH   1  12
ATOM     12  C   UNL     1     -94.436 148.233 238.824  1.00  0.00     0.000 C 
BRANCH  12  13
ATOM     13  C   UNL     1     -95.202 148.863 237.646  1.00  0.00    -0.000 C 
BRANCH  13  14
ATOM     14  C   UNL     1     -94.854 150.347 237.401  1.00  0.00    -0.000 C 
BRANCH  14  15
ATOM     15  C   UNL     1     -95.102 150.779 235.949  1.00  0.00    -0.000 C 
BRANCH  15  16
ATOM     16  C   UNL     1     -96.276 151.767 235.862  1.00  0.00    -0.000 C 
BRANCH  16  17
ATOM     17  C   UNL     1     -96.300 152.761 237.035  1.00  0.00    -0.000 C 
BRANCH  17  18
ATOM     18  C   UNL     1     -97.679 152.849 237.707  1.00  0.00    -0.003 C 
ATOM     19  C   UNL     1     -98.409 151.511 237.641  1.00  0.00     0.004 C 
ENDBRANCH  17  18
ENDBRANCH  16  17
ENDBRANCH  15  16
ENDBRANCH  14  15
ENDBRANCH  13  14
ENDBRANCH  12  13
ENDBRANCH   1  12
TORSDOF 14
ENDMDL
MODEL 7
REMARK VINA RESULT:    -3.447      4.082      5.345
REMARK INTER + INTRA:          -8.242
REMARK INTER:                  -6.410
REMARK INTRA:                  -1.833
REMARK UNBOUND:                -1.975
REMARK SMILES CCCCCCCCCCCCCC[C@@H](C)C(=O)[O-]
REMARK SMILES IDX 9 1 10 2 11 3 12 4 13 5 14 6 15 7 16 8 17 9 18 10 19 11 8 12
REMARK SMILES IDX 7 13 6 14 5 15 4 16 3 17 2 18 1 19
REMARK H PARENT
REMARK Flexibility Score: inf
ROOT
ATOM      1  C   UNL     1     -95.460 148.103 241.050  1.00  0.00     0.000 C 
ENDROOT
BRANCH   1   2
ATOM      2  C   UNL     1     -96.397 147.512 239.976  1.00  0.00     0.000 C 
BRANCH   2   3
ATOM      3  C   UNL     1     -95.919 147.679 238.522  1.00  0.00     0.000 C 
BRANCH   3   4
ATOM      4  C   UNL     1     -94.841 148.768 238.369  1.00  0.00     0.000 C 
BRANCH   4   5
ATOM      5  C   UNL     1     -94.801 149.361 236.951  1.00  0.00     0.001 C 
BRANCH   5   6
ATOM      6  C   UNL     1     -94.946 150.895 236.946  1.00  0.00     0.009 C 
BRANCH   6   7
ATOM      7  C   UNL     1     -96.109 151.364 236.047  1.00  0.00     0.032 C 
ATOM      8  C   UNL     1     -97.193 150.285 235.958  1.00  0.00     0.014 C 
BRANCH   7   9
ATOM      9  C   UNL     1     -96.710 152.652 236.546  1.00  0.00     0.044 C 
ATOM     10  O   UNL     1     -96.190 153.268 237.515  1.00  0.00    -0.550 OA
ATOM     11  O   UNL     1     -97.846 153.169 235.937  1.00  0.00    -0.550 OA
ENDBRANCH   7   9
ENDBRANCH   6   7
ENDBRANCH   5   6
ENDBRANCH   4   5
ENDBRANCH   3   4
ENDBRANCH   2   3
ENDBRANCH   1   2
BRANCH   1  12
ATOM     12  C   UNL     1     -95.166 147.176 242.244  1.00  0.00     0.000 C 
BRANCH  12  13
ATOM     13  C   UNL     1     -93.728 146.628 242.300  1.00  0.00    -0.000 C 
BRANCH  13  14
ATOM     14  C   UNL     1     -92.901 146.920 241.029  1.00  0.00    -0.000 C 
BRANCH  14  15
ATOM     15  C   UNL     1     -92.427 145.639 240.327  1.00  0.00    -0.000 C 
BRANCH  15  16
ATOM     16  C   UNL     1     -93.286 145.341 239.089  1.00  0.00    -0.000 C 
BRANCH  16  17
ATOM     17  C   UNL     1     -92.449 145.214 237.806  1.00  0.00    -0.000 C 
BRANCH  17  18
ATOM     18  C   UNL     1     -93.048 145.998 236.628  1.00  0.00    -0.003 C 
ATOM     19  C   UNL     1     -91.971 146.377 235.616  1.00  0.00     0.004 C 
ENDBRANCH  17  18
ENDBRANCH  16  17
ENDBRANCH  15  16
ENDBRANCH  14  15
ENDBRANCH  13  14
ENDBRANCH  12  13
ENDBRANCH   1  12
TORSDOF 14
ENDMDL
MODEL 8
REMARK VINA RESULT:    -3.416      1.753      3.850
REMARK INTER + INTRA:          -8.187
REMARK INTER:                  -5.779
REMARK INTRA:                  -2.408
REMARK UNBOUND:                -1.975
REMARK SMILES CCCCCCCCCCCCCC[C@@H](C)C(=O)[O-]
REMARK SMILES IDX 9 1 10 2 11 3 12 4 13 5 14 6 15 7 16 8 17 9 18 10 19 11 8 12
REMARK SMILES IDX 7 13 6 14 5 15 4 16 3 17 2 18 1 19
REMARK H PARENT
REMARK Flexibility Score: inf
ROOT
ATOM      1  C   UNL     1     -93.296 147.099 241.304  1.00  0.00     0.000 C 
ENDROOT
BRANCH   1   2
ATOM      2  C   UNL     1     -94.174 146.414 242.372  1.00  0.00     0.000 C 
BRANCH   2   3
ATOM      3  C   UNL     1     -95.539 147.078 242.625  1.00  0.00     0.000 C 
BRANCH   3   4
ATOM      4  C   UNL     1     -95.512 148.602 242.413  1.00  0.00     0.000 C 
BRANCH   4   5
ATOM      5  C   UNL     1     -96.410 149.352 243.410  1.00  0.00     0.001 C 
BRANCH   5   6
ATOM      6  C   UNL     1     -97.291 148.404 244.245  1.00  0.00     0.009 C 
BRANCH   6   7
ATOM      7  C   UNL     1     -98.652 149.037 244.599  1.00  0.00     0.032 C 
ATOM      8  C   UNL     1     -99.803 148.110 244.192  1.00  0.00     0.014 C 
BRANCH   7   9
ATOM      9  C   UNL     1     -98.749 149.359 246.067  1.00  0.00     0.044 C 
ATOM     10  O   UNL     1     -97.708 149.569 246.746  1.00  0.00    -0.550 OA
ATOM     11  O   UNL     1     -99.992 149.425 246.682  1.00  0.00    -0.550 OA
ENDBRANCH   7   9
ENDBRANCH   6   7
ENDBRANCH   5   6
ENDBRANCH   4   5
ENDBRANCH   3   4
ENDBRANCH   2   3
ENDBRANCH   1   2
BRANCH   1  12
ATOM     12  C   UNL     1     -93.244 146.384 239.942  1.00  0.00     0.000 C 
BRANCH  12  13
ATOM     13  C   UNL     1     -94.343 146.801 238.948  1.00  0.00    -0.000 C 
BRANCH  13  14
ATOM     14  C   UNL     1     -94.648 148.315 238.956  1.00  0.00    -0.000 C 
BRANCH  14  15
ATOM     15  C   UNL     1     -96.119 148.621 238.645  1.00  0.00    -0.000 C 
BRANCH  15  16
ATOM     16  C   UNL     1     -97.041 147.533 239.217  1.00  0.00    -0.000 C 
BRANCH  16  17
ATOM     17  C   UNL     1     -98.163 148.110 240.095  1.00  0.00    -0.000 C 
BRANCH  17  18
ATOM     18  C   UNL     1     -98.415 149.602 239.828  1.00  0.00    -0.003 C 
ATOM     19  C   UNL     1     -99.018 150.284 241.052  1.00  0.00     0.004 C 
ENDBRANCH  17  18
ENDBRANCH  16  17
ENDBRANCH  15  16
ENDBRANCH  14  15
ENDBRANCH  13  14
ENDBRANCH  12  13
ENDBRANCH   1  12
TORSDOF 14
ENDMDL
MODEL 9
REMARK VINA RESULT:    -3.407      3.583      6.735
REMARK INTER + INTRA:          -8.171
REMARK INTER:                  -6.247
REMARK INTRA:                  -1.923
REMARK UNBOUND:                -1.975
REMARK SMILES CCCCCCCCCCCCCC[C@@H](C)C(=O)[O-]
REMARK SMILES IDX 9 1 10 2 11 3 12 4 13 5 14 6 15 7 16 8 17 9 18 10 19 11 8 12
REMARK SMILES IDX 7 13 6 14 5 15 4 16 3 17 2 18 1 19
REMARK H PARENT
REMARK Flexibility Score: inf
ROOT
ATOM      1  C   UNL     1     -93.708 145.910 242.754  1.00  0.00     0.000 C 
ENDROOT
BRANCH   1   2
ATOM      2  C   UNL     1     -93.057 144.875 241.813  1.00  0.00     0.000 C 
BRANCH   2   3
ATOM      3  C   UNL     1     -92.094 145.456 240.762  1.00  0.00     0.000 C 
BRANCH   3   4
ATOM      4  C   UNL     1     -92.715 145.524 239.355  1.00  0.00     0.000 C 
BRANCH   4   5
ATOM      5  C   UNL     1     -93.648 146.734 239.181  1.00  0.00     0.001 C 
BRANCH   5   6
ATOM      6  C   UNL     1     -94.932 146.386 238.405  1.00  0.00     0.009 C 
BRANCH   6   7
ATOM      7  C   UNL     1     -95.330 147.500 237.414  1.00  0.00     0.032 C 
ATOM      8  C   UNL     1     -94.838 148.865 237.907  1.00  0.00     0.014 C 
BRANCH   7   9
ATOM      9  C   UNL     1     -94.792 147.231 236.033  1.00  0.00     0.044 C 
ATOM     10  O   UNL     1     -95.541 146.762 235.134  1.00  0.00    -0.550 OA
ATOM     11  O   UNL     1     -93.460 147.499 235.743  1.00  0.00    -0.550 OA
ENDBRANCH   7   9
ENDBRANCH   6   7
ENDBRANCH   5   6
ENDBRANCH   4   5
ENDBRANCH   3   4
ENDBRANCH   2   3
ENDBRANCH   1   2
BRANCH   1  12
ATOM     12  C   UNL     1     -95.238 145.802 242.889  1.00  0.00     0.000 C 
BRANCH  12  13
ATOM     13  C   UNL     1     -96.038 146.720 241.947  1.00  0.00    -0.000 C 
BRANCH  13  14
ATOM     14  C   UNL     1     -95.516 148.173 241.902  1.00  0.00    -0.000 C 
BRANCH  14  15
ATOM     15  C   UNL     1     -95.974 149.001 243.111  1.00  0.00    -0.000 C 
BRANCH  15  16
ATOM     16  C   UNL     1     -97.470 149.334 243.014  1.00  0.00    -0.000 C 
BRANCH  16  17
ATOM     17  C   UNL     1     -98.221 149.072 244.330  1.00  0.00    -0.000 C 
BRANCH  17  18
ATOM     18  C   UNL     1     -97.394 148.248 245.328  1.00  0.00    -0.003 C 
ATOM     19  C   UNL     1     -97.962 146.840 245.482  1.00  0.00     0.004 C 
ENDBRANCH  17  18
ENDBRANCH  16  17
ENDBRANCH  15  16
ENDBRANCH  14  15
ENDBRANCH  13  14
ENDBRANCH  12  13
ENDBRANCH   1  12
TORSDOF 14
ENDMDL
