MODEL 1
REMARK VINA RESULT:    -9.030      0.000      0.000
REMARK INTER + INTRA:         -14.877
REMARK INTER:                 -13.517
REMARK INTRA:                  -1.360
REMARK UNBOUND:                -1.360
REMARK SMILES C=C(CC[C@H](C(=O)[O-])[C@H]1[C@@H](O)C[C@]2(C)C3=C(CC[C@@]12C)[C@]1(C)CC[C@@H](OC(C)=O)C(C)(C)[C@@H]1CC3)C(C)C
REMARK SMILES IDX 4 1 5 2 6 3 7 4 8 5 9 6 10 7 19 8 12 9 13 10 18 11 20 12
REMARK SMILES IDX 14 13 15 14 17 15 16 16 35 17 21 18 34 19 33 20 23 21 22 22
REMARK SMILES IDX 30 23 24 24 25 25 31 26 32 27 11 28 26 30 27 31 29 32 28 33
REMARK SMILES IDX 3 34 2 35 1 36 36 37 37 38 38 39
REMARK H PARENT 11 29
REMARK Flexibility Score: inf
ROOT
ATOM      1  C   UNL     1      11.177  -8.187  61.157  1.00  0.00     0.014 C 
ENDROOT
BRANCH   1   2
ATOM      2  C   UNL     1      12.287  -7.466  60.329  1.00  0.00     0.042 C 
BRANCH   2   3
ATOM      3  C   UNL     1      11.723  -7.125  58.967  1.00  0.00     0.045 C 
ATOM      4  O   UNL     1      12.008  -6.030  58.418  1.00  0.00    -0.550 OA
ATOM      5  O   UNL     1      10.923  -8.039  58.288  1.00  0.00    -0.550 OA
ENDBRANCH   2   3
BRANCH   2   6
ATOM      6  C   UNL     1      13.587  -8.348  60.147  1.00  0.00     0.033 C 
ATOM      7  C   UNL     1      14.895  -7.584  59.723  1.00  0.00     0.119 C 
ATOM      8  C   UNL     1      14.088  -9.304  61.306  1.00  0.00    -0.017 C 
ATOM      9  C   UNL     1      16.017  -7.980  60.706  1.00  0.00     0.043 C 
ATOM     10  C   UNL     1      15.306  -8.568  61.939  1.00  0.00    -0.003 C 
ATOM     11  C   UNL     1      13.148  -9.689  62.464  1.00  0.00     0.012 C 
ATOM     12  C   UNL     1      14.507 -10.644  60.591  1.00  0.00     0.013 C 
ATOM     13  C   UNL     1      14.939  -7.394  62.901  1.00  0.00     0.017 C 
ATOM     14  C   UNL     1      16.108  -9.552  62.789  1.00  0.00    -0.064 C 
ATOM     15  C   UNL     1      13.892 -10.461  63.598  1.00  0.00     0.032 C 
ATOM     16  C   UNL     1      15.448 -10.436  63.600  1.00  0.00    -0.064 C 
ATOM     17  C   UNL     1      17.605  -9.485  62.751  1.00  0.00     0.032 C 
ATOM     18  C   UNL     1      16.204 -11.391  64.583  1.00  0.00    -0.008 C 
ATOM     19  C   UNL     1      18.218  -9.887  64.076  1.00  0.00     0.009 C 
ATOM     20  C   UNL     1      17.795 -11.330  64.446  1.00  0.00     0.009 C 
ATOM     21  C   UNL     1      15.776 -10.972  66.017  1.00  0.00     0.015 C 
ATOM     22  C   UNL     1      15.711 -12.831  64.261  1.00  0.00     0.016 C 
ATOM     23  C   UNL     1      18.637 -11.911  65.684  1.00  0.00     0.005 C 
ATOM     24  C   UNL     1      16.528 -11.690  67.128  1.00  0.00     0.047 C 
ATOM     25  C   UNL     1      18.032 -11.424  67.036  1.00  0.00     0.182 C 
ATOM     26  C   UNL     1      20.124 -11.442  65.623  1.00  0.00     0.015 C 
ATOM     27  C   UNL     1      18.709 -13.473  65.656  1.00  0.00     0.015 C 
BRANCH   7  28
ATOM     28  O   UNL     1      14.759  -6.185  59.642  1.00  0.00    -0.393 OA
ATOM     29  H   UNL     1      15.407  -5.836  58.980  1.00  0.00     0.210 HD
ENDBRANCH   7  28
BRANCH  25  30
ATOM     30  O   UNL     1      18.668 -12.071  68.143  1.00  0.00    -0.462 OA
BRANCH  30  31
ATOM     31  C   UNL     1      19.477 -11.415  69.079  1.00  0.00     0.302 C 
ATOM     32  O   UNL     1      20.293 -12.057  69.796  1.00  0.00    -0.253 OA
ATOM     33  C   UNL     1      19.334  -9.942  69.262  1.00  0.00     0.139 C 
ENDBRANCH  30  31
ENDBRANCH  25  30
ENDBRANCH   2   6
ENDBRANCH   1   2
BRANCH   1  34
ATOM     34  C   UNL     1      10.265  -7.284  62.027  1.00  0.00     0.031 C 
BRANCH  34  35
ATOM     35  C   UNL     1      10.969  -6.315  62.971  1.00  0.00    -0.075 C 
ATOM     36  C   UNL     1      11.165  -6.622  64.273  1.00  0.00     0.008 C 
BRANCH  35  37
ATOM     37  C   UNL     1      11.241  -4.897  62.476  1.00  0.00     0.008 C 
ATOM     38  C   UNL     1      10.248  -4.488  61.379  1.00  0.00     0.012 C 
ATOM     39  C   UNL     1      11.242  -3.869  63.617  1.00  0.00     0.012 C 
ENDBRANCH  35  37
ENDBRANCH  34  35
ENDBRANCH   1  34
TORSDOF 9
ENDMDL
MODEL 2
REMARK VINA RESULT:    -8.281      1.617      2.427
REMARK INTER + INTRA:         -13.756
REMARK INTER:                 -13.180
REMARK INTRA:                  -0.576
REMARK UNBOUND:                -1.360
REMARK SMILES C=C(CC[C@H](C(=O)[O-])[C@H]1[C@@H](O)C[C@]2(C)C3=C(CC[C@@]12C)[C@]1(C)CC[C@@H](OC(C)=O)C(C)(C)[C@@H]1CC3)C(C)C
REMARK SMILES IDX 4 1 5 2 6 3 7 4 8 5 9 6 10 7 19 8 12 9 13 10 18 11 20 12
REMARK SMILES IDX 14 13 15 14 17 15 16 16 35 17 21 18 34 19 33 20 23 21 22 22
REMARK SMILES IDX 30 23 24 24 25 25 31 26 32 27 11 28 26 30 27 31 29 32 28 33
REMARK SMILES IDX 3 34 2 35 1 36 36 37 37 38 38 39
REMARK H PARENT 11 29
REMARK Flexibility Score: inf
ROOT
ATOM      1  C   UNL     1      10.945  -8.356  60.291  1.00  0.00     0.014 C 
ENDROOT
BRANCH   1   2
ATOM      2  C   UNL     1      12.239  -7.483  60.233  1.00  0.00     0.042 C 
BRANCH   2   3
ATOM      3  C   UNL     1      12.119  -6.528  59.065  1.00  0.00     0.045 C 
ATOM      4  O   UNL     1      12.185  -6.959  57.886  1.00  0.00    -0.550 OA
ATOM      5  O   UNL     1      11.886  -5.174  59.284  1.00  0.00    -0.550 OA
ENDBRANCH   2   3
BRANCH   2   6
ATOM      6  C   UNL     1      13.554  -8.346  60.067  1.00  0.00     0.033 C 
ATOM      7  C   UNL     1      14.858  -7.560  59.670  1.00  0.00     0.119 C 
ATOM      8  C   UNL     1      14.049  -9.303  61.228  1.00  0.00    -0.017 C 
ATOM      9  C   UNL     1      15.968  -7.947  60.670  1.00  0.00     0.043 C 
ATOM     10  C   UNL     1      15.245  -8.554  61.886  1.00  0.00    -0.003 C 
ATOM     11  C   UNL     1      13.095  -9.709  62.367  1.00  0.00     0.012 C 
ATOM     12  C   UNL     1      14.498 -10.631  60.511  1.00  0.00     0.013 C 
ATOM     13  C   UNL     1      14.845  -7.392  62.850  1.00  0.00     0.017 C 
ATOM     14  C   UNL     1      16.046  -9.533  62.743  1.00  0.00    -0.064 C 
ATOM     15  C   UNL     1      13.830 -10.478  63.508  1.00  0.00     0.032 C 
ATOM     16  C   UNL     1      15.385 -10.431  63.536  1.00  0.00    -0.064 C 
ATOM     17  C   UNL     1      17.543  -9.444  62.730  1.00  0.00     0.032 C 
ATOM     18  C   UNL     1      16.139 -11.383  64.526  1.00  0.00    -0.008 C 
ATOM     19  C   UNL     1      18.139  -9.847  64.064  1.00  0.00     0.009 C 
ATOM     20  C   UNL     1      17.731 -11.299  64.416  1.00  0.00     0.009 C 
ATOM     21  C   UNL     1      15.681 -10.980  65.955  1.00  0.00     0.015 C 
ATOM     22  C   UNL     1      15.672 -12.827  64.186  1.00  0.00     0.016 C 
ATOM     23  C   UNL     1      18.559 -11.877  65.664  1.00  0.00     0.005 C 
ATOM     24  C   UNL     1      16.424 -11.696  67.074  1.00  0.00     0.047 C 
ATOM     25  C   UNL     1      17.926 -11.408  67.009  1.00  0.00     0.182 C 
ATOM     26  C   UNL     1      20.041 -11.386  65.631  1.00  0.00     0.015 C 
ATOM     27  C   UNL     1      18.655 -13.438  65.626  1.00  0.00     0.015 C 
BRANCH   7  28
ATOM     28  O   UNL     1      14.703  -6.163  59.596  1.00  0.00    -0.393 OA
ATOM     29  H   UNL     1      14.472  -5.913  58.667  1.00  0.00     0.210 HD
ENDBRANCH   7  28
BRANCH  25  30
ATOM     30  O   UNL     1      18.552 -12.054  68.122  1.00  0.00    -0.462 OA
BRANCH  30  31
ATOM     31  C   UNL     1      19.400 -11.409  69.030  1.00  0.00     0.302 C 
ATOM     32  O   UNL     1      20.259 -12.057  69.690  1.00  0.00    -0.253 OA
ATOM     33  C   UNL     1      19.251  -9.943  69.254  1.00  0.00     0.139 C 
ENDBRANCH  30  31
ENDBRANCH  25  30
ENDBRANCH   2   6
ENDBRANCH   1   2
BRANCH   1  34
ATOM     34  C   UNL     1       9.596  -7.602  60.177  1.00  0.00     0.031 C 
BRANCH  34  35
ATOM     35  C   UNL     1       8.646  -8.070  59.079  1.00  0.00    -0.075 C 
ATOM     36  C   UNL     1       9.112  -8.518  57.892  1.00  0.00     0.008 C 
BRANCH  35  37
ATOM     37  C   UNL     1       7.153  -7.804  59.257  1.00  0.00     0.008 C 
ATOM     38  C   UNL     1       6.643  -6.776  58.238  1.00  0.00     0.012 C 
ATOM     39  C   UNL     1       6.318  -9.091  59.192  1.00  0.00     0.012 C 
ENDBRANCH  35  37
ENDBRANCH  34  35
ENDBRANCH   1  34
TORSDOF 9
ENDMDL
MODEL 3
REMARK VINA RESULT:    -7.767      1.503      2.387
REMARK INTER + INTRA:         -12.987
REMARK INTER:                 -12.351
REMARK INTRA:                  -0.636
REMARK UNBOUND:                -1.360
REMARK SMILES C=C(CC[C@H](C(=O)[O-])[C@H]1[C@@H](O)C[C@]2(C)C3=C(CC[C@@]12C)[C@]1(C)CC[C@@H](OC(C)=O)C(C)(C)[C@@H]1CC3)C(C)C
REMARK SMILES IDX 4 1 5 2 6 3 7 4 8 5 9 6 10 7 19 8 12 9 13 10 18 11 20 12
REMARK SMILES IDX 14 13 15 14 17 15 16 16 35 17 21 18 34 19 33 20 23 21 22 22
REMARK SMILES IDX 30 23 24 24 25 25 31 26 32 27 11 28 26 30 27 31 29 32 28 33
REMARK SMILES IDX 3 34 2 35 1 36 36 37 37 38 38 39
REMARK H PARENT 11 29
REMARK Flexibility Score: inf
ROOT
ATOM      1  C   UNL     1      11.035  -5.635  60.710  1.00  0.00     0.014 C 
ENDROOT
BRANCH   1   2
ATOM      2  C   UNL     1      11.212  -6.065  59.219  1.00  0.00     0.042 C 
BRANCH   2   3
ATOM      3  C   UNL     1      10.020  -6.908  58.820  1.00  0.00     0.045 C 
ATOM      4  O   UNL     1       8.911  -6.748  59.392  1.00  0.00    -0.550 OA
ATOM      5  O   UNL     1      10.125  -7.831  57.785  1.00  0.00    -0.550 OA
ENDBRANCH   2   3
BRANCH   2   6
ATOM      6  C   UNL     1      12.538  -6.891  58.972  1.00  0.00     0.033 C 
ATOM      7  C   UNL     1      13.866  -6.058  58.852  1.00  0.00     0.119 C 
ATOM      8  C   UNL     1      12.944  -8.081  59.935  1.00  0.00    -0.017 C 
ATOM      9  C   UNL     1      14.898  -6.665  59.826  1.00  0.00     0.043 C 
ATOM     10  C   UNL     1      14.085  -7.507  60.827  1.00  0.00    -0.003 C 
ATOM     11  C   UNL     1      11.906  -8.707  60.886  1.00  0.00     0.012 C 
ATOM     12  C   UNL     1      13.450  -9.232  58.986  1.00  0.00     0.013 C 
ATOM     13  C   UNL     1      13.609  -6.572  61.983  1.00  0.00     0.017 C 
ATOM     14  C   UNL     1      14.820  -8.658  61.512  1.00  0.00    -0.064 C 
ATOM     15  C   UNL     1      12.554  -9.713  61.888  1.00  0.00     0.032 C 
ATOM     16  C   UNL     1      14.102  -9.695  62.043  1.00  0.00    -0.064 C 
ATOM     17  C   UNL     1      16.313  -8.590  61.632  1.00  0.00     0.032 C 
ATOM     18  C   UNL     1      14.780 -10.847  62.860  1.00  0.00    -0.008 C 
ATOM     19  C   UNL     1      16.806  -9.276  62.889  1.00  0.00     0.009 C 
ATOM     20  C   UNL     1      16.375 -10.763  62.892  1.00  0.00     0.009 C 
ATOM     21  C   UNL     1      14.212 -10.752  64.304  1.00  0.00     0.015 C 
ATOM     22  C   UNL     1      14.343 -12.178  62.185  1.00  0.00     0.016 C 
ATOM     23  C   UNL     1      17.107 -11.607  64.046  1.00  0.00     0.005 C 
ATOM     24  C   UNL     1      14.869 -11.700  65.296  1.00  0.00     0.047 C 
ATOM     25  C   UNL     1      16.370 -11.426  65.408  1.00  0.00     0.182 C 
ATOM     26  C   UNL     1      18.585 -11.141  64.230  1.00  0.00     0.015 C 
ATOM     27  C   UNL     1      17.208 -13.124  63.682  1.00  0.00     0.015 C 
BRANCH   7  28
ATOM     28  O   UNL     1      13.715  -4.675  59.067  1.00  0.00    -0.393 OA
ATOM     29  H   UNL     1      13.954  -4.192  58.237  1.00  0.00     0.210 HD
ENDBRANCH   7  28
BRANCH  25  30
ATOM     30  O   UNL     1      16.911 -12.303  66.402  1.00  0.00    -0.462 OA
BRANCH  30  31
ATOM     31  C   UNL     1      17.594 -11.871  67.545  1.00  0.00     0.302 C 
ATOM     32  O   UNL     1      17.902 -12.681  68.462  1.00  0.00    -0.253 OA
ATOM     33  C   UNL     1      17.916 -10.424  67.699  1.00  0.00     0.139 C 
ENDBRANCH  30  31
ENDBRANCH  25  30
ENDBRANCH   2   6
ENDBRANCH   1   2
BRANCH   1  34
ATOM     34  C   UNL     1      11.049  -4.112  60.997  1.00  0.00     0.031 C 
BRANCH  34  35
ATOM     35  C   UNL     1      10.667  -3.682  62.410  1.00  0.00    -0.075 C 
ATOM     36  C   UNL     1      11.227  -4.260  63.495  1.00  0.00     0.008 C 
BRANCH  35  37
ATOM     37  C   UNL     1       9.468  -2.751  62.579  1.00  0.00     0.008 C 
ATOM     38  C   UNL     1       9.760  -1.356  62.009  1.00  0.00     0.012 C 
ATOM     39  C   UNL     1       8.186  -3.330  61.963  1.00  0.00     0.012 C 
ENDBRANCH  35  37
ENDBRANCH  34  35
ENDBRANCH   1  34
TORSDOF 9
ENDMDL
MODEL 4
REMARK VINA RESULT:    -7.665      2.810      4.926
REMARK INTER + INTRA:         -12.833
REMARK INTER:                 -12.187
REMARK INTRA:                  -0.646
REMARK UNBOUND:                -1.360
REMARK SMILES C=C(CC[C@H](C(=O)[O-])[C@H]1[C@@H](O)C[C@]2(C)C3=C(CC[C@@]12C)[C@]1(C)CC[C@@H](OC(C)=O)C(C)(C)[C@@H]1CC3)C(C)C
REMARK SMILES IDX 4 1 5 2 6 3 7 4 8 5 9 6 10 7 19 8 12 9 13 10 18 11 20 12
REMARK SMILES IDX 14 13 15 14 17 15 16 16 35 17 21 18 34 19 33 20 23 21 22 22
REMARK SMILES IDX 30 23 24 24 25 25 31 26 32 27 11 28 26 30 27 31 29 32 28 33
REMARK SMILES IDX 3 34 2 35 1 36 36 37 37 38 38 39
REMARK H PARENT 11 29
REMARK Flexibility Score: inf
ROOT
ATOM      1  C   UNL     1      13.877 -10.441  60.338  1.00  0.00     0.014 C 
ENDROOT
BRANCH   1   2
ATOM      2  C   UNL     1      12.601 -10.952  61.081  1.00  0.00     0.042 C 
BRANCH   2   3
ATOM      3  C   UNL     1      11.711  -9.764  61.375  1.00  0.00     0.045 C 
ATOM      4  O   UNL     1      11.753  -9.204  62.500  1.00  0.00    -0.550 OA
ATOM      5  O   UNL     1      10.875  -9.250  60.389  1.00  0.00    -0.550 OA
ENDBRANCH   2   3
BRANCH   2   6
ATOM      6  C   UNL     1      12.937 -11.697  62.435  1.00  0.00     0.033 C 
ATOM      7  C   UNL     1      13.069 -13.263  62.354  1.00  0.00     0.119 C 
ATOM      8  C   UNL     1      14.192 -11.274  63.304  1.00  0.00    -0.017 C 
ATOM      9  C   UNL     1      14.411 -13.661  63.005  1.00  0.00     0.043 C 
ATOM     10  C   UNL     1      15.259 -12.376  63.037  1.00  0.00    -0.003 C 
ATOM     11  C   UNL     1      14.883  -9.917  63.072  1.00  0.00     0.012 C 
ATOM     12  C   UNL     1      13.687 -11.282  64.796  1.00  0.00     0.013 C 
ATOM     13  C   UNL     1      16.009 -12.250  61.673  1.00  0.00     0.017 C 
ATOM     14  C   UNL     1      16.347 -12.299  64.106  1.00  0.00    -0.064 C 
ATOM     15  C   UNL     1      16.211  -9.785  63.881  1.00  0.00     0.032 C 
ATOM     16  C   UNL     1      16.825 -11.076  64.494  1.00  0.00    -0.064 C 
ATOM     17  C   UNL     1      16.902 -13.575  64.665  1.00  0.00     0.032 C 
ATOM     18  C   UNL     1      18.018 -10.927  65.497  1.00  0.00    -0.008 C 
ATOM     19  C   UNL     1      18.358 -13.430  65.055  1.00  0.00     0.009 C 
ATOM     20  C   UNL     1      18.519 -12.312  66.115  1.00  0.00     0.009 C 
ATOM     21  C   UNL     1      19.172 -10.248  64.707  1.00  0.00     0.015 C 
ATOM     22  C   UNL     1      17.516 -10.000  66.640  1.00  0.00     0.016 C 
ATOM     23  C   UNL     1      19.983 -12.307  66.776  1.00  0.00     0.005 C 
ATOM     24  C   UNL     1      20.483 -10.154  65.474  1.00  0.00     0.047 C 
ATOM     25  C   UNL     1      20.993 -11.543  65.866  1.00  0.00     0.182 C 
ATOM     26  C   UNL     1      20.515 -13.761  66.973  1.00  0.00     0.015 C 
ATOM     27  C   UNL     1      19.972 -11.688  68.211  1.00  0.00     0.015 C 
BRANCH   7  28
ATOM     28  O   UNL     1      12.953 -13.797  61.057  1.00  0.00    -0.393 OA
ATOM     29  H   UNL     1      11.994 -13.858  60.819  1.00  0.00     0.210 HD
ENDBRANCH   7  28
BRANCH  25  30
ATOM     30  O   UNL     1      22.255 -11.387  66.522  1.00  0.00    -0.462 OA
BRANCH  30  31
ATOM     31  C   UNL     1      23.493 -11.468  65.875  1.00  0.00     0.302 C 
ATOM     32  O   UNL     1      24.253 -10.464  65.797  1.00  0.00    -0.253 OA
ATOM     33  C   UNL     1      23.895 -12.749  65.227  1.00  0.00     0.139 C 
ENDBRANCH  30  31
ENDBRANCH  25  30
ENDBRANCH   2   6
ENDBRANCH   1   2
BRANCH   1  34
ATOM     34  C   UNL     1      14.036 -10.874  58.859  1.00  0.00     0.031 C 
BRANCH  34  35
ATOM     35  C   UNL     1      12.807 -10.719  57.968  1.00  0.00    -0.075 C 
ATOM     36  C   UNL     1      12.000 -11.768  57.698  1.00  0.00     0.008 C 
BRANCH  35  37
ATOM     37  C   UNL     1      12.636  -9.411  57.199  1.00  0.00     0.008 C 
ATOM     38  C   UNL     1      13.968  -8.659  57.071  1.00  0.00     0.012 C 
ATOM     39  C   UNL     1      12.000  -9.625  55.818  1.00  0.00     0.012 C 
ENDBRANCH  35  37
ENDBRANCH  34  35
ENDBRANCH   1  34
TORSDOF 9
ENDMDL
MODEL 5
REMARK VINA RESULT:    -7.633      5.092     10.064
REMARK INTER + INTRA:         -12.786
REMARK INTER:                 -11.121
REMARK INTRA:                  -1.664
REMARK UNBOUND:                -1.360
REMARK SMILES C=C(CC[C@H](C(=O)[O-])[C@H]1[C@@H](O)C[C@]2(C)C3=C(CC[C@@]12C)[C@]1(C)CC[C@@H](OC(C)=O)C(C)(C)[C@@H]1CC3)C(C)C
REMARK SMILES IDX 4 1 5 2 6 3 7 4 8 5 9 6 10 7 19 8 12 9 13 10 18 11 20 12
REMARK SMILES IDX 14 13 15 14 17 15 16 16 35 17 21 18 34 19 33 20 23 21 22 22
REMARK SMILES IDX 30 23 24 24 25 25 31 26 32 27 11 28 26 30 27 31 29 32 28 33
REMARK SMILES IDX 3 34 2 35 1 36 36 37 37 38 38 39
REMARK H PARENT 11 29
REMARK Flexibility Score: inf
ROOT
ATOM      1  C   UNL     1      13.170 -11.568  58.454  1.00  0.00     0.014 C 
ENDROOT
BRANCH   1   2
ATOM      2  C   UNL     1      11.682 -11.463  57.992  1.00  0.00     0.042 C 
BRANCH   2   3
ATOM      3  C   UNL     1      11.197 -12.847  57.620  1.00  0.00     0.045 C 
ATOM      4  O   UNL     1      12.018 -13.733  57.270  1.00  0.00    -0.550 OA
ATOM      5  O   UNL     1       9.846 -13.167  57.708  1.00  0.00    -0.550 OA
ENDBRANCH   2   3
BRANCH   2   6
ATOM      6  C   UNL     1      11.490 -10.495  56.756  1.00  0.00     0.033 C 
ATOM      7  C   UNL     1      10.063  -9.855  56.585  1.00  0.00     0.119 C 
ATOM      8  C   UNL     1      12.465  -9.267  56.528  1.00  0.00    -0.017 C 
ATOM      9  C   UNL     1      10.241  -8.329  56.435  1.00  0.00     0.043 C 
ATOM     10  C   UNL     1      11.650  -8.016  56.972  1.00  0.00    -0.003 C 
ATOM     11  C   UNL     1      13.820  -9.198  57.257  1.00  0.00     0.012 C 
ATOM     12  C   UNL     1      12.774  -9.260  54.984  1.00  0.00     0.013 C 
ATOM     13  C   UNL     1      11.552  -7.808  58.517  1.00  0.00     0.017 C 
ATOM     14  C   UNL     1      12.324  -6.755  56.435  1.00  0.00    -0.064 C 
ATOM     15  C   UNL     1      14.529  -7.822  57.059  1.00  0.00     0.032 C 
ATOM     16  C   UNL     1      13.687  -6.641  56.497  1.00  0.00    -0.064 C 
ATOM     17  C   UNL     1      11.464  -5.648  55.903  1.00  0.00     0.032 C 
ATOM     18  C   UNL     1      14.435  -5.332  56.074  1.00  0.00    -0.008 C 
ATOM     19  C   UNL     1      12.093  -4.290  56.133  1.00  0.00     0.009 C 
ATOM     20  C   UNL     1      13.478  -4.217  55.445  1.00  0.00     0.009 C 
ATOM     21  C   UNL     1      15.120  -4.785  57.357  1.00  0.00     0.015 C 
ATOM     22  C   UNL     1      15.498  -5.756  55.021  1.00  0.00     0.016 C 
ATOM     23  C   UNL     1      14.061  -2.720  55.409  1.00  0.00     0.005 C 
ATOM     24  C   UNL     1      15.777  -3.423  57.182  1.00  0.00     0.047 C 
ATOM     25  C   UNL     1      14.752  -2.367  56.761  1.00  0.00     0.182 C 
ATOM     26  C   UNL     1      12.924  -1.681  55.161  1.00  0.00     0.015 C 
ATOM     27  C   UNL     1      15.057  -2.513  54.222  1.00  0.00     0.015 C 
BRANCH   7  28
ATOM     28  O   UNL     1       9.153 -10.163  57.614  1.00  0.00    -0.393 OA
ATOM     29  H   UNL     1       8.261  -9.812  57.371  1.00  0.00     0.210 HD
ENDBRANCH   7  28
BRANCH  25  30
ATOM     30  O   UNL     1      15.420  -1.105  56.680  1.00  0.00    -0.462 OA
BRANCH  30  31
ATOM     31  C   UNL     1      15.154  -0.018  57.522  1.00  0.00     0.302 C 
ATOM     32  O   UNL     1      15.275  -0.123  58.774  1.00  0.00    -0.253 OA
ATOM     33  C   UNL     1      14.675   1.264  56.932  1.00  0.00     0.139 C 
ENDBRANCH  30  31
ENDBRANCH  25  30
ENDBRANCH   2   6
ENDBRANCH   1   2
BRANCH   1  34
ATOM     34  C   UNL     1      13.411 -11.771  59.972  1.00  0.00     0.031 C 
BRANCH  34  35
ATOM     35  C   UNL     1      13.344 -10.521  60.844  1.00  0.00    -0.075 C 
ATOM     36  C   UNL     1      12.175 -10.096  61.372  1.00  0.00     0.008 C 
BRANCH  35  37
ATOM     37  C   UNL     1      14.579  -9.627  60.917  1.00  0.00     0.008 C 
ATOM     38  C   UNL     1      14.195  -8.141  60.928  1.00  0.00     0.012 C 
ATOM     39  C   UNL     1      15.474  -9.964  62.118  1.00  0.00     0.012 C 
ENDBRANCH  35  37
ENDBRANCH  34  35
ENDBRANCH   1  34
TORSDOF 9
ENDMDL
MODEL 6
REMARK VINA RESULT:    -7.565      3.662      6.322
REMARK INTER + INTRA:         -12.685
REMARK INTER:                 -11.344
REMARK INTRA:                  -1.341
REMARK UNBOUND:                -1.360
REMARK SMILES C=C(CC[C@H](C(=O)[O-])[C@H]1[C@@H](O)C[C@]2(C)C3=C(CC[C@@]12C)[C@]1(C)CC[C@@H](OC(C)=O)C(C)(C)[C@@H]1CC3)C(C)C
REMARK SMILES IDX 4 1 5 2 6 3 7 4 8 5 9 6 10 7 19 8 12 9 13 10 18 11 20 12
REMARK SMILES IDX 14 13 15 14 17 15 16 16 35 17 21 18 34 19 33 20 23 21 22 22
REMARK SMILES IDX 30 23 24 24 25 25 31 26 32 27 11 28 26 30 27 31 29 32 28 33
REMARK SMILES IDX 3 34 2 35 1 36 36 37 37 38 38 39
REMARK H PARENT 11 29
REMARK Flexibility Score: inf
ROOT
ATOM      1  C   UNL     1      14.024  -2.404  57.140  1.00  0.00     0.014 C 
ENDROOT
BRANCH   1   2
ATOM      2  C   UNL     1      13.432  -3.448  56.140  1.00  0.00     0.042 C 
BRANCH   2   3
ATOM      3  C   UNL     1      12.597  -2.710  55.117  1.00  0.00     0.045 C 
ATOM      4  O   UNL     1      12.766  -2.921  53.889  1.00  0.00    -0.550 OA
ATOM      5  O   UNL     1      11.601  -1.828  55.525  1.00  0.00    -0.550 OA
ENDBRANCH   2   3
BRANCH   2   6
ATOM      6  C   UNL     1      12.537  -4.540  56.851  1.00  0.00     0.033 C 
ATOM      7  C   UNL     1      12.044  -5.733  55.951  1.00  0.00     0.119 C 
ATOM      8  C   UNL     1      13.035  -5.265  58.168  1.00  0.00    -0.017 C 
ATOM      9  C   UNL     1      12.404  -7.051  56.669  1.00  0.00     0.043 C 
ATOM     10  C   UNL     1      13.483  -6.683  57.704  1.00  0.00    -0.003 C 
ATOM     11  C   UNL     1      14.196  -4.678  58.993  1.00  0.00     0.012 C 
ATOM     12  C   UNL     1      11.779  -5.317  59.117  1.00  0.00     0.013 C 
ATOM     13  C   UNL     1      14.877  -6.737  57.002  1.00  0.00     0.017 C 
ATOM     14  C   UNL     1      13.606  -7.599  58.921  1.00  0.00    -0.064 C 
ATOM     15  C   UNL     1      14.664  -5.645  60.125  1.00  0.00     0.032 C 
ATOM     16  C   UNL     1      14.190  -7.126  60.065  1.00  0.00    -0.064 C 
ATOM     17  C   UNL     1      13.130  -9.017  58.807  1.00  0.00     0.032 C 
ATOM     18  C   UNL     1      14.454  -8.041  61.307  1.00  0.00    -0.008 C 
ATOM     19  C   UNL     1      13.946  -9.953  59.675  1.00  0.00     0.009 C 
ATOM     20  C   UNL     1      13.861  -9.517  61.159  1.00  0.00     0.009 C 
ATOM     21  C   UNL     1      15.997  -8.102  61.486  1.00  0.00     0.015 C 
ATOM     22  C   UNL     1      13.789  -7.334  62.522  1.00  0.00     0.016 C 
ATOM     23  C   UNL     1      14.461 -10.627  62.153  1.00  0.00     0.005 C 
ATOM     24  C   UNL     1      16.464  -9.075  62.559  1.00  0.00     0.047 C 
ATOM     25  C   UNL     1      16.013 -10.503  62.241  1.00  0.00     0.182 C 
ATOM     26  C   UNL     1      14.118 -12.067  61.660  1.00  0.00     0.015 C 
ATOM     27  C   UNL     1      13.829 -10.532  63.581  1.00  0.00     0.015 C 
BRANCH   7  28
ATOM     28  O   UNL     1      12.539  -5.718  54.633  1.00  0.00    -0.393 OA
ATOM     29  H   UNL     1      12.422  -6.617  54.235  1.00  0.00     0.210 HD
ENDBRANCH   7  28
BRANCH  25  30
ATOM     30  O   UNL     1      16.539 -11.372  63.250  1.00  0.00    -0.462 OA
BRANCH  30  31
ATOM     31  C   UNL     1      17.588 -11.031  64.112  1.00  0.00     0.302 C 
ATOM     32  O   UNL     1      18.772 -10.933  63.686  1.00  0.00    -0.253 OA
ATOM     33  C   UNL     1      17.307 -10.832  65.562  1.00  0.00     0.139 C 
ENDBRANCH  30  31
ENDBRANCH  25  30
ENDBRANCH   2   6
ENDBRANCH   1   2
BRANCH   1  34
ATOM     34  C   UNL     1      15.365  -1.741  56.736  1.00  0.00     0.031 C 
BRANCH  34  35
ATOM     35  C   UNL     1      16.617  -2.603  56.867  1.00  0.00    -0.075 C 
ATOM     36  C   UNL     1      16.859  -3.622  56.015  1.00  0.00     0.008 C 
BRANCH  35  37
ATOM     37  C   UNL     1      17.474  -2.440  58.120  1.00  0.00     0.008 C 
ATOM     38  C   UNL     1      16.815  -1.488  59.129  1.00  0.00     0.012 C 
ATOM     39  C   UNL     1      17.804  -3.786  58.782  1.00  0.00     0.012 C 
ENDBRANCH  35  37
ENDBRANCH  34  35
ENDBRANCH   1  34
TORSDOF 9
ENDMDL
MODEL 7
REMARK VINA RESULT:    -7.551      4.067     10.202
REMARK INTER + INTRA:         -12.664
REMARK INTER:                 -11.678
REMARK INTRA:                  -0.986
REMARK UNBOUND:                -1.360
REMARK SMILES C=C(CC[C@H](C(=O)[O-])[C@H]1[C@@H](O)C[C@]2(C)C3=C(CC[C@@]12C)[C@]1(C)CC[C@@H](OC(C)=O)C(C)(C)[C@@H]1CC3)C(C)C
REMARK SMILES IDX 4 1 5 2 6 3 7 4 8 5 9 6 10 7 19 8 12 9 13 10 18 11 20 12
REMARK SMILES IDX 14 13 15 14 17 15 16 16 35 17 21 18 34 19 33 20 23 21 22 22
REMARK SMILES IDX 30 23 24 24 25 25 31 26 32 27 11 28 26 30 27 31 29 32 28 33
REMARK SMILES IDX 3 34 2 35 1 36 36 37 37 38 38 39
REMARK H PARENT 11 29
REMARK Flexibility Score: inf
ROOT
ATOM      1  C   UNL     1      15.928  -9.577  62.254  1.00  0.00     0.014 C 
ENDROOT
BRANCH   1   2
ATOM      2  C   UNL     1      14.377  -9.683  62.401  1.00  0.00     0.042 C 
BRANCH   2   3
ATOM      3  C   UNL     1      14.041 -11.052  62.951  1.00  0.00     0.045 C 
ATOM      4  O   UNL     1      14.637 -12.072  62.520  1.00  0.00    -0.550 OA
ATOM      5  O   UNL     1      13.107 -11.190  63.973  1.00  0.00    -0.550 OA
ENDBRANCH   2   3
BRANCH   2   6
ATOM      6  C   UNL     1      13.615  -9.473  61.031  1.00  0.00     0.033 C 
ATOM      7  C   UNL     1      12.058  -9.272  61.122  1.00  0.00     0.119 C 
ATOM      8  C   UNL     1      14.066  -8.342  60.018  1.00  0.00    -0.017 C 
ATOM      9  C   UNL     1      11.695  -7.997  60.331  1.00  0.00     0.043 C 
ATOM     10  C   UNL     1      13.010  -7.209  60.182  1.00  0.00    -0.003 C 
ATOM     11  C   UNL     1      15.452  -7.682  60.147  1.00  0.00     0.012 C 
ATOM     12  C   UNL     1      14.007  -9.010  58.593  1.00  0.00     0.013 C 
ATOM     13  C   UNL     1      13.193  -6.316  61.450  1.00  0.00     0.017 C 
ATOM     14  C   UNL     1      13.104  -6.252  58.995  1.00  0.00    -0.064 C 
ATOM     15  C   UNL     1      15.616  -6.459  59.192  1.00  0.00     0.032 C 
ATOM     16  C   UNL     1      14.335  -5.868  58.535  1.00  0.00    -0.064 C 
ATOM     17  C   UNL     1      11.838  -5.714  58.399  1.00  0.00     0.032 C 
ATOM     18  C   UNL     1      14.507  -4.802  57.401  1.00  0.00    -0.008 C 
ATOM     19  C   UNL     1      12.028  -4.317  57.844  1.00  0.00     0.009 C 
ATOM     20  C   UNL     1      13.128  -4.320  56.754  1.00  0.00     0.009 C 
ATOM     21  C   UNL     1      15.245  -3.594  58.044  1.00  0.00     0.015 C 
ATOM     22  C   UNL     1      15.390  -5.465  56.306  1.00  0.00     0.016 C 
ATOM     23  C   UNL     1      13.173  -2.941  55.932  1.00  0.00     0.005 C 
ATOM     24  C   UNL     1      15.370  -2.382  57.132  1.00  0.00     0.047 C 
ATOM     25  C   UNL     1      13.993  -1.866  56.708  1.00  0.00     0.182 C 
ATOM     26  C   UNL     1      11.736  -2.378  55.700  1.00  0.00     0.015 C 
ATOM     27  C   UNL     1      13.761  -3.138  54.496  1.00  0.00     0.015 C 
BRANCH   7  28
ATOM     28  O   UNL     1      11.547  -9.221  62.433  1.00  0.00    -0.393 OA
ATOM     29  H   UNL     1      11.836 -10.031  62.923  1.00  0.00     0.210 HD
ENDBRANCH   7  28
BRANCH  25  30
ATOM     30  O   UNL     1      14.182  -0.693  55.911  1.00  0.00    -0.462 OA
BRANCH  30  31
ATOM     31  C   UNL     1      13.909   0.608  56.350  1.00  0.00     0.302 C 
ATOM     32  O   UNL     1      13.982   0.911  57.572  1.00  0.00    -0.253 OA
ATOM     33  C   UNL     1      13.476   1.636  55.360  1.00  0.00     0.139 C 
ENDBRANCH  30  31
ENDBRANCH  25  30
ENDBRANCH   2   6
ENDBRANCH   1   2
BRANCH   1  34
ATOM     34  C   UNL     1      16.687  -8.877  63.410  1.00  0.00     0.031 C 
BRANCH  34  35
ATOM     35  C   UNL     1      17.470  -9.781  64.356  1.00  0.00    -0.075 C 
ATOM     36  C   UNL     1      18.746 -10.138  64.089  1.00  0.00     0.008 C 
BRANCH  35  37
ATOM     37  C   UNL     1      16.712 -10.464  65.492  1.00  0.00     0.008 C 
ATOM     38  C   UNL     1      16.773 -11.993  65.364  1.00  0.00     0.012 C 
ATOM     39  C   UNL     1      17.204 -10.017  66.876  1.00  0.00     0.012 C 
ENDBRANCH  35  37
ENDBRANCH  34  35
ENDBRANCH   1  34
TORSDOF 9
ENDMDL
MODEL 8
REMARK VINA RESULT:    -7.490      3.014      5.033
REMARK INTER + INTRA:         -12.573
REMARK INTER:                 -11.402
REMARK INTRA:                  -1.171
REMARK UNBOUND:                -1.360
REMARK SMILES C=C(CC[C@H](C(=O)[O-])[C@H]1[C@@H](O)C[C@]2(C)C3=C(CC[C@@]12C)[C@]1(C)CC[C@@H](OC(C)=O)C(C)(C)[C@@H]1CC3)C(C)C
REMARK SMILES IDX 4 1 5 2 6 3 7 4 8 5 9 6 10 7 19 8 12 9 13 10 18 11 20 12
REMARK SMILES IDX 14 13 15 14 17 15 16 16 35 17 21 18 34 19 33 20 23 21 22 22
REMARK SMILES IDX 30 23 24 24 25 25 31 26 32 27 11 28 26 30 27 31 29 32 28 33
REMARK SMILES IDX 3 34 2 35 1 36 36 37 37 38 38 39
REMARK H PARENT 11 29
REMARK Flexibility Score: inf
ROOT
ATOM      1  C   UNL     1      10.405  -6.521  56.568  1.00  0.00     0.014 C 
ENDROOT
BRANCH   1   2
ATOM      2  C   UNL     1      11.162  -7.840  56.210  1.00  0.00     0.042 C 
BRANCH   2   3
ATOM      3  C   UNL     1      10.628  -8.354  54.891  1.00  0.00     0.045 C 
ATOM      4  O   UNL     1      11.370  -8.388  53.877  1.00  0.00    -0.550 OA
ATOM      5  O   UNL     1       9.327  -8.840  54.799  1.00  0.00    -0.550 OA
ENDBRANCH   2   3
BRANCH   2   6
ATOM      6  C   UNL     1      10.993  -8.962  57.312  1.00  0.00     0.033 C 
ATOM      7  C   UNL     1      11.161 -10.449  56.825  1.00  0.00     0.119 C 
ATOM      8  C   UNL     1      11.843  -8.922  58.648  1.00  0.00    -0.017 C 
ATOM      9  C   UNL     1      12.181 -11.141  57.754  1.00  0.00     0.043 C 
ATOM     10  C   UNL     1      12.946 -10.004  58.457  1.00  0.00    -0.003 C 
ATOM     11  C   UNL     1      12.557  -7.628  59.082  1.00  0.00     0.012 C 
ATOM     12  C   UNL     1      10.833  -9.297  59.797  1.00  0.00     0.013 C 
ATOM     13  C   UNL     1      14.138  -9.576  57.543  1.00  0.00     0.017 C 
ATOM     14  C   UNL     1      13.572 -10.334  59.811  1.00  0.00    -0.064 C 
ATOM     15  C   UNL     1      13.501  -7.856  60.304  1.00  0.00     0.032 C 
ATOM     16  C   UNL     1      13.865  -9.320  60.683  1.00  0.00    -0.064 C 
ATOM     17  C   UNL     1      13.901 -11.763  60.125  1.00  0.00     0.032 C 
ATOM     18  C   UNL     1      14.613  -9.573  62.036  1.00  0.00    -0.008 C 
ATOM     19  C   UNL     1      15.116 -11.875  61.023  1.00  0.00     0.009 C 
ATOM     20  C   UNL     1      14.870 -11.118  62.352  1.00  0.00     0.009 C 
ATOM     21  C   UNL     1      15.966  -8.816  61.936  1.00  0.00     0.015 C 
ATOM     22  C   UNL     1      13.720  -8.957  63.151  1.00  0.00     0.016 C 
ATOM     23  C   UNL     1      15.996 -11.439  63.451  1.00  0.00     0.005 C 
ATOM     24  C   UNL     1      16.910  -9.068  63.103  1.00  0.00     0.047 C 
ATOM     25  C   UNL     1      17.258 -10.554  63.220  1.00  0.00     0.182 C 
ATOM     26  C   UNL     1      16.436 -12.935  63.384  1.00  0.00     0.015 C 
ATOM     27  C   UNL     1      15.459 -11.246  64.907  1.00  0.00     0.015 C 
BRANCH   7  28
ATOM     28  O   UNL     1      11.528 -10.587  55.473  1.00  0.00    -0.393 OA
ATOM     29  H   UNL     1      11.236  -9.782  54.976  1.00  0.00     0.210 HD
ENDBRANCH   7  28
BRANCH  25  30
ATOM     30  O   UNL     1      18.195 -10.710  64.290  1.00  0.00    -0.462 OA
BRANCH  30  31
ATOM     31  C   UNL     1      19.484 -10.163  64.293  1.00  0.00     0.302 C 
ATOM     32  O   UNL     1      20.172 -10.119  63.236  1.00  0.00    -0.253 OA
ATOM     33  C   UNL     1      20.066  -9.672  65.574  1.00  0.00     0.139 C 
ENDBRANCH  30  31
ENDBRANCH  25  30
ENDBRANCH   2   6
ENDBRANCH   1   2
BRANCH   1  34
ATOM     34  C   UNL     1       9.333  -6.619  57.683  1.00  0.00     0.031 C 
BRANCH  34  35
ATOM     35  C   UNL     1       7.919  -6.976  57.237  1.00  0.00    -0.075 C 
ATOM     36  C   UNL     1       7.305  -6.300  56.242  1.00  0.00     0.008 C 
BRANCH  35  37
ATOM     37  C   UNL     1       7.122  -7.959  58.092  1.00  0.00     0.008 C 
ATOM     38  C   UNL     1       7.268  -9.397  57.572  1.00  0.00     0.012 C 
ATOM     39  C   UNL     1       7.497  -7.880  59.578  1.00  0.00     0.012 C 
ENDBRANCH  35  37
ENDBRANCH  34  35
ENDBRANCH   1  34
TORSDOF 9
ENDMDL
MODEL 9
REMARK VINA RESULT:    -7.442      3.354      5.617
REMARK INTER + INTRA:         -12.499
REMARK INTER:                 -11.496
REMARK INTRA:                  -1.004
REMARK UNBOUND:                -1.360
REMARK SMILES C=C(CC[C@H](C(=O)[O-])[C@H]1[C@@H](O)C[C@]2(C)C3=C(CC[C@@]12C)[C@]1(C)CC[C@@H](OC(C)=O)C(C)(C)[C@@H]1CC3)C(C)C
REMARK SMILES IDX 4 1 5 2 6 3 7 4 8 5 9 6 10 7 19 8 12 9 13 10 18 11 20 12
REMARK SMILES IDX 14 13 15 14 17 15 16 16 35 17 21 18 34 19 33 20 23 21 22 22
REMARK SMILES IDX 30 23 24 24 25 25 31 26 32 27 11 28 26 30 27 31 29 32 28 33
REMARK SMILES IDX 3 34 2 35 1 36 36 37 37 38 38 39
REMARK H PARENT 11 29
REMARK Flexibility Score: inf
ROOT
ATOM      1  C   UNL     1      14.299  -3.729  57.133  1.00  0.00     0.014 C 
ENDROOT
BRANCH   1   2
ATOM      2  C   UNL     1      13.774  -4.814  56.138  1.00  0.00     0.042 C 
BRANCH   2   3
ATOM      3  C   UNL     1      12.952  -4.126  55.071  1.00  0.00     0.045 C 
ATOM      4  O   UNL     1      13.013  -4.512  53.875  1.00  0.00    -0.550 OA
ATOM      5  O   UNL     1      12.083  -3.092  55.409  1.00  0.00    -0.550 OA
ENDBRANCH   2   3
BRANCH   2   6
ATOM      6  C   UNL     1      12.890  -5.918  56.844  1.00  0.00     0.033 C 
ATOM      7  C   UNL     1      12.590  -7.214  56.004  1.00  0.00     0.119 C 
ATOM      8  C   UNL     1      13.292  -6.494  58.263  1.00  0.00    -0.017 C 
ATOM      9  C   UNL     1      12.965  -8.437  56.866  1.00  0.00     0.043 C 
ATOM     10  C   UNL     1      13.893  -7.902  57.973  1.00  0.00    -0.003 C 
ATOM     11  C   UNL     1      14.308  -5.750  59.151  1.00  0.00     0.012 C 
ATOM     12  C   UNL     1      11.947  -6.577  59.078  1.00  0.00     0.013 C 
ATOM     13  C   UNL     1      15.356  -7.894  57.426  1.00  0.00     0.017 C 
ATOM     14  C   UNL     1      13.949  -8.707  59.270  1.00  0.00    -0.064 C 
ATOM     15  C   UNL     1      14.720  -6.584  60.404  1.00  0.00     0.032 C 
ATOM     16  C   UNL     1      14.367  -8.099  60.423  1.00  0.00    -0.064 C 
ATOM     17  C   UNL     1      13.596 -10.164  59.231  1.00  0.00     0.032 C 
ATOM     18  C   UNL     1      14.560  -8.890  61.760  1.00  0.00    -0.008 C 
ATOM     19  C   UNL     1      14.378 -10.958  60.256  1.00  0.00     0.009 C 
ATOM     20  C   UNL     1      14.098 -10.417  61.680  1.00  0.00     0.009 C 
ATOM     21  C   UNL     1      16.074  -8.808  62.102  1.00  0.00     0.015 C 
ATOM     22  C   UNL     1      13.714  -8.148  62.834  1.00  0.00     0.016 C 
ATOM     23  C   UNL     1      14.666 -11.392  62.823  1.00  0.00     0.005 C 
ATOM     24  C   UNL     1      16.491  -9.652  63.298  1.00  0.00     0.047 C 
ATOM     25  C   UNL     1      16.185 -11.133  63.060  1.00  0.00     0.182 C 
ATOM     26  C   UNL     1      14.488 -12.890  62.423  1.00  0.00     0.015 C 
ATOM     27  C   UNL     1      13.875 -11.239  64.163  1.00  0.00     0.015 C 
BRANCH   7  28
ATOM     28  O   UNL     1      13.224  -7.261  54.748  1.00  0.00    -0.393 OA
ATOM     29  H   UNL     1      12.535  -7.233  54.038  1.00  0.00     0.210 HD
ENDBRANCH   7  28
BRANCH  25  30
ATOM     30  O   UNL     1      16.660 -11.874  64.189  1.00  0.00    -0.462 OA
BRANCH  30  31
ATOM     31  C   UNL     1      17.482 -11.342  65.189  1.00  0.00     0.302 C 
ATOM     32  O   UNL     1      18.729 -11.243  65.020  1.00  0.00    -0.253 OA
ATOM     33  C   UNL     1      16.879 -10.933  66.489  1.00  0.00     0.139 C 
ENDBRANCH  30  31
ENDBRANCH  25  30
ENDBRANCH   2   6
ENDBRANCH   1   2
BRANCH   1  34
ATOM     34  C   UNL     1      15.646  -3.053  56.773  1.00  0.00     0.031 C 
BRANCH  34  35
ATOM     35  C   UNL     1      16.099  -1.914  57.680  1.00  0.00    -0.075 C 
ATOM     36  C   UNL     1      15.991  -0.624  57.293  1.00  0.00     0.008 C 
BRANCH  35  37
ATOM     37  C   UNL     1      16.891  -2.266  58.937  1.00  0.00     0.008 C 
ATOM     38  C   UNL     1      15.988  -2.290  60.179  1.00  0.00     0.012 C 
ATOM     39  C   UNL     1      17.653  -3.592  58.796  1.00  0.00     0.012 C 
ENDBRANCH  35  37
ENDBRANCH  34  35
ENDBRANCH   1  34
TORSDOF 9
ENDMDL
