MODEL 1
REMARK VINA RESULT:     3.573      0.000      0.000
REMARK INTER + INTRA:           4.523
REMARK INTER:                   4.931
REMARK INTRA:                  -0.408
REMARK UNBOUND:                -0.408
REMARK SMILES C=C(CC[C@@H](C(=O)[O-])[C@H]1CC[C@]2(C)C3=C(CC[C@@]12C)[C@]1(C)CC[C@H](O)C(C)(C)[C@@H]1CC3)C(C)C
REMARK SMILES IDX 4 1 5 2 6 3 7 4 8 5 9 6 10 7 18 8 11 9 12 10 17 11 19 12
REMARK SMILES IDX 13 13 14 14 16 15 15 16 31 17 20 18 30 19 29 20 22 21 21 22
REMARK SMILES IDX 26 23 23 24 24 25 27 26 28 27 25 28 3 30 2 31 1 32 32 33
REMARK SMILES IDX 33 34 34 35
REMARK H PARENT 25 29
REMARK Flexibility Score: inf
ROOT
ATOM      1  C   UNL     1     -15.174  10.319   7.293  1.00  0.00     0.014 C 
ENDROOT
BRANCH   1   2
ATOM      2  C   UNL     1     -14.075  11.408   7.435  1.00  0.00     0.039 C 
BRANCH   2   3
ATOM      3  C   UNL     1     -13.418  11.255   8.787  1.00  0.00     0.045 C 
ATOM      4  O   UNL     1     -13.893  11.858   9.785  1.00  0.00    -0.550 OA
ATOM      5  O   UNL     1     -12.321  10.418   8.957  1.00  0.00    -0.550 OA
ENDBRANCH   2   3
BRANCH   2   6
ATOM      6  C   UNL     1     -13.020  11.423   6.272  1.00  0.00     0.004 C 
ATOM      7  C   UNL     1     -13.108  10.205   5.307  1.00  0.00     0.006 C 
ATOM      8  C   UNL     1     -13.032  12.672   5.314  1.00  0.00    -0.020 C 
ATOM      9  C   UNL     1     -13.117  10.754   3.872  1.00  0.00     0.012 C 
ATOM     10  C   UNL     1     -13.717  12.157   4.015  1.00  0.00    -0.006 C 
ATOM     11  C   UNL     1     -13.771  13.956   5.749  1.00  0.00     0.012 C 
ATOM     12  C   UNL     1     -11.526  13.062   5.086  1.00  0.00     0.012 C 
ATOM     13  C   UNL     1     -15.269  11.985   4.095  1.00  0.00     0.017 C 
ATOM     14  C   UNL     1     -13.486  13.161   2.893  1.00  0.00    -0.064 C 
ATOM     15  C   UNL     1     -13.814  15.007   4.605  1.00  0.00     0.032 C 
ATOM     16  C   UNL     1     -13.703  14.492   3.145  1.00  0.00    -0.064 C 
ATOM     17  C   UNL     1     -13.193  12.681   1.493  1.00  0.00     0.032 C 
ATOM     18  C   UNL     1     -13.885  15.516   1.979  1.00  0.00    -0.008 C 
ATOM     19  C   UNL     1     -12.403  13.747   0.766  1.00  0.00     0.009 C 
ATOM     20  C   UNL     1     -13.234  15.042   0.592  1.00  0.00     0.007 C 
ATOM     21  C   UNL     1     -15.413  15.776   1.844  1.00  0.00     0.014 C 
ATOM     22  C   UNL     1     -13.224  16.863   2.375  1.00  0.00     0.016 C 
ATOM     23  C   UNL     1     -14.202  15.082  -0.677  1.00  0.00    -0.006 C 
ATOM     24  C   UNL     1     -16.116  14.662   1.086  1.00  0.00     0.033 C 
ATOM     25  C   UNL     1     -15.664  14.552  -0.381  1.00  0.00     0.120 C 
ATOM     26  C   UNL     1     -14.288  16.554  -1.185  1.00  0.00     0.014 C 
ATOM     27  C   UNL     1     -13.602  14.305  -1.887  1.00  0.00     0.014 C 
BRANCH  25  28
ATOM     28  O   UNL     1     -15.825  13.208  -0.770  1.00  0.00    -0.393 OA
ATOM     29  H   UNL     1     -15.911  12.664   0.057  1.00  0.00     0.210 HD
ENDBRANCH  25  28
ENDBRANCH   2   6
ENDBRANCH   1   2
BRANCH   1  30
ATOM     30  C   UNL     1     -16.594  10.789   7.658  1.00  0.00     0.031 C 
BRANCH  30  31
ATOM     31  C   UNL     1     -17.001  10.258   9.015  1.00  0.00    -0.075 C 
ATOM     32  C   UNL     1     -16.047   9.876   9.885  1.00  0.00     0.008 C 
BRANCH  31  33
ATOM     33  C   UNL     1     -18.477  10.161   9.376  1.00  0.00     0.008 C 
ATOM     34  C   UNL     1     -19.341   9.889   8.138  1.00  0.00     0.012 C 
ATOM     35  C   UNL     1     -18.950  11.420  10.114  1.00  0.00     0.012 C 
ENDBRANCH  31  33
ENDBRANCH  30  31
ENDBRANCH   1  30
TORSDOF 7
ENDMDL
MODEL 2
REMARK VINA RESULT:     6.550      1.203      1.694
REMARK INTER + INTRA:           8.630
REMARK INTER:                   8.230
REMARK INTRA:                   0.401
REMARK UNBOUND:                -0.408
REMARK SMILES C=C(CC[C@@H](C(=O)[O-])[C@H]1CC[C@]2(C)C3=C(CC[C@@]12C)[C@]1(C)CC[C@H](O)C(C)(C)[C@@H]1CC3)C(C)C
REMARK SMILES IDX 4 1 5 2 6 3 7 4 8 5 9 6 10 7 18 8 11 9 12 10 17 11 19 12
REMARK SMILES IDX 13 13 14 14 16 15 15 16 31 17 20 18 30 19 29 20 22 21 21 22
REMARK SMILES IDX 26 23 23 24 24 25 27 26 28 27 25 28 3 30 2 31 1 32 32 33
REMARK SMILES IDX 33 34 34 35
REMARK H PARENT 25 29
REMARK Flexibility Score: inf
ROOT
ATOM      1  C   UNL     1     -14.477  11.845   8.053  1.00  0.00     0.014 C 
ENDROOT
BRANCH   1   2
ATOM      2  C   UNL     1     -13.099  11.301   7.588  1.00  0.00     0.039 C 
BRANCH   2   3
ATOM      3  C   UNL     1     -12.555  10.385   8.660  1.00  0.00     0.045 C 
ATOM      4  O   UNL     1     -11.353  10.015   8.616  1.00  0.00    -0.550 OA
ATOM      5  O   UNL     1     -13.352   9.981   9.725  1.00  0.00    -0.550 OA
ENDBRANCH   2   3
BRANCH   2   6
ATOM      6  C   UNL     1     -13.116  10.604   6.180  1.00  0.00     0.004 C 
ATOM      7  C   UNL     1     -14.482   9.967   5.794  1.00  0.00     0.006 C 
ATOM      8  C   UNL     1     -12.744  11.497   4.937  1.00  0.00    -0.020 C 
ATOM      9  C   UNL     1     -14.829  10.446   4.376  1.00  0.00     0.012 C 
ATOM     10  C   UNL     1     -14.110  11.794   4.253  1.00  0.00    -0.006 C 
ATOM     11  C   UNL     1     -12.034  12.849   5.160  1.00  0.00     0.012 C 
ATOM     12  C   UNL     1     -11.799  10.621   4.038  1.00  0.00     0.012 C 
ATOM     13  C   UNL     1     -15.006  12.857   4.970  1.00  0.00     0.017 C 
ATOM     14  C   UNL     1     -13.862  12.357   2.860  1.00  0.00    -0.064 C 
ATOM     15  C   UNL     1     -11.909  13.654   3.835  1.00  0.00     0.032 C 
ATOM     16  C   UNL     1     -12.936  13.359   2.709  1.00  0.00    -0.064 C 
ATOM     17  C   UNL     1     -14.738  11.941   1.705  1.00  0.00     0.032 C 
ATOM     18  C   UNL     1     -12.913  14.253   1.429  1.00  0.00    -0.008 C 
ATOM     19  C   UNL     1     -13.955  12.087   0.418  1.00  0.00     0.009 C 
ATOM     20  C   UNL     1     -13.590  13.568   0.147  1.00  0.00     0.007 C 
ATOM     21  C   UNL     1     -13.607  15.593   1.805  1.00  0.00     0.014 C 
ATOM     22  C   UNL     1     -11.442  14.585   1.064  1.00  0.00     0.016 C 
ATOM     23  C   UNL     1     -14.710  14.435  -0.592  1.00  0.00    -0.006 C 
ATOM     24  C   UNL     1     -15.122  15.474   1.795  1.00  0.00     0.033 C 
ATOM     25  C   UNL     1     -15.695  15.181   0.398  1.00  0.00     0.120 C 
ATOM     26  C   UNL     1     -13.999  15.490  -1.493  1.00  0.00     0.014 C 
ATOM     27  C   UNL     1     -15.534  13.578  -1.599  1.00  0.00     0.014 C 
BRANCH  25  28
ATOM     28  O   UNL     1     -16.897  14.470   0.578  1.00  0.00    -0.393 OA
ATOM     29  H   UNL     1     -16.909  14.130   1.511  1.00  0.00     0.210 HD
ENDBRANCH  25  28
ENDBRANCH   2   6
ENDBRANCH   1   2
BRANCH   1  30
ATOM     30  C   UNL     1     -15.648  10.860   7.879  1.00  0.00     0.031 C 
BRANCH  30  31
ATOM     31  C   UNL     1     -16.561  10.897   9.085  1.00  0.00    -0.075 C 
ATOM     32  C   UNL     1     -16.246  11.692  10.125  1.00  0.00     0.008 C 
BRANCH  31  33
ATOM     33  C   UNL     1     -17.817  10.036   9.106  1.00  0.00     0.008 C 
ATOM     34  C   UNL     1     -18.419   9.886   7.704  1.00  0.00     0.012 C 
ATOM     35  C   UNL     1     -18.851  10.589  10.095  1.00  0.00     0.012 C 
ENDBRANCH  31  33
ENDBRANCH  30  31
ENDBRANCH   1  30
TORSDOF 7
ENDMDL
