MODEL 1
REMARK VINA RESULT:    -6.835      0.000      0.000
REMARK INTER + INTRA:          -8.222
REMARK INTER:                  -8.033
REMARK INTRA:                  -0.189
REMARK UNBOUND:                -0.189
REMARK SMILES O=c1c(O)c(-c2ccc(O)c(O)c2)oc2cc(O)ccc12
REMARK SMILES IDX 5 1 3 2 2 3 1 4 21 5 15 6 14 7 16 8 17 9 19 10 20 11 6 12
REMARK SMILES IDX 7 13 8 14 9 15 13 16 11 17 10 18 12 20 4 22 18 24
REMARK H PARENT 10 19 12 21 4 23 18 25
REMARK Flexibility Score: inf
ROOT
ATOM      1  C   UNL     1      23.352  16.463   3.994  1.00  0.00     0.180 A 
ATOM      2  C   UNL     1      24.439  15.624   3.674  1.00  0.00     0.208 A 
ATOM      3  C   UNL     1      24.181  14.303   3.276  1.00  0.00     0.235 A 
ATOM      4  O   UNL     1      25.138  13.530   2.996  1.00  0.00    -0.285 OA
ATOM      5  C   UNL     1      22.853  13.856   3.188  1.00  0.00     0.069 A 
ATOM      6  C   UNL     1      21.819  14.764   3.501  1.00  0.00     0.142 A 
ATOM      7  O   UNL     1      22.107  16.005   3.882  1.00  0.00    -0.452 OA
ATOM      8  C   UNL     1      20.482  14.361   3.415  1.00  0.00     0.094 A 
ATOM      9  C   UNL     1      20.163  13.057   3.019  1.00  0.00     0.119 A 
ATOM     10  C   UNL     1      21.186  12.152   2.709  1.00  0.00     0.047 A 
ATOM     11  C   UNL     1      22.525  12.547   2.791  1.00  0.00     0.020 A 
ENDROOT
BRANCH   1  12
ATOM     12  C   UNL     1      23.542  17.862   4.439  1.00  0.00     0.025 A 
ATOM     13  C   UNL     1      24.003  18.822   3.523  1.00  0.00     0.016 A 
ATOM     14  C   UNL     1      24.171  20.152   3.916  1.00  0.00     0.051 A 
ATOM     15  C   UNL     1      23.865  20.547   5.221  1.00  0.00     0.157 A 
ATOM     16  C   UNL     1      23.217  18.266   5.746  1.00  0.00     0.062 A 
ATOM     17  C   UNL     1      23.383  19.601   6.141  1.00  0.00     0.158 A 
BRANCH  15  18
ATOM     18  O   UNL     1      24.045  21.882   5.585  1.00  0.00    -0.504 OA
ATOM     19  H   UNL     1      24.941  22.237   5.901  1.00  0.00     0.293 HD
ENDBRANCH  15  18
BRANCH  17  20
ATOM     20  O   UNL     1      23.064  19.992   7.441  1.00  0.00    -0.504 OA
ATOM     21  H   UNL     1      23.685  20.577   7.988  1.00  0.00     0.293 HD
ENDBRANCH  17  20
ENDBRANCH   1  12
BRANCH   2  22
ATOM     22  O   UNL     1      25.747  16.111   3.725  1.00  0.00    -0.502 OA
ATOM     23  H   UNL     1      26.470  15.789   3.093  1.00  0.00     0.293 HD
ENDBRANCH   2  22
BRANCH   9  24
ATOM     24  O   UNL     1      18.827  12.672   2.940  1.00  0.00    -0.508 OA
ATOM     25  H   UNL     1      18.317  12.358   3.758  1.00  0.00     0.293 HD
ENDBRANCH   9  24
TORSDOF 5
ENDMDL
MODEL 2
REMARK VINA RESULT:    -6.697      1.195      2.831
REMARK INTER + INTRA:          -8.061
REMARK INTER:                  -7.766
REMARK INTRA:                  -0.295
REMARK UNBOUND:                -0.189
REMARK SMILES O=c1c(O)c(-c2ccc(O)c(O)c2)oc2cc(O)ccc12
REMARK SMILES IDX 5 1 3 2 2 3 1 4 21 5 15 6 14 7 16 8 17 9 19 10 20 11 6 12
REMARK SMILES IDX 7 13 8 14 9 15 13 16 11 17 10 18 12 20 4 22 18 24
REMARK H PARENT 10 19 12 21 4 23 18 25
REMARK Flexibility Score: inf
ROOT
ATOM      1  C   UNL     1      22.870  16.566   3.856  1.00  0.00     0.180 A 
ATOM      2  C   UNL     1      21.586  16.241   3.372  1.00  0.00     0.208 A 
ATOM      3  C   UNL     1      21.343  14.934   2.923  1.00  0.00     0.235 A 
ATOM      4  O   UNL     1      20.205  14.622   2.474  1.00  0.00    -0.285 OA
ATOM      5  C   UNL     1      22.371  13.980   2.985  1.00  0.00     0.069 A 
ATOM      6  C   UNL     1      23.621  14.377   3.506  1.00  0.00     0.142 A 
ATOM      7  O   UNL     1      23.813  15.627   3.913  1.00  0.00    -0.452 OA
ATOM      8  C   UNL     1      24.668  13.453   3.594  1.00  0.00     0.094 A 
ATOM      9  C   UNL     1      24.483  12.134   3.167  1.00  0.00     0.119 A 
ATOM     10  C   UNL     1      23.244  11.736   2.648  1.00  0.00     0.047 A 
ATOM     11  C   UNL     1      22.191  12.652   2.557  1.00  0.00     0.020 A 
ENDROOT
BRANCH   1  12
ATOM     12  C   UNL     1      23.211  17.926   4.330  1.00  0.00     0.025 A 
ATOM     13  C   UNL     1      23.836  18.827   3.453  1.00  0.00     0.016 A 
ATOM     14  C   UNL     1      24.149  20.122   3.873  1.00  0.00     0.051 A 
ATOM     15  C   UNL     1      23.828  20.542   5.167  1.00  0.00     0.157 A 
ATOM     16  C   UNL     1      22.872  18.357   5.625  1.00  0.00     0.062 A 
ATOM     17  C   UNL     1      23.183  19.658   6.047  1.00  0.00     0.158 A 
BRANCH  15  18
ATOM     18  O   UNL     1      24.155  21.841   5.558  1.00  0.00    -0.504 OA
ATOM     19  H   UNL     1      24.615  22.037   6.440  1.00  0.00     0.293 HD
ENDBRANCH  15  18
BRANCH  17  20
ATOM     20  O   UNL     1      22.848  20.075   7.334  1.00  0.00    -0.504 OA
ATOM     21  H   UNL     1      22.197  20.835   7.494  1.00  0.00     0.293 HD
ENDBRANCH  17  20
ENDBRANCH   1  12
BRANCH   2  22
ATOM     22  O   UNL     1      20.569  17.198   3.367  1.00  0.00    -0.502 OA
ATOM     23  H   UNL     1      20.421  17.836   4.140  1.00  0.00     0.293 HD
ENDBRANCH   2  22
BRANCH   9  24
ATOM     24  O   UNL     1      25.536  11.228   3.261  1.00  0.00    -0.508 OA
ATOM     25  H   UNL     1      25.377  10.227   3.241  1.00  0.00     0.293 HD
ENDBRANCH   9  24
TORSDOF 5
ENDMDL
MODEL 3
REMARK VINA RESULT:    -5.727      1.958      6.825
REMARK INTER + INTRA:          -6.921
REMARK INTER:                  -7.097
REMARK INTRA:                   0.176
REMARK UNBOUND:                -0.189
REMARK SMILES O=c1c(O)c(-c2ccc(O)c(O)c2)oc2cc(O)ccc12
REMARK SMILES IDX 5 1 3 2 2 3 1 4 21 5 15 6 14 7 16 8 17 9 19 10 20 11 6 12
REMARK SMILES IDX 7 13 8 14 9 15 13 16 11 17 10 18 12 20 4 22 18 24
REMARK H PARENT 10 19 12 21 4 23 18 25
REMARK Flexibility Score: inf
ROOT
ATOM      1  C   UNL     1      22.103  16.765   4.355  1.00  0.00     0.180 A 
ATOM      2  C   UNL     1      22.888  17.342   3.335  1.00  0.00     0.208 A 
ATOM      3  C   UNL     1      23.712  18.433   3.651  1.00  0.00     0.235 A 
ATOM      4  O   UNL     1      24.414  18.974   2.753  1.00  0.00    -0.285 OA
ATOM      5  C   UNL     1      23.750  18.910   4.971  1.00  0.00     0.069 A 
ATOM      6  C   UNL     1      22.953  18.263   5.939  1.00  0.00     0.142 A 
ATOM      7  O   UNL     1      22.181  17.237   5.598  1.00  0.00    -0.452 OA
ATOM      8  C   UNL     1      22.972  18.701   7.268  1.00  0.00     0.094 A 
ATOM      9  C   UNL     1      23.778  19.782   7.643  1.00  0.00     0.119 A 
ATOM     10  C   UNL     1      24.569  20.428   6.684  1.00  0.00     0.047 A 
ATOM     11  C   UNL     1      24.558  19.996   5.354  1.00  0.00     0.020 A 
ENDROOT
BRANCH   1  12
ATOM     12  C   UNL     1      21.196  15.623   4.099  1.00  0.00     0.025 A 
ATOM     13  C   UNL     1      19.927  15.601   4.699  1.00  0.00     0.016 A 
ATOM     14  C   UNL     1      19.047  14.543   4.456  1.00  0.00     0.051 A 
ATOM     15  C   UNL     1      19.413  13.503   3.597  1.00  0.00     0.157 A 
ATOM     16  C   UNL     1      21.554  14.586   3.220  1.00  0.00     0.062 A 
ATOM     17  C   UNL     1      20.671  13.524   2.972  1.00  0.00     0.158 A 
BRANCH  15  18
ATOM     18  O   UNL     1      18.514  12.460   3.375  1.00  0.00    -0.504 OA
ATOM     19  H   UNL     1      18.613  11.559   3.828  1.00  0.00     0.293 HD
ENDBRANCH  15  18
BRANCH  17  20
ATOM     20  O   UNL     1      21.037  12.497   2.104  1.00  0.00    -0.504 OA
ATOM     21  H   UNL     1      21.968  12.098   2.116  1.00  0.00     0.293 HD
ENDBRANCH  17  20
ENDBRANCH   1  12
BRANCH   2  22
ATOM     22  O   UNL     1      22.866  16.815   2.042  1.00  0.00    -0.502 OA
ATOM     23  H   UNL     1      22.612  17.372   1.235  1.00  0.00     0.293 HD
ENDBRANCH   2  22
BRANCH   9  24
ATOM     24  O   UNL     1      23.783  20.205   8.970  1.00  0.00    -0.508 OA
ATOM     25  H   UNL     1      23.956  19.559   9.732  1.00  0.00     0.293 HD
ENDBRANCH   9  24
TORSDOF 5
ENDMDL
MODEL 4
REMARK VINA RESULT:    -5.445      2.154      3.688
REMARK INTER + INTRA:          -6.589
REMARK INTER:                  -6.351
REMARK INTRA:                  -0.238
REMARK UNBOUND:                -0.189
REMARK SMILES O=c1c(O)c(-c2ccc(O)c(O)c2)oc2cc(O)ccc12
REMARK SMILES IDX 5 1 3 2 2 3 1 4 21 5 15 6 14 7 16 8 17 9 19 10 20 11 6 12
REMARK SMILES IDX 7 13 8 14 9 15 13 16 11 17 10 18 12 20 4 22 18 24
REMARK H PARENT 10 19 12 21 4 23 18 25
REMARK Flexibility Score: inf
ROOT
ATOM      1  C   UNL     1      22.806  18.117   5.592  1.00  0.00     0.180 A 
ATOM      2  C   UNL     1      21.570  18.540   5.059  1.00  0.00     0.208 A 
ATOM      3  C   UNL     1      20.943  17.743   4.089  1.00  0.00     0.235 A 
ATOM      4  O   UNL     1      19.842  18.106   3.590  1.00  0.00    -0.285 OA
ATOM      5  C   UNL     1      21.546  16.540   3.688  1.00  0.00     0.069 A 
ATOM      6  C   UNL     1      22.771  16.175   4.286  1.00  0.00     0.142 A 
ATOM      7  O   UNL     1      23.337  16.962   5.196  1.00  0.00    -0.452 OA
ATOM      8  C   UNL     1      23.399  14.978   3.922  1.00  0.00     0.094 A 
ATOM      9  C   UNL     1      22.818  14.141   2.963  1.00  0.00     0.119 A 
ATOM     10  C   UNL     1      21.603  14.501   2.366  1.00  0.00     0.047 A 
ATOM     11  C   UNL     1      20.968  15.694   2.725  1.00  0.00     0.020 A 
ENDROOT
BRANCH   1  12
ATOM     12  C   UNL     1      23.539  18.910   6.604  1.00  0.00     0.025 A 
ATOM     13  C   UNL     1      24.674  19.641   6.220  1.00  0.00     0.016 A 
ATOM     14  C   UNL     1      25.369  20.412   7.154  1.00  0.00     0.051 A 
ATOM     15  C   UNL     1      24.933  20.478   8.481  1.00  0.00     0.157 A 
ATOM     16  C   UNL     1      23.090  18.993   7.934  1.00  0.00     0.062 A 
ATOM     17  C   UNL     1      23.786  19.769   8.874  1.00  0.00     0.158 A 
BRANCH  15  18
ATOM     18  O   UNL     1      25.649  21.254   9.392  1.00  0.00    -0.504 OA
ATOM     19  H   UNL     1      26.604  21.546   9.217  1.00  0.00     0.293 HD
ENDBRANCH  15  18
BRANCH  17  20
ATOM     20  O   UNL     1      23.338  19.841  10.192  1.00  0.00    -0.504 OA
ATOM     21  H   UNL     1      22.416  19.515  10.458  1.00  0.00     0.293 HD
ENDBRANCH  17  20
ENDBRANCH   1  12
BRANCH   2  22
ATOM     22  O   UNL     1      20.970  19.717   5.513  1.00  0.00    -0.502 OA
ATOM     23  H   UNL     1      20.640  19.825   6.464  1.00  0.00     0.293 HD
ENDBRANCH   2  22
BRANCH   9  24
ATOM     24  O   UNL     1      23.457  12.955   2.611  1.00  0.00    -0.508 OA
ATOM     25  H   UNL     1      23.597  12.696   1.641  1.00  0.00     0.293 HD
ENDBRANCH   9  24
TORSDOF 5
ENDMDL
MODEL 5
REMARK VINA RESULT:    -5.414      3.896      6.728
REMARK INTER + INTRA:          -6.553
REMARK INTER:                  -6.912
REMARK INTRA:                   0.359
REMARK UNBOUND:                -0.189
REMARK SMILES O=c1c(O)c(-c2ccc(O)c(O)c2)oc2cc(O)ccc12
REMARK SMILES IDX 5 1 3 2 2 3 1 4 21 5 15 6 14 7 16 8 17 9 19 10 20 11 6 12
REMARK SMILES IDX 7 13 8 14 9 15 13 16 11 17 10 18 12 20 4 22 18 24
REMARK H PARENT 10 19 12 21 4 23 18 25
REMARK Flexibility Score: inf
ROOT
ATOM      1  C   UNL     1      23.066  19.615   8.614  1.00  0.00     0.180 A 
ATOM      2  C   UNL     1      24.360  20.140   8.414  1.00  0.00     0.208 A 
ATOM      3  C   UNL     1      24.914  20.100   7.125  1.00  0.00     0.235 A 
ATOM      4  O   UNL     1      26.075  20.553   6.924  1.00  0.00    -0.285 OA
ATOM      5  C   UNL     1      24.166  19.561   6.068  1.00  0.00     0.069 A 
ATOM      6  C   UNL     1      22.868  19.078   6.344  1.00  0.00     0.142 A 
ATOM      7  O   UNL     1      22.383  19.127   7.580  1.00  0.00    -0.452 OA
ATOM      8  C   UNL     1      22.086  18.543   5.315  1.00  0.00     0.094 A 
ATOM      9  C   UNL     1      22.585  18.482   4.009  1.00  0.00     0.119 A 
ATOM     10  C   UNL     1      23.872  18.958   3.731  1.00  0.00     0.047 A 
ATOM     11  C   UNL     1      24.661  19.496   4.752  1.00  0.00     0.020 A 
ENDROOT
BRANCH   1  12
ATOM     12  C   UNL     1      22.419  19.604   9.945  1.00  0.00     0.025 A 
ATOM     13  C   UNL     1      23.216  19.602  11.101  1.00  0.00     0.016 A 
ATOM     14  C   UNL     1      22.626  19.610  12.367  1.00  0.00     0.051 A 
ATOM     15  C   UNL     1      21.235  19.639  12.499  1.00  0.00     0.157 A 
ATOM     16  C   UNL     1      21.020  19.652  10.080  1.00  0.00     0.062 A 
ATOM     17  C   UNL     1      20.426  19.663  11.351  1.00  0.00     0.158 A 
BRANCH  15  18
ATOM     18  O   UNL     1      20.675  19.645  13.777  1.00  0.00    -0.504 OA
ATOM     19  H   UNL     1      19.714  19.922  13.941  1.00  0.00     0.293 HD
ENDBRANCH  15  18
BRANCH  17  20
ATOM     20  O   UNL     1      19.038  19.705  11.475  1.00  0.00    -0.504 OA
ATOM     21  H   UNL     1      18.559  19.239  12.236  1.00  0.00     0.293 HD
ENDBRANCH  17  20
ENDBRANCH   1  12
BRANCH   2  22
ATOM     22  O   UNL     1      25.062  20.714   9.476  1.00  0.00    -0.502 OA
ATOM     23  H   UNL     1      26.070  20.815   9.468  1.00  0.00     0.293 HD
ENDBRANCH   2  22
BRANCH   9  24
ATOM     24  O   UNL     1      21.793  17.945   2.997  1.00  0.00    -0.508 OA
ATOM     25  H   UNL     1      20.956  17.411   3.206  1.00  0.00     0.293 HD
ENDBRANCH   9  24
TORSDOF 5
ENDMDL
MODEL 6
REMARK VINA RESULT:    -5.384      2.059      6.820
REMARK INTER + INTRA:          -6.517
REMARK INTER:                  -6.534
REMARK INTRA:                   0.017
REMARK UNBOUND:                -0.189
REMARK SMILES O=c1c(O)c(-c2ccc(O)c(O)c2)oc2cc(O)ccc12
REMARK SMILES IDX 5 1 3 2 2 3 1 4 21 5 15 6 14 7 16 8 17 9 19 10 20 11 6 12
REMARK SMILES IDX 7 13 8 14 9 15 13 16 11 17 10 18 12 20 4 22 18 24
REMARK H PARENT 10 19 12 21 4 23 18 25
REMARK Flexibility Score: inf
ROOT
ATOM      1  C   UNL     1      23.532  16.213   3.904  1.00  0.00     0.180 A 
ATOM      2  C   UNL     1      22.208  16.569   3.572  1.00  0.00     0.208 A 
ATOM      3  C   UNL     1      21.659  17.732   4.135  1.00  0.00     0.235 A 
ATOM      4  O   UNL     1      20.472  18.064   3.863  1.00  0.00    -0.285 OA
ATOM      5  C   UNL     1      22.441  18.519   4.994  1.00  0.00     0.069 A 
ATOM      6  C   UNL     1      23.766  18.108   5.257  1.00  0.00     0.142 A 
ATOM      7  O   UNL     1      24.246  16.996   4.710  1.00  0.00    -0.452 OA
ATOM      8  C   UNL     1      24.582  18.872   6.100  1.00  0.00     0.094 A 
ATOM      9  C   UNL     1      24.090  20.043   6.686  1.00  0.00     0.119 A 
ATOM     10  C   UNL     1      22.775  20.453   6.429  1.00  0.00     0.047 A 
ATOM     11  C   UNL     1      21.953  19.698   5.587  1.00  0.00     0.020 A 
ENDROOT
BRANCH   1  12
ATOM     12  C   UNL     1      24.177  14.994   3.367  1.00  0.00     0.025 A 
ATOM     13  C   UNL     1      25.490  15.066   2.877  1.00  0.00     0.016 A 
ATOM     14  C   UNL     1      26.125  13.923   2.383  1.00  0.00     0.051 A 
ATOM     15  C   UNL     1      25.465  12.691   2.388  1.00  0.00     0.157 A 
ATOM     16  C   UNL     1      23.522  13.749   3.388  1.00  0.00     0.062 A 
ATOM     17  C   UNL     1      24.159  12.601   2.895  1.00  0.00     0.158 A 
BRANCH  15  18
ATOM     18  O   UNL     1      26.124  11.568   1.887  1.00  0.00    -0.504 OA
ATOM     19  H   UNL     1      27.012  11.636   1.402  1.00  0.00     0.293 HD
ENDBRANCH  15  18
BRANCH  17  20
ATOM     20  O   UNL     1      23.500  11.372   2.915  1.00  0.00    -0.504 OA
ATOM     21  H   UNL     1      23.931  10.544   3.309  1.00  0.00     0.293 HD
ENDBRANCH  17  20
ENDBRANCH   1  12
BRANCH   2  22
ATOM     22  O   UNL     1      21.470  15.792   2.677  1.00  0.00    -0.502 OA
ATOM     23  H   UNL     1      21.909  15.224   1.963  1.00  0.00     0.293 HD
ENDBRANCH   2  22
BRANCH   9  24
ATOM     24  O   UNL     1      24.915  20.790   7.522  1.00  0.00    -0.508 OA
ATOM     25  H   UNL     1      25.922  20.671   7.517  1.00  0.00     0.293 HD
ENDBRANCH   9  24
TORSDOF 5
ENDMDL
MODEL 7
REMARK VINA RESULT:    -5.354      4.355      7.846
REMARK INTER + INTRA:          -6.481
REMARK INTER:                  -6.371
REMARK INTRA:                  -0.110
REMARK UNBOUND:                -0.189
REMARK SMILES O=c1c(O)c(-c2ccc(O)c(O)c2)oc2cc(O)ccc12
REMARK SMILES IDX 5 1 3 2 2 3 1 4 21 5 15 6 14 7 16 8 17 9 19 10 20 11 6 12
REMARK SMILES IDX 7 13 8 14 9 15 13 16 11 17 10 18 12 20 4 22 18 24
REMARK H PARENT 10 19 12 21 4 23 18 25
REMARK Flexibility Score: inf
ROOT
ATOM      1  C   UNL     1      22.781  19.697   8.818  1.00  0.00     0.180 A 
ATOM      2  C   UNL     1      23.735  19.998   9.812  1.00  0.00     0.208 A 
ATOM      3  C   UNL     1      23.319  20.069  11.150  1.00  0.00     0.235 A 
ATOM      4  O   UNL     1      24.153  20.348  12.056  1.00  0.00    -0.285 OA
ATOM      5  C   UNL     1      21.975  19.822  11.470  1.00  0.00     0.069 A 
ATOM      6  C   UNL     1      21.086  19.504  10.421  1.00  0.00     0.142 A 
ATOM      7  O   UNL     1      21.518  19.454   9.165  1.00  0.00    -0.452 OA
ATOM      8  C   UNL     1      19.740  19.241  10.699  1.00  0.00     0.094 A 
ATOM      9  C   UNL     1      19.269  19.293  12.016  1.00  0.00     0.119 A 
ATOM     10  C   UNL     1      20.148  19.610  13.059  1.00  0.00     0.047 A 
ATOM     11  C   UNL     1      21.495  19.873  12.791  1.00  0.00     0.020 A 
ENDROOT
BRANCH   1  12
ATOM     12  C   UNL     1      23.136  19.621   7.383  1.00  0.00     0.025 A 
ATOM     13  C   UNL     1      22.842  18.455   6.660  1.00  0.00     0.016 A 
ATOM     14  C   UNL     1      23.151  18.369   5.300  1.00  0.00     0.051 A 
ATOM     15  C   UNL     1      23.740  19.450   4.639  1.00  0.00     0.157 A 
ATOM     16  C   UNL     1      23.711  20.715   6.712  1.00  0.00     0.062 A 
ATOM     17  C   UNL     1      24.019  20.632   5.346  1.00  0.00     0.158 A 
BRANCH  15  18
ATOM     18  O   UNL     1      24.039  19.334   3.281  1.00  0.00    -0.504 OA
ATOM     19  H   UNL     1      24.560  18.548   2.911  1.00  0.00     0.293 HD
ENDBRANCH  15  18
BRANCH  17  20
ATOM     20  O   UNL     1      24.595  21.719   4.690  1.00  0.00    -0.504 OA
ATOM     21  H   UNL     1      24.516  22.661   5.054  1.00  0.00     0.293 HD
ENDBRANCH  17  20
ENDBRANCH   1  12
BRANCH   2  22
ATOM     22  O   UNL     1      25.075  20.191   9.470  1.00  0.00    -0.502 OA
ATOM     23  H   UNL     1      25.373  20.925   8.839  1.00  0.00     0.293 HD
ENDBRANCH   2  22
BRANCH   9  24
ATOM     24  O   UNL     1      17.926  19.029  12.275  1.00  0.00    -0.508 OA
ATOM     25  H   UNL     1      17.186  19.502  11.768  1.00  0.00     0.293 HD
ENDBRANCH   9  24
TORSDOF 5
ENDMDL
MODEL 8
REMARK VINA RESULT:    -5.304      2.740      4.606
REMARK INTER + INTRA:          -6.423
REMARK INTER:                  -6.962
REMARK INTRA:                   0.539
REMARK UNBOUND:                -0.189
REMARK SMILES O=c1c(O)c(-c2ccc(O)c(O)c2)oc2cc(O)ccc12
REMARK SMILES IDX 5 1 3 2 2 3 1 4 21 5 15 6 14 7 16 8 17 9 19 10 20 11 6 12
REMARK SMILES IDX 7 13 8 14 9 15 13 16 11 17 10 18 12 20 4 22 18 24
REMARK H PARENT 10 19 12 21 4 23 18 25
REMARK Flexibility Score: inf
ROOT
ATOM      1  C   UNL     1      22.156  16.303   3.590  1.00  0.00     0.180 A 
ATOM      2  C   UNL     1      23.069  17.221   3.031  1.00  0.00     0.208 A 
ATOM      3  C   UNL     1      24.321  16.753   2.601  1.00  0.00     0.235 A 
ATOM      4  O   UNL     1      25.159  17.557   2.108  1.00  0.00    -0.285 OA
ATOM      5  C   UNL     1      24.625  15.388   2.718  1.00  0.00     0.069 A 
ATOM      6  C   UNL     1      23.648  14.529   3.266  1.00  0.00     0.142 A 
ATOM      7  O   UNL     1      22.478  15.013   3.669  1.00  0.00    -0.452 OA
ATOM      8  C   UNL     1      23.909  13.160   3.390  1.00  0.00     0.094 A 
ATOM      9  C   UNL     1      25.137  12.636   2.973  1.00  0.00     0.119 A 
ATOM     10  C   UNL     1      26.110  13.485   2.431  1.00  0.00     0.047 A 
ATOM     11  C   UNL     1      25.858  14.854   2.301  1.00  0.00     0.020 A 
ENDROOT
BRANCH   1  12
ATOM     12  C   UNL     1      20.824  16.720   4.084  1.00  0.00     0.025 A 
ATOM     13  C   UNL     1      20.457  18.074   4.022  1.00  0.00     0.016 A 
ATOM     14  C   UNL     1      19.198  18.487   4.464  1.00  0.00     0.051 A 
ATOM     15  C   UNL     1      18.282  17.554   4.958  1.00  0.00     0.157 A 
ATOM     16  C   UNL     1      19.893  15.781   4.563  1.00  0.00     0.062 A 
ATOM     17  C   UNL     1      18.628  16.194   5.005  1.00  0.00     0.158 A 
BRANCH  15  18
ATOM     18  O   UNL     1      17.032  17.997   5.394  1.00  0.00    -0.504 OA
ATOM     19  H   UNL     1      16.201  17.422   5.316  1.00  0.00     0.293 HD
ENDBRANCH  15  18
BRANCH  17  20
ATOM     20  O   UNL     1      17.713  15.257   5.484  1.00  0.00    -0.504 OA
ATOM     21  H   UNL     1      17.921  14.265   5.487  1.00  0.00     0.293 HD
ENDBRANCH  17  20
ENDBRANCH   1  12
BRANCH   2  22
ATOM     22  O   UNL     1      22.720  18.565   2.883  1.00  0.00    -0.502 OA
ATOM     23  H   UNL     1      21.935  18.861   2.315  1.00  0.00     0.293 HD
ENDBRANCH   2  22
BRANCH   9  24
ATOM     24  O   UNL     1      25.380  11.271   3.105  1.00  0.00    -0.508 OA
ATOM     25  H   UNL     1      24.689  10.646   3.504  1.00  0.00     0.293 HD
ENDBRANCH   9  24
TORSDOF 5
ENDMDL
MODEL 9
REMARK VINA RESULT:    -5.289      2.638      4.803
REMARK INTER + INTRA:          -6.406
REMARK INTER:                  -6.182
REMARK INTRA:                  -0.223
REMARK UNBOUND:                -0.189
REMARK SMILES O=c1c(O)c(-c2ccc(O)c(O)c2)oc2cc(O)ccc12
REMARK SMILES IDX 5 1 3 2 2 3 1 4 21 5 15 6 14 7 16 8 17 9 19 10 20 11 6 12
REMARK SMILES IDX 7 13 8 14 9 15 13 16 11 17 10 18 12 20 4 22 18 24
REMARK H PARENT 10 19 12 21 4 23 18 25
REMARK Flexibility Score: inf
ROOT
ATOM      1  C   UNL     1      23.140  19.056   6.664  1.00  0.00     0.180 A 
ATOM      2  C   UNL     1      23.675  19.951   5.714  1.00  0.00     0.208 A 
ATOM      3  C   UNL     1      23.801  19.528   4.382  1.00  0.00     0.235 A 
ATOM      4  O   UNL     1      24.288  20.307   3.516  1.00  0.00    -0.285 OA
ATOM      5  C   UNL     1      23.376  18.239   4.023  1.00  0.00     0.069 A 
ATOM      6  C   UNL     1      22.828  17.412   5.027  1.00  0.00     0.142 A 
ATOM      7  O   UNL     1      22.734  17.848   6.279  1.00  0.00    -0.452 OA
ATOM      8  C   UNL     1      22.382  16.125   4.708  1.00  0.00     0.094 A 
ATOM      9  C   UNL     1      22.478  15.651   3.395  1.00  0.00     0.119 A 
ATOM     10  C   UNL     1      23.023  16.468   2.396  1.00  0.00     0.047 A 
ATOM     11  C   UNL     1      23.469  17.756   2.705  1.00  0.00     0.020 A 
ENDROOT
BRANCH   1  12
ATOM     12  C   UNL     1      22.992  19.420   8.091  1.00  0.00     0.025 A 
ATOM     13  C   UNL     1      24.136  19.552   8.893  1.00  0.00     0.016 A 
ATOM     14  C   UNL     1      24.021  19.913  10.237  1.00  0.00     0.051 A 
ATOM     15  C   UNL     1      22.765  20.165  10.796  1.00  0.00     0.157 A 
ATOM     16  C   UNL     1      21.730  19.692   8.650  1.00  0.00     0.062 A 
ATOM     17  C   UNL     1      21.613  20.058   9.999  1.00  0.00     0.158 A 
BRANCH  15  18
ATOM     18  O   UNL     1      22.681  20.522  12.142  1.00  0.00    -0.504 OA
ATOM     19  H   UNL     1      22.419  21.456  12.435  1.00  0.00     0.293 HD
ENDBRANCH  15  18
BRANCH  17  20
ATOM     20  O   UNL     1      20.358  20.321  10.547  1.00  0.00    -0.504 OA
ATOM     21  H   UNL     1      20.045  19.870  11.399  1.00  0.00     0.293 HD
ENDBRANCH  17  20
ENDBRANCH   1  12
BRANCH   2  22
ATOM     22  O   UNL     1      24.045  21.244   6.090  1.00  0.00    -0.502 OA
ATOM     23  H   UNL     1      24.346  21.469   7.031  1.00  0.00     0.293 HD
ENDBRANCH   2  22
BRANCH   9  24
ATOM     24  O   UNL     1      22.031  14.367   3.095  1.00  0.00    -0.508 OA
ATOM     25  H   UNL     1      22.679  13.608   2.917  1.00  0.00     0.293 HD
ENDBRANCH   9  24
TORSDOF 5
ENDMDL
