MODEL 1
REMARK VINA RESULT:    -3.791      0.000      0.000
REMARK INTER + INTRA:          -4.416
REMARK INTER:                  -4.235
REMARK INTRA:                  -0.181
REMARK UNBOUND:                -0.181
REMARK SMILES O=C([O-])c1ccccc1C(=O)[O-]
REMARK SMILES IDX 4 1 9 2 5 3 8 4 6 5 7 6 2 7 1 8 3 9 10 10 11 11 12 12
REMARK H PARENT
REMARK Flexibility Score: inf
ROOT
ATOM      1  C   UNL     1      36.293 181.361 172.541  1.00  0.00     0.006 A 
ATOM      2  C   UNL     1      37.026 181.751 171.384  1.00  0.00     0.006 A 
ATOM      3  C   UNL     1      36.988 180.823 173.640  1.00  0.00     0.010 A 
ATOM      4  C   UNL     1      38.413 181.524 171.344  1.00  0.00     0.010 A 
ATOM      5  C   UNL     1      38.368 180.629 173.587  1.00  0.00     0.001 A 
ATOM      6  C   UNL     1      39.078 180.968 172.437  1.00  0.00     0.001 A 
ENDROOT
BRANCH   1   7
ATOM      7  C   UNL     1      34.816 181.433 172.624  1.00  0.00     0.072 C 
ATOM      8  O   UNL     1      34.094 180.624 171.983  1.00  0.00    -0.545 OA
ATOM      9  O   UNL     1      34.210 182.355 173.469  1.00  0.00    -0.545 OA
ENDBRANCH   1   7
BRANCH   2  10
ATOM     10  C   UNL     1      36.406 182.448 170.233  1.00  0.00     0.072 C 
ATOM     11  O   UNL     1      36.429 183.705 170.152  1.00  0.00    -0.545 OA
ATOM     12  O   UNL     1      35.850 181.715 169.190  1.00  0.00    -0.545 OA
ENDBRANCH   2  10
TORSDOF 2
ENDMDL
MODEL 2
REMARK VINA RESULT:    -3.750      0.205      3.191
REMARK INTER + INTRA:          -4.370
REMARK INTER:                  -4.163
REMARK INTRA:                  -0.207
REMARK UNBOUND:                -0.181
REMARK SMILES O=C([O-])c1ccccc1C(=O)[O-]
REMARK SMILES IDX 4 1 9 2 5 3 8 4 6 5 7 6 2 7 1 8 3 9 10 10 11 11 12 12
REMARK H PARENT
REMARK Flexibility Score: inf
ROOT
ATOM      1  C   UNL     1      37.061 181.729 171.561  1.00  0.00     0.006 A 
ATOM      2  C   UNL     1      36.341 181.324 172.721  1.00  0.00     0.006 A 
ATOM      3  C   UNL     1      38.445 181.483 171.495  1.00  0.00     0.010 A 
ATOM      4  C   UNL     1      37.044 180.751 173.796  1.00  0.00     0.010 A 
ATOM      5  C   UNL     1      39.117 180.893 172.565  1.00  0.00     0.001 A 
ATOM      6  C   UNL     1      38.420 180.537 173.718  1.00  0.00     0.001 A 
ENDROOT
BRANCH   1   7
ATOM      7  C   UNL     1      36.434 182.462 170.437  1.00  0.00     0.072 C 
ATOM      8  O   UNL     1      36.385 183.720 170.434  1.00  0.00    -0.545 OA
ATOM      9  O   UNL     1      35.951 181.766 169.334  1.00  0.00    -0.545 OA
ENDBRANCH   1   7
BRANCH   2  10
ATOM     10  C   UNL     1      34.866 181.416 172.829  1.00  0.00     0.072 C 
ATOM     11  O   UNL     1      34.125 180.552 172.289  1.00  0.00    -0.545 OA
ATOM     12  O   UNL     1      34.285 182.423 173.591  1.00  0.00    -0.545 OA
ENDBRANCH   2  10
TORSDOF 2
ENDMDL
MODEL 3
REMARK VINA RESULT:    -3.742      2.763      3.964
REMARK INTER + INTRA:          -4.361
REMARK INTER:                  -4.181
REMARK INTRA:                  -0.180
REMARK UNBOUND:                -0.181
REMARK SMILES O=C([O-])c1ccccc1C(=O)[O-]
REMARK SMILES IDX 4 1 9 2 5 3 8 4 6 5 7 6 2 7 1 8 3 9 10 10 11 11 12 12
REMARK H PARENT
REMARK Flexibility Score: inf
ROOT
ATOM      1  C   UNL     1      39.118 181.102 173.072  1.00  0.00     0.006 A 
ATOM      2  C   UNL     1      39.534 182.064 174.036  1.00  0.00     0.006 A 
ATOM      3  C   UNL     1      39.886 179.936 172.894  1.00  0.00     0.010 A 
ATOM      4  C   UNL     1      40.737 181.856 174.735  1.00  0.00     0.010 A 
ATOM      5  C   UNL     1      41.063 179.740 173.616  1.00  0.00     0.001 A 
ATOM      6  C   UNL     1      41.494 180.703 174.526  1.00  0.00     0.001 A 
ENDROOT
BRANCH   1   7
ATOM      7  C   UNL     1      37.943 181.298 172.191  1.00  0.00     0.072 C 
ATOM      8  O   UNL     1      38.087 181.640 170.988  1.00  0.00    -0.545 OA
ATOM      9  O   UNL     1      36.664 181.036 172.670  1.00  0.00    -0.545 OA
ENDBRANCH   1   7
BRANCH   2  10
ATOM     10  C   UNL     1      38.725 183.253 174.391  1.00  0.00     0.072 C 
ATOM     11  O   UNL     1      39.052 184.400 173.985  1.00  0.00    -0.545 OA
ATOM     12  O   UNL     1      37.551 183.105 175.122  1.00  0.00    -0.545 OA
ENDBRANCH   2  10
TORSDOF 2
ENDMDL
MODEL 4
REMARK VINA RESULT:    -3.672      2.351      3.307
REMARK INTER + INTRA:          -4.283
REMARK INTER:                  -4.054
REMARK INTRA:                  -0.228
REMARK UNBOUND:                -0.181
REMARK SMILES O=C([O-])c1ccccc1C(=O)[O-]
REMARK SMILES IDX 4 1 9 2 5 3 8 4 6 5 7 6 2 7 1 8 3 9 10 10 11 11 12 12
REMARK H PARENT
REMARK Flexibility Score: inf
ROOT
ATOM      1  C   UNL     1      37.952 182.137 172.757  1.00  0.00     0.006 A 
ATOM      2  C   UNL     1      38.062 183.273 173.608  1.00  0.00     0.006 A 
ATOM      3  C   UNL     1      39.089 181.342 172.527  1.00  0.00     0.010 A 
ATOM      4  C   UNL     1      39.320 183.608 174.141  1.00  0.00     0.010 A 
ATOM      5  C   UNL     1      40.322 181.681 173.085  1.00  0.00     0.001 A 
ATOM      6  C   UNL     1      40.440 182.818 173.881  1.00  0.00     0.001 A 
ENDROOT
BRANCH   1   7
ATOM      7  C   UNL     1      36.704 181.783 172.041  1.00  0.00     0.072 C 
ATOM      8  O   UNL     1      35.855 181.015 172.565  1.00  0.00    -0.545 OA
ATOM      9  O   UNL     1      36.425 182.355 170.805  1.00  0.00    -0.545 OA
ENDBRANCH   1   7
BRANCH   2  10
ATOM     10  C   UNL     1      36.897 184.091 174.019  1.00  0.00     0.072 C 
ATOM     11  O   UNL     1      36.573 185.122 173.371  1.00  0.00    -0.545 OA
ATOM     12  O   UNL     1      36.104 183.688 175.087  1.00  0.00    -0.545 OA
ENDBRANCH   2  10
TORSDOF 2
ENDMDL
MODEL 5
REMARK VINA RESULT:    -3.670      2.710      3.677
REMARK INTER + INTRA:          -4.281
REMARK INTER:                  -4.089
REMARK INTRA:                  -0.192
REMARK UNBOUND:                -0.181
REMARK SMILES O=C([O-])c1ccccc1C(=O)[O-]
REMARK SMILES IDX 4 1 9 2 5 3 8 4 6 5 7 6 2 7 1 8 3 9 10 10 11 11 12 12
REMARK H PARENT
REMARK Flexibility Score: inf
ROOT
ATOM      1  C   UNL     1      39.433 182.111 174.045  1.00  0.00     0.006 A 
ATOM      2  C   UNL     1      39.032 181.164 173.060  1.00  0.00     0.006 A 
ATOM      3  C   UNL     1      40.621 181.888 174.765  1.00  0.00     0.010 A 
ATOM      4  C   UNL     1      39.798 179.997 172.882  1.00  0.00     0.010 A 
ATOM      5  C   UNL     1      41.377 180.735 174.555  1.00  0.00     0.001 A 
ATOM      6  C   UNL     1      40.961 179.786 173.624  1.00  0.00     0.001 A 
ENDROOT
BRANCH   1   7
ATOM      7  C   UNL     1      38.621 183.299 174.399  1.00  0.00     0.072 C 
ATOM      8  O   UNL     1      38.948 184.447 174.000  1.00  0.00    -0.545 OA
ATOM      9  O   UNL     1      37.444 183.146 175.124  1.00  0.00    -0.545 OA
ENDBRANCH   1   7
BRANCH   2  10
ATOM     10  C   UNL     1      37.875 181.375 172.159  1.00  0.00     0.072 C 
ATOM     11  O   UNL     1      38.045 181.750 170.969  1.00  0.00    -0.545 OA
ATOM     12  O   UNL     1      36.587 181.093 172.600  1.00  0.00    -0.545 OA
ENDBRANCH   2  10
TORSDOF 2
ENDMDL
MODEL 6
REMARK VINA RESULT:    -3.667      2.381      3.017
REMARK INTER + INTRA:          -4.277
REMARK INTER:                  -4.048
REMARK INTRA:                  -0.230
REMARK UNBOUND:                -0.181
REMARK SMILES O=C([O-])c1ccccc1C(=O)[O-]
REMARK SMILES IDX 4 1 9 2 5 3 8 4 6 5 7 6 2 7 1 8 3 9 10 10 11 11 12 12
REMARK H PARENT
REMARK Flexibility Score: inf
ROOT
ATOM      1  C   UNL     1      38.006 183.357 173.584  1.00  0.00     0.006 A 
ATOM      2  C   UNL     1      37.946 182.178 172.786  1.00  0.00     0.006 A 
ATOM      3  C   UNL     1      39.246 183.761 174.113  1.00  0.00     0.010 A 
ATOM      4  C   UNL     1      39.113 181.414 172.606  1.00  0.00     0.010 A 
ATOM      5  C   UNL     1      40.395 183.000 173.902  1.00  0.00     0.001 A 
ATOM      6  C   UNL     1      40.327 181.823 173.159  1.00  0.00     0.001 A 
ENDROOT
BRANCH   1   7
ATOM      7  C   UNL     1      36.808 184.150 173.942  1.00  0.00     0.072 C 
ATOM      8  O   UNL     1      36.441 185.123 173.233  1.00  0.00    -0.545 OA
ATOM      9  O   UNL     1      36.031 183.782 175.036  1.00  0.00    -0.545 OA
ENDBRANCH   1   7
BRANCH   2  10
ATOM     10  C   UNL     1      36.720 181.745 172.076  1.00  0.00     0.072 C 
ATOM     11  O   UNL     1      35.919 180.933 172.609  1.00  0.00    -0.545 OA
ATOM     12  O   UNL     1      36.405 182.288 170.835  1.00  0.00    -0.545 OA
ENDBRANCH   2  10
TORSDOF 2
ENDMDL
MODEL 7
REMARK VINA RESULT:    -3.555     20.685     21.567
REMARK INTER + INTRA:          -4.152
REMARK INTER:                  -3.940
REMARK INTRA:                  -0.212
REMARK UNBOUND:                -0.181
REMARK SMILES O=C([O-])c1ccccc1C(=O)[O-]
REMARK SMILES IDX 4 1 9 2 5 3 8 4 6 5 7 6 2 7 1 8 3 9 10 10 11 11 12 12
REMARK H PARENT
REMARK Flexibility Score: inf
ROOT
ATOM      1  C   UNL     1      30.976 166.763 157.757  1.00  0.00     0.006 A 
ATOM      2  C   UNL     1      31.148 167.307 156.451  1.00  0.00     0.006 A 
ATOM      3  C   UNL     1      32.115 166.411 158.505  1.00  0.00     0.010 A 
ATOM      4  C   UNL     1      32.445 167.412 155.920  1.00  0.00     0.010 A 
ATOM      5  C   UNL     1      33.393 166.546 157.965  1.00  0.00     0.001 A 
ATOM      6  C   UNL     1      33.559 167.035 156.671  1.00  0.00     0.001 A 
ENDROOT
BRANCH   1   7
ATOM      7  C   UNL     1      29.646 166.487 158.347  1.00  0.00     0.072 C 
ATOM      8  O   UNL     1      29.130 167.281 159.176  1.00  0.00    -0.545 OA
ATOM      9  O   UNL     1      28.921 165.374 157.937  1.00  0.00    -0.545 OA
ENDBRANCH   1   7
BRANCH   2  10
ATOM     10  C   UNL     1      30.023 167.832 155.641  1.00  0.00     0.072 C 
ATOM     11  O   UNL     1      29.793 169.069 155.584  1.00  0.00    -0.545 OA
ATOM     12  O   UNL     1      29.251 166.965 154.876  1.00  0.00    -0.545 OA
ENDBRANCH   2  10
TORSDOF 2
ENDMDL
MODEL 8
REMARK VINA RESULT:    -3.554     20.684     21.745
REMARK INTER + INTRA:          -4.150
REMARK INTER:                  -3.933
REMARK INTRA:                  -0.217
REMARK UNBOUND:                -0.181
REMARK SMILES O=C([O-])c1ccccc1C(=O)[O-]
REMARK SMILES IDX 4 1 9 2 5 3 8 4 6 5 7 6 2 7 1 8 3 9 10 10 11 11 12 12
REMARK H PARENT
REMARK Flexibility Score: inf
ROOT
ATOM      1  C   UNL     1      31.104 167.302 156.457  1.00  0.00     0.006 A 
ATOM      2  C   UNL     1      30.927 166.774 157.768  1.00  0.00     0.006 A 
ATOM      3  C   UNL     1      32.404 167.392 155.927  1.00  0.00     0.010 A 
ATOM      4  C   UNL     1      32.060 166.420 158.521  1.00  0.00     0.010 A 
ATOM      5  C   UNL     1      33.512 167.014 156.685  1.00  0.00     0.001 A 
ATOM      6  C   UNL     1      33.342 166.539 157.983  1.00  0.00     0.001 A 
ENDROOT
BRANCH   1   7
ATOM      7  C   UNL     1      29.986 167.829 155.641  1.00  0.00     0.072 C 
ATOM      8  O   UNL     1      29.757 169.065 155.580  1.00  0.00    -0.545 OA
ATOM      9  O   UNL     1      29.215 166.961 154.875  1.00  0.00    -0.545 OA
ENDBRANCH   1   7
BRANCH   2  10
ATOM     10  C   UNL     1      29.594 166.514 158.360  1.00  0.00     0.072 C 
ATOM     11  O   UNL     1      29.068 167.341 159.151  1.00  0.00    -0.545 OA
ATOM     12  O   UNL     1      28.876 165.381 157.992  1.00  0.00    -0.545 OA
ENDBRANCH   2  10
TORSDOF 2
ENDMDL
MODEL 9
REMARK VINA RESULT:    -3.537     20.464     21.476
REMARK INTER + INTRA:          -4.131
REMARK INTER:                  -3.944
REMARK INTRA:                  -0.187
REMARK UNBOUND:                -0.181
REMARK SMILES O=C([O-])c1ccccc1C(=O)[O-]
REMARK SMILES IDX 4 1 9 2 5 3 8 4 6 5 7 6 2 7 1 8 3 9 10 10 11 11 12 12
REMARK H PARENT
REMARK Flexibility Score: inf
ROOT
ATOM      1  C   UNL     1      30.449 166.870 157.092  1.00  0.00     0.006 A 
ATOM      2  C   UNL     1      31.458 166.866 158.096  1.00  0.00     0.006 A 
ATOM      3  C   UNL     1      30.826 167.034 155.746  1.00  0.00     0.010 A 
ATOM      4  C   UNL     1      32.795 167.093 157.724  1.00  0.00     0.010 A 
ATOM      5  C   UNL     1      32.161 167.234 155.397  1.00  0.00     0.001 A 
ATOM      6  C   UNL     1      33.143 167.275 156.385  1.00  0.00     0.001 A 
ENDROOT
BRANCH   1   7
ATOM      7  C   UNL     1      29.003 166.777 157.399  1.00  0.00     0.072 C 
ATOM      8  O   UNL     1      28.286 167.810 157.451  1.00  0.00    -0.545 OA
ATOM      9  O   UNL     1      28.407 165.532 157.568  1.00  0.00    -0.545 OA
ENDBRANCH   1   7
BRANCH   2  10
ATOM     10  C   UNL     1      31.178 166.567 159.521  1.00  0.00     0.072 C 
ATOM     11  O   UNL     1      31.495 165.455 160.020  1.00  0.00    -0.545 OA
ATOM     12  O   UNL     1      30.624 167.543 160.342  1.00  0.00    -0.545 OA
ENDBRANCH   2  10
TORSDOF 2
ENDMDL
