MODEL 1
REMARK VINA RESULT:    -3.212      0.000      0.000
REMARK INTER + INTRA:          -8.114
REMARK INTER:                  -5.841
REMARK INTRA:                  -2.273
REMARK UNBOUND:                -2.273
REMARK SMILES CCCCCCCCCCCCCCCC(=O)[O-]
REMARK SMILES IDX 9 1 10 2 11 3 12 4 13 5 14 6 15 7 16 8 17 9 18 10 8 11 7 12
REMARK SMILES IDX 6 13 5 14 4 15 3 16 2 17 1 18
REMARK H PARENT
REMARK Flexibility Score: inf
ROOT
ATOM      1  C   UNL     1      -5.186  -4.753   7.083  1.00  0.00     0.000 C 
ENDROOT
BRANCH   1   2
ATOM      2  C   UNL     1      -4.527  -5.199   8.399  1.00  0.00     0.000 C 
BRANCH   2   3
ATOM      3  C   UNL     1      -4.979  -6.602   8.841  1.00  0.00     0.000 C 
BRANCH   3   4
ATOM      4  C   UNL     1      -6.220  -7.089   8.076  1.00  0.00     0.000 C 
BRANCH   4   5
ATOM      5  C   UNL     1      -5.912  -8.279   7.149  1.00  0.00     0.000 C 
BRANCH   5   6
ATOM      6  C   UNL     1      -4.500  -8.845   7.365  1.00  0.00     0.006 C 
BRANCH   6   7
ATOM      7  C   UNL     1      -3.680  -8.893   6.069  1.00  0.00     0.053 C 
BRANCH   7   8
ATOM      8  C   UNL     1      -2.666  -7.793   6.052  1.00  0.00     0.041 C 
ATOM      9  O   UNL     1      -2.835  -6.786   5.314  1.00  0.00    -0.550 OA
ATOM     10  O   UNL     1      -1.510  -7.900   6.815  1.00  0.00    -0.550 OA
ENDBRANCH   7   8
ENDBRANCH   6   7
ENDBRANCH   5   6
ENDBRANCH   4   5
ENDBRANCH   3   4
ENDBRANCH   2   3
ENDBRANCH   1   2
BRANCH   1  11
ATOM     11  C   UNL     1      -5.977  -3.444   7.233  1.00  0.00     0.000 C 
BRANCH  11  12
ATOM     12  C   UNL     1      -6.175  -3.091   8.714  1.00  0.00    -0.000 C 
BRANCH  12  13
ATOM     13  C   UNL     1      -7.658  -2.970   9.101  1.00  0.00    -0.000 C 
BRANCH  13  14
ATOM     14  C   UNL     1      -8.309  -4.334   9.394  1.00  0.00    -0.000 C 
BRANCH  14  15
ATOM     15  C   UNL     1      -9.545  -4.591   8.506  1.00  0.00    -0.000 C 
BRANCH  15  16
ATOM     16  C   UNL     1      -9.204  -5.213   7.141  1.00  0.00    -0.000 C 
BRANCH  16  17
ATOM     17  C   UNL     1      -9.443  -4.251   5.970  1.00  0.00    -0.003 C 
ATOM     18  C   UNL     1      -8.793  -4.769   4.691  1.00  0.00     0.004 C 
ENDBRANCH  16  17
ENDBRANCH  15  16
ENDBRANCH  14  15
ENDBRANCH  13  14
ENDBRANCH  12  13
ENDBRANCH  11  12
ENDBRANCH   1  11
TORSDOF 14
ENDMDL
MODEL 2
REMARK VINA RESULT:    -3.205      0.736      1.891
REMARK INTER + INTRA:          -8.101
REMARK INTER:                  -5.991
REMARK INTRA:                  -2.110
REMARK UNBOUND:                -2.273
REMARK SMILES CCCCCCCCCCCCCCCC(=O)[O-]
REMARK SMILES IDX 9 1 10 2 11 3 12 4 13 5 14 6 15 7 16 8 17 9 18 10 8 11 7 12
REMARK SMILES IDX 6 13 5 14 4 15 3 16 2 17 1 18
REMARK H PARENT
REMARK Flexibility Score: inf
ROOT
ATOM      1  C   UNL     1      -6.027  -2.841   8.685  1.00  0.00     0.000 C 
ENDROOT
BRANCH   1   2
ATOM      2  C   UNL     1      -5.996  -3.428   7.265  1.00  0.00     0.000 C 
BRANCH   2   3
ATOM      3  C   UNL     1      -5.220  -4.756   7.190  1.00  0.00     0.000 C 
BRANCH   3   4
ATOM      4  C   UNL     1      -4.513  -5.099   8.510  1.00  0.00     0.000 C 
BRANCH   4   5
ATOM      5  C   UNL     1      -4.247  -6.608   8.662  1.00  0.00     0.000 C 
BRANCH   5   6
ATOM      6  C   UNL     1      -4.883  -7.436   7.535  1.00  0.00     0.006 C 
BRANCH   6   7
ATOM      7  C   UNL     1      -3.885  -8.392   6.870  1.00  0.00     0.053 C 
BRANCH   7   8
ATOM      8  C   UNL     1      -2.734  -7.628   6.296  1.00  0.00     0.041 C 
ATOM      9  O   UNL     1      -2.926  -6.795   5.371  1.00  0.00    -0.550 OA
ATOM     10  O   UNL     1      -1.443  -7.871   6.746  1.00  0.00    -0.550 OA
ENDBRANCH   7   8
ENDBRANCH   6   7
ENDBRANCH   5   6
ENDBRANCH   4   5
ENDBRANCH   3   4
ENDBRANCH   2   3
ENDBRANCH   1   2
BRANCH   1  11
ATOM     11  C   UNL     1      -7.438  -2.847   9.295  1.00  0.00     0.000 C 
BRANCH  11  12
ATOM     12  C   UNL     1      -7.741  -4.197   9.959  1.00  0.00    -0.000 C 
BRANCH  12  13
ATOM     13  C   UNL     1      -9.103  -4.772   9.537  1.00  0.00    -0.000 C 
BRANCH  13  14
ATOM     14  C   UNL     1      -8.970  -6.012   8.635  1.00  0.00    -0.000 C 
BRANCH  14  15
ATOM     15  C   UNL     1      -8.857  -5.636   7.142  1.00  0.00    -0.000 C 
BRANCH  15  16
ATOM     16  C   UNL     1      -9.615  -4.349   6.773  1.00  0.00    -0.000 C 
BRANCH  16  17
ATOM     17  C   UNL     1      -9.833  -4.197   5.262  1.00  0.00    -0.003 C 
ATOM     18  C   UNL     1      -8.679  -4.810   4.475  1.00  0.00     0.004 C 
ENDBRANCH  16  17
ENDBRANCH  15  16
ENDBRANCH  14  15
ENDBRANCH  13  14
ENDBRANCH  12  13
ENDBRANCH  11  12
ENDBRANCH   1  11
TORSDOF 14
ENDMDL
MODEL 3
REMARK VINA RESULT:    -3.158     14.776     17.256
REMARK INTER + INTRA:          -8.015
REMARK INTER:                  -7.255
REMARK INTRA:                  -0.760
REMARK UNBOUND:                -2.273
REMARK SMILES CCCCCCCCCCCCCCCC(=O)[O-]
REMARK SMILES IDX 9 1 10 2 11 3 12 4 13 5 14 6 15 7 16 8 17 9 18 10 8 11 7 12
REMARK SMILES IDX 6 13 5 14 4 15 3 16 2 17 1 18
REMARK H PARENT
REMARK Flexibility Score: inf
ROOT
ATOM      1  C   UNL     1       6.384  -2.576  -4.851  1.00  0.00     0.000 C 
ENDROOT
BRANCH   1   2
ATOM      2  C   UNL     1       5.128  -3.458  -4.929  1.00  0.00     0.000 C 
BRANCH   2   3
ATOM      3  C   UNL     1       4.872  -4.241  -3.629  1.00  0.00     0.000 C 
BRANCH   3   4
ATOM      4  C   UNL     1       4.618  -5.735  -3.882  1.00  0.00     0.000 C 
BRANCH   4   5
ATOM      5  C   UNL     1       3.676  -6.360  -2.838  1.00  0.00     0.000 C 
BRANCH   5   6
ATOM      6  C   UNL     1       4.116  -6.065  -1.396  1.00  0.00     0.006 C 
BRANCH   6   7
ATOM      7  C   UNL     1       4.742  -7.286  -0.710  1.00  0.00     0.053 C 
BRANCH   7   8
ATOM      8  C   UNL     1       4.868  -7.050   0.762  1.00  0.00     0.041 C 
ATOM      9  O   UNL     1       5.945  -7.321   1.357  1.00  0.00    -0.550 OA
ATOM     10  O   UNL     1       3.782  -6.578   1.487  1.00  0.00    -0.550 OA
ENDBRANCH   7   8
ENDBRANCH   6   7
ENDBRANCH   5   6
ENDBRANCH   4   5
ENDBRANCH   3   4
ENDBRANCH   2   3
ENDBRANCH   1   2
BRANCH   1  11
ATOM     11  C   UNL     1       6.476  -1.574  -6.012  1.00  0.00     0.000 C 
BRANCH  11  12
ATOM     12  C   UNL     1       7.252  -0.318  -5.590  1.00  0.00    -0.000 C 
BRANCH  12  13
ATOM     13  C   UNL     1       7.338   0.730  -6.711  1.00  0.00    -0.000 C 
BRANCH  13  14
ATOM     14  C   UNL     1       6.182   0.616  -7.721  1.00  0.00    -0.000 C 
BRANCH  14  15
ATOM     15  C   UNL     1       5.605   1.997  -8.103  1.00  0.00    -0.000 C 
BRANCH  15  16
ATOM     16  C   UNL     1       6.155   3.151  -7.247  1.00  0.00    -0.000 C 
BRANCH  16  17
ATOM     17  C   UNL     1       5.053   3.934  -6.521  1.00  0.00    -0.003 C 
ATOM     18  C   UNL     1       4.271   3.031  -5.572  1.00  0.00     0.004 C 
ENDBRANCH  16  17
ENDBRANCH  15  16
ENDBRANCH  14  15
ENDBRANCH  13  14
ENDBRANCH  12  13
ENDBRANCH  11  12
ENDBRANCH   1  11
TORSDOF 14
ENDMDL
MODEL 4
REMARK VINA RESULT:    -3.098     19.164     21.773
REMARK INTER + INTRA:          -7.907
REMARK INTER:                  -5.316
REMARK INTRA:                  -2.590
REMARK UNBOUND:                -2.273
REMARK SMILES CCCCCCCCCCCCCCCC(=O)[O-]
REMARK SMILES IDX 9 1 10 2 11 3 12 4 13 5 14 6 15 7 16 8 17 9 18 10 8 11 7 12
REMARK SMILES IDX 6 13 5 14 4 15 3 16 2 17 1 18
REMARK H PARENT
REMARK Flexibility Score: inf
ROOT
ATOM      1  C   UNL     1       9.450  -0.174  -8.707  1.00  0.00     0.000 C 
ENDROOT
BRANCH   1   2
ATOM      2  C   UNL     1       9.262   0.927  -9.763  1.00  0.00     0.000 C 
BRANCH   2   3
ATOM      3  C   UNL     1       8.687   2.225  -9.168  1.00  0.00     0.000 C 
BRANCH   3   4
ATOM      4  C   UNL     1       9.230   2.519  -7.761  1.00  0.00     0.000 C 
BRANCH   4   5
ATOM      5  C   UNL     1       8.243   3.332  -6.905  1.00  0.00     0.000 C 
BRANCH   5   6
ATOM      6  C   UNL     1       6.987   3.748  -7.687  1.00  0.00     0.006 C 
BRANCH   6   7
ATOM      7  C   UNL     1       5.903   4.349  -6.783  1.00  0.00     0.053 C 
BRANCH   7   8
ATOM      8  C   UNL     1       4.578   3.713  -7.064  1.00  0.00     0.041 C 
ATOM      9  O   UNL     1       3.859   3.302  -6.116  1.00  0.00    -0.550 OA
ATOM     10  O   UNL     1       4.159   3.529  -8.375  1.00  0.00    -0.550 OA
ENDBRANCH   7   8
ENDBRANCH   6   7
ENDBRANCH   5   6
ENDBRANCH   4   5
ENDBRANCH   3   4
ENDBRANCH   2   3
ENDBRANCH   1   2
BRANCH   1  11
ATOM     11  C   UNL     1       8.767  -1.493  -9.100  1.00  0.00     0.000 C 
BRANCH  11  12
ATOM     12  C   UNL     1       7.397  -1.229  -9.741  1.00  0.00    -0.000 C 
BRANCH  12  13
ATOM     13  C   UNL     1       6.263  -2.012  -9.061  1.00  0.00    -0.000 C 
BRANCH  13  14
ATOM     14  C   UNL     1       5.201  -1.094  -8.431  1.00  0.00    -0.000 C 
BRANCH  14  15
ATOM     15  C   UNL     1       5.803   0.240  -7.939  1.00  0.00    -0.000 C 
BRANCH  15  16
ATOM     16  C   UNL     1       5.892   0.346  -6.407  1.00  0.00    -0.000 C 
BRANCH  16  17
ATOM     17  C   UNL     1       7.180  -0.267  -5.840  1.00  0.00    -0.003 C 
ATOM     18  C   UNL     1       6.923  -1.662  -5.278  1.00  0.00     0.004 C 
ENDBRANCH  16  17
ENDBRANCH  15  16
ENDBRANCH  14  15
ENDBRANCH  13  14
ENDBRANCH  12  13
ENDBRANCH  11  12
ENDBRANCH   1  11
TORSDOF 14
ENDMDL
MODEL 5
REMARK VINA RESULT:    -3.028     19.635     21.539
REMARK INTER + INTRA:          -7.778
REMARK INTER:                  -6.096
REMARK INTRA:                  -1.682
REMARK UNBOUND:                -2.273
REMARK SMILES CCCCCCCCCCCCCCCC(=O)[O-]
REMARK SMILES IDX 9 1 10 2 11 3 12 4 13 5 14 6 15 7 16 8 17 9 18 10 8 11 7 12
REMARK SMILES IDX 6 13 5 14 4 15 3 16 2 17 1 18
REMARK H PARENT
REMARK Flexibility Score: inf
ROOT
ATOM      1  C   UNL     1       6.726   7.060  -2.898  1.00  0.00     0.000 C 
ENDROOT
BRANCH   1   2
ATOM      2  C   UNL     1       7.601   8.294  -3.172  1.00  0.00     0.000 C 
BRANCH   2   3
ATOM      3  C   UNL     1       6.946   9.603  -2.695  1.00  0.00     0.000 C 
BRANCH   3   4
ATOM      4  C   UNL     1       5.441   9.444  -2.427  1.00  0.00     0.000 C 
BRANCH   4   5
ATOM      5  C   UNL     1       5.066   9.752  -0.966  1.00  0.00     0.000 C 
BRANCH   5   6
ATOM      6  C   UNL     1       6.297   9.969  -0.074  1.00  0.00     0.006 C 
BRANCH   6   7
ATOM      7  C   UNL     1       6.387   8.945   1.065  1.00  0.00     0.053 C 
BRANCH   7   8
ATOM      8  C   UNL     1       7.302   7.823   0.687  1.00  0.00     0.041 C 
ATOM      9  O   UNL     1       6.926   6.628   0.817  1.00  0.00    -0.550 OA
ATOM     10  O   UNL     1       8.588   8.095   0.239  1.00  0.00    -0.550 OA
ENDBRANCH   7   8
ENDBRANCH   6   7
ENDBRANCH   5   6
ENDBRANCH   4   5
ENDBRANCH   3   4
ENDBRANCH   2   3
ENDBRANCH   1   2
BRANCH   1  11
ATOM     11  C   UNL     1       6.304   6.337  -4.186  1.00  0.00     0.000 C 
BRANCH  11  12
ATOM     12  C   UNL     1       7.176   6.776  -5.370  1.00  0.00    -0.000 C 
BRANCH  12  13
ATOM     13  C   UNL     1       6.347   7.256  -6.572  1.00  0.00    -0.000 C 
BRANCH  13  14
ATOM     14  C   UNL     1       5.909   6.101  -7.491  1.00  0.00    -0.000 C 
BRANCH  14  15
ATOM     15  C   UNL     1       6.897   4.915  -7.446  1.00  0.00    -0.000 C 
BRANCH  15  16
ATOM     16  C   UNL     1       6.224   3.567  -7.136  1.00  0.00    -0.000 C 
BRANCH  16  17
ATOM     17  C   UNL     1       4.696   3.670  -7.041  1.00  0.00    -0.003 C 
ATOM     18  C   UNL     1       4.194   3.171  -5.689  1.00  0.00     0.004 C 
ENDBRANCH  16  17
ENDBRANCH  15  16
ENDBRANCH  14  15
ENDBRANCH  13  14
ENDBRANCH  12  13
ENDBRANCH  11  12
ENDBRANCH   1  11
TORSDOF 14
ENDMDL
MODEL 6
REMARK VINA RESULT:    -2.954     19.464     21.441
REMARK INTER + INTRA:          -7.645
REMARK INTER:                  -6.009
REMARK INTRA:                  -1.636
REMARK UNBOUND:                -2.273
REMARK SMILES CCCCCCCCCCCCCCCC(=O)[O-]
REMARK SMILES IDX 9 1 10 2 11 3 12 4 13 5 14 6 15 7 16 8 17 9 18 10 8 11 7 12
REMARK SMILES IDX 6 13 5 14 4 15 3 16 2 17 1 18
REMARK H PARENT
REMARK Flexibility Score: inf
ROOT
ATOM      1  C   UNL     1       5.620   2.609  -7.096  1.00  0.00     0.000 C 
ENDROOT
BRANCH   1   2
ATOM      2  C   UNL     1       5.293   4.047  -6.664  1.00  0.00     0.000 C 
BRANCH   2   3
ATOM      3  C   UNL     1       5.637   5.084  -7.750  1.00  0.00     0.000 C 
BRANCH   3   4
ATOM      4  C   UNL     1       6.324   6.332  -7.174  1.00  0.00     0.000 C 
BRANCH   4   5
ATOM      5  C   UNL     1       7.033   6.052  -5.837  1.00  0.00     0.000 C 
BRANCH   5   6
ATOM      6  C   UNL     1       6.726   7.115  -4.772  1.00  0.00     0.006 C 
BRANCH   6   7
ATOM      7  C   UNL     1       6.633   6.525  -3.359  1.00  0.00     0.053 C 
BRANCH   7   8
ATOM      8  C   UNL     1       6.239   7.582  -2.376  1.00  0.00     0.041 C 
ATOM      9  O   UNL     1       5.453   8.504  -2.720  1.00  0.00    -0.550 OA
ATOM     10  O   UNL     1       6.777   7.578  -1.096  1.00  0.00    -0.550 OA
ENDBRANCH   7   8
ENDBRANCH   6   7
ENDBRANCH   5   6
ENDBRANCH   4   5
ENDBRANCH   3   4
ENDBRANCH   2   3
ENDBRANCH   1   2
BRANCH   1  11
ATOM     11  C   UNL     1       6.381   2.551  -8.430  1.00  0.00     0.000 C 
BRANCH  11  12
ATOM     12  C   UNL     1       7.680   1.748  -8.284  1.00  0.00    -0.000 C 
BRANCH  12  13
ATOM     13  C   UNL     1       8.133   1.613  -6.821  1.00  0.00    -0.000 C 
BRANCH  13  14
ATOM     14  C   UNL     1       8.377   0.152  -6.406  1.00  0.00    -0.000 C 
BRANCH  14  15
ATOM     15  C   UNL     1       7.206  -0.422  -5.580  1.00  0.00    -0.000 C 
BRANCH  15  16
ATOM     16  C   UNL     1       6.504  -1.614  -6.254  1.00  0.00    -0.000 C 
BRANCH  16  17
ATOM     17  C   UNL     1       5.590  -1.191  -7.412  1.00  0.00    -0.003 C 
ATOM     18  C   UNL     1       6.116  -1.711  -8.746  1.00  0.00     0.004 C 
ENDBRANCH  16  17
ENDBRANCH  15  16
ENDBRANCH  14  15
ENDBRANCH  13  14
ENDBRANCH  12  13
ENDBRANCH  11  12
ENDBRANCH   1  11
TORSDOF 14
ENDMDL
MODEL 7
REMARK VINA RESULT:    -2.941     19.203     21.447
REMARK INTER + INTRA:          -7.621
REMARK INTER:                  -5.351
REMARK INTRA:                  -2.270
REMARK UNBOUND:                -2.273
REMARK SMILES CCCCCCCCCCCCCCCC(=O)[O-]
REMARK SMILES IDX 9 1 10 2 11 3 12 4 13 5 14 6 15 7 16 8 17 9 18 10 8 11 7 12
REMARK SMILES IDX 6 13 5 14 4 15 3 16 2 17 1 18
REMARK H PARENT
REMARK Flexibility Score: inf
ROOT
ATOM      1  C   UNL     1       6.762  -1.498  -6.100  1.00  0.00     0.000 C 
ENDROOT
BRANCH   1   2
ATOM      2  C   UNL     1       7.504  -0.223  -5.667  1.00  0.00     0.000 C 
BRANCH   2   3
ATOM      3  C   UNL     1       8.843  -0.038  -6.404  1.00  0.00     0.000 C 
BRANCH   3   4
ATOM      4  C   UNL     1       9.379   1.398  -6.298  1.00  0.00     0.000 C 
BRANCH   4   5
ATOM      5  C   UNL     1       8.695   2.358  -7.288  1.00  0.00     0.000 C 
BRANCH   5   6
ATOM      6  C   UNL     1       8.949   3.835  -6.950  1.00  0.00     0.006 C 
BRANCH   6   7
ATOM      7  C   UNL     1       7.962   4.778  -7.649  1.00  0.00     0.053 C 
BRANCH   7   8
ATOM      8  C   UNL     1       7.277   5.653  -6.647  1.00  0.00     0.041 C 
ATOM      9  O   UNL     1       7.851   5.944  -5.563  1.00  0.00    -0.550 OA
ATOM     10  O   UNL     1       5.987   6.107  -6.886  1.00  0.00    -0.550 OA
ENDBRANCH   7   8
ENDBRANCH   6   7
ENDBRANCH   5   6
ENDBRANCH   4   5
ENDBRANCH   3   4
ENDBRANCH   2   3
ENDBRANCH   1   2
BRANCH   1  11
ATOM     11  C   UNL     1       5.610  -1.208  -7.075  1.00  0.00     0.000 C 
BRANCH  11  12
ATOM     12  C   UNL     1       6.067  -1.389  -8.530  1.00  0.00    -0.000 C 
BRANCH  12  13
ATOM     13  C   UNL     1       6.389  -0.053  -9.220  1.00  0.00    -0.000 C 
BRANCH  13  14
ATOM     14  C   UNL     1       5.150   0.845  -9.384  1.00  0.00    -0.000 C 
BRANCH  14  15
ATOM     15  C   UNL     1       5.484   2.339  -9.189  1.00  0.00    -0.000 C 
BRANCH  15  16
ATOM     16  C   UNL     1       4.716   2.995  -8.029  1.00  0.00    -0.000 C 
BRANCH  16  17
ATOM     17  C   UNL     1       5.182   2.505  -6.651  1.00  0.00    -0.003 C 
ATOM     18  C   UNL     1       4.257   3.008  -5.547  1.00  0.00     0.004 C 
ENDBRANCH  16  17
ENDBRANCH  15  16
ENDBRANCH  14  15
ENDBRANCH  13  14
ENDBRANCH  12  13
ENDBRANCH  11  12
ENDBRANCH   1  11
TORSDOF 14
ENDMDL
MODEL 8
REMARK VINA RESULT:    -2.881      2.294      5.732
REMARK INTER + INTRA:          -7.512
REMARK INTER:                  -5.709
REMARK INTRA:                  -1.802
REMARK UNBOUND:                -2.273
REMARK SMILES CCCCCCCCCCCCCCCC(=O)[O-]
REMARK SMILES IDX 9 1 10 2 11 3 12 4 13 5 14 6 15 7 16 8 17 9 18 10 8 11 7 12
REMARK SMILES IDX 6 13 5 14 4 15 3 16 2 17 1 18
REMARK H PARENT
REMARK Flexibility Score: inf
ROOT
ATOM      1  C   UNL     1      -4.934  -4.911   7.501  1.00  0.00     0.000 C 
ENDROOT
BRANCH   1   2
ATOM      2  C   UNL     1      -5.859  -3.746   7.112  1.00  0.00     0.000 C 
BRANCH   2   3
ATOM      3  C   UNL     1      -6.439  -3.016   8.337  1.00  0.00     0.000 C 
BRANCH   3   4
ATOM      4  C   UNL     1      -7.961  -3.193   8.462  1.00  0.00     0.000 C 
BRANCH   4   5
ATOM      5  C   UNL     1      -8.384  -4.672   8.476  1.00  0.00     0.000 C 
BRANCH   5   6
ATOM      6  C   UNL     1      -9.556  -4.960   7.526  1.00  0.00     0.006 C 
BRANCH   6   7
ATOM      7  C   UNL     1      -9.390  -4.279   6.161  1.00  0.00     0.053 C 
BRANCH   7   8
ATOM      8  C   UNL     1      -8.615  -5.158   5.230  1.00  0.00     0.041 C 
ATOM      9  O   UNL     1      -8.231  -4.716   4.115  1.00  0.00    -0.550 OA
ATOM     10  O   UNL     1      -8.359  -6.479   5.573  1.00  0.00    -0.550 OA
ENDBRANCH   7   8
ENDBRANCH   6   7
ENDBRANCH   5   6
ENDBRANCH   4   5
ENDBRANCH   3   4
ENDBRANCH   2   3
ENDBRANCH   1   2
BRANCH   1  11
ATOM     11  C   UNL     1      -4.539  -4.879   8.986  1.00  0.00     0.000 C 
BRANCH  11  12
ATOM     12  C   UNL     1      -4.674  -6.272   9.617  1.00  0.00    -0.000 C 
BRANCH  12  13
ATOM     13  C   UNL     1      -5.265  -7.308   8.647  1.00  0.00    -0.000 C 
BRANCH  13  14
ATOM     14  C   UNL     1      -4.298  -8.468   8.353  1.00  0.00    -0.000 C 
BRANCH  14  15
ATOM     15  C   UNL     1      -2.832  -8.096   8.664  1.00  0.00    -0.000 C 
BRANCH  15  16
ATOM     16  C   UNL     1      -1.945  -7.994   7.411  1.00  0.00    -0.000 C 
BRANCH  16  17
ATOM     17  C   UNL     1      -2.736  -7.629   6.148  1.00  0.00    -0.003 C 
ATOM     18  C   UNL     1      -2.533  -8.671   5.052  1.00  0.00     0.004 C 
ENDBRANCH  16  17
ENDBRANCH  15  16
ENDBRANCH  14  15
ENDBRANCH  13  14
ENDBRANCH  12  13
ENDBRANCH  11  12
ENDBRANCH   1  11
TORSDOF 14
ENDMDL
MODEL 9
REMARK VINA RESULT:    -2.844     19.412     21.292
REMARK INTER + INTRA:          -7.444
REMARK INTER:                  -5.214
REMARK INTRA:                  -2.230
REMARK UNBOUND:                -2.273
REMARK SMILES CCCCCCCCCCCCCCCC(=O)[O-]
REMARK SMILES IDX 9 1 10 2 11 3 12 4 13 5 14 6 15 7 16 8 17 9 18 10 8 11 7 12
REMARK SMILES IDX 6 13 5 14 4 15 3 16 2 17 1 18
REMARK H PARENT
REMARK Flexibility Score: inf
ROOT
ATOM      1  C   UNL     1       5.623   4.752  -6.508  1.00  0.00     0.000 C 
ENDROOT
BRANCH   1   2
ATOM      2  C   UNL     1       4.662   3.585  -6.787  1.00  0.00     0.000 C 
BRANCH   2   3
ATOM      3  C   UNL     1       5.353   2.212  -6.686  1.00  0.00     0.000 C 
BRANCH   3   4
ATOM      4  C   UNL     1       5.893   1.725  -8.040  1.00  0.00     0.000 C 
BRANCH   4   5
ATOM      5  C   UNL     1       7.423   1.561  -8.041  1.00  0.00     0.000 C 
BRANCH   5   6
ATOM      6  C   UNL     1       7.951   0.948  -6.735  1.00  0.00     0.006 C 
BRANCH   6   7
ATOM      7  C   UNL     1       8.023  -0.583  -6.790  1.00  0.00     0.053 C 
BRANCH   7   8
ATOM      8  C   UNL     1       6.893  -1.187  -6.017  1.00  0.00     0.041 C 
ATOM      9  O   UNL     1       6.951  -1.258  -4.761  1.00  0.00    -0.550 OA
ATOM     10  O   UNL     1       5.797  -1.716  -6.687  1.00  0.00    -0.550 OA
ENDBRANCH   7   8
ENDBRANCH   6   7
ENDBRANCH   5   6
ENDBRANCH   4   5
ENDBRANCH   3   4
ENDBRANCH   2   3
ENDBRANCH   1   2
BRANCH   1  11
ATOM     11  C   UNL     1       6.166   5.390  -7.797  1.00  0.00     0.000 C 
BRANCH  11  12
ATOM     12  C   UNL     1       7.695   5.518  -7.742  1.00  0.00    -0.000 C 
BRANCH  12  13
ATOM     13  C   UNL     1       8.297   4.885  -6.478  1.00  0.00    -0.000 C 
BRANCH  13  14
ATOM     14  C   UNL     1       9.293   5.815  -5.763  1.00  0.00    -0.000 C 
BRANCH  14  15
ATOM     15  C   UNL     1       8.590   7.012  -5.088  1.00  0.00    -0.000 C 
BRANCH  15  16
ATOM     16  C   UNL     1       7.659   6.606  -3.932  1.00  0.00    -0.000 C 
BRANCH  16  17
ATOM     17  C   UNL     1       6.288   7.292  -4.000  1.00  0.00    -0.003 C 
ATOM     18  C   UNL     1       6.210   8.249  -5.186  1.00  0.00     0.004 C 
ENDBRANCH  16  17
ENDBRANCH  15  16
ENDBRANCH  14  15
ENDBRANCH  13  14
ENDBRANCH  12  13
ENDBRANCH  11  12
ENDBRANCH   1  11
TORSDOF 14
ENDMDL
