MODEL 1
REMARK VINA RESULT:    -3.363      0.000      0.000
REMARK INTER + INTRA:          -4.022
REMARK INTER:                  -3.952
REMARK INTRA:                  -0.069
REMARK UNBOUND:                -0.069
REMARK SMILES O=C([O-])CCC(=O)[O-]
REMARK SMILES IDX 4 1 2 2 1 3 3 4 5 5 6 6 7 7 8 8
REMARK H PARENT
REMARK Flexibility Score: inf
ROOT
ATOM      1  C   UNL     1     -13.856  -9.993   8.217  1.00  0.00     0.059 C 
ENDROOT
BRANCH   1   2
ATOM      2  C   UNL     1     -15.338  -9.767   8.241  1.00  0.00     0.042 C 
ATOM      3  O   UNL     1     -16.009  -9.848   7.178  1.00  0.00    -0.550 OA
ATOM      4  O   UNL     1     -15.969  -9.426   9.430  1.00  0.00    -0.550 OA
ENDBRANCH   1   2
BRANCH   1   5
ATOM      5  C   UNL     1     -13.416 -10.709   6.936  1.00  0.00     0.059 C 
BRANCH   5   6
ATOM      6  C   UNL     1     -12.178 -10.095   6.357  1.00  0.00     0.042 C 
ATOM      7  O   UNL     1     -11.921  -8.878   6.557  1.00  0.00    -0.550 OA
ATOM      8  O   UNL     1     -11.286 -10.876   5.633  1.00  0.00    -0.550 OA
ENDBRANCH   5   6
ENDBRANCH   1   5
TORSDOF 3
ENDMDL
MODEL 2
REMARK VINA RESULT:    -3.326      0.204      4.270
REMARK INTER + INTRA:          -3.978
REMARK INTER:                  -3.915
REMARK INTRA:                  -0.064
REMARK UNBOUND:                -0.069
REMARK SMILES O=C([O-])CCC(=O)[O-]
REMARK SMILES IDX 4 1 2 2 1 3 3 4 5 5 6 6 7 7 8 8
REMARK H PARENT
REMARK Flexibility Score: inf
ROOT
ATOM      1  C   UNL     1     -13.239 -10.733   6.919  1.00  0.00     0.059 C 
ENDROOT
BRANCH   1   2
ATOM      2  C   UNL     1     -11.989 -10.174   6.311  1.00  0.00     0.042 C 
ATOM      3  O   UNL     1     -11.748  -8.939   6.380  1.00  0.00    -0.550 OA
ATOM      4  O   UNL     1     -11.111 -11.010   5.635  1.00  0.00    -0.550 OA
ENDBRANCH   1   2
BRANCH   1   5
ATOM      5  C   UNL     1     -13.723  -9.883   8.098  1.00  0.00     0.059 C 
BRANCH   5   6
ATOM      6  C   UNL     1     -15.217  -9.765   8.118  1.00  0.00     0.042 C 
ATOM      7  O   UNL     1     -15.877  -9.902   7.055  1.00  0.00    -0.550 OA
ATOM      8  O   UNL     1     -15.882  -9.545   9.318  1.00  0.00    -0.550 OA
ENDBRANCH   5   6
ENDBRANCH   1   5
TORSDOF 3
ENDMDL
MODEL 3
REMARK VINA RESULT:    -3.292     14.199     14.684
REMARK INTER + INTRA:          -3.939
REMARK INTER:                  -3.904
REMARK INTRA:                  -0.035
REMARK UNBOUND:                -0.069
REMARK SMILES O=C([O-])CCC(=O)[O-]
REMARK SMILES IDX 4 1 2 2 1 3 3 4 5 5 6 6 7 7 8 8
REMARK H PARENT
REMARK Flexibility Score: inf
ROOT
ATOM      1  C   UNL     1     -11.861 -19.919  17.478  1.00  0.00     0.059 C 
ENDROOT
BRANCH   1   2
ATOM      2  C   UNL     1     -11.954 -20.120  18.961  1.00  0.00     0.042 C 
ATOM      3  O   UNL     1     -10.949 -20.507  19.613  1.00  0.00    -0.550 OA
ATOM      4  O   UNL     1     -13.163 -19.917  19.614  1.00  0.00    -0.550 OA
ENDBRANCH   1   2
BRANCH   1   5
ATOM      5  C   UNL     1     -11.011 -21.007  16.815  1.00  0.00     0.059 C 
BRANCH   5   6
ATOM      6  C   UNL     1     -10.744 -20.697  15.373  1.00  0.00     0.042 C 
ATOM      7  O   UNL     1     -11.615 -20.106  14.681  1.00  0.00    -0.550 OA
ATOM      8  O   UNL     1      -9.519 -21.023  14.805  1.00  0.00    -0.550 OA
ENDBRANCH   5   6
ENDBRANCH   1   5
TORSDOF 3
ENDMDL
MODEL 4
REMARK VINA RESULT:    -3.260      0.704      4.312
REMARK INTER + INTRA:          -3.902
REMARK INTER:                  -3.868
REMARK INTRA:                  -0.033
REMARK UNBOUND:                -0.069
REMARK SMILES O=C([O-])CCC(=O)[O-]
REMARK SMILES IDX 4 1 2 2 1 3 3 4 5 5 6 6 7 7 8 8
REMARK H PARENT
REMARK Flexibility Score: inf
ROOT
ATOM      1  C   UNL     1     -13.303 -10.231   6.580  1.00  0.00     0.059 C 
ENDROOT
BRANCH   1   2
ATOM      2  C   UNL     1     -11.838 -10.420   6.327  1.00  0.00     0.042 C 
ATOM      3  O   UNL     1     -11.282 -11.516   6.604  1.00  0.00    -0.550 OA
ATOM      4  O   UNL     1     -11.079  -9.371   5.824  1.00  0.00    -0.550 OA
ENDBRANCH   1   2
BRANCH   1   5
ATOM      5  C   UNL     1     -13.590  -9.971   8.063  1.00  0.00     0.059 C 
BRANCH   5   6
ATOM      6  C   UNL     1     -15.060  -9.843   8.326  1.00  0.00     0.042 C 
ATOM      7  O   UNL     1     -15.885  -9.961   7.383  1.00  0.00    -0.550 OA
ATOM      8  O   UNL     1     -15.520  -9.635   9.621  1.00  0.00    -0.550 OA
ENDBRANCH   5   6
ENDBRANCH   1   5
TORSDOF 3
ENDMDL
MODEL 5
REMARK VINA RESULT:    -3.213     13.689     14.125
REMARK INTER + INTRA:          -3.846
REMARK INTER:                  -3.797
REMARK INTRA:                  -0.049
REMARK UNBOUND:                -0.069
REMARK SMILES O=C([O-])CCC(=O)[O-]
REMARK SMILES IDX 4 1 2 2 1 3 3 4 5 5 6 6 7 7 8 8
REMARK H PARENT
REMARK Flexibility Score: inf
ROOT
ATOM      1  C   UNL     1     -11.737 -20.178  16.738  1.00  0.00     0.059 C 
ENDROOT
BRANCH   1   2
ATOM      2  C   UNL     1     -11.186 -20.373  18.119  1.00  0.00     0.042 C 
ATOM      3  O   UNL     1      -9.968 -20.647  18.282  1.00  0.00    -0.550 OA
ATOM      4  O   UNL     1     -12.027 -20.290  19.220  1.00  0.00    -0.550 OA
ENDBRANCH   1   2
BRANCH   1   5
ATOM      5  C   UNL     1     -10.933 -20.961  15.695  1.00  0.00     0.059 C 
BRANCH   5   6
ATOM      6  C   UNL     1     -10.697 -20.151  14.457  1.00  0.00     0.042 C 
ATOM      7  O   UNL     1     -11.669 -19.788  13.743  1.00  0.00    -0.550 OA
ATOM      8  O   UNL     1      -9.408 -19.761  14.115  1.00  0.00    -0.550 OA
ENDBRANCH   5   6
ENDBRANCH   1   5
TORSDOF 3
ENDMDL
MODEL 6
REMARK VINA RESULT:    -3.140      0.911      1.676
REMARK INTER + INTRA:          -3.760
REMARK INTER:                  -3.733
REMARK INTRA:                  -0.028
REMARK UNBOUND:                -0.069
REMARK SMILES O=C([O-])CCC(=O)[O-]
REMARK SMILES IDX 4 1 2 2 1 3 3 4 5 5 6 6 7 7 8 8
REMARK H PARENT
REMARK Flexibility Score: inf
ROOT
ATOM      1  C   UNL     1     -13.454  -9.506   7.855  1.00  0.00     0.059 C 
ENDROOT
BRANCH   1   2
ATOM      2  C   UNL     1     -14.824  -9.789   8.392  1.00  0.00     0.042 C 
ATOM      3  O   UNL     1     -14.992 -10.003   9.622  1.00  0.00    -0.550 OA
ATOM      4  O   UNL     1     -15.909  -9.854   7.528  1.00  0.00    -0.550 OA
ENDBRANCH   1   2
BRANCH   1   5
ATOM      5  C   UNL     1     -13.169 -10.313   6.585  1.00  0.00     0.059 C 
BRANCH   5   6
ATOM      6  C   UNL     1     -11.698 -10.514   6.376  1.00  0.00     0.042 C 
ATOM      7  O   UNL     1     -11.158 -11.607   6.690  1.00  0.00    -0.550 OA
ATOM      8  O   UNL     1     -10.933  -9.509   5.798  1.00  0.00    -0.550 OA
ENDBRANCH   5   6
ENDBRANCH   1   5
TORSDOF 3
ENDMDL
MODEL 7
REMARK VINA RESULT:    -3.133      1.080      4.052
REMARK INTER + INTRA:          -3.752
REMARK INTER:                  -3.642
REMARK INTRA:                  -0.110
REMARK UNBOUND:                -0.069
REMARK SMILES O=C([O-])CCC(=O)[O-]
REMARK SMILES IDX 4 1 2 2 1 3 3 4 5 5 6 6 7 7 8 8
REMARK H PARENT
REMARK Flexibility Score: inf
ROOT
ATOM      1  C   UNL     1     -13.043  -9.268   8.113  1.00  0.00     0.059 C 
ENDROOT
BRANCH   1   2
ATOM      2  C   UNL     1     -12.242 -10.200   7.255  1.00  0.00     0.042 C 
ATOM      3  O   UNL     1     -11.286 -10.855   7.749  1.00  0.00    -0.550 OA
ATOM      4  O   UNL     1     -12.528 -10.314   5.900  1.00  0.00    -0.550 OA
ENDBRANCH   1   2
BRANCH   1   5
ATOM      5  C   UNL     1     -14.092 -10.022   8.937  1.00  0.00     0.059 C 
BRANCH   5   6
ATOM      6  C   UNL     1     -15.481  -9.743   8.449  1.00  0.00     0.042 C 
ATOM      7  O   UNL     1     -16.338  -9.247   9.228  1.00  0.00    -0.550 OA
ATOM      8  O   UNL     1     -15.818  -9.992   7.125  1.00  0.00    -0.550 OA
ENDBRANCH   5   6
ENDBRANCH   1   5
TORSDOF 3
ENDMDL
MODEL 8
REMARK VINA RESULT:    -3.112     13.726     14.630
REMARK INTER + INTRA:          -3.727
REMARK INTER:                  -3.689
REMARK INTRA:                  -0.038
REMARK UNBOUND:                -0.069
REMARK SMILES O=C([O-])CCC(=O)[O-]
REMARK SMILES IDX 4 1 2 2 1 3 3 4 5 5 6 6 7 7 8 8
REMARK H PARENT
REMARK Flexibility Score: inf
ROOT
ATOM      1  C   UNL     1     -11.328 -20.294  15.718  1.00  0.00     0.059 C 
ENDROOT
BRANCH   1   2
ATOM      2  C   UNL     1     -10.155 -20.243  14.787  1.00  0.00     0.042 C 
ATOM      3  O   UNL     1     -10.086 -19.348  13.903  1.00  0.00    -0.550 OA
ATOM      4  O   UNL     1      -9.160 -21.208  14.870  1.00  0.00    -0.550 OA
ENDBRANCH   1   2
BRANCH   1   5
ATOM      5  C   UNL     1     -10.949 -20.909  17.069  1.00  0.00     0.059 C 
BRANCH   5   6
ATOM      6  C   UNL     1     -11.630 -20.210  18.206  1.00  0.00     0.042 C 
ATOM      7  O   UNL     1     -11.260 -20.419  19.391  1.00  0.00    -0.550 OA
ATOM      8  O   UNL     1     -12.646 -19.296  17.953  1.00  0.00    -0.550 OA
ENDBRANCH   5   6
ENDBRANCH   1   5
TORSDOF 3
ENDMDL
MODEL 9
REMARK VINA RESULT:    -2.961      1.853      4.476
REMARK INTER + INTRA:          -3.550
REMARK INTER:                  -3.461
REMARK INTRA:                  -0.089
REMARK UNBOUND:                -0.069
REMARK SMILES O=C([O-])CCC(=O)[O-]
REMARK SMILES IDX 4 1 2 2 1 3 3 4 5 5 6 6 7 7 8 8
REMARK H PARENT
REMARK Flexibility Score: inf
ROOT
ATOM      1  C   UNL     1     -11.808 -10.563   5.941  1.00  0.00     0.059 C 
ENDROOT
BRANCH   1   2
ATOM      2  C   UNL     1     -10.794 -11.532   6.468  1.00  0.00     0.042 C 
ATOM      3  O   UNL     1     -10.378 -11.434   7.652  1.00  0.00    -0.550 OA
ATOM      4  O   UNL     1     -10.279 -12.519   5.637  1.00  0.00    -0.550 OA
ENDBRANCH   1   2
BRANCH   1   5
ATOM      5  C   UNL     1     -12.280  -9.593   7.029  1.00  0.00     0.059 C 
BRANCH   5   6
ATOM      6  C   UNL     1     -13.536 -10.073   7.690  1.00  0.00     0.042 C 
ATOM      7  O   UNL     1     -14.546 -10.362   6.995  1.00  0.00    -0.550 OA
ATOM      8  O   UNL     1     -13.579 -10.240   9.068  1.00  0.00    -0.550 OA
ENDBRANCH   5   6
ENDBRANCH   1   5
TORSDOF 3
ENDMDL
