MODEL 1
REMARK VINA RESULT:    -5.178      0.000      0.000
REMARK INTER + INTRA:          -7.104
REMARK INTER:                  -6.541
REMARK INTRA:                  -0.563
REMARK UNBOUND:                -0.563
REMARK SMILES Oc1cc(O)cc(CCc2ccccc2O)c1
REMARK SMILES IDX 9 1 10 2 12 3 13 4 11 5 14 6 15 7 16 8 8 10 7 11 6 12 17 13
REMARK SMILES IDX 4 14 2 15 3 16 5 17 1 19
REMARK H PARENT 16 9 5 18 1 20
REMARK Flexibility Score: inf
ROOT
ATOM      1  C   UNL     1      29.330  35.854  70.925  1.00  0.00     0.044 C 
ENDROOT
BRANCH   1   2
ATOM      2  C   UNL     1      28.889  34.548  71.536  1.00  0.00    -0.006 A 
ATOM      3  C   UNL     1      27.104  33.136  72.394  1.00  0.00     0.001 A 
ATOM      4  C   UNL     1      28.038  32.157  72.739  1.00  0.00     0.004 A 
ATOM      5  C   UNL     1      27.526  34.328  71.800  1.00  0.00     0.007 A 
ATOM      6  C   UNL     1      29.397  32.370  72.495  1.00  0.00     0.046 A 
ATOM      7  C   UNL     1      29.831  33.564  71.899  1.00  0.00     0.118 A 
BRANCH   7   8
ATOM      8  O   UNL     1      31.191  33.774  71.673  1.00  0.00    -0.508 OA
ATOM      9  H   UNL     1      31.748  33.121  71.135  1.00  0.00     0.293 HD
ENDBRANCH   7   8
ENDBRANCH   1   2
BRANCH   1  10
ATOM     10  C   UNL     1      29.047  37.019  71.878  1.00  0.00     0.040 C 
BRANCH  10  11
ATOM     11  C   UNL     1      30.334  37.623  72.371  1.00  0.00    -0.040 A 
ATOM     12  C   UNL     1      31.512  37.488  71.620  1.00  0.00     0.050 A 
ATOM     13  C   UNL     1      30.354  38.375  73.557  1.00  0.00     0.050 A 
ATOM     14  C   UNL     1      32.703  38.077  72.059  1.00  0.00     0.119 A 
ATOM     15  C   UNL     1      31.546  38.966  73.999  1.00  0.00     0.119 A 
ATOM     16  C   UNL     1      32.718  38.814  73.252  1.00  0.00     0.092 A 
BRANCH  14  17
ATOM     17  O   UNL     1      33.864  37.926  71.304  1.00  0.00    -0.508 OA
ATOM     18  H   UNL     1      34.294  37.018  71.171  1.00  0.00     0.293 HD
ENDBRANCH  14  17
BRANCH  15  19
ATOM     19  O   UNL     1      31.575  39.708  75.178  1.00  0.00    -0.508 OA
ATOM     20  H   UNL     1      31.272  40.674  75.204  1.00  0.00     0.293 HD
ENDBRANCH  15  19
ENDBRANCH  10  11
ENDBRANCH   1  10
TORSDOF 6
ENDMDL
MODEL 2
REMARK VINA RESULT:    -5.157      0.141      2.040
REMARK INTER + INTRA:          -7.076
REMARK INTER:                  -6.561
REMARK INTRA:                  -0.514
REMARK UNBOUND:                -0.563
REMARK SMILES Oc1cc(O)cc(CCc2ccccc2O)c1
REMARK SMILES IDX 9 1 10 2 12 3 13 4 11 5 14 6 15 7 16 8 8 10 7 11 6 12 17 13
REMARK SMILES IDX 4 14 2 15 3 16 5 17 1 19
REMARK H PARENT 16 9 5 18 1 20
REMARK Flexibility Score: inf
ROOT
ATOM      1  C   UNL     1      29.414  35.764  71.029  1.00  0.00     0.044 C 
ENDROOT
BRANCH   1   2
ATOM      2  C   UNL     1      28.858  34.484  71.601  1.00  0.00    -0.006 A 
ATOM      3  C   UNL     1      26.947  33.192  72.370  1.00  0.00     0.001 A 
ATOM      4  C   UNL     1      27.796  32.142  72.729  1.00  0.00     0.004 A 
ATOM      5  C   UNL     1      27.475  34.360  71.814  1.00  0.00     0.007 A 
ATOM      6  C   UNL     1      29.175  32.260  72.536  1.00  0.00     0.046 A 
ATOM      7  C   UNL     1      29.713  33.428  71.978  1.00  0.00     0.118 A 
BRANCH   7   8
ATOM      8  O   UNL     1      31.092  33.543  71.802  1.00  0.00    -0.508 OA
ATOM      9  H   UNL     1      31.737  32.873  72.204  1.00  0.00     0.293 HD
ENDBRANCH   7   8
ENDBRANCH   1   2
BRANCH   1  10
ATOM     10  C   UNL     1      29.102  36.946  71.951  1.00  0.00     0.040 C 
BRANCH  10  11
ATOM     11  C   UNL     1      30.372  37.628  72.385  1.00  0.00    -0.040 A 
ATOM     12  C   UNL     1      30.403  38.374  73.574  1.00  0.00     0.050 A 
ATOM     13  C   UNL     1      31.549  37.477  71.634  1.00  0.00     0.050 A 
ATOM     14  C   UNL     1      31.591  38.981  73.998  1.00  0.00     0.119 A 
ATOM     15  C   UNL     1      32.740  38.085  72.056  1.00  0.00     0.119 A 
ATOM     16  C   UNL     1      32.758  38.837  73.234  1.00  0.00     0.092 A 
BRANCH  14  17
ATOM     17  O   UNL     1      31.601  39.723  75.176  1.00  0.00    -0.508 OA
ATOM     18  H   UNL     1      31.891  39.314  76.057  1.00  0.00     0.293 HD
ENDBRANCH  14  17
BRANCH  15  19
ATOM     19  O   UNL     1      33.909  37.944  71.313  1.00  0.00    -0.508 OA
ATOM     20  H   UNL     1      33.942  37.371  70.478  1.00  0.00     0.293 HD
ENDBRANCH  15  19
ENDBRANCH  10  11
ENDBRANCH   1  10
TORSDOF 6
ENDMDL
MODEL 3
REMARK VINA RESULT:    -4.952     16.614     18.185
REMARK INTER + INTRA:          -6.817
REMARK INTER:                  -6.013
REMARK INTRA:                  -0.805
REMARK UNBOUND:                -0.563
REMARK SMILES Oc1cc(O)cc(CCc2ccccc2O)c1
REMARK SMILES IDX 9 1 10 2 12 3 13 4 11 5 14 6 15 7 16 8 8 10 7 11 6 12 17 13
REMARK SMILES IDX 4 14 2 15 3 16 5 17 1 19
REMARK H PARENT 16 9 5 18 1 20
REMARK Flexibility Score: inf
ROOT
ATOM      1  C   UNL     1      22.027  35.553  88.841  1.00  0.00     0.044 C 
ENDROOT
BRANCH   1   2
ATOM      2  C   UNL     1      22.168  35.282  87.364  1.00  0.00    -0.006 A 
ATOM      3  C   UNL     1      21.149  34.678  85.241  1.00  0.00     0.001 A 
ATOM      4  C   UNL     1      22.403  34.704  84.627  1.00  0.00     0.004 A 
ATOM      5  C   UNL     1      21.031  34.960  86.604  1.00  0.00     0.007 A 
ATOM      6  C   UNL     1      23.543  35.008  85.375  1.00  0.00     0.046 A 
ATOM      7  C   UNL     1      23.434  35.293  86.744  1.00  0.00     0.118 A 
BRANCH   7   8
ATOM      8  O   UNL     1      24.579  35.581  87.487  1.00  0.00    -0.508 OA
ATOM      9  H   UNL     1      25.508  35.443  87.108  1.00  0.00     0.293 HD
ENDBRANCH   7   8
ENDBRANCH   1   2
BRANCH   1  10
ATOM     10  C   UNL     1      21.462  34.326  89.563  1.00  0.00     0.040 C 
BRANCH  10  11
ATOM     11  C   UNL     1      22.515  33.259  89.698  1.00  0.00    -0.040 A 
ATOM     12  C   UNL     1      22.285  31.970  89.194  1.00  0.00     0.050 A 
ATOM     13  C   UNL     1      23.757  33.561  90.280  1.00  0.00     0.050 A 
ATOM     14  C   UNL     1      23.275  30.985  89.288  1.00  0.00     0.119 A 
ATOM     15  C   UNL     1      24.750  32.577  90.376  1.00  0.00     0.119 A 
ATOM     16  C   UNL     1      24.507  31.291  89.884  1.00  0.00     0.092 A 
BRANCH  14  17
ATOM     17  O   UNL     1      23.026  29.710  88.788  1.00  0.00    -0.508 OA
ATOM     18  H   UNL     1      22.311  29.546  88.089  1.00  0.00     0.293 HD
ENDBRANCH  14  17
BRANCH  15  19
ATOM     19  O   UNL     1      25.982  32.867  90.958  1.00  0.00    -0.508 OA
ATOM     20  H   UNL     1      26.615  32.134  91.254  1.00  0.00     0.293 HD
ENDBRANCH  15  19
ENDBRANCH  10  11
ENDBRANCH   1  10
TORSDOF 6
ENDMDL
MODEL 4
REMARK VINA RESULT:    -4.943     16.575     18.176
REMARK INTER + INTRA:          -6.806
REMARK INTER:                  -6.006
REMARK INTRA:                  -0.800
REMARK UNBOUND:                -0.563
REMARK SMILES Oc1cc(O)cc(CCc2ccccc2O)c1
REMARK SMILES IDX 9 1 10 2 12 3 13 4 11 5 14 6 15 7 16 8 8 10 7 11 6 12 17 13
REMARK SMILES IDX 4 14 2 15 3 16 5 17 1 19
REMARK H PARENT 16 9 5 18 1 20
REMARK Flexibility Score: inf
ROOT
ATOM      1  C   UNL     1      22.017  35.628  88.785  1.00  0.00     0.044 C 
ENDROOT
BRANCH   1   2
ATOM      2  C   UNL     1      22.141  35.323  87.314  1.00  0.00    -0.006 A 
ATOM      3  C   UNL     1      21.092  34.695  85.212  1.00  0.00     0.001 A 
ATOM      4  C   UNL     1      22.342  34.682  84.587  1.00  0.00     0.004 A 
ATOM      5  C   UNL     1      20.991  35.008  86.570  1.00  0.00     0.007 A 
ATOM      6  C   UNL     1      23.494  34.979  85.320  1.00  0.00     0.046 A 
ATOM      7  C   UNL     1      23.402  35.295  86.684  1.00  0.00     0.118 A 
BRANCH   7   8
ATOM      8  O   UNL     1      24.558  35.576  87.412  1.00  0.00    -0.508 OA
ATOM      9  H   UNL     1      25.271  36.203  87.057  1.00  0.00     0.293 HD
ENDBRANCH   7   8
ENDBRANCH   1   2
BRANCH   1  10
ATOM     10  C   UNL     1      21.490  34.408  89.547  1.00  0.00     0.040 C 
BRANCH  10  11
ATOM     11  C   UNL     1      22.542  33.334  89.620  1.00  0.00    -0.040 A 
ATOM     12  C   UNL     1      23.785  33.602  90.215  1.00  0.00     0.050 A 
ATOM     13  C   UNL     1      22.268  32.041  89.146  1.00  0.00     0.050 A 
ATOM     14  C   UNL     1      24.753  32.597  90.315  1.00  0.00     0.119 A 
ATOM     15  C   UNL     1      23.236  31.033  89.244  1.00  0.00     0.119 A 
ATOM     16  C   UNL     1      24.477  31.313  89.825  1.00  0.00     0.092 A 
BRANCH  14  17
ATOM     17  O   UNL     1      25.983  32.883  90.902  1.00  0.00    -0.508 OA
ATOM     18  H   UNL     1      26.123  32.804  91.902  1.00  0.00     0.293 HD
ENDBRANCH  14  17
BRANCH  15  19
ATOM     19  O   UNL     1      22.974  29.750  88.770  1.00  0.00    -0.508 OA
ATOM     20  H   UNL     1      23.021  29.529  87.782  1.00  0.00     0.293 HD
ENDBRANCH  15  19
ENDBRANCH  10  11
ENDBRANCH   1  10
TORSDOF 6
ENDMDL
MODEL 5
REMARK VINA RESULT:    -4.912      1.490      5.833
REMARK INTER + INTRA:          -6.766
REMARK INTER:                  -6.234
REMARK INTRA:                  -0.533
REMARK UNBOUND:                -0.563
REMARK SMILES Oc1cc(O)cc(CCc2ccccc2O)c1
REMARK SMILES IDX 9 1 10 2 12 3 13 4 11 5 14 6 15 7 16 8 8 10 7 11 6 12 17 13
REMARK SMILES IDX 4 14 2 15 3 16 5 17 1 19
REMARK H PARENT 16 9 5 18 1 20
REMARK Flexibility Score: inf
ROOT
ATOM      1  C   UNL     1      30.365  36.663  70.994  1.00  0.00     0.044 C 
ENDROOT
BRANCH   1   2
ATOM      2  C   UNL     1      30.723  37.574  72.141  1.00  0.00    -0.006 A 
ATOM      3  C   UNL     1      30.068  38.733  74.176  1.00  0.00     0.001 A 
ATOM      4  C   UNL     1      31.332  39.321  74.254  1.00  0.00     0.004 A 
ATOM      5  C   UNL     1      29.762  37.868  73.123  1.00  0.00     0.007 A 
ATOM      6  C   UNL     1      32.292  39.048  73.276  1.00  0.00     0.046 A 
ATOM      7  C   UNL     1      31.994  38.180  72.215  1.00  0.00     0.118 A 
BRANCH   7   8
ATOM      8  O   UNL     1      32.953  37.925  71.235  1.00  0.00    -0.508 OA
ATOM      9  H   UNL     1      32.712  37.478  70.358  1.00  0.00     0.293 HD
ENDBRANCH   7   8
ENDBRANCH   1   2
BRANCH   1  10
ATOM     10  C   UNL     1      28.912  36.195  71.110  1.00  0.00     0.040 C 
BRANCH  10  11
ATOM     11  C   UNL     1      28.850  34.776  71.609  1.00  0.00    -0.040 A 
ATOM     12  C   UNL     1      30.030  34.034  71.776  1.00  0.00     0.050 A 
ATOM     13  C   UNL     1      27.619  34.203  71.964  1.00  0.00     0.050 A 
ATOM     14  C   UNL     1      29.980  32.726  72.271  1.00  0.00     0.119 A 
ATOM     15  C   UNL     1      27.565  32.893  72.460  1.00  0.00     0.119 A 
ATOM     16  C   UNL     1      28.744  32.157  72.609  1.00  0.00     0.092 A 
BRANCH  14  17
ATOM     17  O   UNL     1      31.160  32.003  72.423  1.00  0.00    -0.508 OA
ATOM     18  H   UNL     1      31.632  31.943  73.317  1.00  0.00     0.293 HD
ENDBRANCH  14  17
BRANCH  15  19
ATOM     19  O   UNL     1      26.346  32.316  72.808  1.00  0.00    -0.508 OA
ATOM     20  H   UNL     1      25.550  32.881  73.078  1.00  0.00     0.293 HD
ENDBRANCH  15  19
ENDBRANCH  10  11
ENDBRANCH   1  10
TORSDOF 6
ENDMDL
MODEL 6
REMARK VINA RESULT:    -4.860      1.800      6.159
REMARK INTER + INTRA:          -6.701
REMARK INTER:                  -6.080
REMARK INTRA:                  -0.621
REMARK UNBOUND:                -0.563
REMARK SMILES Oc1cc(O)cc(CCc2ccccc2O)c1
REMARK SMILES IDX 9 1 10 2 12 3 13 4 11 5 14 6 15 7 16 8 8 10 7 11 6 12 17 13
REMARK SMILES IDX 4 14 2 15 3 16 5 17 1 19
REMARK H PARENT 16 9 5 18 1 20
REMARK Flexibility Score: inf
ROOT
ATOM      1  C   UNL     1      28.377  37.217  71.977  1.00  0.00     0.044 C 
ENDROOT
BRANCH   1   2
ATOM      2  C   UNL     1      29.690  37.826  72.400  1.00  0.00    -0.006 A 
ATOM      3  C   UNL     1      32.014  38.343  71.903  1.00  0.00     0.001 A 
ATOM      4  C   UNL     1      32.170  38.888  73.180  1.00  0.00     0.004 A 
ATOM      5  C   UNL     1      30.782  37.809  71.516  1.00  0.00     0.007 A 
ATOM      6  C   UNL     1      31.095  38.897  74.073  1.00  0.00     0.046 A 
ATOM      7  C   UNL     1      29.855  38.364  73.693  1.00  0.00     0.118 A 
BRANCH   7   8
ATOM      8  O   UNL     1      28.792  38.364  74.596  1.00  0.00    -0.508 OA
ATOM      9  H   UNL     1      28.576  39.175  75.164  1.00  0.00     0.293 HD
ENDBRANCH   7   8
ENDBRANCH   1   2
BRANCH   1  10
ATOM     10  C   UNL     1      28.601  36.139  70.912  1.00  0.00     0.040 C 
BRANCH  10  11
ATOM     11  C   UNL     1      28.619  34.771  71.539  1.00  0.00    -0.040 A 
ATOM     12  C   UNL     1      27.417  34.151  71.915  1.00  0.00     0.050 A 
ATOM     13  C   UNL     1      29.831  34.081  71.700  1.00  0.00     0.050 A 
ATOM     14  C   UNL     1      27.426  32.865  72.468  1.00  0.00     0.119 A 
ATOM     15  C   UNL     1      29.843  32.793  72.253  1.00  0.00     0.119 A 
ATOM     16  C   UNL     1      28.643  32.189  72.639  1.00  0.00     0.092 A 
BRANCH  14  17
ATOM     17  O   UNL     1      26.225  32.269  72.842  1.00  0.00    -0.508 OA
ATOM     18  H   UNL     1      25.335  32.726  72.683  1.00  0.00     0.293 HD
ENDBRANCH  14  17
BRANCH  15  19
ATOM     19  O   UNL     1      31.043  32.105  72.421  1.00  0.00    -0.508 OA
ATOM     20  H   UNL     1      31.262  31.280  71.877  1.00  0.00     0.293 HD
ENDBRANCH  15  19
ENDBRANCH  10  11
ENDBRANCH   1  10
TORSDOF 6
ENDMDL
MODEL 7
REMARK VINA RESULT:    -4.763      5.153      7.948
REMARK INTER + INTRA:          -6.578
REMARK INTER:                  -6.073
REMARK INTRA:                  -0.505
REMARK UNBOUND:                -0.563
REMARK SMILES Oc1cc(O)cc(CCc2ccccc2O)c1
REMARK SMILES IDX 9 1 10 2 12 3 13 4 11 5 14 6 15 7 16 8 8 10 7 11 6 12 17 13
REMARK SMILES IDX 4 14 2 15 3 16 5 17 1 19
REMARK H PARENT 16 9 5 18 1 20
REMARK Flexibility Score: inf
ROOT
ATOM      1  C   UNL     1      25.435  29.273  74.524  1.00  0.00     0.044 C 
ENDROOT
BRANCH   1   2
ATOM      2  C   UNL     1      24.275  29.136  73.571  1.00  0.00    -0.006 A 
ATOM      3  C   UNL     1      23.133  27.875  71.832  1.00  0.00     0.001 A 
ATOM      4  C   UNL     1      22.167  28.878  71.733  1.00  0.00     0.004 A 
ATOM      5  C   UNL     1      24.186  28.004  72.742  1.00  0.00     0.007 A 
ATOM      6  C   UNL     1      22.253  30.015  72.541  1.00  0.00     0.046 A 
ATOM      7  C   UNL     1      23.306  30.153  73.458  1.00  0.00     0.118 A 
BRANCH   7   8
ATOM      8  O   UNL     1      23.392  31.298  74.250  1.00  0.00    -0.508 OA
ATOM      9  H   UNL     1      23.286  31.258  75.257  1.00  0.00     0.293 HD
ENDBRANCH   7   8
ENDBRANCH   1   2
BRANCH   1  10
ATOM     10  C   UNL     1      26.737  28.821  73.858  1.00  0.00     0.040 C 
BRANCH  10  11
ATOM     11  C   UNL     1      27.527  30.009  73.378  1.00  0.00    -0.040 A 
ATOM     12  C   UNL     1      26.914  31.267  73.269  1.00  0.00     0.050 A 
ATOM     13  C   UNL     1      28.895  29.880  73.089  1.00  0.00     0.050 A 
ATOM     14  C   UNL     1      27.654  32.381  72.855  1.00  0.00     0.119 A 
ATOM     15  C   UNL     1      29.637  30.994  72.673  1.00  0.00     0.119 A 
ATOM     16  C   UNL     1      29.016  32.240  72.554  1.00  0.00     0.092 A 
BRANCH  14  17
ATOM     17  O   UNL     1      27.027  33.620  72.747  1.00  0.00    -0.508 OA
ATOM     18  H   UNL     1      27.534  34.445  72.450  1.00  0.00     0.293 HD
ENDBRANCH  14  17
BRANCH  15  19
ATOM     19  O   UNL     1      30.993  30.872  72.379  1.00  0.00    -0.508 OA
ATOM     20  H   UNL     1      31.536  31.659  72.043  1.00  0.00     0.293 HD
ENDBRANCH  15  19
ENDBRANCH  10  11
ENDBRANCH   1  10
TORSDOF 6
ENDMDL
MODEL 8
REMARK VINA RESULT:    -4.740      1.392      2.710
REMARK INTER + INTRA:          -6.550
REMARK INTER:                  -6.108
REMARK INTRA:                  -0.442
REMARK UNBOUND:                -0.563
REMARK SMILES Oc1cc(O)cc(CCc2ccccc2O)c1
REMARK SMILES IDX 9 1 10 2 12 3 13 4 11 5 14 6 15 7 16 8 8 10 7 11 6 12 17 13
REMARK SMILES IDX 4 14 2 15 3 16 5 17 1 19
REMARK H PARENT 16 9 5 18 1 20
REMARK Flexibility Score: inf
ROOT
ATOM      1  C   UNL     1      30.129  33.916  71.949  1.00  0.00     0.044 C 
ENDROOT
BRANCH   1   2
ATOM      2  C   UNL     1      29.385  32.683  72.396  1.00  0.00    -0.006 A 
ATOM      3  C   UNL     1      27.327  31.648  73.175  1.00  0.00     0.001 A 
ATOM      4  C   UNL     1      27.986  30.423  73.301  1.00  0.00     0.004 A 
ATOM      5  C   UNL     1      28.023  32.775  72.731  1.00  0.00     0.007 A 
ATOM      6  C   UNL     1      29.344  30.322  72.986  1.00  0.00     0.046 A 
ATOM      7  C   UNL     1      30.051  31.448  72.538  1.00  0.00     0.118 A 
BRANCH   7   8
ATOM      8  O   UNL     1      31.409  31.343  72.240  1.00  0.00    -0.508 OA
ATOM      9  H   UNL     1      32.013  30.695  72.732  1.00  0.00     0.293 HD
ENDBRANCH   7   8
ENDBRANCH   1   2
BRANCH   1  10
ATOM     10  C   UNL     1      29.156  35.073  71.703  1.00  0.00     0.040 C 
BRANCH  10  11
ATOM     11  C   UNL     1      29.845  36.396  71.905  1.00  0.00    -0.040 A 
ATOM     12  C   UNL     1      29.176  37.451  72.545  1.00  0.00     0.050 A 
ATOM     13  C   UNL     1      31.180  36.567  71.506  1.00  0.00     0.050 A 
ATOM     14  C   UNL     1      29.824  38.671  72.765  1.00  0.00     0.119 A 
ATOM     15  C   UNL     1      31.832  37.789  71.724  1.00  0.00     0.119 A 
ATOM     16  C   UNL     1      31.153  38.839  72.350  1.00  0.00     0.092 A 
BRANCH  14  17
ATOM     17  O   UNL     1      29.142  39.709  73.395  1.00  0.00    -0.508 OA
ATOM     18  H   UNL     1      28.130  39.730  73.434  1.00  0.00     0.293 HD
ENDBRANCH  14  17
BRANCH  15  19
ATOM     19  O   UNL     1      33.155  37.968  71.325  1.00  0.00    -0.508 OA
ATOM     20  H   UNL     1      33.751  38.661  71.761  1.00  0.00     0.293 HD
ENDBRANCH  15  19
ENDBRANCH  10  11
ENDBRANCH   1  10
TORSDOF 6
ENDMDL
MODEL 9
REMARK VINA RESULT:    -4.740     12.575     15.824
REMARK INTER + INTRA:          -6.550
REMARK INTER:                  -6.045
REMARK INTRA:                  -0.505
REMARK UNBOUND:                -0.563
REMARK SMILES Oc1cc(O)cc(CCc2ccccc2O)c1
REMARK SMILES IDX 9 1 10 2 12 3 13 4 11 5 14 6 15 7 16 8 8 10 7 11 6 12 17 13
REMARK SMILES IDX 4 14 2 15 3 16 5 17 1 19
REMARK H PARENT 16 9 5 18 1 20
REMARK Flexibility Score: inf
ROOT
ATOM      1  C   UNL     1      28.553  44.427  83.202  1.00  0.00     0.044 C 
ENDROOT
BRANCH   1   2
ATOM      2  C   UNL     1      28.989  45.300  82.054  1.00  0.00    -0.006 A 
ATOM      3  C   UNL     1      29.384  47.522  81.146  1.00  0.00     0.001 A 
ATOM      4  C   UNL     1      29.729  46.962  79.914  1.00  0.00     0.004 A 
ATOM      5  C   UNL     1      29.010  46.697  82.210  1.00  0.00     0.007 A 
ATOM      6  C   UNL     1      29.699  45.575  79.742  1.00  0.00     0.046 A 
ATOM      7  C   UNL     1      29.325  44.739  80.805  1.00  0.00     0.118 A 
BRANCH   7   8
ATOM      8  O   UNL     1      29.282  43.357  80.620  1.00  0.00    -0.508 OA
ATOM      9  H   UNL     1      28.408  42.845  80.635  1.00  0.00     0.293 HD
ENDBRANCH   7   8
ENDBRANCH   1   2
BRANCH   1  10
ATOM     10  C   UNL     1      29.296  44.811  84.485  1.00  0.00     0.040 C 
BRANCH  10  11
ATOM     11  C   UNL     1      28.366  44.771  85.668  1.00  0.00    -0.040 A 
ATOM     12  C   UNL     1      28.880  44.820  86.973  1.00  0.00     0.050 A 
ATOM     13  C   UNL     1      26.975  44.740  85.475  1.00  0.00     0.050 A 
ATOM     14  C   UNL     1      28.017  44.816  88.075  1.00  0.00     0.119 A 
ATOM     15  C   UNL     1      26.109  44.735  86.577  1.00  0.00     0.119 A 
ATOM     16  C   UNL     1      26.631  44.770  87.874  1.00  0.00     0.092 A 
BRANCH  14  17
ATOM     17  O   UNL     1      28.546  44.859  89.363  1.00  0.00    -0.508 OA
ATOM     18  H   UNL     1      28.336  45.621  89.996  1.00  0.00     0.293 HD
ENDBRANCH  14  17
BRANCH  15  19
ATOM     19  O   UNL     1      24.729  44.698  86.393  1.00  0.00    -0.508 OA
ATOM     20  H   UNL     1      24.153  45.520  86.529  1.00  0.00     0.293 HD
ENDBRANCH  15  19
ENDBRANCH  10  11
ENDBRANCH   1  10
TORSDOF 6
ENDMDL
