MODEL 1
REMARK VINA RESULT:    -4.862      0.000      0.000
REMARK INTER + INTRA:          -5.147
REMARK INTER:                  -5.147
REMARK INTRA:                   0.000
REMARK UNBOUND:                 0.000
REMARK SMILES O=c1ccc2cc(O)c(O)cc2o1
REMARK SMILES IDX 4 1 3 2 2 3 1 4 13 5 12 6 11 7 9 8 7 9 6 10 5 11 8 12 10 14
REMARK H PARENT 8 13 10 15
REMARK Flexibility Score: inf
ROOT
ATOM      1  C   UNL     1      43.759  20.901  -4.807  1.00  0.00     0.019 A 
ATOM      2  C   UNL     1      44.448  20.058  -5.681  1.00  0.00     0.094 A 
ATOM      3  C   UNL     1      44.589  18.707  -5.349  1.00  0.00     0.336 A 
ATOM      4  O   UNL     1      45.207  17.930  -6.125  1.00  0.00    -0.246 OA
ATOM      5  O   UNL     1      44.075  18.233  -4.217  1.00  0.00    -0.423 OA
ATOM      6  C   UNL     1      43.411  19.002  -3.357  1.00  0.00     0.142 A 
ATOM      7  C   UNL     1      42.892  18.448  -2.182  1.00  0.00     0.098 A 
ATOM      8  C   UNL     1      42.191  19.254  -1.271  1.00  0.00     0.161 A 
ATOM      9  C   UNL     1      42.010  20.619  -1.537  1.00  0.00     0.158 A 
ATOM     10  C   UNL     1      42.529  21.180  -2.714  1.00  0.00     0.062 A 
ATOM     11  C   UNL     1      43.229  20.375  -3.625  1.00  0.00     0.022 A 
ENDROOT
BRANCH   9  12
ATOM     12  O   UNL     1      41.314  21.412  -0.628  1.00  0.00    -0.504 OA
ATOM     13  H   UNL     1      41.324  22.423  -0.689  1.00  0.00     0.293 HD
ENDBRANCH   9  12
BRANCH   8  14
ATOM     14  O   UNL     1      41.673  18.705  -0.100  1.00  0.00    -0.504 OA
ATOM     15  H   UNL     1      41.106  19.252   0.537  1.00  0.00     0.293 HD
ENDBRANCH   8  14
TORSDOF 2
ENDMDL
MODEL 2
REMARK VINA RESULT:    -4.558      1.591      2.537
REMARK INTER + INTRA:          -4.824
REMARK INTER:                  -4.824
REMARK INTRA:                   0.000
REMARK UNBOUND:                 0.000
REMARK SMILES O=c1ccc2cc(O)c(O)cc2o1
REMARK SMILES IDX 4 1 3 2 2 3 1 4 13 5 12 6 11 7 9 8 7 9 6 10 5 11 8 12 10 14
REMARK H PARENT 8 13 10 15
REMARK Flexibility Score: inf
ROOT
ATOM      1  C   UNL     1      44.139  18.478  -4.864  1.00  0.00     0.019 A 
ATOM      2  C   UNL     1      44.558  19.552  -5.650  1.00  0.00     0.094 A 
ATOM      3  C   UNL     1      44.236  20.852  -5.248  1.00  0.00     0.336 A 
ATOM      4  O   UNL     1      44.604  21.835  -5.944  1.00  0.00    -0.246 OA
ATOM      5  O   UNL     1      43.540  21.060  -4.134  1.00  0.00    -0.423 OA
ATOM      6  C   UNL     1      43.121  20.065  -3.355  1.00  0.00     0.142 A 
ATOM      7  C   UNL     1      42.393  20.344  -2.194  1.00  0.00     0.098 A 
ATOM      8  C   UNL     1      41.949  19.298  -1.370  1.00  0.00     0.161 A 
ATOM      9  C   UNL     1      42.236  17.968  -1.709  1.00  0.00     0.158 A 
ATOM     10  C   UNL     1      42.966  17.682  -2.873  1.00  0.00     0.062 A 
ATOM     11  C   UNL     1      43.409  18.726  -3.697  1.00  0.00     0.022 A 
ENDROOT
BRANCH   9  12
ATOM     12  O   UNL     1      41.791  16.936  -0.886  1.00  0.00    -0.504 OA
ATOM     13  H   UNL     1      41.111  16.257  -1.207  1.00  0.00     0.293 HD
ENDBRANCH   9  12
BRANCH   8  14
ATOM     14  O   UNL     1      41.224  19.574  -0.213  1.00  0.00    -0.504 OA
ATOM     15  H   UNL     1      41.035  18.857   0.478  1.00  0.00     0.293 HD
ENDBRANCH   8  14
TORSDOF 2
ENDMDL
MODEL 3
REMARK VINA RESULT:    -4.369      7.520      9.179
REMARK INTER + INTRA:          -4.625
REMARK INTER:                  -4.625
REMARK INTRA:                   0.000
REMARK UNBOUND:                 0.000
REMARK SMILES O=c1ccc2cc(O)c(O)cc2o1
REMARK SMILES IDX 4 1 3 2 2 3 1 4 13 5 12 6 11 7 9 8 7 9 6 10 5 11 8 12 10 14
REMARK H PARENT 8 13 10 15
REMARK Flexibility Score: inf
ROOT
ATOM      1  C   UNL     1      51.913  15.790  -5.742  1.00  0.00     0.019 A 
ATOM      2  C   UNL     1      52.954  14.942  -6.124  1.00  0.00     0.094 A 
ATOM      3  C   UNL     1      52.881  13.587  -5.788  1.00  0.00     0.336 A 
ATOM      4  O   UNL     1      53.809  12.805  -6.125  1.00  0.00    -0.246 OA
ATOM      5  O   UNL     1      51.836  13.114  -5.114  1.00  0.00    -0.423 OA
ATOM      6  C   UNL     1      50.823  13.888  -4.730  1.00  0.00     0.142 A 
ATOM      7  C   UNL     1      49.750  13.335  -4.022  1.00  0.00     0.098 A 
ATOM      8  C   UNL     1      48.681  14.147  -3.615  1.00  0.00     0.161 A 
ATOM      9  C   UNL     1      48.684  15.517  -3.917  1.00  0.00     0.158 A 
ATOM     10  C   UNL     1      49.758  16.076  -4.626  1.00  0.00     0.062 A 
ATOM     11  C   UNL     1      50.828  15.266  -5.033  1.00  0.00     0.022 A 
ENDROOT
BRANCH   9  12
ATOM     12  O   UNL     1      47.618  16.315  -3.508  1.00  0.00    -0.504 OA
ATOM     13  H   UNL     1      47.132  16.923  -4.157  1.00  0.00     0.293 HD
ENDBRANCH   9  12
BRANCH   8  14
ATOM     14  O   UNL     1      47.611  13.599  -2.910  1.00  0.00    -0.504 OA
ATOM     15  H   UNL     1      47.227  12.692  -3.149  1.00  0.00     0.293 HD
ENDBRANCH   8  14
TORSDOF 2
ENDMDL
MODEL 4
REMARK VINA RESULT:    -4.201      5.748      7.728
REMARK INTER + INTRA:          -4.446
REMARK INTER:                  -4.446
REMARK INTRA:                   0.000
REMARK UNBOUND:                 0.000
REMARK SMILES O=c1ccc2cc(O)c(O)cc2o1
REMARK SMILES IDX 4 1 3 2 2 3 1 4 13 5 12 6 11 7 9 8 7 9 6 10 5 11 8 12 10 14
REMARK H PARENT 8 13 10 15
REMARK Flexibility Score: inf
ROOT
ATOM      1  C   UNL     1      46.679  16.334  -4.017  1.00  0.00     0.019 A 
ATOM      2  C   UNL     1      45.349  16.480  -3.619  1.00  0.00     0.094 A 
ATOM      3  C   UNL     1      44.765  15.483  -2.832  1.00  0.00     0.336 A 
ATOM      4  O   UNL     1      43.566  15.596  -2.462  1.00  0.00    -0.246 OA
ATOM      5  O   UNL     1      45.466  14.412  -2.469  1.00  0.00    -0.423 OA
ATOM      6  C   UNL     1      46.736  14.234  -2.827  1.00  0.00     0.142 A 
ATOM      7  C   UNL     1      47.424  13.087  -2.415  1.00  0.00     0.098 A 
ATOM      8  C   UNL     1      48.762  12.895  -2.790  1.00  0.00     0.161 A 
ATOM      9  C   UNL     1      49.415  13.854  -3.579  1.00  0.00     0.158 A 
ATOM     10  C   UNL     1      48.730  15.005  -3.995  1.00  0.00     0.062 A 
ATOM     11  C   UNL     1      47.392  15.198  -3.621  1.00  0.00     0.022 A 
ENDROOT
BRANCH   9  12
ATOM     12  O   UNL     1      50.744  13.654  -3.947  1.00  0.00    -0.504 OA
ATOM     13  H   UNL     1      51.457  13.435  -3.260  1.00  0.00     0.293 HD
ENDBRANCH   9  12
BRANCH   8  14
ATOM     14  O   UNL     1      49.450  11.754  -2.382  1.00  0.00    -0.504 OA
ATOM     15  H   UNL     1      49.022  10.836  -2.416  1.00  0.00     0.293 HD
ENDBRANCH   8  14
TORSDOF 2
ENDMDL
MODEL 5
REMARK VINA RESULT:    -4.187      2.085      3.284
REMARK INTER + INTRA:          -4.432
REMARK INTER:                  -4.432
REMARK INTRA:                   0.000
REMARK UNBOUND:                 0.000
REMARK SMILES O=c1ccc2cc(O)c(O)cc2o1
REMARK SMILES IDX 4 1 3 2 2 3 1 4 13 5 12 6 11 7 9 8 7 9 6 10 5 11 8 12 10 14
REMARK H PARENT 8 13 10 15
REMARK Flexibility Score: inf
ROOT
ATOM      1  C   UNL     1      42.127  20.173  -2.667  1.00  0.00     0.019 A 
ATOM      2  C   UNL     1      42.840  20.966  -3.568  1.00  0.00     0.094 A 
ATOM      3  C   UNL     1      43.750  20.355  -4.436  1.00  0.00     0.336 A 
ATOM      4  O   UNL     1      44.402  21.053  -5.256  1.00  0.00    -0.246 OA
ATOM      5  O   UNL     1      43.935  19.038  -4.401  1.00  0.00    -0.423 OA
ATOM      6  C   UNL     1      43.277  18.245  -3.558  1.00  0.00     0.142 A 
ATOM      7  C   UNL     1      43.512  16.866  -3.567  1.00  0.00     0.098 A 
ATOM      8  C   UNL     1      42.822  16.026  -2.680  1.00  0.00     0.161 A 
ATOM      9  C   UNL     1      41.892  16.569  -1.780  1.00  0.00     0.158 A 
ATOM     10  C   UNL     1      41.652  17.951  -1.767  1.00  0.00     0.062 A 
ATOM     11  C   UNL     1      42.342  18.791  -2.653  1.00  0.00     0.022 A 
ENDROOT
BRANCH   9  12
ATOM     12  O   UNL     1      41.211  15.728  -0.903  1.00  0.00    -0.504 OA
ATOM     13  H   UNL     1      41.696  15.023  -0.359  1.00  0.00     0.293 HD
ENDBRANCH   9  12
BRANCH   8  14
ATOM     14  O   UNL     1      43.054  14.653  -2.686  1.00  0.00    -0.504 OA
ATOM     15  H   UNL     1      43.226  14.139  -1.829  1.00  0.00     0.293 HD
ENDBRANCH   8  14
TORSDOF 2
ENDMDL
MODEL 6
REMARK VINA RESULT:    -4.095      1.761      4.648
REMARK INTER + INTRA:          -4.334
REMARK INTER:                  -4.334
REMARK INTRA:                   0.000
REMARK UNBOUND:                 0.000
REMARK SMILES O=c1ccc2cc(O)c(O)cc2o1
REMARK SMILES IDX 4 1 3 2 2 3 1 4 13 5 12 6 11 7 9 8 7 9 6 10 5 11 8 12 10 14
REMARK H PARENT 8 13 10 15
REMARK Flexibility Score: inf
ROOT
ATOM      1  C   UNL     1      42.825  20.524  -2.358  1.00  0.00     0.019 A 
ATOM      2  C   UNL     1      41.855  21.136  -1.563  1.00  0.00     0.094 A 
ATOM      3  C   UNL     1      40.971  20.334  -0.834  1.00  0.00     0.336 A 
ATOM      4  O   UNL     1      40.089  20.868  -0.111  1.00  0.00    -0.246 OA
ATOM      5  O   UNL     1      41.054  19.008  -0.899  1.00  0.00    -0.423 OA
ATOM      6  C   UNL     1      41.964  18.384  -1.644  1.00  0.00     0.142 A 
ATOM      7  C   UNL     1      42.004  16.986  -1.673  1.00  0.00     0.098 A 
ATOM      8  C   UNL     1      42.960  16.323  -2.457  1.00  0.00     0.161 A 
ATOM      9  C   UNL     1      43.881  17.062  -3.214  1.00  0.00     0.158 A 
ATOM     10  C   UNL     1      43.845  18.465  -3.190  1.00  0.00     0.062 A 
ATOM     11  C   UNL     1      42.889  19.128  -2.406  1.00  0.00     0.022 A 
ENDROOT
BRANCH   9  12
ATOM     12  O   UNL     1      44.827  16.396  -3.990  1.00  0.00    -0.504 OA
ATOM     13  H   UNL     1      44.823  16.460  -5.002  1.00  0.00     0.293 HD
ENDBRANCH   9  12
BRANCH   8  14
ATOM     14  O   UNL     1      43.002  14.931  -2.487  1.00  0.00    -0.504 OA
ATOM     15  H   UNL     1      43.682  14.433  -3.050  1.00  0.00     0.293 HD
ENDBRANCH   8  14
TORSDOF 2
ENDMDL
MODEL 7
REMARK VINA RESULT:    -4.081      6.345      9.058
REMARK INTER + INTRA:          -4.319
REMARK INTER:                  -4.319
REMARK INTRA:                   0.000
REMARK UNBOUND:                 0.000
REMARK SMILES O=c1ccc2cc(O)c(O)cc2o1
REMARK SMILES IDX 4 1 3 2 2 3 1 4 13 5 12 6 11 7 9 8 7 9 6 10 5 11 8 12 10 14
REMARK H PARENT 8 13 10 15
REMARK Flexibility Score: inf
ROOT
ATOM      1  C   UNL     1      48.461  13.121  -3.130  1.00  0.00     0.019 A 
ATOM      2  C   UNL     1      47.155  13.448  -2.764  1.00  0.00     0.094 A 
ATOM      3  C   UNL     1      46.631  14.684  -3.154  1.00  0.00     0.336 A 
ATOM      4  O   UNL     1      45.454  14.998  -2.833  1.00  0.00    -0.246 OA
ATOM      5  O   UNL     1      47.368  15.536  -3.862  1.00  0.00    -0.423 OA
ATOM      6  C   UNL     1      48.618  15.263  -4.232  1.00  0.00     0.142 A 
ATOM      7  C   UNL     1      49.345  16.198  -4.977  1.00  0.00     0.098 A 
ATOM      8  C   UNL     1      50.663  15.916  -5.370  1.00  0.00     0.161 A 
ATOM      9  C   UNL     1      51.254  14.694  -5.015  1.00  0.00     0.158 A 
ATOM     10  C   UNL     1      50.529  13.754  -4.268  1.00  0.00     0.062 A 
ATOM     11  C   UNL     1      49.213  14.035  -3.875  1.00  0.00     0.022 A 
ENDROOT
BRANCH   9  12
ATOM     12  O   UNL     1      52.563  14.423  -5.409  1.00  0.00    -0.504 OA
ATOM     13  H   UNL     1      53.255  14.083  -4.751  1.00  0.00     0.293 HD
ENDBRANCH   9  12
BRANCH   8  14
ATOM     14  O   UNL     1      51.389  16.844  -6.111  1.00  0.00    -0.504 OA
ATOM     15  H   UNL     1      52.146  16.560  -6.723  1.00  0.00     0.293 HD
ENDBRANCH   8  14
TORSDOF 2
ENDMDL
MODEL 8
REMARK VINA RESULT:    -3.972      6.865      9.051
REMARK INTER + INTRA:          -4.205
REMARK INTER:                  -4.205
REMARK INTRA:                   0.000
REMARK UNBOUND:                 0.000
REMARK SMILES O=c1ccc2cc(O)c(O)cc2o1
REMARK SMILES IDX 4 1 3 2 2 3 1 4 13 5 12 6 11 7 9 8 7 9 6 10 5 11 8 12 10 14
REMARK H PARENT 8 13 10 15
REMARK Flexibility Score: inf
ROOT
ATOM      1  C   UNL     1      49.377  11.859  -3.109  1.00  0.00     0.019 A 
ATOM      2  C   UNL     1      48.388  11.270  -2.320  1.00  0.00     0.094 A 
ATOM      3  C   UNL     1      47.266  12.024  -1.965  1.00  0.00     0.336 A 
ATOM      4  O   UNL     1      46.363  11.511  -1.254  1.00  0.00    -0.246 OA
ATOM      5  O   UNL     1      47.144  13.285  -2.372  1.00  0.00    -0.423 OA
ATOM      6  C   UNL     1      48.064  13.885  -3.125  1.00  0.00     0.142 A 
ATOM      7  C   UNL     1      47.882  15.214  -3.524  1.00  0.00     0.098 A 
ATOM      8  C   UNL     1      48.848  15.851  -4.317  1.00  0.00     0.161 A 
ATOM      9  C   UNL     1      50.000  15.156  -4.714  1.00  0.00     0.158 A 
ATOM     10  C   UNL     1      50.188  13.824  -4.316  1.00  0.00     0.062 A 
ATOM     11  C   UNL     1      49.223  13.186  -3.523  1.00  0.00     0.022 A 
ENDROOT
BRANCH   9  12
ATOM     12  O   UNL     1      50.954  15.797  -5.501  1.00  0.00    -0.504 OA
ATOM     13  H   UNL     1      50.893  16.787  -5.707  1.00  0.00     0.293 HD
ENDBRANCH   9  12
BRANCH   8  14
ATOM     14  O   UNL     1      48.670  17.174  -4.715  1.00  0.00    -0.504 OA
ATOM     15  H   UNL     1      49.355  17.890  -4.502  1.00  0.00     0.293 HD
ENDBRANCH   8  14
TORSDOF 2
ENDMDL
MODEL 9
REMARK VINA RESULT:    -3.952      1.838      4.929
REMARK INTER + INTRA:          -4.183
REMARK INTER:                  -4.183
REMARK INTRA:                   0.000
REMARK UNBOUND:                 0.000
REMARK SMILES O=c1ccc2cc(O)c(O)cc2o1
REMARK SMILES IDX 4 1 3 2 2 3 1 4 13 5 12 6 11 7 9 8 7 9 6 10 5 11 8 12 10 14
REMARK H PARENT 8 13 10 15
REMARK Flexibility Score: inf
ROOT
ATOM      1  C   UNL     1      42.574  20.607  -1.355  1.00  0.00     0.019 A 
ATOM      2  C   UNL     1      41.564  21.050  -0.500  1.00  0.00     0.094 A 
ATOM      3  C   UNL     1      40.305  20.446  -0.568  1.00  0.00     0.336 A 
ATOM      4  O   UNL     1      39.381  20.831   0.195  1.00  0.00    -0.246 OA
ATOM      5  O   UNL     1      40.074  19.465  -1.436  1.00  0.00    -0.423 OA
ATOM      6  C   UNL     1      41.008  19.012  -2.270  1.00  0.00     0.142 A 
ATOM      7  C   UNL     1      40.708  17.977  -3.162  1.00  0.00     0.098 A 
ATOM      8  C   UNL     1      41.689  17.497  -4.042  1.00  0.00     0.161 A 
ATOM      9  C   UNL     1      42.976  18.054  -4.030  1.00  0.00     0.158 A 
ATOM     10  C   UNL     1      43.283  19.093  -3.138  1.00  0.00     0.062 A 
ATOM     11  C   UNL     1      42.303  19.574  -2.257  1.00  0.00     0.022 A 
ENDROOT
BRANCH   9  12
ATOM     12  O   UNL     1      43.944  17.572  -4.908  1.00  0.00    -0.504 OA
ATOM     13  H   UNL     1      44.665  18.176  -5.286  1.00  0.00     0.293 HD
ENDBRANCH   9  12
BRANCH   8  14
ATOM     14  O   UNL     1      41.393  16.467  -4.931  1.00  0.00    -0.504 OA
ATOM     15  H   UNL     1      41.366  16.621  -5.933  1.00  0.00     0.293 HD
ENDBRANCH   8  14
TORSDOF 2
ENDMDL
