MODEL 1
REMARK VINA RESULT:    -5.357      0.000      0.000
REMARK INTER + INTRA:          -6.484
REMARK INTER:                  -6.139
REMARK INTRA:                  -0.344
REMARK UNBOUND:                -0.344
REMARK SMILES COc1ccc(C(C)=O)c(O)c1
REMARK SMILES IDX 6 1 10 2 12 3 3 4 4 5 5 6 7 7 8 8 9 9 11 10 2 12 1 13
REMARK H PARENT 11 11
REMARK Flexibility Score: inf
ROOT
ATOM      1  C   UNL     1      93.499 -60.911 102.659  1.00  0.00     0.059 A 
ATOM      2  C   UNL     1      93.409 -59.596 103.177  1.00  0.00     0.130 A 
ATOM      3  C   UNL     1      94.375 -59.138 104.081  1.00  0.00     0.093 A 
ATOM      4  C   UNL     1      95.451 -59.947 104.459  1.00  0.00     0.122 A 
ATOM      5  C   UNL     1      95.555 -61.241 103.922  1.00  0.00     0.047 A 
ATOM      6  C   UNL     1      94.589 -61.715 103.033  1.00  0.00     0.019 A 
ENDROOT
BRANCH   1   7
ATOM      7  C   UNL     1      92.459 -61.476 101.766  1.00  0.00     0.163 C 
ATOM      8  C   UNL     1      91.837 -62.809 102.048  1.00  0.00     0.093 C 
ATOM      9  O   UNL     1      92.025 -60.796 100.797  1.00  0.00    -0.294 OA
ENDBRANCH   1   7
BRANCH   2  10
ATOM     10  O   UNL     1      92.400 -58.708 102.797  1.00  0.00    -0.507 OA
ATOM     11  H   UNL     1      91.564 -58.549 103.344  1.00  0.00     0.293 HD
ENDBRANCH   2  10
BRANCH   4  12
ATOM     12  O   UNL     1      96.390 -59.428 105.362  1.00  0.00    -0.497 OA
ATOM     13  C   UNL     1      97.745 -59.856 105.448  1.00  0.00     0.278 C 
ENDBRANCH   4  12
TORSDOF 3
ENDMDL
MODEL 2
REMARK VINA RESULT:    -5.280      1.533      2.079
REMARK INTER + INTRA:          -6.396
REMARK INTER:                  -6.079
REMARK INTRA:                  -0.317
REMARK UNBOUND:                -0.344
REMARK SMILES COc1ccc(C(C)=O)c(O)c1
REMARK SMILES IDX 6 1 10 2 12 3 3 4 4 5 5 6 7 7 8 8 9 9 11 10 2 12 1 13
REMARK H PARENT 11 11
REMARK Flexibility Score: inf
ROOT
ATOM      1  C   UNL     1      94.369 -60.368 103.397  1.00  0.00     0.059 A 
ATOM      2  C   UNL     1      94.972 -59.572 104.401  1.00  0.00     0.130 A 
ATOM      3  C   UNL     1      96.087 -60.058 105.095  1.00  0.00     0.093 A 
ATOM      4  C   UNL     1      96.639 -61.306 104.792  1.00  0.00     0.122 A 
ATOM      5  C   UNL     1      96.058 -62.082 103.776  1.00  0.00     0.047 A 
ATOM      6  C   UNL     1      94.936 -61.617 103.088  1.00  0.00     0.019 A 
ENDROOT
BRANCH   1   7
ATOM      7  C   UNL     1      93.138 -59.941 102.689  1.00  0.00     0.163 C 
ATOM      8  C   UNL     1      92.760 -60.533 101.367  1.00  0.00     0.093 C 
ATOM      9  O   UNL     1      92.348 -59.126 103.238  1.00  0.00    -0.294 OA
ENDBRANCH   1   7
BRANCH   2  10
ATOM     10  O   UNL     1      94.517 -58.290 104.714  1.00  0.00    -0.507 OA
ATOM     11  H   UNL     1      94.914 -57.724 105.453  1.00  0.00     0.293 HD
ENDBRANCH   2  10
BRANCH   4  12
ATOM     12  O   UNL     1      97.760 -61.733 105.519  1.00  0.00    -0.497 OA
ATOM     13  C   UNL     1      98.851 -60.893 105.880  1.00  0.00     0.278 C 
ENDBRANCH   4  12
TORSDOF 3
ENDMDL
MODEL 3
REMARK VINA RESULT:    -5.247      1.348      4.547
REMARK INTER + INTRA:          -6.358
REMARK INTER:                  -6.046
REMARK INTRA:                  -0.313
REMARK UNBOUND:                -0.344
REMARK SMILES COc1ccc(C(C)=O)c(O)c1
REMARK SMILES IDX 6 1 10 2 12 3 3 4 4 5 5 6 7 7 8 8 9 9 11 10 2 12 1 13
REMARK H PARENT 11 11
REMARK Flexibility Score: inf
ROOT
ATOM      1  C   UNL     1      95.729 -60.599 104.441  1.00  0.00     0.059 A 
ATOM      2  C   UNL     1      95.162 -59.302 104.471  1.00  0.00     0.130 A 
ATOM      3  C   UNL     1      94.009 -59.031 103.725  1.00  0.00     0.093 A 
ATOM      4  C   UNL     1      93.384 -60.030 102.973  1.00  0.00     0.122 A 
ATOM      5  C   UNL     1      93.930 -61.324 102.968  1.00  0.00     0.047 A 
ATOM      6  C   UNL     1      95.089 -61.603 103.693  1.00  0.00     0.019 A 
ENDROOT
BRANCH   1   7
ATOM      7  C   UNL     1      96.995 -60.920 105.144  1.00  0.00     0.163 C 
ATOM      8  C   UNL     1      97.383 -62.337 105.430  1.00  0.00     0.093 C 
ATOM      9  O   UNL     1      97.802 -59.997 105.436  1.00  0.00    -0.294 OA
ENDBRANCH   1   7
BRANCH   2  10
ATOM     10  O   UNL     1      95.692 -58.270 105.249  1.00  0.00    -0.507 OA
ATOM     11  H   UNL     1      96.088 -58.414 106.168  1.00  0.00     0.293 HD
ENDBRANCH   2  10
BRANCH   4  12
ATOM     12  O   UNL     1      92.227 -59.697 102.253  1.00  0.00    -0.497 OA
ATOM     13  C   UNL     1      92.056 -58.489 101.521  1.00  0.00     0.278 C 
ENDBRANCH   4  12
TORSDOF 3
ENDMDL
MODEL 4
REMARK VINA RESULT:    -5.180      1.319      2.216
REMARK INTER + INTRA:          -6.281
REMARK INTER:                  -5.944
REMARK INTRA:                  -0.337
REMARK UNBOUND:                -0.344
REMARK SMILES COc1ccc(C(C)=O)c(O)c1
REMARK SMILES IDX 6 1 10 2 12 3 3 4 4 5 5 6 7 7 8 8 9 9 11 10 2 12 1 13
REMARK H PARENT 11 11
REMARK Flexibility Score: inf
ROOT
ATOM      1  C   UNL     1      93.526 -60.651 102.618  1.00  0.00     0.059 A 
ATOM      2  C   UNL     1      94.448 -61.616 103.093  1.00  0.00     0.130 A 
ATOM      3  C   UNL     1      95.416 -61.245 104.034  1.00  0.00     0.093 A 
ATOM      4  C   UNL     1      95.470 -59.943 104.541  1.00  0.00     0.122 A 
ATOM      5  C   UNL     1      94.537 -58.995 104.090  1.00  0.00     0.047 A 
ATOM      6  C   UNL     1      93.577 -59.347 103.139  1.00  0.00     0.019 A 
ENDROOT
BRANCH   1   7
ATOM      7  C   UNL     1      92.535 -60.967 101.561  1.00  0.00     0.163 C 
ATOM      8  C   UNL     1      92.265 -60.009 100.442  1.00  0.00     0.093 C 
ATOM      9  O   UNL     1      91.965 -62.091 101.549  1.00  0.00    -0.294 OA
ENDBRANCH   1   7
BRANCH   2  10
ATOM     10  O   UNL     1      94.415 -62.950 102.683  1.00  0.00    -0.507 OA
ATOM     11  H   UNL     1      94.871 -63.698 103.188  1.00  0.00     0.293 HD
ENDBRANCH   2  10
BRANCH   4  12
ATOM     12  O   UNL     1      96.459 -59.636 105.487  1.00  0.00    -0.497 OA
ATOM     13  C   UNL     1      97.764 -60.206 105.499  1.00  0.00     0.278 C 
ENDBRANCH   4  12
TORSDOF 3
ENDMDL
MODEL 5
REMARK VINA RESULT:    -5.125      1.811      4.787
REMARK INTER + INTRA:          -6.218
REMARK INTER:                  -5.881
REMARK INTRA:                  -0.337
REMARK UNBOUND:                -0.344
REMARK SMILES COc1ccc(C(C)=O)c(O)c1
REMARK SMILES IDX 6 1 10 2 12 3 3 4 4 5 5 6 7 7 8 8 9 9 11 10 2 12 1 13
REMARK H PARENT 11 11
REMARK Flexibility Score: inf
ROOT
ATOM      1  C   UNL     1      95.852 -60.772 104.466  1.00  0.00     0.059 A 
ATOM      2  C   UNL     1      95.068 -61.443 103.496  1.00  0.00     0.130 A 
ATOM      3  C   UNL     1      93.955 -60.802 102.939  1.00  0.00     0.093 A 
ATOM      4  C   UNL     1      93.621 -59.493 103.298  1.00  0.00     0.122 A 
ATOM      5  C   UNL     1      94.416 -58.818 104.238  1.00  0.00     0.047 A 
ATOM      6  C   UNL     1      95.518 -59.452 104.815  1.00  0.00     0.019 A 
ENDROOT
BRANCH   1   7
ATOM      7  C   UNL     1      96.990 -61.433 105.150  1.00  0.00     0.163 C 
ATOM      8  C   UNL     1      98.205 -60.658 105.556  1.00  0.00     0.093 C 
ATOM      9  O   UNL     1      96.909 -62.649 105.473  1.00  0.00    -0.294 OA
ENDBRANCH   1   7
BRANCH   2  10
ATOM     10  O   UNL     1      95.377 -62.727 103.040  1.00  0.00    -0.507 OA
ATOM     11  H   UNL     1      95.296 -63.007 102.072  1.00  0.00     0.293 HD
ENDBRANCH   2  10
BRANCH   4  12
ATOM     12  O   UNL     1      92.498 -58.903 102.699  1.00  0.00    -0.497 OA
ATOM     13  C   UNL     1      92.281 -58.834 101.293  1.00  0.00     0.278 C 
ENDBRANCH   4  12
TORSDOF 3
ENDMDL
MODEL 6
REMARK VINA RESULT:    -5.071      1.301      4.494
REMARK INTER + INTRA:          -6.156
REMARK INTER:                  -5.854
REMARK INTRA:                  -0.302
REMARK UNBOUND:                -0.344
REMARK SMILES COc1ccc(C(C)=O)c(O)c1
REMARK SMILES IDX 6 1 10 2 12 3 3 4 4 5 5 6 7 7 8 8 9 9 11 10 2 12 1 13
REMARK H PARENT 11 11
REMARK Flexibility Score: inf
ROOT
ATOM      1  C   UNL     1      94.334 -60.429 103.452  1.00  0.00     0.059 A 
ATOM      2  C   UNL     1      93.076 -60.045 102.928  1.00  0.00     0.130 A 
ATOM      3  C   UNL     1      92.421 -60.880 102.015  1.00  0.00     0.093 A 
ATOM      4  C   UNL     1      92.973 -62.107 101.633  1.00  0.00     0.122 A 
ATOM      5  C   UNL     1      94.207 -62.500 102.177  1.00  0.00     0.047 A 
ATOM      6  C   UNL     1      94.878 -61.669 103.075  1.00  0.00     0.019 A 
ENDROOT
BRANCH   1   7
ATOM      7  C   UNL     1      95.110 -59.546 104.356  1.00  0.00     0.163 C 
ATOM      8  C   UNL     1      96.292 -60.063 105.116  1.00  0.00     0.093 C 
ATOM      9  O   UNL     1      94.829 -58.319 104.431  1.00  0.00    -0.294 OA
ENDBRANCH   1   7
BRANCH   2  10
ATOM     10  O   UNL     1      92.432 -58.866 103.310  1.00  0.00    -0.507 OA
ATOM     11  H   UNL     1      92.428 -58.518 104.259  1.00  0.00     0.293 HD
ENDBRANCH   2  10
BRANCH   4  12
ATOM     12  O   UNL     1      92.264 -62.902 100.721  1.00  0.00    -0.497 OA
ATOM     13  C   UNL     1      92.485 -64.295 100.526  1.00  0.00     0.278 C 
ENDBRANCH   4  12
TORSDOF 3
ENDMDL
MODEL 7
REMARK VINA RESULT:    -4.944      2.051      5.367
REMARK INTER + INTRA:          -6.011
REMARK INTER:                  -5.669
REMARK INTRA:                  -0.343
REMARK UNBOUND:                -0.344
REMARK SMILES COc1ccc(C(C)=O)c(O)c1
REMARK SMILES IDX 6 1 10 2 12 3 3 4 4 5 5 6 7 7 8 8 9 9 11 10 2 12 1 13
REMARK H PARENT 11 11
REMARK Flexibility Score: inf
ROOT
ATOM      1  C   UNL     1      96.901 -61.055 104.929  1.00  0.00     0.059 A 
ATOM      2  C   UNL     1      96.337 -62.056 104.100  1.00  0.00     0.130 A 
ATOM      3  C   UNL     1      95.119 -61.816 103.453  1.00  0.00     0.093 A 
ATOM      4  C   UNL     1      94.461 -60.589 103.583  1.00  0.00     0.122 A 
ATOM      5  C   UNL     1      95.037 -59.586 104.381  1.00  0.00     0.047 A 
ATOM      6  C   UNL     1      96.242 -59.819 105.046  1.00  0.00     0.019 A 
ENDROOT
BRANCH   1   7
ATOM      7  C   UNL     1      98.144 -61.286 105.704  1.00  0.00     0.163 C 
ATOM      8  C   UNL     1      99.182 -60.215 105.838  1.00  0.00     0.093 C 
ATOM      9  O   UNL     1      98.302 -62.368 106.330  1.00  0.00    -0.294 OA
ENDBRANCH   1   7
BRANCH   2  10
ATOM     10  O   UNL     1      96.966 -63.282 103.871  1.00  0.00    -0.507 OA
ATOM     11  H   UNL     1      97.138 -63.654 102.947  1.00  0.00     0.293 HD
ENDBRANCH   2  10
BRANCH   4  12
ATOM     12  O   UNL     1      93.248 -60.407 102.903  1.00  0.00    -0.497 OA
ATOM     13  C   UNL     1      92.602 -59.150 102.733  1.00  0.00     0.278 C 
ENDBRANCH   4  12
TORSDOF 3
ENDMDL
MODEL 8
REMARK VINA RESULT:    -4.886      2.025      2.905
REMARK INTER + INTRA:          -5.944
REMARK INTER:                  -5.603
REMARK INTRA:                  -0.341
REMARK UNBOUND:                -0.344
REMARK SMILES COc1ccc(C(C)=O)c(O)c1
REMARK SMILES IDX 6 1 10 2 12 3 3 4 4 5 5 6 7 7 8 8 9 9 11 10 2 12 1 13
REMARK H PARENT 11 11
REMARK Flexibility Score: inf
ROOT
ATOM      1  C   UNL     1      92.890 -60.682 101.926  1.00  0.00     0.059 A 
ATOM      2  C   UNL     1      92.491 -61.999 102.261  1.00  0.00     0.130 A 
ATOM      3  C   UNL     1      93.244 -62.739 103.181  1.00  0.00     0.093 A 
ATOM      4  C   UNL     1      94.370 -62.189 103.802  1.00  0.00     0.122 A 
ATOM      5  C   UNL     1      94.747 -60.873 103.490  1.00  0.00     0.047 A 
ATOM      6  C   UNL     1      94.015 -60.130 102.562  1.00  0.00     0.019 A 
ENDROOT
BRANCH   1   7
ATOM      7  C   UNL     1      92.179 -59.885 100.897  1.00  0.00     0.163 C 
ATOM      8  C   UNL     1      92.028 -58.402 101.036  1.00  0.00     0.093 C 
ATOM      9  O   UNL     1      91.763 -60.442  99.846  1.00  0.00    -0.294 OA
ENDBRANCH   1   7
BRANCH   2  10
ATOM     10  O   UNL     1      91.343 -62.592 101.732  1.00  0.00    -0.507 OA
ATOM     11  H   UNL     1      91.365 -63.298 101.008  1.00  0.00     0.293 HD
ENDBRANCH   2  10
BRANCH   4  12
ATOM     12  O   UNL     1      95.077 -62.979 104.719  1.00  0.00    -0.497 OA
ATOM     13  C   UNL     1      96.419 -62.731 105.127  1.00  0.00     0.278 C 
ENDBRANCH   4  12
TORSDOF 3
ENDMDL
MODEL 9
REMARK VINA RESULT:    -4.559      1.648      5.097
REMARK INTER + INTRA:          -5.570
REMARK INTER:                  -5.283
REMARK INTRA:                  -0.286
REMARK UNBOUND:                -0.344
REMARK SMILES COc1ccc(C(C)=O)c(O)c1
REMARK SMILES IDX 6 1 10 2 12 3 3 4 4 5 5 6 7 7 8 8 9 9 11 10 2 12 1 13
REMARK H PARENT 11 11
REMARK Flexibility Score: inf
ROOT
ATOM      1  C   UNL     1      95.150 -60.822 104.069  1.00  0.00     0.059 A 
ATOM      2  C   UNL     1      94.841 -62.204 104.118  1.00  0.00     0.130 A 
ATOM      3  C   UNL     1      93.711 -62.687 103.448  1.00  0.00     0.093 A 
ATOM      4  C   UNL     1      92.895 -61.833 102.699  1.00  0.00     0.122 A 
ATOM      5  C   UNL     1      93.219 -60.468 102.627  1.00  0.00     0.047 A 
ATOM      6  C   UNL     1      94.333 -59.970 103.304  1.00  0.00     0.019 A 
ENDROOT
BRANCH   1   7
ATOM      7  C   UNL     1      96.285 -60.244 104.828  1.00  0.00     0.163 C 
ATOM      8  C   UNL     1      96.319 -58.789 105.179  1.00  0.00     0.093 C 
ATOM      9  O   UNL     1      97.201 -60.995 105.259  1.00  0.00    -0.294 OA
ENDBRANCH   1   7
BRANCH   2  10
ATOM     10  O   UNL     1      95.644 -63.128 104.791  1.00  0.00    -0.507 OA
ATOM     11  H   UNL     1      96.529 -63.459 104.434  1.00  0.00     0.293 HD
ENDBRANCH   2  10
BRANCH   4  12
ATOM     12  O   UNL     1      91.781 -62.379 102.045  1.00  0.00    -0.497 OA
ATOM     13  C   UNL     1      91.455 -63.764 102.034  1.00  0.00     0.278 C 
ENDBRANCH   4  12
TORSDOF 3
ENDMDL
