MODEL 1
REMARK VINA RESULT:    -7.174      0.000      0.000
REMARK INTER + INTRA:         -11.104
REMARK INTER:                  -9.481
REMARK INTRA:                  -1.623
REMARK UNBOUND:                -1.623
REMARK SMILES CC[C@@H](C=C[C@H](C)[C@H]1CC[C@@H]2[C@@H]3CC[C@@H]4C[C@H](O)CC[C@@]4(C)[C@@H]3CC[C@@]21C)C(C)C
REMARK SMILES IDX 6 1 7 2 5 3 4 4 3 5 2 6 1 7 28 8 29 9 30 10 8 11 9 12 26 13
REMARK SMILES IDX 10 14 11 15 25 16 27 17 12 18 24 19 23 20 13 21 21 22 14 23
REMARK SMILES IDX 15 24 20 25 22 26 16 27 19 28 17 29 18 30
REMARK H PARENT 18 31
REMARK Flexibility Score: inf
ROOT
ATOM      1  C   UNL     1     181.976 183.179 183.727  1.00  0.00     0.012 C 
ATOM      2  C   UNL     1     180.903 184.217 184.104  1.00  0.00     0.012 C 
ENDROOT
BRANCH   1   3
ATOM      3  C   UNL     1     182.902 183.052 184.919  1.00  0.00    -0.028 C 
ATOM      4  C   UNL     1     182.777 182.054 185.814  1.00  0.00    -0.027 C 
BRANCH   4   5
ATOM      5  C   UNL     1     183.798 181.714 186.892  1.00  0.00     0.014 C 
BRANCH   5   6
ATOM      6  C   UNL     1     184.898 180.694 186.482  1.00  0.00     0.004 C 
ATOM      7  C   UNL     1     184.538 179.887 185.234  1.00  0.00     0.004 C 
ENDBRANCH   5   6
BRANCH   5   8
ATOM      8  C   UNL     1     183.050 181.311 188.201  1.00  0.00    -0.011 C 
ATOM      9  C   UNL     1     183.548 179.975 188.775  1.00  0.00     0.008 C 
ATOM     10  C   UNL     1     181.521 181.288 188.044  1.00  0.00     0.008 C 
ENDBRANCH   5   8
ENDBRANCH   4   5
ENDBRANCH   1   3
BRANCH   1  11
ATOM     11  C   UNL     1     181.340 181.799 183.353  1.00  0.00     0.002 C 
ATOM     12  C   UNL     1     179.900 181.627 183.898  1.00  0.00     0.005 C 
ATOM     13  C   UNL     1     181.207 181.450 181.834  1.00  0.00    -0.026 C 
ATOM     14  C   UNL     1     179.112 180.812 182.867  1.00  0.00     0.005 C 
ATOM     15  C   UNL     1     180.142 180.324 181.846  1.00  0.00    -0.001 C 
ATOM     16  C   UNL     1     182.495 180.990 181.110  1.00  0.00     0.007 C 
ATOM     17  C   UNL     1     180.663 182.671 181.032  1.00  0.00     0.012 C 
ATOM     18  C   UNL     1     180.665 178.858 182.134  1.00  0.00    -0.004 C 
ATOM     19  C   UNL     1     183.033 179.651 181.585  1.00  0.00     0.005 C 
ATOM     20  C   UNL     1     181.998 178.517 181.395  1.00  0.00    -0.001 C 
ATOM     21  C   UNL     1     180.759 178.373 183.608  1.00  0.00     0.004 C 
ATOM     22  C   UNL     1     182.581 177.067 181.750  1.00  0.00    -0.026 C 
ATOM     23  C   UNL     1     180.903 176.833 183.690  1.00  0.00     0.004 C 
ATOM     24  C   UNL     1     181.445 176.198 182.386  1.00  0.00    -0.002 C 
ATOM     25  C   UNL     1     183.041 176.371 180.434  1.00  0.00     0.010 C 
ATOM     26  C   UNL     1     183.806 177.140 182.723  1.00  0.00     0.012 C 
ATOM     27  C   UNL     1     181.840 174.720 182.592  1.00  0.00     0.036 C 
ATOM     28  C   UNL     1     183.437 174.896 180.627  1.00  0.00     0.032 C 
ATOM     29  C   UNL     1     182.302 174.084 181.273  1.00  0.00     0.114 C 
BRANCH  29  30
ATOM     30  O   UNL     1     182.737 172.773 181.525  1.00  0.00    -0.393 OA
ATOM     31  H   UNL     1     183.728 172.803 181.565  1.00  0.00     0.210 HD
ENDBRANCH  29  30
ENDBRANCH   1  11
TORSDOF 6
ENDMDL
MODEL 2
REMARK VINA RESULT:    -7.076      2.849      7.003
REMARK INTER + INTRA:         -10.974
REMARK INTER:                  -9.507
REMARK INTRA:                  -1.468
REMARK UNBOUND:                -1.623
REMARK SMILES CC[C@@H](C=C[C@H](C)[C@H]1CC[C@@H]2[C@@H]3CC[C@@H]4C[C@H](O)CC[C@@]4(C)[C@@H]3CC[C@@]21C)C(C)C
REMARK SMILES IDX 6 1 7 2 5 3 4 4 3 5 2 6 1 7 28 8 29 9 30 10 8 11 9 12 26 13
REMARK SMILES IDX 10 14 11 15 25 16 27 17 12 18 24 19 23 20 13 21 21 22 14 23
REMARK SMILES IDX 15 24 20 25 22 26 16 27 19 28 17 29 18 30
REMARK H PARENT 18 31
REMARK Flexibility Score: inf
ROOT
ATOM      1  C   UNL     1     180.472 180.107 181.887  1.00  0.00     0.012 C 
ATOM      2  C   UNL     1     180.219 181.123 180.758  1.00  0.00     0.012 C 
ENDROOT
BRANCH   1   3
ATOM      3  C   UNL     1     181.584 179.194 181.414  1.00  0.00    -0.028 C 
ATOM      4  C   UNL     1     181.601 177.881 181.711  1.00  0.00    -0.027 C 
BRANCH   4   5
ATOM      5  C   UNL     1     182.537 176.855 181.084  1.00  0.00     0.014 C 
BRANCH   5   6
ATOM      6  C   UNL     1     182.326 176.588 179.567  1.00  0.00     0.004 C 
ATOM      7  C   UNL     1     181.228 175.562 179.281  1.00  0.00     0.004 C 
ENDBRANCH   5   6
BRANCH   5   8
ATOM      8  C   UNL     1     182.520 175.551 181.941  1.00  0.00    -0.011 C 
ATOM      9  C   UNL     1     181.800 175.741 183.285  1.00  0.00     0.008 C 
ATOM     10  C   UNL     1     183.919 174.953 182.164  1.00  0.00     0.008 C 
ENDBRANCH   5   8
ENDBRANCH   4   5
ENDBRANCH   1   3
BRANCH   1  11
ATOM     11  C   UNL     1     180.853 180.817 183.229  1.00  0.00     0.002 C 
ATOM     12  C   UNL     1     180.199 182.213 183.383  1.00  0.00     0.005 C 
ATOM     13  C   UNL     1     180.490 180.087 184.563  1.00  0.00    -0.026 C 
ATOM     14  C   UNL     1     179.880 182.410 184.869  1.00  0.00     0.005 C 
ATOM     15  C   UNL     1     180.547 181.240 185.597  1.00  0.00    -0.001 C 
ATOM     16  C   UNL     1     181.408 178.915 184.988  1.00  0.00     0.007 C 
ATOM     17  C   UNL     1     179.042 179.512 184.504  1.00  0.00     0.012 C 
ATOM     18  C   UNL     1     181.972 181.597 186.183  1.00  0.00    -0.004 C 
ATOM     19  C   UNL     1     182.822 179.331 185.356  1.00  0.00     0.005 C 
ATOM     20  C   UNL     1     182.835 180.341 186.527  1.00  0.00    -0.001 C 
ATOM     21  C   UNL     1     182.854 182.631 185.429  1.00  0.00     0.004 C 
ATOM     22  C   UNL     1     184.313 180.693 187.038  1.00  0.00    -0.026 C 
ATOM     23  C   UNL     1     184.012 183.147 186.320  1.00  0.00     0.004 C 
ATOM     24  C   UNL     1     184.359 182.191 187.488  1.00  0.00    -0.002 C 
ATOM     25  C   UNL     1     184.643 179.808 188.277  1.00  0.00     0.010 C 
ATOM     26  C   UNL     1     185.400 180.430 185.942  1.00  0.00     0.012 C 
ATOM     27  C   UNL     1     185.681 182.590 188.177  1.00  0.00     0.036 C 
ATOM     28  C   UNL     1     185.960 180.195 188.974  1.00  0.00     0.032 C 
ATOM     29  C   UNL     1     185.972 181.679 189.379  1.00  0.00     0.114 C 
BRANCH  29  30
ATOM     30  O   UNL     1     187.224 182.017 189.917  1.00  0.00    -0.393 OA
ATOM     31  H   UNL     1     187.583 182.758 189.363  1.00  0.00     0.210 HD
ENDBRANCH  29  30
ENDBRANCH   1  11
TORSDOF 6
ENDMDL
MODEL 3
REMARK VINA RESULT:    -6.951      3.258      8.674
REMARK INTER + INTRA:         -10.809
REMARK INTER:                  -8.999
REMARK INTRA:                  -1.810
REMARK UNBOUND:                -1.623
REMARK SMILES CC[C@@H](C=C[C@H](C)[C@H]1CC[C@@H]2[C@@H]3CC[C@@H]4C[C@H](O)CC[C@@]4(C)[C@@H]3CC[C@@]21C)C(C)C
REMARK SMILES IDX 6 1 7 2 5 3 4 4 3 5 2 6 1 7 28 8 29 9 30 10 8 11 9 12 26 13
REMARK SMILES IDX 10 14 11 15 25 16 27 17 12 18 24 19 23 20 13 21 21 22 14 23
REMARK SMILES IDX 15 24 20 25 22 26 16 27 19 28 17 29 18 30
REMARK H PARENT 18 31
REMARK Flexibility Score: inf
ROOT
ATOM      1  C   UNL     1     182.321 173.103 179.268  1.00  0.00     0.012 C 
ATOM      2  C   UNL     1     181.275 171.983 179.413  1.00  0.00     0.012 C 
ENDROOT
BRANCH   1   3
ATOM      3  C   UNL     1     181.908 173.937 178.074  1.00  0.00    -0.028 C 
ATOM      4  C   UNL     1     181.065 174.980 178.192  1.00  0.00    -0.027 C 
BRANCH   4   5
ATOM      5  C   UNL     1     180.790 176.009 177.102  1.00  0.00     0.014 C 
BRANCH   5   6
ATOM      6  C   UNL     1     179.350 176.001 176.515  1.00  0.00     0.004 C 
ATOM      7  C   UNL     1     178.640 174.656 176.676  1.00  0.00     0.004 C 
ENDBRANCH   5   6
BRANCH   5   8
ATOM      8  C   UNL     1     181.896 175.907 176.006  1.00  0.00    -0.011 C 
ATOM      9  C   UNL     1     183.097 176.819 176.298  1.00  0.00     0.008 C 
ATOM     10  C   UNL     1     181.367 176.160 174.585  1.00  0.00     0.008 C 
ENDBRANCH   5   8
ENDBRANCH   4   5
ENDBRANCH   1   3
BRANCH   1  11
ATOM     11  C   UNL     1     182.418 173.975 180.564  1.00  0.00     0.002 C 
ATOM     12  C   UNL     1     182.195 173.159 181.863  1.00  0.00     0.005 C 
ATOM     13  C   UNL     1     183.758 174.736 180.828  1.00  0.00    -0.026 C 
ATOM     14  C   UNL     1     183.099 173.760 182.944  1.00  0.00     0.005 C 
ATOM     15  C   UNL     1     183.669 175.047 182.344  1.00  0.00    -0.001 C 
ATOM     16  C   UNL     1     184.001 176.026 180.009  1.00  0.00     0.007 C 
ATOM     17  C   UNL     1     184.983 173.808 180.560  1.00  0.00     0.012 C 
ATOM     18  C   UNL     1     182.857 176.342 182.754  1.00  0.00    -0.004 C 
ATOM     19  C   UNL     1     183.048 177.163 180.340  1.00  0.00     0.005 C 
ATOM     20  C   UNL     1     183.137 177.570 181.829  1.00  0.00    -0.001 C 
ATOM     21  C   UNL     1     181.326 176.221 182.994  1.00  0.00     0.004 C 
ATOM     22  C   UNL     1     182.253 178.859 182.182  1.00  0.00    -0.026 C 
ATOM     23  C   UNL     1     180.771 177.453 183.751  1.00  0.00     0.004 C 
ATOM     24  C   UNL     1     181.674 178.706 183.628  1.00  0.00    -0.002 C 
ATOM     25  C   UNL     1     183.168 180.120 182.161  1.00  0.00     0.010 C 
ATOM     26  C   UNL     1     181.087 179.079 181.161  1.00  0.00     0.012 C 
ATOM     27  C   UNL     1     180.964 179.974 184.148  1.00  0.00     0.036 C 
ATOM     28  C   UNL     1     182.472 181.392 182.677  1.00  0.00     0.032 C 
ATOM     29  C   UNL     1     181.899 181.191 184.091  1.00  0.00     0.114 C 
BRANCH  29  30
ATOM     30  O   UNL     1     181.186 182.335 184.484  1.00  0.00    -0.393 OA
ATOM     31  H   UNL     1     181.138 182.316 185.475  1.00  0.00     0.210 HD
ENDBRANCH  29  30
ENDBRANCH   1  11
TORSDOF 6
ENDMDL
MODEL 4
REMARK VINA RESULT:    -6.945      1.496      2.068
REMARK INTER + INTRA:         -10.801
REMARK INTER:                  -8.998
REMARK INTRA:                  -1.803
REMARK UNBOUND:                -1.623
REMARK SMILES CC[C@@H](C=C[C@H](C)[C@H]1CC[C@@H]2[C@@H]3CC[C@@H]4C[C@H](O)CC[C@@]4(C)[C@@H]3CC[C@@]21C)C(C)C
REMARK SMILES IDX 6 1 7 2 5 3 4 4 3 5 2 6 1 7 28 8 29 9 30 10 8 11 9 12 26 13
REMARK SMILES IDX 10 14 11 15 25 16 27 17 12 18 24 19 23 20 13 21 21 22 14 23
REMARK SMILES IDX 15 24 20 25 22 26 16 27 19 28 17 29 18 30
REMARK H PARENT 18 31
REMARK Flexibility Score: inf
ROOT
ATOM      1  C   UNL     1     181.911 184.475 182.639  1.00  0.00     0.012 C 
ATOM      2  C   UNL     1     180.864 185.603 182.623  1.00  0.00     0.012 C 
ENDROOT
BRANCH   1   3
ATOM      3  C   UNL     1     182.682 184.610 183.935  1.00  0.00    -0.028 C 
ATOM      4  C   UNL     1     182.942 183.549 184.722  1.00  0.00    -0.027 C 
BRANCH   4   5
ATOM      5  C   UNL     1     183.905 183.551 185.903  1.00  0.00     0.014 C 
BRANCH   5   6
ATOM      6  C   UNL     1     185.326 184.112 185.614  1.00  0.00     0.004 C 
ATOM      7  C   UNL     1     185.543 185.521 186.166  1.00  0.00     0.004 C 
ENDBRANCH   5   6
BRANCH   5   8
ATOM      8  C   UNL     1     183.928 182.132 186.550  1.00  0.00    -0.011 C 
ATOM      9  C   UNL     1     182.809 181.224 186.017  1.00  0.00     0.008 C 
ATOM     10  C   UNL     1     183.901 182.165 188.087  1.00  0.00     0.008 C 
ENDBRANCH   5   8
ENDBRANCH   4   5
ENDBRANCH   1   3
BRANCH   1  11
ATOM     11  C   UNL     1     181.244 183.065 182.518  1.00  0.00     0.002 C 
ATOM     12  C   UNL     1     179.718 183.091 182.784  1.00  0.00     0.005 C 
ATOM     13  C   UNL     1     181.371 182.317 181.150  1.00  0.00    -0.026 C 
ATOM     14  C   UNL     1     179.073 182.047 181.865  1.00  0.00     0.005 C 
ATOM     15  C   UNL     1     180.233 181.269 181.240  1.00  0.00    -0.001 C 
ATOM     16  C   UNL     1     182.729 181.639 180.849  1.00  0.00     0.007 C 
ATOM     17  C   UNL     1     181.091 183.288 179.962  1.00  0.00     0.012 C 
ATOM     18  C   UNL     1     180.568 179.924 182.002  1.00  0.00    -0.004 C 
ATOM     19  C   UNL     1     183.055 180.466 181.758  1.00  0.00     0.005 C 
ATOM     20  C   UNL     1     181.984 179.355 181.666  1.00  0.00    -0.001 C 
ATOM     21  C   UNL     1     180.343 179.858 183.539  1.00  0.00     0.004 C 
ATOM     22  C   UNL     1     182.367 178.041 182.500  1.00  0.00    -0.026 C 
ATOM     23  C   UNL     1     180.341 178.396 184.050  1.00  0.00     0.004 C 
ATOM     24  C   UNL     1     181.064 177.412 183.097  1.00  0.00    -0.002 C 
ATOM     25  C   UNL     1     183.006 176.999 181.535  1.00  0.00     0.010 C 
ATOM     26  C   UNL     1     183.389 178.342 183.648  1.00  0.00     0.012 C 
ATOM     27  C   UNL     1     181.288 176.036 183.760  1.00  0.00     0.036 C 
ATOM     28  C   UNL     1     183.235 175.622 182.184  1.00  0.00     0.032 C 
ATOM     29  C   UNL     1     181.935 175.051 182.776  1.00  0.00     0.114 C 
BRANCH  29  30
ATOM     30  O   UNL     1     182.205 173.846 183.446  1.00  0.00    -0.393 OA
ATOM     31  H   UNL     1     183.183 173.693 183.376  1.00  0.00     0.210 HD
ENDBRANCH  29  30
ENDBRANCH   1  11
TORSDOF 6
ENDMDL
MODEL 5
REMARK VINA RESULT:    -6.925      3.353      6.334
REMARK INTER + INTRA:         -10.775
REMARK INTER:                  -9.160
REMARK INTRA:                  -1.614
REMARK UNBOUND:                -1.623
REMARK SMILES CC[C@@H](C=C[C@H](C)[C@H]1CC[C@@H]2[C@@H]3CC[C@@H]4C[C@H](O)CC[C@@]4(C)[C@@H]3CC[C@@]21C)C(C)C
REMARK SMILES IDX 6 1 7 2 5 3 4 4 3 5 2 6 1 7 28 8 29 9 30 10 8 11 9 12 26 13
REMARK SMILES IDX 10 14 11 15 25 16 27 17 12 18 24 19 23 20 13 21 21 22 14 23
REMARK SMILES IDX 15 24 20 25 22 26 16 27 19 28 17 29 18 30
REMARK H PARENT 18 31
REMARK Flexibility Score: inf
ROOT
ATOM      1  C   UNL     1     179.359 182.400 182.086  1.00  0.00     0.012 C 
ATOM      2  C   UNL     1     178.029 183.021 182.552  1.00  0.00     0.012 C 
ENDROOT
BRANCH   1   3
ATOM      3  C   UNL     1     180.283 183.549 181.741  1.00  0.00    -0.028 C 
ATOM      4  C   UNL     1     180.195 184.743 182.357  1.00  0.00    -0.027 C 
BRANCH   4   5
ATOM      5  C   UNL     1     181.224 185.862 182.248  1.00  0.00     0.014 C 
BRANCH   5   6
ATOM      6  C   UNL     1     180.919 186.958 181.188  1.00  0.00     0.004 C 
ATOM      7  C   UNL     1     180.850 188.366 181.779  1.00  0.00     0.004 C 
ENDBRANCH   5   6
BRANCH   5   8
ATOM      8  C   UNL     1     182.646 185.239 182.091  1.00  0.00    -0.011 C 
ATOM      9  C   UNL     1     183.525 185.463 183.330  1.00  0.00     0.008 C 
ATOM     10  C   UNL     1     183.378 185.711 180.824  1.00  0.00     0.008 C 
ENDBRANCH   5   8
ENDBRANCH   4   5
ENDBRANCH   1   3
BRANCH   1  11
ATOM     11  C   UNL     1     179.984 181.479 183.186  1.00  0.00     0.002 C 
ATOM     12  C   UNL     1     178.964 180.487 183.798  1.00  0.00     0.005 C 
ATOM     13  C   UNL     1     181.186 180.569 182.772  1.00  0.00    -0.026 C 
ATOM     14  C   UNL     1     179.717 179.190 184.115  1.00  0.00     0.005 C 
ATOM     15  C   UNL     1     181.199 179.505 183.899  1.00  0.00    -0.001 C 
ATOM     16  C   UNL     1     182.568 181.255 182.640  1.00  0.00     0.007 C 
ATOM     17  C   UNL     1     180.908 179.874 181.404  1.00  0.00     0.012 C 
ATOM     18  C   UNL     1     181.957 179.895 185.232  1.00  0.00    -0.004 C 
ATOM     19  C   UNL     1     183.137 181.768 183.952  1.00  0.00     0.005 C 
ATOM     20  C   UNL     1     183.313 180.629 184.984  1.00  0.00    -0.001 C 
ATOM     21  C   UNL     1     181.172 180.635 186.351  1.00  0.00     0.004 C 
ATOM     22  C   UNL     1     184.045 181.106 186.328  1.00  0.00    -0.026 C 
ATOM     23  C   UNL     1     181.929 180.589 187.701  1.00  0.00     0.004 C 
ATOM     24  C   UNL     1     183.446 180.324 187.545  1.00  0.00    -0.002 C 
ATOM     25  C   UNL     1     185.560 180.757 186.229  1.00  0.00     0.010 C 
ATOM     26  C   UNL     1     183.909 182.648 186.565  1.00  0.00     0.012 C 
ATOM     27  C   UNL     1     184.206 180.562 188.867  1.00  0.00     0.036 C 
ATOM     28  C   UNL     1     186.329 180.990 187.542  1.00  0.00     0.032 C 
ATOM     29  C   UNL     1     185.696 180.222 188.715  1.00  0.00     0.114 C 
BRANCH  29  30
ATOM     30  O   UNL     1     186.363 180.540 189.909  1.00  0.00    -0.393 OA
ATOM     31  H   UNL     1     186.681 179.683 190.296  1.00  0.00     0.210 HD
ENDBRANCH  29  30
ENDBRANCH   1  11
TORSDOF 6
ENDMDL
MODEL 6
REMARK VINA RESULT:    -6.834      3.364      7.850
REMARK INTER + INTRA:         -10.654
REMARK INTER:                  -9.881
REMARK INTRA:                  -0.773
REMARK UNBOUND:                -1.623
REMARK SMILES CC[C@@H](C=C[C@H](C)[C@H]1CC[C@@H]2[C@@H]3CC[C@@H]4C[C@H](O)CC[C@@]4(C)[C@@H]3CC[C@@]21C)C(C)C
REMARK SMILES IDX 6 1 7 2 5 3 4 4 3 5 2 6 1 7 28 8 29 9 30 10 8 11 9 12 26 13
REMARK SMILES IDX 10 14 11 15 25 16 27 17 12 18 24 19 23 20 13 21 21 22 14 23
REMARK SMILES IDX 15 24 20 25 22 26 16 27 19 28 17 29 18 30
REMARK H PARENT 18 31
REMARK Flexibility Score: inf
ROOT
ATOM      1  C   UNL     1     180.594 178.867 185.113  1.00  0.00     0.012 C 
ATOM      2  C   UNL     1     179.346 179.240 184.292  1.00  0.00     0.012 C 
ENDROOT
BRANCH   1   3
ATOM      3  C   UNL     1     181.191 177.633 184.471  1.00  0.00    -0.028 C 
ATOM      4  C   UNL     1     180.785 177.191 183.266  1.00  0.00    -0.027 C 
BRANCH   4   5
ATOM      5  C   UNL     1     181.488 176.115 182.447  1.00  0.00     0.014 C 
BRANCH   5   6
ATOM      6  C   UNL     1     182.079 174.928 183.258  1.00  0.00     0.004 C 
ATOM      7  C   UNL     1     182.224 173.647 182.435  1.00  0.00     0.004 C 
ENDBRANCH   5   6
BRANCH   5   8
ATOM      8  C   UNL     1     182.532 176.788 181.502  1.00  0.00    -0.011 C 
ATOM      9  C   UNL     1     183.903 176.966 182.173  1.00  0.00     0.008 C 
ATOM     10  C   UNL     1     182.047 178.125 180.917  1.00  0.00     0.008 C 
ENDBRANCH   5   8
ENDBRANCH   4   5
ENDBRANCH   1   3
BRANCH   1  11
ATOM     11  C   UNL     1     181.628 180.041 185.158  1.00  0.00     0.002 C 
ATOM     12  C   UNL     1     181.930 180.637 183.760  1.00  0.00     0.005 C 
ATOM     13  C   UNL     1     181.268 181.292 186.025  1.00  0.00    -0.026 C 
ATOM     14  C   UNL     1     182.162 182.141 183.941  1.00  0.00     0.005 C 
ATOM     15  C   UNL     1     182.217 182.376 185.453  1.00  0.00    -0.001 C 
ATOM     16  C   UNL     1     181.444 181.152 187.557  1.00  0.00     0.007 C 
ATOM     17  C   UNL     1     179.787 181.721 185.790  1.00  0.00     0.012 C 
ATOM     18  C   UNL     1     183.690 182.403 186.029  1.00  0.00    -0.004 C 
ATOM     19  C   UNL     1     182.887 180.995 188.007  1.00  0.00     0.005 C 
ATOM     20  C   UNL     1     183.756 182.200 187.577  1.00  0.00    -0.001 C 
ATOM     21  C   UNL     1     184.776 181.521 185.351  1.00  0.00     0.004 C 
ATOM     22  C   UNL     1     185.249 182.138 188.157  1.00  0.00    -0.026 C 
ATOM     23  C   UNL     1     186.202 181.954 185.772  1.00  0.00     0.004 C 
ATOM     24  C   UNL     1     186.236 182.743 187.104  1.00  0.00    -0.002 C 
ATOM     25  C   UNL     1     185.325 183.009 189.446  1.00  0.00     0.010 C 
ATOM     26  C   UNL     1     185.685 180.679 188.522  1.00  0.00     0.012 C 
ATOM     27  C   UNL     1     187.676 182.912 187.632  1.00  0.00     0.036 C 
ATOM     28  C   UNL     1     186.757 183.185 189.983  1.00  0.00     0.032 C 
ATOM     29  C   UNL     1     187.698 183.761 188.911  1.00  0.00     0.114 C 
BRANCH  29  30
ATOM     30  O   UNL     1     189.012 183.810 189.405  1.00  0.00    -0.393 OA
ATOM     31  H   UNL     1     189.046 183.200 190.187  1.00  0.00     0.210 HD
ENDBRANCH  29  30
ENDBRANCH   1  11
TORSDOF 6
ENDMDL
MODEL 7
REMARK VINA RESULT:    -6.817      3.655      9.180
REMARK INTER + INTRA:         -10.632
REMARK INTER:                  -9.441
REMARK INTRA:                  -1.191
REMARK UNBOUND:                -1.623
REMARK SMILES CC[C@@H](C=C[C@H](C)[C@H]1CC[C@@H]2[C@@H]3CC[C@@H]4C[C@H](O)CC[C@@]4(C)[C@@H]3CC[C@@]21C)C(C)C
REMARK SMILES IDX 6 1 7 2 5 3 4 4 3 5 2 6 1 7 28 8 29 9 30 10 8 11 9 12 26 13
REMARK SMILES IDX 10 14 11 15 25 16 27 17 12 18 24 19 23 20 13 21 21 22 14 23
REMARK SMILES IDX 15 24 20 25 22 26 16 27 19 28 17 29 18 30
REMARK H PARENT 18 31
REMARK Flexibility Score: inf
ROOT
ATOM      1  C   UNL     1     182.421 173.477 179.226  1.00  0.00     0.012 C 
ATOM      2  C   UNL     1     182.138 171.980 179.449  1.00  0.00     0.012 C 
ENDROOT
BRANCH   1   3
ATOM      3  C   UNL     1     181.341 173.995 178.300  1.00  0.00    -0.028 C 
ATOM      4  C   UNL     1     181.148 173.480 177.072  1.00  0.00    -0.027 C 
BRANCH   4   5
ATOM      5  C   UNL     1     179.948 173.770 176.180  1.00  0.00     0.014 C 
BRANCH   5   6
ATOM      6  C   UNL     1     178.958 174.846 176.710  1.00  0.00     0.004 C 
ATOM      7  C   UNL     1     179.324 176.267 176.278  1.00  0.00     0.004 C 
ENDBRANCH   5   6
BRANCH   5   8
ATOM      8  C   UNL     1     179.246 172.426 175.808  1.00  0.00    -0.011 C 
ATOM      9  C   UNL     1     178.902 171.581 177.044  1.00  0.00     0.008 C 
ATOM     10  C   UNL     1     180.041 171.588 174.792  1.00  0.00     0.008 C 
ENDBRANCH   5   8
ENDBRANCH   4   5
ENDBRANCH   1   3
BRANCH   1  11
ATOM     11  C   UNL     1     182.441 174.269 180.575  1.00  0.00     0.002 C 
ATOM     12  C   UNL     1     182.191 173.369 181.811  1.00  0.00     0.005 C 
ATOM     13  C   UNL     1     183.746 175.048 180.940  1.00  0.00    -0.026 C 
ATOM     14  C   UNL     1     183.033 173.925 182.964  1.00  0.00     0.005 C 
ATOM     15  C   UNL     1     183.588 175.263 182.468  1.00  0.00    -0.001 C 
ATOM     16  C   UNL     1     183.983 176.393 180.212  1.00  0.00     0.007 C 
ATOM     17  C   UNL     1     185.008 174.173 180.667  1.00  0.00     0.012 C 
ATOM     18  C   UNL     1     182.722 176.507 182.921  1.00  0.00    -0.004 C 
ATOM     19  C   UNL     1     182.985 177.481 180.572  1.00  0.00     0.005 C 
ATOM     20  C   UNL     1     183.002 177.797 182.085  1.00  0.00    -0.001 C 
ATOM     21  C   UNL     1     181.187 176.330 183.090  1.00  0.00     0.004 C 
ATOM     22  C   UNL     1     182.066 179.038 182.480  1.00  0.00    -0.026 C 
ATOM     23  C   UNL     1     180.567 177.497 183.897  1.00  0.00     0.004 C 
ATOM     24  C   UNL     1     181.436 178.779 183.888  1.00  0.00    -0.002 C 
ATOM     25  C   UNL     1     182.944 180.321 182.573  1.00  0.00     0.010 C 
ATOM     26  C   UNL     1     180.936 179.289 181.426  1.00  0.00     0.012 C 
ATOM     27  C   UNL     1     180.668 179.992 184.455  1.00  0.00     0.036 C 
ATOM     28  C   UNL     1     182.190 181.539 183.137  1.00  0.00     0.032 C 
ATOM     29  C   UNL     1     181.568 181.235 184.511  1.00  0.00     0.114 C 
BRANCH  29  30
ATOM     30  O   UNL     1     180.806 182.333 184.943  1.00  0.00    -0.393 OA
ATOM     31  H   UNL     1     180.573 182.163 185.893  1.00  0.00     0.210 HD
ENDBRANCH  29  30
ENDBRANCH   1  11
TORSDOF 6
ENDMDL
MODEL 8
REMARK VINA RESULT:    -6.771      1.297      4.741
REMARK INTER + INTRA:         -10.571
REMARK INTER:                  -8.290
REMARK INTRA:                  -2.281
REMARK UNBOUND:                -1.623
REMARK SMILES CC[C@@H](C=C[C@H](C)[C@H]1CC[C@@H]2[C@@H]3CC[C@@H]4C[C@H](O)CC[C@@]4(C)[C@@H]3CC[C@@]21C)C(C)C
REMARK SMILES IDX 6 1 7 2 5 3 4 4 3 5 2 6 1 7 28 8 29 9 30 10 8 11 9 12 26 13
REMARK SMILES IDX 10 14 11 15 25 16 27 17 12 18 24 19 23 20 13 21 21 22 14 23
REMARK SMILES IDX 15 24 20 25 22 26 16 27 19 28 17 29 18 30
REMARK H PARENT 18 31
REMARK Flexibility Score: inf
ROOT
ATOM      1  C   UNL     1     182.732 183.513 185.177  1.00  0.00     0.012 C 
ATOM      2  C   UNL     1     183.857 184.556 185.314  1.00  0.00     0.012 C 
ENDROOT
BRANCH   1   3
ATOM      3  C   UNL     1     181.879 183.941 184.001  1.00  0.00    -0.028 C 
ATOM      4  C   UNL     1     181.735 183.169 182.908  1.00  0.00    -0.027 C 
BRANCH   4   5
ATOM      5  C   UNL     1     180.718 183.405 181.798  1.00  0.00     0.014 C 
BRANCH   5   6
ATOM      6  C   UNL     1     179.240 183.083 182.158  1.00  0.00     0.004 C 
ATOM      7  C   UNL     1     178.992 181.596 182.418  1.00  0.00     0.004 C 
ENDBRANCH   5   6
BRANCH   5   8
ATOM      8  C   UNL     1     181.200 182.690 180.498  1.00  0.00    -0.011 C 
ATOM      9  C   UNL     1     182.351 181.707 180.760  1.00  0.00     0.008 C 
ATOM     10  C   UNL     1     181.578 183.667 179.372  1.00  0.00     0.008 C 
ENDBRANCH   5   8
ENDBRANCH   4   5
ENDBRANCH   1   3
BRANCH   1  11
ATOM     11  C   UNL     1     183.303 182.071 184.969  1.00  0.00     0.002 C 
ATOM     12  C   UNL     1     184.833 181.986 185.196  1.00  0.00     0.005 C 
ATOM     13  C   UNL     1     182.729 180.928 185.869  1.00  0.00    -0.026 C 
ATOM     14  C   UNL     1     185.131 180.618 185.820  1.00  0.00     0.005 C 
ATOM     15  C   UNL     1     183.819 179.832 185.747  1.00  0.00    -0.001 C 
ATOM     16  C   UNL     1     181.337 180.371 185.486  1.00  0.00     0.007 C 
ATOM     17  C   UNL     1     182.624 181.393 187.354  1.00  0.00     0.012 C 
ATOM     18  C   UNL     1     183.728 178.881 184.486  1.00  0.00    -0.004 C 
ATOM     19  C   UNL     1     181.305 179.629 184.161  1.00  0.00     0.005 C 
ATOM     20  C   UNL     1     182.272 178.422 184.157  1.00  0.00    -0.001 C 
ATOM     21  C   UNL     1     184.438 179.311 183.171  1.00  0.00     0.004 C 
ATOM     22  C   UNL     1     182.159 177.531 182.829  1.00  0.00    -0.026 C 
ATOM     23  C   UNL     1     184.583 178.121 182.189  1.00  0.00     0.004 C 
ATOM     24  C   UNL     1     183.576 176.977 182.461  1.00  0.00    -0.002 C 
ATOM     25  C   UNL     1     181.226 176.316 183.115  1.00  0.00     0.010 C 
ATOM     26  C   UNL     1     181.569 178.333 181.622  1.00  0.00     0.012 C 
ATOM     27  C   UNL     1     183.558 175.948 181.309  1.00  0.00     0.036 C 
ATOM     28  C   UNL     1     181.199 175.283 181.974  1.00  0.00     0.032 C 
ATOM     29  C   UNL     1     182.612 174.782 181.629  1.00  0.00     0.114 C 
BRANCH  29  30
ATOM     30  O   UNL     1     182.556 173.922 180.520  1.00  0.00    -0.393 OA
ATOM     31  H   UNL     1     183.341 173.318 180.586  1.00  0.00     0.210 HD
ENDBRANCH  29  30
ENDBRANCH   1  11
TORSDOF 6
ENDMDL
MODEL 9
REMARK VINA RESULT:    -6.695      2.830      6.736
REMARK INTER + INTRA:         -10.471
REMARK INTER:                  -8.242
REMARK INTRA:                  -2.229
REMARK UNBOUND:                -1.623
REMARK SMILES CC[C@@H](C=C[C@H](C)[C@H]1CC[C@@H]2[C@@H]3CC[C@@H]4C[C@H](O)CC[C@@]4(C)[C@@H]3CC[C@@]21C)C(C)C
REMARK SMILES IDX 6 1 7 2 5 3 4 4 3 5 2 6 1 7 28 8 29 9 30 10 8 11 9 12 26 13
REMARK SMILES IDX 10 14 11 15 25 16 27 17 12 18 24 19 23 20 13 21 21 22 14 23
REMARK SMILES IDX 15 24 20 25 22 26 16 27 19 28 17 29 18 30
REMARK H PARENT 18 31
REMARK Flexibility Score: inf
ROOT
ATOM      1  C   UNL     1     180.387 181.528 181.919  1.00  0.00     0.012 C 
ATOM      2  C   UNL     1     180.521 181.912 180.434  1.00  0.00     0.012 C 
ENDROOT
BRANCH   1   3
ATOM      3  C   UNL     1     180.537 180.024 181.999  1.00  0.00    -0.028 C 
ATOM      4  C   UNL     1     181.707 179.441 182.322  1.00  0.00    -0.027 C 
BRANCH   4   5
ATOM      5  C   UNL     1     181.886 177.966 182.659  1.00  0.00     0.014 C 
BRANCH   5   6
ATOM      6  C   UNL     1     180.818 177.358 183.613  1.00  0.00     0.004 C 
ATOM      7  C   UNL     1     180.717 178.090 184.951  1.00  0.00     0.004 C 
ENDBRANCH   5   6
BRANCH   5   8
ATOM      8  C   UNL     1     183.348 177.723 183.146  1.00  0.00    -0.011 C 
ATOM      9  C   UNL     1     184.165 179.022 183.226  1.00  0.00     0.008 C 
ATOM     10  C   UNL     1     184.098 176.671 182.312  1.00  0.00     0.008 C 
ENDBRANCH   5   8
ENDBRANCH   4   5
ENDBRANCH   1   3
BRANCH   1  11
ATOM     11  C   UNL     1     181.456 182.254 182.802  1.00  0.00     0.002 C 
ATOM     12  C   UNL     1     182.151 183.429 182.070  1.00  0.00     0.005 C 
ATOM     13  C   UNL     1     180.976 182.887 184.149  1.00  0.00    -0.026 C 
ATOM     14  C   UNL     1     182.436 184.516 183.111  1.00  0.00     0.005 C 
ATOM     15  C   UNL     1     182.116 183.887 184.469  1.00  0.00    -0.001 C 
ATOM     16  C   UNL     1     180.740 181.916 185.331  1.00  0.00     0.007 C 
ATOM     17  C   UNL     1     179.641 183.668 183.948  1.00  0.00     0.012 C 
ATOM     18  C   UNL     1     183.388 183.299 185.203  1.00  0.00    -0.004 C 
ATOM     19  C   UNL     1     182.002 181.250 185.852  1.00  0.00     0.005 C 
ATOM     20  C   UNL     1     183.037 182.289 186.343  1.00  0.00    -0.001 C 
ATOM     21  C   UNL     1     184.546 182.717 184.344  1.00  0.00     0.004 C 
ATOM     22  C   UNL     1     184.321 181.621 187.032  1.00  0.00    -0.026 C 
ATOM     23  C   UNL     1     185.842 182.554 185.176  1.00  0.00     0.004 C 
ATOM     24  C   UNL     1     185.587 182.480 186.701  1.00  0.00    -0.002 C 
ATOM     25  C   UNL     1     184.124 181.629 188.578  1.00  0.00     0.010 C 
ATOM     26  C   UNL     1     184.542 180.142 186.570  1.00  0.00     0.012 C 
ATOM     27  C   UNL     1     186.851 182.039 187.470  1.00  0.00     0.036 C 
ATOM     28  C   UNL     1     185.378 181.192 189.357  1.00  0.00     0.032 C 
ATOM     29  C   UNL     1     186.603 182.045 188.986  1.00  0.00     0.114 C 
BRANCH  29  30
ATOM     30  O   UNL     1     187.744 181.551 189.638  1.00  0.00    -0.393 OA
ATOM     31  H   UNL     1     188.523 182.038 189.261  1.00  0.00     0.210 HD
ENDBRANCH  29  30
ENDBRANCH   1  11
TORSDOF 6
ENDMDL
