MODEL 1
REMARK VINA RESULT:    -5.385      0.000      0.000
REMARK INTER + INTRA:          -6.872
REMARK INTER:                  -6.644
REMARK INTRA:                  -0.228
REMARK UNBOUND:                -0.228
REMARK SMILES O=c1c(O)c(-c2cc(O)c(O)c(O)c2)oc2cc(O)cc(O)c12
REMARK SMILES IDX 5 1 3 2 2 3 1 4 23 5 21 6 20 7 18 8 17 9 16 10 15 11 6 12
REMARK SMILES IDX 7 13 8 14 14 15 10 16 12 17 9 18 11 20 13 22 4 24 22 26
REMARK SMILES IDX 19 28
REMARK H PARENT 9 19 11 21 13 23 4 25 22 27 19 29
REMARK Flexibility Score: inf
ROOT
ATOM      1  C   UNL     1       1.441 -15.727  10.266  1.00  0.00     0.180 A 
ATOM      2  C   UNL     1       1.736 -16.387  11.474  1.00  0.00     0.208 A 
ATOM      3  C   UNL     1       1.587 -17.781  11.538  1.00  0.00     0.238 A 
ATOM      4  O   UNL     1       1.837 -18.382  12.619  1.00  0.00    -0.285 OA
ATOM      5  C   UNL     1       1.166 -18.492  10.395  1.00  0.00     0.111 A 
ATOM      6  C   UNL     1       0.995 -19.897  10.376  1.00  0.00     0.134 A 
ATOM      7  C   UNL     1       0.583 -20.531   9.195  1.00  0.00     0.093 A 
ATOM      8  C   UNL     1       0.339 -19.790   8.036  1.00  0.00     0.123 A 
ATOM      9  C   UNL     1       0.507 -18.402   8.049  1.00  0.00     0.094 A 
ATOM     10  C   UNL     1       0.916 -17.751   9.216  1.00  0.00     0.146 A 
ATOM     11  O   UNL     1       1.061 -16.431   9.203  1.00  0.00    -0.452 OA
ENDROOT
BRANCH   1  12
ATOM     12  C   UNL     1       1.556 -14.258  10.124  1.00  0.00     0.029 A 
ATOM     13  C   UNL     1       2.559 -13.675   9.330  1.00  0.00     0.062 A 
ATOM     14  C   UNL     1       2.665 -12.281   9.227  1.00  0.00     0.162 A 
ATOM     15  C   UNL     1       0.681 -13.425  10.838  1.00  0.00     0.062 A 
ATOM     16  C   UNL     1       1.773 -11.456   9.926  1.00  0.00     0.200 A 
ATOM     17  C   UNL     1       0.781 -12.030  10.737  1.00  0.00     0.162 A 
BRANCH  14  18
ATOM     18  O   UNL     1       3.657 -11.707   8.434  1.00  0.00    -0.504 OA
ATOM     19  H   UNL     1       4.058 -10.803   8.657  1.00  0.00     0.293 HD
ENDBRANCH  14  18
BRANCH  16  20
ATOM     20  O   UNL     1       1.892 -10.072   9.808  1.00  0.00    -0.502 OA
ATOM     21  H   UNL     1       2.788  -9.601   9.853  1.00  0.00     0.293 HD
ENDBRANCH  16  20
BRANCH  17  22
ATOM     22  O   UNL     1      -0.103 -11.212  11.442  1.00  0.00    -0.504 OA
ATOM     23  H   UNL     1      -1.099 -11.226  11.259  1.00  0.00     0.293 HD
ENDBRANCH  17  22
ENDBRANCH   1  12
BRANCH   2  24
ATOM     24  O   UNL     1       2.198 -15.666  12.578  1.00  0.00    -0.502 OA
ATOM     25  H   UNL     1       1.583 -15.365  13.325  1.00  0.00     0.293 HD
ENDBRANCH   2  24
BRANCH   6  26
ATOM     26  O   UNL     1       1.231 -20.665  11.517  1.00  0.00    -0.507 OA
ATOM     27  H   UNL     1       0.476 -21.114  12.022  1.00  0.00     0.293 HD
ENDBRANCH   6  26
BRANCH   8  28
ATOM     28  O   UNL     1      -0.068 -20.445   6.876  1.00  0.00    -0.508 OA
ATOM     29  H   UNL     1      -0.690 -21.245   6.910  1.00  0.00     0.293 HD
ENDBRANCH   8  28
TORSDOF 7
ENDMDL
MODEL 2
REMARK VINA RESULT:    -5.324      0.114      1.753
REMARK INTER + INTRA:          -6.797
REMARK INTER:                  -6.523
REMARK INTRA:                  -0.274
REMARK UNBOUND:                -0.228
REMARK SMILES O=c1c(O)c(-c2cc(O)c(O)c(O)c2)oc2cc(O)cc(O)c12
REMARK SMILES IDX 5 1 3 2 2 3 1 4 23 5 21 6 20 7 18 8 17 9 16 10 15 11 6 12
REMARK SMILES IDX 7 13 8 14 14 15 10 16 12 17 9 18 11 20 13 22 4 24 22 26
REMARK SMILES IDX 19 28
REMARK H PARENT 9 19 11 21 13 23 4 25 22 27 19 29
REMARK Flexibility Score: inf
ROOT
ATOM      1  C   UNL     1       1.417 -15.815  10.357  1.00  0.00     0.180 A 
ATOM      2  C   UNL     1       1.719 -16.501  11.550  1.00  0.00     0.208 A 
ATOM      3  C   UNL     1       1.567 -17.896  11.586  1.00  0.00     0.238 A 
ATOM      4  O   UNL     1       1.824 -18.519  12.653  1.00  0.00    -0.285 OA
ATOM      5  C   UNL     1       1.138 -18.582  10.432  1.00  0.00     0.111 A 
ATOM      6  C   UNL     1       0.964 -19.986  10.385  1.00  0.00     0.134 A 
ATOM      7  C   UNL     1       0.542 -20.596   9.194  1.00  0.00     0.093 A 
ATOM      8  C   UNL     1       0.292 -19.831   8.052  1.00  0.00     0.123 A 
ATOM      9  C   UNL     1       0.462 -18.443   8.092  1.00  0.00     0.094 A 
ATOM     10  C   UNL     1       0.880 -17.817   9.270  1.00  0.00     0.146 A 
ATOM     11  O   UNL     1       1.028 -16.497   9.282  1.00  0.00    -0.452 OA
ENDROOT
BRANCH   1  12
ATOM     12  C   UNL     1       1.533 -14.344  10.244  1.00  0.00     0.029 A 
ATOM     13  C   UNL     1       0.643 -13.486  10.913  1.00  0.00     0.062 A 
ATOM     14  C   UNL     1       0.755 -12.096  10.775  1.00  0.00     0.162 A 
ATOM     15  C   UNL     1       2.515 -13.791   9.408  1.00  0.00     0.062 A 
ATOM     16  C   UNL     1       1.753 -11.550   9.956  1.00  0.00     0.200 A 
ATOM     17  C   UNL     1       2.633 -12.401   9.267  1.00  0.00     0.162 A 
BRANCH  14  18
ATOM     18  O   UNL     1      -0.124 -11.249  11.446  1.00  0.00    -0.504 OA
ATOM     19  H   UNL     1      -0.397 -10.352  11.060  1.00  0.00     0.293 HD
ENDBRANCH  14  18
BRANCH  16  20
ATOM     20  O   UNL     1       1.851 -10.165   9.834  1.00  0.00    -0.502 OA
ATOM     21  H   UNL     1       2.313  -9.724   9.048  1.00  0.00     0.293 HD
ENDBRANCH  16  20
BRANCH  17  22
ATOM     22  O   UNL     1       3.622 -11.862   8.444  1.00  0.00    -0.504 OA
ATOM     23  H   UNL     1       3.981 -12.371   7.644  1.00  0.00     0.293 HD
ENDBRANCH  17  22
ENDBRANCH   1  12
BRANCH   2  24
ATOM     24  O   UNL     1       2.189 -15.803  12.665  1.00  0.00    -0.502 OA
ATOM     25  H   UNL     1       2.275 -16.234  13.577  1.00  0.00     0.293 HD
ENDBRANCH   2  24
BRANCH   6  26
ATOM     26  O   UNL     1       1.206 -20.777  11.509  1.00  0.00    -0.507 OA
ATOM     27  H   UNL     1       1.743 -21.635  11.451  1.00  0.00     0.293 HD
ENDBRANCH   6  26
BRANCH   8  28
ATOM     28  O   UNL     1      -0.125 -20.462   6.882  1.00  0.00    -0.508 OA
ATOM     29  H   UNL     1      -0.651 -21.328   6.906  1.00  0.00     0.293 HD
ENDBRANCH   8  28
TORSDOF 7
ENDMDL
MODEL 3
REMARK VINA RESULT:    -4.033      1.830      6.824
REMARK INTER + INTRA:          -5.205
REMARK INTER:                  -5.199
REMARK INTRA:                  -0.006
REMARK UNBOUND:                -0.228
REMARK SMILES O=c1c(O)c(-c2cc(O)c(O)c(O)c2)oc2cc(O)cc(O)c12
REMARK SMILES IDX 5 1 3 2 2 3 1 4 23 5 21 6 20 7 18 8 17 9 16 10 15 11 6 12
REMARK SMILES IDX 7 13 8 14 14 15 10 16 12 17 9 18 11 20 13 22 4 24 22 26
REMARK SMILES IDX 19 28
REMARK H PARENT 9 19 11 21 13 23 4 25 22 27 19 29
REMARK Flexibility Score: inf
ROOT
ATOM      1  C   UNL     1       0.885 -15.719  10.131  1.00  0.00     0.180 A 
ATOM      2  C   UNL     1       0.736 -15.477  11.511  1.00  0.00     0.208 A 
ATOM      3  C   UNL     1       0.455 -14.171  11.942  1.00  0.00     0.238 A 
ATOM      4  O   UNL     1       0.332 -13.940  13.177  1.00  0.00    -0.285 OA
ATOM      5  C   UNL     1       0.309 -13.138  10.994  1.00  0.00     0.111 A 
ATOM      6  C   UNL     1       0.022 -11.797  11.346  1.00  0.00     0.134 A 
ATOM      7  C   UNL     1      -0.118 -10.829  10.342  1.00  0.00     0.093 A 
ATOM      8  C   UNL     1       0.022 -11.173   8.995  1.00  0.00     0.123 A 
ATOM      9  C   UNL     1       0.305 -12.496   8.641  1.00  0.00     0.094 A 
ATOM     10  C   UNL     1       0.450 -13.476   9.627  1.00  0.00     0.146 A 
ATOM     11  O   UNL     1       0.725 -14.723   9.264  1.00  0.00    -0.452 OA
ENDROOT
BRANCH   1  12
ATOM     12  C   UNL     1       1.200 -17.064   9.598  1.00  0.00     0.029 A 
ATOM     13  C   UNL     1       0.425 -17.648   8.581  1.00  0.00     0.062 A 
ATOM     14  C   UNL     1       0.725 -18.932   8.106  1.00  0.00     0.162 A 
ATOM     15  C   UNL     1       2.259 -17.796  10.155  1.00  0.00     0.062 A 
ATOM     16  C   UNL     1       1.799 -19.648   8.652  1.00  0.00     0.200 A 
ATOM     17  C   UNL     1       2.565 -19.080   9.682  1.00  0.00     0.162 A 
BRANCH  14  18
ATOM     18  O   UNL     1      -0.041 -19.505   7.093  1.00  0.00    -0.504 OA
ATOM     19  H   UNL     1       0.096 -19.258   6.119  1.00  0.00     0.293 HD
ENDBRANCH  14  18
BRANCH  16  20
ATOM     20  O   UNL     1       2.085 -20.923   8.164  1.00  0.00    -0.502 OA
ATOM     21  H   UNL     1       2.784 -21.081   7.448  1.00  0.00     0.293 HD
ENDBRANCH  16  20
BRANCH  17  22
ATOM     22  O   UNL     1       3.629 -19.794  10.235  1.00  0.00    -0.504 OA
ATOM     23  H   UNL     1       4.290 -20.296   9.654  1.00  0.00     0.293 HD
ENDBRANCH  17  22
ENDBRANCH   1  12
BRANCH   2  24
ATOM     24  O   UNL     1       0.838 -16.526  12.427  1.00  0.00    -0.502 OA
ATOM     25  H   UNL     1       0.063 -17.145  12.631  1.00  0.00     0.293 HD
ENDBRANCH   2  24
BRANCH   6  26
ATOM     26  O   UNL     1      -0.124 -11.422  12.682  1.00  0.00    -0.507 OA
ATOM     27  H   UNL     1      -0.761 -11.904  13.305  1.00  0.00     0.293 HD
ENDBRANCH   6  26
BRANCH   8  28
ATOM     28  O   UNL     1      -0.123 -10.191   8.017  1.00  0.00    -0.508 OA
ATOM     29  H   UNL     1      -0.378 -10.426   7.065  1.00  0.00     0.293 HD
ENDBRANCH   8  28
TORSDOF 7
ENDMDL
MODEL 4
REMARK VINA RESULT:    -3.848      2.055      7.274
REMARK INTER + INTRA:          -4.976
REMARK INTER:                  -5.010
REMARK INTRA:                   0.034
REMARK UNBOUND:                -0.228
REMARK SMILES O=c1c(O)c(-c2cc(O)c(O)c(O)c2)oc2cc(O)cc(O)c12
REMARK SMILES IDX 5 1 3 2 2 3 1 4 23 5 21 6 20 7 18 8 17 9 16 10 15 11 6 12
REMARK SMILES IDX 7 13 8 14 14 15 10 16 12 17 9 18 11 20 13 22 4 24 22 26
REMARK SMILES IDX 19 28
REMARK H PARENT 9 19 11 21 13 23 4 25 22 27 19 29
REMARK Flexibility Score: inf
ROOT
ATOM      1  C   UNL     1       1.009 -15.560  10.839  1.00  0.00     0.180 A 
ATOM      2  C   UNL     1       0.896 -14.770   9.678  1.00  0.00     0.208 A 
ATOM      3  C   UNL     1       0.566 -13.412   9.812  1.00  0.00     0.238 A 
ATOM      4  O   UNL     1       0.450 -12.698   8.779  1.00  0.00    -0.285 OA
ATOM      5  C   UNL     1       0.376 -12.863  11.097  1.00  0.00     0.111 A 
ATOM      6  C   UNL     1       0.046 -11.505  11.318  1.00  0.00     0.134 A 
ATOM      7  C   UNL     1      -0.117 -11.033  12.629  1.00  0.00     0.093 A 
ATOM      8  C   UNL     1       0.043 -11.890  13.720  1.00  0.00     0.123 A 
ATOM      9  C   UNL     1       0.368 -13.234  13.508  1.00  0.00     0.094 A 
ATOM     10  C   UNL     1       0.534 -13.724  12.209  1.00  0.00     0.146 A 
ATOM     11  O   UNL     1       0.837 -15.005  12.036  1.00  0.00    -0.452 OA
ENDROOT
BRANCH   1  12
ATOM     12  C   UNL     1       1.335 -17.003  10.780  1.00  0.00     0.029 A 
ATOM     13  C   UNL     1       2.372 -17.486   9.964  1.00  0.00     0.062 A 
ATOM     14  C   UNL     1       2.649 -18.859   9.905  1.00  0.00     0.162 A 
ATOM     15  C   UNL     1       0.557 -17.916  11.509  1.00  0.00     0.062 A 
ATOM     16  C   UNL     1       1.883 -19.763  10.653  1.00  0.00     0.200 A 
ATOM     17  C   UNL     1       0.831 -19.290  11.455  1.00  0.00     0.162 A 
BRANCH  14  18
ATOM     18  O   UNL     1       3.683 -19.334   9.100  1.00  0.00    -0.504 OA
ATOM     19  H   UNL     1       4.230 -18.712   8.516  1.00  0.00     0.293 HD
ENDBRANCH  14  18
BRANCH  16  20
ATOM     20  O   UNL     1       2.177 -21.124  10.584  1.00  0.00    -0.502 OA
ATOM     21  H   UNL     1       3.097 -21.466  10.336  1.00  0.00     0.293 HD
ENDBRANCH  16  20
BRANCH  17  22
ATOM     22  O   UNL     1       0.060 -20.187  12.194  1.00  0.00    -0.504 OA
ATOM     23  H   UNL     1      -0.122 -21.127  11.864  1.00  0.00     0.293 HD
ENDBRANCH  17  22
ENDBRANCH   1  12
BRANCH   2  24
ATOM     24  O   UNL     1       1.137 -15.326   8.420  1.00  0.00    -0.502 OA
ATOM     25  H   UNL     1       1.053 -14.790   7.565  1.00  0.00     0.293 HD
ENDBRANCH   2  24
BRANCH   6  26
ATOM     26  O   UNL     1      -0.120 -10.623  10.249  1.00  0.00    -0.507 OA
ATOM     27  H   UNL     1      -0.087  -9.618  10.377  1.00  0.00     0.293 HD
ENDBRANCH   6  26
BRANCH   8  28
ATOM     28  O   UNL     1      -0.125 -11.395  15.012  1.00  0.00    -0.508 OA
ATOM     29  H   UNL     1       0.377 -11.791  15.799  1.00  0.00     0.293 HD
ENDBRANCH   8  28
TORSDOF 7
ENDMDL
MODEL 5
REMARK VINA RESULT:    -2.858      2.497      3.672
REMARK INTER + INTRA:          -3.754
REMARK INTER:                  -3.774
REMARK INTRA:                   0.020
REMARK UNBOUND:                -0.228
REMARK SMILES O=c1c(O)c(-c2cc(O)c(O)c(O)c2)oc2cc(O)cc(O)c12
REMARK SMILES IDX 5 1 3 2 2 3 1 4 23 5 21 6 20 7 18 8 17 9 16 10 15 11 6 12
REMARK SMILES IDX 7 13 8 14 14 15 10 16 12 17 9 18 11 20 13 22 4 24 22 26
REMARK SMILES IDX 19 28
REMARK H PARENT 9 19 11 21 13 23 4 25 22 27 19 29
REMARK Flexibility Score: inf
ROOT
ATOM      1  C   UNL     1       1.466 -15.300  11.162  1.00  0.00     0.180 A 
ATOM      2  C   UNL     1       0.750 -14.899  10.017  1.00  0.00     0.208 A 
ATOM      3  C   UNL     1       0.541 -15.831   8.988  1.00  0.00     0.238 A 
ATOM      4  O   UNL     1      -0.089 -15.479   7.953  1.00  0.00    -0.285 OA
ATOM      5  C   UNL     1       1.032 -17.145   9.126  1.00  0.00     0.111 A 
ATOM      6  C   UNL     1       0.861 -18.143   8.137  1.00  0.00     0.134 A 
ATOM      7  C   UNL     1       1.371 -19.432   8.353  1.00  0.00     0.093 A 
ATOM      8  C   UNL     1       2.047 -19.741   9.537  1.00  0.00     0.123 A 
ATOM      9  C   UNL     1       2.220 -18.759  10.517  1.00  0.00     0.094 A 
ATOM     10  C   UNL     1       1.720 -17.468  10.320  1.00  0.00     0.146 A 
ATOM     11  O   UNL     1       1.902 -16.553  11.264  1.00  0.00    -0.452 OA
ENDROOT
BRANCH   1  12
ATOM     12  C   UNL     1       1.744 -14.372  12.281  1.00  0.00     0.029 A 
ATOM     13  C   UNL     1       3.030 -14.262  12.839  1.00  0.00     0.062 A 
ATOM     14  C   UNL     1       3.267 -13.395  13.914  1.00  0.00     0.162 A 
ATOM     15  C   UNL     1       0.693 -13.627  12.837  1.00  0.00     0.062 A 
ATOM     16  C   UNL     1       2.217 -12.637  14.449  1.00  0.00     0.200 A 
ATOM     17  C   UNL     1       0.925 -12.756  13.911  1.00  0.00     0.162 A 
BRANCH  14  18
ATOM     18  O   UNL     1       4.545 -13.283  14.459  1.00  0.00    -0.504 OA
ATOM     19  H   UNL     1       4.805 -12.499  15.047  1.00  0.00     0.293 HD
ENDBRANCH  14  18
BRANCH  16  20
ATOM     20  O   UNL     1       2.473 -11.776  15.516  1.00  0.00    -0.502 OA
ATOM     21  H   UNL     1       2.243 -12.019  16.472  1.00  0.00     0.293 HD
ENDBRANCH  16  20
BRANCH  17  22
ATOM     22  O   UNL     1      -0.125 -12.010  14.447  1.00  0.00    -0.504 OA
ATOM     23  H   UNL     1      -0.627 -12.317  15.272  1.00  0.00     0.293 HD
ENDBRANCH  17  22
ENDBRANCH   1  12
BRANCH   2  24
ATOM     24  O   UNL     1       0.232 -13.605   9.926  1.00  0.00    -0.502 OA
ATOM     25  H   UNL     1      -0.334 -13.195  10.659  1.00  0.00     0.293 HD
ENDBRANCH   2  24
BRANCH   6  26
ATOM     26  O   UNL     1       0.190 -17.866   6.945  1.00  0.00    -0.507 OA
ATOM     27  H   UNL     1      -0.821 -17.894   6.883  1.00  0.00     0.293 HD
ENDBRANCH   6  26
BRANCH   8  28
ATOM     28  O   UNL     1       2.543 -21.029   9.726  1.00  0.00    -0.508 OA
ATOM     29  H   UNL     1       3.229 -21.232  10.445  1.00  0.00     0.293 HD
ENDBRANCH   8  28
TORSDOF 7
ENDMDL
