MODEL 1
REMARK VINA RESULT:    -5.708      0.000      0.000
REMARK INTER + INTRA:          -7.555
REMARK INTER:                  -7.043
REMARK INTRA:                  -0.512
REMARK UNBOUND:                -0.512
REMARK SMILES CC(C)=CCC[C@H](C)c1ccc(C)cc1
REMARK SMILES IDX 6 1 7 2 8 3 9 4 13 5 12 6 11 7 14 8 10 9 15 10 5 11 4 12
REMARK SMILES IDX 2 13 1 14 3 15
REMARK H PARENT
REMARK Flexibility Score: inf
ROOT
ATOM      1  C   UNL     1      54.733  -5.111  66.328  1.00  0.00     0.012 C 
ENDROOT
BRANCH   1   2
ATOM      2  C   UNL     1      54.203  -6.250  67.236  1.00  0.00     0.016 C 
ATOM      3  C   UNL     1      55.310  -7.200  67.726  1.00  0.00     0.013 C 
BRANCH   2   4
ATOM      4  C   UNL     1      52.998  -6.965  66.641  1.00  0.00    -0.045 A 
ATOM      5  C   UNL     1      49.677  -9.010  64.778  1.00  0.00     0.044 C 
ATOM      6  C   UNL     1      50.811  -8.284  65.439  1.00  0.00    -0.051 A 
ATOM      7  C   UNL     1      51.344  -8.757  66.646  1.00  0.00     0.004 A 
ATOM      8  C   UNL     1      51.396  -7.173  64.817  1.00  0.00     0.004 A 
ATOM      9  C   UNL     1      52.427  -8.104  67.244  1.00  0.00     0.004 A 
ATOM     10  C   UNL     1      52.479  -6.519  65.412  1.00  0.00     0.004 A 
ENDBRANCH   2   4
ENDBRANCH   1   2
BRANCH   1  11
ATOM     11  C   UNL     1      54.548  -3.669  66.848  1.00  0.00     0.028 C 
BRANCH  11  12
ATOM     12  C   UNL     1      55.680  -3.201  67.729  1.00  0.00    -0.028 C 
ATOM     13  C   UNL     1      55.922  -1.914  68.058  1.00  0.00    -0.080 C 
ATOM     14  C   UNL     1      57.089  -1.614  68.963  1.00  0.00     0.039 C 
ATOM     15  C   UNL     1      55.087  -0.773  67.522  1.00  0.00     0.039 C 
ENDBRANCH  11  12
ENDBRANCH   1  11
TORSDOF 4
ENDMDL
MODEL 2
REMARK VINA RESULT:    -5.560      6.526      8.311
REMARK INTER + INTRA:          -7.371
REMARK INTER:                  -6.862
REMARK INTRA:                  -0.509
REMARK UNBOUND:                -0.512
REMARK SMILES CC(C)=CCC[C@H](C)c1ccc(C)cc1
REMARK SMILES IDX 6 1 7 2 8 3 9 4 13 5 12 6 11 7 14 8 10 9 15 10 5 11 4 12
REMARK SMILES IDX 2 13 1 14 3 15
REMARK H PARENT
REMARK Flexibility Score: inf
ROOT
ATOM      1  C   UNL     1      53.128  -9.067  71.927  1.00  0.00     0.012 C 
ENDROOT
BRANCH   1   2
ATOM      2  C   UNL     1      53.571  -8.189  73.127  1.00  0.00     0.016 C 
ATOM      3  C   UNL     1      55.030  -8.432  73.548  1.00  0.00     0.013 C 
BRANCH   2   4
ATOM      4  C   UNL     1      52.581  -8.229  74.282  1.00  0.00    -0.045 A 
ATOM      5  C   UNL     1      49.851  -8.172  77.633  1.00  0.00     0.044 C 
ATOM      6  C   UNL     1      50.800  -8.220  76.472  1.00  0.00    -0.051 A 
ATOM      7  C   UNL     1      50.312  -8.348  75.165  1.00  0.00     0.004 A 
ATOM      8  C   UNL     1      52.177  -8.061  76.680  1.00  0.00     0.004 A 
ATOM      9  C   UNL     1      51.192  -8.353  74.079  1.00  0.00     0.004 A 
ATOM     10  C   UNL     1      53.059  -8.067  75.595  1.00  0.00     0.004 A 
ENDBRANCH   2   4
ENDBRANCH   1   2
BRANCH   1  11
ATOM     11  C   UNL     1      52.720  -8.322  70.638  1.00  0.00     0.028 C 
BRANCH  11  12
ATOM     12  C   UNL     1      53.888  -7.998  69.740  1.00  0.00    -0.028 C 
ATOM     13  C   UNL     1      53.785  -7.540  68.473  1.00  0.00    -0.080 C 
ATOM     14  C   UNL     1      55.054  -7.251  67.712  1.00  0.00     0.039 C 
ATOM     15  C   UNL     1      52.450  -7.346  67.791  1.00  0.00     0.039 C 
ENDBRANCH  11  12
ENDBRANCH   1  11
TORSDOF 4
ENDMDL
MODEL 3
REMARK VINA RESULT:    -5.549      6.439      7.966
REMARK INTER + INTRA:          -7.359
REMARK INTER:                  -6.897
REMARK INTRA:                  -0.462
REMARK UNBOUND:                -0.512
REMARK SMILES CC(C)=CCC[C@H](C)c1ccc(C)cc1
REMARK SMILES IDX 6 1 7 2 8 3 9 4 13 5 12 6 11 7 14 8 10 9 15 10 5 11 4 12
REMARK SMILES IDX 2 13 1 14 3 15
REMARK H PARENT
REMARK Flexibility Score: inf
ROOT
ATOM      1  C   UNL     1      52.929  -7.768  74.198  1.00  0.00     0.012 C 
ENDROOT
BRANCH   1   2
ATOM      2  C   UNL     1      53.699  -8.523  73.083  1.00  0.00     0.016 C 
ATOM      3  C   UNL     1      55.227  -8.455  73.250  1.00  0.00     0.013 C 
BRANCH   2   4
ATOM      4  C   UNL     1      53.216  -8.162  71.686  1.00  0.00    -0.045 A 
ATOM      5  C   UNL     1      51.906  -7.316  67.655  1.00  0.00     0.044 C 
ATOM      6  C   UNL     1      52.369  -7.583  69.057  1.00  0.00    -0.051 A 
ATOM      7  C   UNL     1      51.485  -7.429  70.134  1.00  0.00     0.004 A 
ATOM      8  C   UNL     1      53.665  -8.061  69.293  1.00  0.00     0.004 A 
ATOM      9  C   UNL     1      51.903  -7.715  71.437  1.00  0.00     0.004 A 
ATOM     10  C   UNL     1      54.085  -8.347  70.595  1.00  0.00     0.004 A 
ENDBRANCH   2   4
ENDBRANCH   1   2
BRANCH   1  11
ATOM     11  C   UNL     1      52.787  -8.494  75.553  1.00  0.00     0.028 C 
BRANCH  11  12
ATOM     12  C   UNL     1      51.940  -7.741  76.549  1.00  0.00    -0.028 C 
ATOM     13  C   UNL     1      50.589  -7.752  76.580  1.00  0.00    -0.080 C 
ATOM     14  C   UNL     1      49.891  -6.954  77.652  1.00  0.00     0.039 C 
ATOM     15  C   UNL     1      49.765  -8.505  75.560  1.00  0.00     0.039 C 
ENDBRANCH  11  12
ENDBRANCH   1  11
TORSDOF 4
ENDMDL
MODEL 4
REMARK VINA RESULT:    -5.523      8.427     10.697
REMARK INTER + INTRA:          -7.326
REMARK INTER:                  -6.651
REMARK INTRA:                  -0.675
REMARK UNBOUND:                -0.512
REMARK SMILES CC(C)=CCC[C@H](C)c1ccc(C)cc1
REMARK SMILES IDX 6 1 7 2 8 3 9 4 13 5 12 6 11 7 14 8 10 9 15 10 5 11 4 12
REMARK SMILES IDX 2 13 1 14 3 15
REMARK H PARENT
REMARK Flexibility Score: inf
ROOT
ATOM      1  C   UNL     1      52.015   2.530  73.792  1.00  0.00     0.012 C 
ENDROOT
BRANCH   1   2
ATOM      2  C   UNL     1      50.483   2.639  73.570  1.00  0.00     0.016 C 
ATOM      3  C   UNL     1      49.690   2.776  74.881  1.00  0.00     0.013 C 
BRANCH   2   4
ATOM      4  C   UNL     1      49.946   1.564  72.635  1.00  0.00    -0.045 A 
ATOM      5  C   UNL     1      48.299  -1.350  69.901  1.00  0.00     0.044 C 
ATOM      6  C   UNL     1      48.872  -0.358  70.870  1.00  0.00    -0.051 A 
ATOM      7  C   UNL     1      50.258  -0.169  70.950  1.00  0.00     0.004 A 
ATOM      8  C   UNL     1      48.023   0.440  71.648  1.00  0.00     0.004 A 
ATOM      9  C   UNL     1      50.792   0.782  71.824  1.00  0.00     0.004 A 
ATOM     10  C   UNL     1      48.554   1.392  72.523  1.00  0.00     0.004 A 
ENDBRANCH   2   4
ENDBRANCH   1   2
BRANCH   1  11
ATOM     11  C   UNL     1      52.481   1.665  74.983  1.00  0.00     0.028 C 
BRANCH  11  12
ATOM     12  C   UNL     1      53.602   2.290  75.774  1.00  0.00    -0.028 C 
ATOM     13  C   UNL     1      53.521   2.661  77.070  1.00  0.00    -0.080 C 
ATOM     14  C   UNL     1      54.741   3.262  77.721  1.00  0.00     0.039 C 
ATOM     15  C   UNL     1      52.245   2.526  77.869  1.00  0.00     0.039 C 
ENDBRANCH  11  12
ENDBRANCH   1  11
TORSDOF 4
ENDMDL
MODEL 5
REMARK VINA RESULT:    -5.436      9.177     12.366
REMARK INTER + INTRA:          -7.219
REMARK INTER:                  -6.217
REMARK INTRA:                  -1.002
REMARK UNBOUND:                -0.512
REMARK SMILES CC(C)=CCC[C@H](C)c1ccc(C)cc1
REMARK SMILES IDX 6 1 7 2 8 3 9 4 13 5 12 6 11 7 14 8 10 9 15 10 5 11 4 12
REMARK SMILES IDX 2 13 1 14 3 15
REMARK H PARENT
REMARK Flexibility Score: inf
ROOT
ATOM      1  C   UNL     1      48.706   0.624  73.067  1.00  0.00     0.012 C 
ENDROOT
BRANCH   1   2
ATOM      2  C   UNL     1      50.061   1.125  72.502  1.00  0.00     0.016 C 
ATOM      3  C   UNL     1      50.605   0.245  71.364  1.00  0.00     0.013 C 
BRANCH   2   4
ATOM      4  C   UNL     1      51.080   1.420  73.593  1.00  0.00    -0.045 A 
ATOM      5  C   UNL     1      53.830   2.232  76.828  1.00  0.00     0.044 C 
ATOM      6  C   UNL     1      52.888   1.970  75.690  1.00  0.00    -0.051 A 
ATOM      7  C   UNL     1      53.189   0.987  74.737  1.00  0.00     0.004 A 
ATOM      8  C   UNL     1      51.666   2.651  75.613  1.00  0.00     0.004 A 
ATOM      9  C   UNL     1      52.295   0.714  73.697  1.00  0.00     0.004 A 
ATOM     10  C   UNL     1      50.771   2.380  74.575  1.00  0.00     0.004 A 
ENDBRANCH   2   4
ENDBRANCH   1   2
BRANCH   1  11
ATOM     11  C   UNL     1      47.488   1.552  72.866  1.00  0.00     0.028 C 
BRANCH  11  12
ATOM     12  C   UNL     1      47.055   2.253  74.130  1.00  0.00    -0.028 C 
ATOM     13  C   UNL     1      47.274   3.557  74.405  1.00  0.00    -0.080 C 
ATOM     14  C   UNL     1      46.764   4.108  75.712  1.00  0.00     0.039 C 
ATOM     15  C   UNL     1      48.039   4.462  73.466  1.00  0.00     0.039 C 
ENDBRANCH  11  12
ENDBRANCH   1  11
TORSDOF 4
ENDMDL
MODEL 6
REMARK VINA RESULT:    -5.422      9.165     12.362
REMARK INTER + INTRA:          -7.201
REMARK INTER:                  -6.200
REMARK INTRA:                  -1.001
REMARK UNBOUND:                -0.512
REMARK SMILES CC(C)=CCC[C@H](C)c1ccc(C)cc1
REMARK SMILES IDX 6 1 7 2 8 3 9 4 13 5 12 6 11 7 14 8 10 9 15 10 5 11 4 12
REMARK SMILES IDX 2 13 1 14 3 15
REMARK H PARENT
REMARK Flexibility Score: inf
ROOT
ATOM      1  C   UNL     1      48.742   0.555  72.962  1.00  0.00     0.012 C 
ENDROOT
BRANCH   1   2
ATOM      2  C   UNL     1      50.115   1.102  72.490  1.00  0.00     0.016 C 
ATOM      3  C   UNL     1      50.748   0.260  71.369  1.00  0.00     0.013 C 
BRANCH   2   4
ATOM      4  C   UNL     1      51.059   1.397  73.646  1.00  0.00    -0.045 A 
ATOM      5  C   UNL     1      53.891   2.259  76.796  1.00  0.00     0.044 C 
ATOM      6  C   UNL     1      52.895   1.941  75.720  1.00  0.00    -0.051 A 
ATOM      7  C   UNL     1      51.702   2.670  75.623  1.00  0.00     0.004 A 
ATOM      8  C   UNL     1      53.185   0.965  74.757  1.00  0.00     0.004 A 
ATOM      9  C   UNL     1      50.791   2.402  74.597  1.00  0.00     0.004 A 
ATOM     10  C   UNL     1      52.275   0.695  73.730  1.00  0.00     0.004 A 
ENDBRANCH   2   4
ENDBRANCH   1   2
BRANCH   1  11
ATOM     11  C   UNL     1      47.539   1.515  72.848  1.00  0.00     0.028 C 
BRANCH  11  12
ATOM     12  C   UNL     1      47.132   2.123  74.168  1.00  0.00    -0.028 C 
ATOM     13  C   UNL     1      47.278   3.425  74.497  1.00  0.00    -0.080 C 
ATOM     14  C   UNL     1      46.806   3.877  75.855  1.00  0.00     0.039 C 
ATOM     15  C   UNL     1      47.926   4.425  73.566  1.00  0.00     0.039 C 
ENDBRANCH  11  12
ENDBRANCH   1  11
TORSDOF 4
ENDMDL
MODEL 7
REMARK VINA RESULT:    -5.347      2.042      3.436
REMARK INTER + INTRA:          -7.108
REMARK INTER:                  -6.526
REMARK INTRA:                  -0.582
REMARK UNBOUND:                -0.512
REMARK SMILES CC(C)=CCC[C@H](C)c1ccc(C)cc1
REMARK SMILES IDX 6 1 7 2 8 3 9 4 13 5 12 6 11 7 14 8 10 9 15 10 5 11 4 12
REMARK SMILES IDX 2 13 1 14 3 15
REMARK H PARENT
REMARK Flexibility Score: inf
ROOT
ATOM      1  C   UNL     1      54.686  -5.777  66.562  1.00  0.00     0.012 C 
ENDROOT
BRANCH   1   2
ATOM      2  C   UNL     1      53.551  -6.835  66.584  1.00  0.00     0.016 C 
ATOM      3  C   UNL     1      52.342  -6.443  65.717  1.00  0.00     0.013 C 
BRANCH   2   4
ATOM      4  C   UNL     1      53.181  -7.272  67.994  1.00  0.00    -0.045 A 
ATOM      5  C   UNL     1      52.271  -8.389  72.069  1.00  0.00     0.044 C 
ATOM      6  C   UNL     1      52.582  -8.028  70.646  1.00  0.00    -0.051 A 
ATOM      7  C   UNL     1      51.563  -7.595  69.788  1.00  0.00     0.004 A 
ATOM      8  C   UNL     1      53.906  -8.048  70.187  1.00  0.00     0.004 A 
ATOM      9  C   UNL     1      51.857  -7.221  68.473  1.00  0.00     0.004 A 
ATOM     10  C   UNL     1      54.203  -7.674  68.873  1.00  0.00     0.004 A 
ENDBRANCH   2   4
ENDBRANCH   1   2
BRANCH   1  11
ATOM     11  C   UNL     1      54.278  -4.319  66.860  1.00  0.00     0.028 C 
BRANCH  11  12
ATOM     12  C   UNL     1      55.397  -3.491  67.441  1.00  0.00    -0.028 C 
ATOM     13  C   UNL     1      55.340  -2.160  67.663  1.00  0.00    -0.080 C 
ATOM     14  C   UNL     1      56.544  -1.482  68.264  1.00  0.00     0.039 C 
ATOM     15  C   UNL     1      54.128  -1.333  67.297  1.00  0.00     0.039 C 
ENDBRANCH  11  12
ENDBRANCH   1  11
TORSDOF 4
ENDMDL
MODEL 8
REMARK VINA RESULT:    -5.309      7.346     10.968
REMARK INTER + INTRA:          -7.062
REMARK INTER:                  -6.533
REMARK INTRA:                  -0.529
REMARK UNBOUND:                -0.512
REMARK SMILES CC(C)=CCC[C@H](C)c1ccc(C)cc1
REMARK SMILES IDX 6 1 7 2 8 3 9 4 13 5 12 6 11 7 14 8 10 9 15 10 5 11 4 12
REMARK SMILES IDX 2 13 1 14 3 15
REMARK H PARENT
REMARK Flexibility Score: inf
ROOT
ATOM      1  C   UNL     1      50.553   0.267  71.130  1.00  0.00     0.012 C 
ENDROOT
BRANCH   1   2
ATOM      2  C   UNL     1      49.935   0.572  72.519  1.00  0.00     0.016 C 
ATOM      3  C   UNL     1      48.655   1.422  72.438  1.00  0.00     0.013 C 
BRANCH   2   4
ATOM      4  C   UNL     1      50.958   1.095  73.517  1.00  0.00    -0.045 A 
ATOM      5  C   UNL     1      53.727   2.563  76.494  1.00  0.00     0.044 C 
ATOM      6  C   UNL     1      52.777   2.072  75.442  1.00  0.00    -0.051 A 
ATOM      7  C   UNL     1      53.130   0.993  74.620  1.00  0.00     0.004 A 
ATOM      8  C   UNL     1      51.500   2.637  75.324  1.00  0.00     0.004 A 
ATOM      9  C   UNL     1      52.231   0.509  73.665  1.00  0.00     0.004 A 
ATOM     10  C   UNL     1      50.600   2.154  74.371  1.00  0.00     0.004 A 
ENDBRANCH   2   4
ENDBRANCH   1   2
BRANCH   1  11
ATOM     11  C   UNL     1      49.628  -0.409  70.095  1.00  0.00     0.028 C 
BRANCH  11  12
ATOM     12  C   UNL     1      49.242  -1.819  70.468  1.00  0.00    -0.028 C 
ATOM     13  C   UNL     1      49.500  -2.914  69.721  1.00  0.00    -0.080 C 
ATOM     14  C   UNL     1      49.059  -4.257  70.244  1.00  0.00     0.039 C 
ATOM     15  C   UNL     1      50.180  -2.829  68.373  1.00  0.00     0.039 C 
ENDBRANCH  11  12
ENDBRANCH   1  11
TORSDOF 4
ENDMDL
MODEL 9
REMARK VINA RESULT:    -5.264      9.576     12.579
REMARK INTER + INTRA:          -7.007
REMARK INTER:                  -5.709
REMARK INTRA:                  -1.298
REMARK UNBOUND:                -0.512
REMARK SMILES CC(C)=CCC[C@H](C)c1ccc(C)cc1
REMARK SMILES IDX 6 1 7 2 8 3 9 4 13 5 12 6 11 7 14 8 10 9 15 10 5 11 4 12
REMARK SMILES IDX 2 13 1 14 3 15
REMARK H PARENT
REMARK Flexibility Score: inf
ROOT
ATOM      1  C   UNL     1      49.343   0.815  72.351  1.00  0.00     0.012 C 
ENDROOT
BRANCH   1   2
ATOM      2  C   UNL     1      48.884   0.942  73.827  1.00  0.00     0.016 C 
ATOM      3  C   UNL     1      47.734  -0.015  74.187  1.00  0.00     0.013 C 
BRANCH   2   4
ATOM      4  C   UNL     1      48.638   2.385  74.245  1.00  0.00    -0.045 A 
ATOM      5  C   UNL     1      48.120   6.484  75.515  1.00  0.00     0.044 C 
ATOM      6  C   UNL     1      48.272   5.056  75.079  1.00  0.00    -0.051 A 
ATOM      7  C   UNL     1      48.071   4.701  73.739  1.00  0.00     0.004 A 
ATOM      8  C   UNL     1      48.691   4.081  75.994  1.00  0.00     0.004 A 
ATOM      9  C   UNL     1      48.251   3.378  73.323  1.00  0.00     0.004 A 
ATOM     10  C   UNL     1      48.871   2.757  75.581  1.00  0.00     0.004 A 
ENDBRANCH   2   4
ENDBRANCH   1   2
BRANCH   1  11
ATOM     11  C   UNL     1      50.865   0.739  72.105  1.00  0.00     0.028 C 
BRANCH  11  12
ATOM     12  C   UNL     1      51.676   0.716  73.377  1.00  0.00    -0.028 C 
ATOM     13  C   UNL     1      52.248   1.799  73.948  1.00  0.00    -0.080 C 
ATOM     14  C   UNL     1      53.017   1.609  75.230  1.00  0.00     0.039 C 
ATOM     15  C   UNL     1      52.171   3.174  73.326  1.00  0.00     0.039 C 
ENDBRANCH  11  12
ENDBRANCH   1  11
TORSDOF 4
ENDMDL
