MODEL 1
REMARK VINA RESULT:    -3.717      0.000      0.000
REMARK INTER + INTRA:          -5.616
REMARK INTER:                  -5.020
REMARK INTRA:                  -0.596
REMARK UNBOUND:                -0.596
REMARK SMILES CCCCCCC=CC(=O)[O-]
REMARK SMILES IDX 5 1 6 2 7 3 8 4 9 5 10 6 11 7 4 8 3 9 2 10 1 11
REMARK H PARENT
REMARK Flexibility Score: inf
ROOT
ATOM      1  C   UNL     1      -3.274   6.637  -3.726  1.00  0.00     0.004 C 
ENDROOT
BRANCH   1   2
ATOM      2  C   UNL     1      -4.802   6.472  -3.677  1.00  0.00     0.027 C 
BRANCH   2   3
ATOM      3  C   UNL     1      -5.274   6.051  -2.314  1.00  0.00    -0.025 C 
ATOM      4  C   UNL     1      -6.388   6.555  -1.773  1.00  0.00     0.020 C 
BRANCH   4   5
ATOM      5  C   UNL     1      -6.847   6.182  -0.425  1.00  0.00     0.064 C 
ATOM      6  O   UNL     1      -6.162   5.422   0.310  1.00  0.00    -0.545 OA
ATOM      7  O   UNL     1      -8.055   6.679   0.047  1.00  0.00    -0.545 OA
ENDBRANCH   4   5
ENDBRANCH   2   3
ENDBRANCH   1   2
BRANCH   1   8
ATOM      8  C   UNL     1      -2.621   6.912  -2.357  1.00  0.00     0.000 C 
BRANCH   8   9
ATOM      9  C   UNL     1      -1.601   5.831  -1.958  1.00  0.00    -0.000 C 
BRANCH   9  10
ATOM     10  C   UNL     1      -2.032   5.052  -0.705  1.00  0.00    -0.003 C 
ATOM     11  C   UNL     1      -2.647   5.950   0.369  1.00  0.00     0.004 C 
ENDBRANCH   9  10
ENDBRANCH   8   9
ENDBRANCH   1   8
TORSDOF 6
ENDMDL
MODEL 2
REMARK VINA RESULT:    -3.711     15.618     16.798
REMARK INTER + INTRA:          -5.608
REMARK INTER:                  -5.031
REMARK INTRA:                  -0.577
REMARK UNBOUND:                -0.596
REMARK SMILES CCCCCCC=CC(=O)[O-]
REMARK SMILES IDX 5 1 6 2 7 3 8 4 9 5 10 6 11 7 4 8 3 9 2 10 1 11
REMARK H PARENT
REMARK Flexibility Score: inf
ROOT
ATOM      1  C   UNL     1       2.771  -8.379  -8.807  1.00  0.00     0.004 C 
ENDROOT
BRANCH   1   2
ATOM      2  C   UNL     1       2.771  -7.359  -9.958  1.00  0.00     0.027 C 
BRANCH   2   3
ATOM      3  C   UNL     1       2.199  -6.037  -9.532  1.00  0.00    -0.025 C 
ATOM      4  C   UNL     1       2.332  -5.588  -8.279  1.00  0.00     0.020 C 
BRANCH   4   5
ATOM      5  C   UNL     1       1.748  -4.312  -7.834  1.00  0.00     0.064 C 
ATOM      6  O   UNL     1       1.414  -3.424  -8.663  1.00  0.00    -0.545 OA
ATOM      7  O   UNL     1       1.559  -4.084  -6.477  1.00  0.00    -0.545 OA
ENDBRANCH   4   5
ENDBRANCH   2   3
ENDBRANCH   1   2
BRANCH   1   8
ATOM      8  C   UNL     1       3.841  -9.481  -8.935  1.00  0.00     0.000 C 
BRANCH   8   9
ATOM      9  C   UNL     1       5.178  -8.951  -9.479  1.00  0.00    -0.000 C 
BRANCH   9  10
ATOM     10  C   UNL     1       5.953  -8.132  -8.434  1.00  0.00    -0.003 C 
ATOM     11  C   UNL     1       6.382  -6.760  -8.953  1.00  0.00     0.004 C 
ENDBRANCH   9  10
ENDBRANCH   8   9
ENDBRANCH   1   8
TORSDOF 6
ENDMDL
MODEL 3
REMARK VINA RESULT:    -3.596      2.784      4.834
REMARK INTER + INTRA:          -5.453
REMARK INTER:                  -5.127
REMARK INTRA:                  -0.326
REMARK UNBOUND:                -0.596
REMARK SMILES CCCCCCC=CC(=O)[O-]
REMARK SMILES IDX 5 1 6 2 7 3 8 4 9 5 10 6 11 7 4 8 3 9 2 10 1 11
REMARK H PARENT
REMARK Flexibility Score: inf
ROOT
ATOM      1  C   UNL     1      -4.289   6.556  -3.949  1.00  0.00     0.004 C 
ENDROOT
BRANCH   1   2
ATOM      2  C   UNL     1      -5.064   5.739  -2.903  1.00  0.00     0.027 C 
BRANCH   2   3
ATOM      3  C   UNL     1      -4.394   5.775  -1.559  1.00  0.00    -0.025 C 
ATOM      4  C   UNL     1      -3.065   5.863  -1.441  1.00  0.00     0.020 C 
BRANCH   4   5
ATOM      5  C   UNL     1      -2.388   5.863  -0.134  1.00  0.00     0.064 C 
ATOM      6  O   UNL     1      -2.968   5.437   0.900  1.00  0.00    -0.545 OA
ATOM      7  O   UNL     1      -1.087   6.340  -0.039  1.00  0.00    -0.545 OA
ENDBRANCH   4   5
ENDBRANCH   2   3
ENDBRANCH   1   2
BRANCH   1   8
ATOM      8  C   UNL     1      -4.585   6.162  -5.409  1.00  0.00     0.000 C 
BRANCH   8   9
ATOM      9  C   UNL     1      -5.887   5.355  -5.554  1.00  0.00    -0.000 C 
BRANCH   9  10
ATOM     10  C   UNL     1      -5.676   4.031  -6.306  1.00  0.00    -0.003 C 
ATOM     11  C   UNL     1      -4.874   4.203  -7.596  1.00  0.00     0.004 C 
ENDBRANCH   9  10
ENDBRANCH   8   9
ENDBRANCH   1   8
TORSDOF 6
ENDMDL
MODEL 4
REMARK VINA RESULT:    -3.495     17.171     18.805
REMARK INTER + INTRA:          -5.316
REMARK INTER:                  -5.070
REMARK INTRA:                  -0.246
REMARK UNBOUND:                -0.596
REMARK SMILES CCCCCCC=CC(=O)[O-]
REMARK SMILES IDX 5 1 6 2 7 3 8 4 9 5 10 6 11 7 4 8 3 9 2 10 1 11
REMARK H PARENT
REMARK Flexibility Score: inf
ROOT
ATOM      1  C   UNL     1      -2.612  -8.588   8.775  1.00  0.00     0.004 C 
ENDROOT
BRANCH   1   2
ATOM      2  C   UNL     1      -1.628  -8.492   9.952  1.00  0.00     0.027 C 
BRANCH   2   3
ATOM      3  C   UNL     1      -0.200  -8.480   9.486  1.00  0.00    -0.025 C 
ATOM      4  C   UNL     1       0.239  -9.328   8.550  1.00  0.00     0.020 C 
BRANCH   4   5
ATOM      5  C   UNL     1       1.642  -9.355   8.107  1.00  0.00     0.064 C 
ATOM      6  O   UNL     1       1.941  -9.598   6.907  1.00  0.00    -0.545 OA
ATOM      7  O   UNL     1       2.653  -9.106   9.026  1.00  0.00    -0.545 OA
ENDBRANCH   4   5
ENDBRANCH   2   3
ENDBRANCH   1   2
BRANCH   1   8
ATOM      8  C   UNL     1      -4.014  -8.021   9.070  1.00  0.00     0.000 C 
BRANCH   8   9
ATOM      9  C   UNL     1      -4.619  -7.277   7.867  1.00  0.00    -0.000 C 
BRANCH   9  10
ATOM     10  C   UNL     1      -4.402  -8.027   6.544  1.00  0.00    -0.003 C 
ATOM     11  C   UNL     1      -5.289  -9.266   6.412  1.00  0.00     0.004 C 
ENDBRANCH   9  10
ENDBRANCH   8   9
ENDBRANCH   1   8
TORSDOF 6
ENDMDL
MODEL 5
REMARK VINA RESULT:    -3.492     17.095     18.511
REMARK INTER + INTRA:          -5.313
REMARK INTER:                  -4.873
REMARK INTRA:                  -0.440
REMARK UNBOUND:                -0.596
REMARK SMILES CCCCCCC=CC(=O)[O-]
REMARK SMILES IDX 5 1 6 2 7 3 8 4 9 5 10 6 11 7 4 8 3 9 2 10 1 11
REMARK H PARENT
REMARK Flexibility Score: inf
ROOT
ATOM      1  C   UNL     1       2.695  -8.189  -8.786  1.00  0.00     0.004 C 
ENDROOT
BRANCH   1   2
ATOM      2  C   UNL     1       3.400  -9.449  -9.313  1.00  0.00     0.027 C 
BRANCH   2   3
ATOM      3  C   UNL     1       4.890  -9.265  -9.388  1.00  0.00    -0.025 C 
ATOM      4  C   UNL     1       5.506  -8.273  -8.736  1.00  0.00     0.020 C 
BRANCH   4   5
ATOM      5  C   UNL     1       6.959  -8.055  -8.826  1.00  0.00     0.064 C 
ATOM      6  O   UNL     1       7.443  -6.892  -8.836  1.00  0.00    -0.545 OA
ATOM      7  O   UNL     1       7.810  -9.149  -8.898  1.00  0.00    -0.545 OA
ENDBRANCH   4   5
ENDBRANCH   2   3
ENDBRANCH   1   2
BRANCH   1   8
ATOM      8  C   UNL     1       1.844  -7.451  -9.838  1.00  0.00     0.000 C 
BRANCH   8   9
ATOM      9  C   UNL     1       1.696  -5.950  -9.534  1.00  0.00    -0.000 C 
BRANCH   9  10
ATOM     10  C   UNL     1       2.577  -5.499  -8.358  1.00  0.00    -0.003 C 
ATOM     11  C   UNL     1       1.839  -4.584  -7.380  1.00  0.00     0.004 C 
ENDBRANCH   9  10
ENDBRANCH   8   9
ENDBRANCH   1   8
TORSDOF 6
ENDMDL
MODEL 6
REMARK VINA RESULT:    -3.483      3.467      4.296
REMARK INTER + INTRA:          -5.300
REMARK INTER:                  -4.858
REMARK INTRA:                  -0.442
REMARK UNBOUND:                -0.596
REMARK SMILES CCCCCCC=CC(=O)[O-]
REMARK SMILES IDX 5 1 6 2 7 3 8 4 9 5 10 6 11 7 4 8 3 9 2 10 1 11
REMARK H PARENT
REMARK Flexibility Score: inf
ROOT
ATOM      1  C   UNL     1      -4.881   5.571  -1.506  1.00  0.00     0.004 C 
ENDROOT
BRANCH   1   2
ATOM      2  C   UNL     1      -5.531   6.293  -2.697  1.00  0.00     0.027 C 
BRANCH   2   3
ATOM      3  C   UNL     1      -4.898   5.898  -4.002  1.00  0.00    -0.025 C 
ATOM      4  C   UNL     1      -5.632   5.476  -5.037  1.00  0.00     0.020 C 
BRANCH   4   5
ATOM      5  C   UNL     1      -5.027   5.051  -6.310  1.00  0.00     0.064 C 
ATOM      6  O   UNL     1      -5.383   3.984  -6.876  1.00  0.00    -0.545 OA
ATOM      7  O   UNL     1      -4.050   5.842  -6.898  1.00  0.00    -0.545 OA
ENDBRANCH   4   5
ENDBRANCH   2   3
ENDBRANCH   1   2
BRANCH   1   8
ATOM      8  C   UNL     1      -3.570   6.213  -1.012  1.00  0.00     0.000 C 
BRANCH   8   9
ATOM      9  C   UNL     1      -2.459   5.179  -0.763  1.00  0.00    -0.000 C 
BRANCH   9  10
ATOM     10  C   UNL     1      -1.154   5.532  -1.495  1.00  0.00    -0.003 C 
ATOM     11  C   UNL     1      -1.387   6.378  -2.747  1.00  0.00     0.004 C 
ENDBRANCH   9  10
ENDBRANCH   8   9
ENDBRANCH   1   8
TORSDOF 6
ENDMDL
MODEL 7
REMARK VINA RESULT:    -3.451     11.698     12.536
REMARK INTER + INTRA:          -5.257
REMARK INTER:                  -4.770
REMARK INTRA:                  -0.487
REMARK UNBOUND:                -0.596
REMARK SMILES CCCCCCC=CC(=O)[O-]
REMARK SMILES IDX 5 1 6 2 7 3 8 4 9 5 10 6 11 7 4 8 3 9 2 10 1 11
REMARK H PARENT
REMARK Flexibility Score: inf
ROOT
ATOM      1  C   UNL     1      -7.764  -2.532  -4.770  1.00  0.00     0.004 C 
ENDROOT
BRANCH   1   2
ATOM      2  C   UNL     1      -8.862  -1.989  -5.700  1.00  0.00     0.027 C 
BRANCH   2   3
ATOM      3  C   UNL     1      -8.652  -2.422  -7.123  1.00  0.00    -0.025 C 
ATOM      4  C   UNL     1      -7.816  -3.417  -7.437  1.00  0.00     0.020 C 
BRANCH   4   5
ATOM      5  C   UNL     1      -7.570  -3.831  -8.827  1.00  0.00     0.064 C 
ATOM      6  O   UNL     1      -8.524  -4.069  -9.615  1.00  0.00    -0.545 OA
ATOM      7  O   UNL     1      -6.263  -3.959  -9.280  1.00  0.00    -0.545 OA
ENDBRANCH   4   5
ENDBRANCH   2   3
ENDBRANCH   1   2
BRANCH   1   8
ATOM      8  C   UNL     1      -8.268  -3.521  -3.701  1.00  0.00     0.000 C 
BRANCH   8   9
ATOM      9  C   UNL     1      -7.916  -4.982  -4.031  1.00  0.00    -0.000 C 
BRANCH   9  10
ATOM     10  C   UNL     1      -9.136  -5.786  -4.508  1.00  0.00    -0.003 C 
ATOM     11  C   UNL     1      -9.037  -7.273  -4.168  1.00  0.00     0.004 C 
ENDBRANCH   9  10
ENDBRANCH   8   9
ENDBRANCH   1   8
TORSDOF 6
ENDMDL
MODEL 8
REMARK VINA RESULT:    -3.388     13.363     14.155
REMARK INTER + INTRA:          -5.172
REMARK INTER:                  -4.788
REMARK INTRA:                  -0.384
REMARK UNBOUND:                -0.596
REMARK SMILES CCCCCCC=CC(=O)[O-]
REMARK SMILES IDX 5 1 6 2 7 3 8 4 9 5 10 6 11 7 4 8 3 9 2 10 1 11
REMARK H PARENT
REMARK Flexibility Score: inf
ROOT
ATOM      1  C   UNL     1      -8.239  -5.579  -4.252  1.00  0.00     0.004 C 
ENDROOT
BRANCH   1   2
ATOM      2  C   UNL     1      -9.721  -5.893  -4.516  1.00  0.00     0.027 C 
BRANCH   2   3
ATOM      3  C   UNL     1     -10.013  -7.360  -4.383  1.00  0.00    -0.025 C 
ATOM      4  C   UNL     1      -9.036  -8.256  -4.211  1.00  0.00     0.020 C 
BRANCH   4   5
ATOM      5  C   UNL     1      -9.299  -9.701  -4.115  1.00  0.00     0.064 C 
ATOM      6  O   UNL     1      -9.750 -10.348  -5.098  1.00  0.00    -0.545 OA
ATOM      7  O   UNL     1      -9.045 -10.364  -2.921  1.00  0.00    -0.545 OA
ENDBRANCH   4   5
ENDBRANCH   2   3
ENDBRANCH   1   2
BRANCH   1   8
ATOM      8  C   UNL     1      -7.962  -4.122  -3.833  1.00  0.00     0.000 C 
BRANCH   8   9
ATOM      9  C   UNL     1      -9.249  -3.290  -3.694  1.00  0.00    -0.000 C 
BRANCH   9  10
ATOM     10  C   UNL     1      -9.370  -2.211  -4.782  1.00  0.00    -0.003 C 
ATOM     11  C   UNL     1      -8.096  -2.060  -5.613  1.00  0.00     0.004 C 
ENDBRANCH   9  10
ENDBRANCH   8   9
ENDBRANCH   1   8
TORSDOF 6
ENDMDL
MODEL 9
REMARK VINA RESULT:    -3.376     16.134     17.477
REMARK INTER + INTRA:          -5.156
REMARK INTER:                  -4.790
REMARK INTRA:                  -0.366
REMARK UNBOUND:                -0.596
REMARK SMILES CCCCCCC=CC(=O)[O-]
REMARK SMILES IDX 5 1 6 2 7 3 8 4 9 5 10 6 11 7 4 8 3 9 2 10 1 11
REMARK H PARENT
REMARK Flexibility Score: inf
ROOT
ATOM      1  C   UNL     1      -4.142  -7.815   8.603  1.00  0.00     0.004 C 
ENDROOT
BRANCH   1   2
ATOM      2  C   UNL     1      -4.438  -7.520   7.124  1.00  0.00     0.027 C 
BRANCH   2   3
ATOM      3  C   UNL     1      -4.924  -8.742   6.397  1.00  0.00    -0.025 C 
ATOM      4  C   UNL     1      -5.814  -9.575   6.947  1.00  0.00     0.020 C 
BRANCH   4   5
ATOM      5  C   UNL     1      -6.275 -10.796   6.266  1.00  0.00     0.064 C 
ATOM      6  O   UNL     1      -5.951 -11.038   5.073  1.00  0.00    -0.545 OA
ATOM      7  O   UNL     1      -7.079 -11.697   6.950  1.00  0.00    -0.545 OA
ENDBRANCH   4   5
ENDBRANCH   2   3
ENDBRANCH   1   2
BRANCH   1   8
ATOM      8  C   UNL     1      -4.906  -6.916   9.595  1.00  0.00     0.000 C 
BRANCH   8   9
ATOM      9  C   UNL     1      -5.993  -6.068   8.912  1.00  0.00    -0.000 C 
BRANCH   9  10
ATOM     10  C   UNL     1      -6.424  -4.867   9.769  1.00  0.00    -0.003 C 
ATOM     11  C   UNL     1      -7.387  -3.932   9.037  1.00  0.00     0.004 C 
ENDBRANCH   9  10
ENDBRANCH   8   9
ENDBRANCH   1   8
TORSDOF 6
ENDMDL
