MODEL 1
REMARK VINA RESULT:    -3.214      0.000      0.000
REMARK INTER + INTRA:          -8.376
REMARK INTER:                  -5.844
REMARK INTRA:                  -2.532
REMARK UNBOUND:                -2.532
REMARK SMILES CCCCCCCCCCCCCCCC(=O)[O-]
REMARK SMILES IDX 9 1 10 2 11 3 12 4 13 5 14 6 15 7 16 8 17 9 18 10 8 11 7 12
REMARK SMILES IDX 6 13 5 14 4 15 3 16 2 17 1 18
REMARK H PARENT
REMARK Flexibility Score: inf
ROOT
ATOM      1  C   UNL     1      31.696   5.503 -29.907  1.00  0.00     0.000 C 
ENDROOT
BRANCH   1   2
ATOM      2  C   UNL     1      32.836   5.123 -28.946  1.00  0.00     0.000 C 
BRANCH   2   3
ATOM      3  C   UNL     1      33.573   3.846 -29.379  1.00  0.00     0.000 C 
BRANCH   3   4
ATOM      4  C   UNL     1      35.013   3.786 -28.848  1.00  0.00     0.000 C 
BRANCH   4   5
ATOM      5  C   UNL     1      35.305   4.969 -27.914  1.00  0.00     0.000 C 
BRANCH   5   6
ATOM      6  C   UNL     1      35.841   4.535 -26.539  1.00  0.00     0.006 C 
BRANCH   6   7
ATOM      7  C   UNL     1      34.745   4.301 -25.485  1.00  0.00     0.053 C 
BRANCH   7   8
ATOM      8  C   UNL     1      34.352   5.557 -24.768  1.00  0.00     0.041 C 
ATOM      9  O   UNL     1      33.632   6.417 -25.341  1.00  0.00    -0.550 OA
ATOM     10  O   UNL     1      34.752   5.762 -23.454  1.00  0.00    -0.550 OA
ENDBRANCH   7   8
ENDBRANCH   6   7
ENDBRANCH   5   6
ENDBRANCH   4   5
ENDBRANCH   3   4
ENDBRANCH   2   3
ENDBRANCH   1   2
BRANCH   1  11
ATOM     11  C   UNL     1      31.932   6.857 -30.593  1.00  0.00     0.000 C 
BRANCH  11  12
ATOM     12  C   UNL     1      33.253   7.517 -30.157  1.00  0.00    -0.000 C 
BRANCH  12  13
ATOM     13  C   UNL     1      34.264   7.628 -31.311  1.00  0.00    -0.000 C 
BRANCH  13  14
ATOM     14  C   UNL     1      35.519   6.767 -31.079  1.00  0.00    -0.000 C 
BRANCH  14  15
ATOM     15  C   UNL     1      35.680   5.658 -32.131  1.00  0.00    -0.000 C 
BRANCH  15  16
ATOM     16  C   UNL     1      34.417   5.471 -32.989  1.00  0.00    -0.000 C 
BRANCH  16  17
ATOM     17  C   UNL     1      33.932   4.014 -33.011  1.00  0.00    -0.003 C 
ATOM     18  C   UNL     1      32.413   3.896 -33.146  1.00  0.00     0.004 C 
ENDBRANCH  16  17
ENDBRANCH  15  16
ENDBRANCH  14  15
ENDBRANCH  13  14
ENDBRANCH  12  13
ENDBRANCH  11  12
ENDBRANCH   1  11
TORSDOF 14
ENDMDL
MODEL 2
REMARK VINA RESULT:    -3.078     10.673     12.406
REMARK INTER + INTRA:          -8.130
REMARK INTER:                  -5.699
REMARK INTRA:                  -2.431
REMARK UNBOUND:                -2.532
REMARK SMILES CCCCCCCCCCCCCCCC(=O)[O-]
REMARK SMILES IDX 9 1 10 2 11 3 12 4 13 5 14 6 15 7 16 8 17 9 18 10 8 11 7 12
REMARK SMILES IDX 6 13 5 14 4 15 3 16 2 17 1 18
REMARK H PARENT
REMARK Flexibility Score: inf
ROOT
ATOM      1  C   UNL     1      30.171   0.533 -37.419  1.00  0.00     0.000 C 
ENDROOT
BRANCH   1   2
ATOM      2  C   UNL     1      31.385   0.823 -38.320  1.00  0.00     0.000 C 
BRANCH   2   3
ATOM      3  C   UNL     1      32.656   0.101 -37.847  1.00  0.00     0.000 C 
BRANCH   3   4
ATOM      4  C   UNL     1      33.000  -1.118 -38.716  1.00  0.00     0.000 C 
BRANCH   4   5
ATOM      5  C   UNL     1      32.370  -2.397 -38.144  1.00  0.00     0.000 C 
BRANCH   5   6
ATOM      6  C   UNL     1      32.433  -2.466 -36.608  1.00  0.00     0.006 C 
BRANCH   6   7
ATOM      7  C   UNL     1      31.055  -2.552 -35.929  1.00  0.00     0.053 C 
BRANCH   7   8
ATOM      8  C   UNL     1      30.992  -3.616 -34.875  1.00  0.00     0.041 C 
ATOM      9  O   UNL     1      29.938  -3.790 -34.209  1.00  0.00    -0.550 OA
ATOM     10  O   UNL     1      32.089  -4.439 -34.652  1.00  0.00    -0.550 OA
ENDBRANCH   7   8
ENDBRANCH   6   7
ENDBRANCH   5   6
ENDBRANCH   4   5
ENDBRANCH   3   4
ENDBRANCH   2   3
ENDBRANCH   1   2
BRANCH   1  11
ATOM     11  C   UNL     1      28.969  -0.007 -38.209  1.00  0.00     0.000 C 
BRANCH  11  12
ATOM     12  C   UNL     1      29.281  -0.194 -39.705  1.00  0.00    -0.000 C 
BRANCH  12  13
ATOM     13  C   UNL     1      29.348  -1.675 -40.111  1.00  0.00    -0.000 C 
BRANCH  13  14
ATOM     14  C   UNL     1      28.413  -2.560 -39.269  1.00  0.00    -0.000 C 
BRANCH  14  15
ATOM     15  C   UNL     1      29.072  -3.882 -38.842  1.00  0.00    -0.000 C 
BRANCH  15  16
ATOM     16  C   UNL     1      28.426  -4.484 -37.583  1.00  0.00    -0.000 C 
BRANCH  16  17
ATOM     17  C   UNL     1      27.487  -3.495 -36.874  1.00  0.00    -0.003 C 
ATOM     18  C   UNL     1      26.125  -4.105 -36.540  1.00  0.00     0.004 C 
ENDBRANCH  16  17
ENDBRANCH  15  16
ENDBRANCH  14  15
ENDBRANCH  13  14
ENDBRANCH  12  13
ENDBRANCH  11  12
ENDBRANCH   1  11
TORSDOF 14
ENDMDL
MODEL 3
REMARK VINA RESULT:    -2.911      6.789      9.974
REMARK INTER + INTRA:          -7.826
REMARK INTER:                  -5.115
REMARK INTRA:                  -2.710
REMARK UNBOUND:                -2.532
REMARK SMILES CCCCCCCCCCCCCCCC(=O)[O-]
REMARK SMILES IDX 9 1 10 2 11 3 12 4 13 5 14 6 15 7 16 8 17 9 18 10 8 11 7 12
REMARK SMILES IDX 6 13 5 14 4 15 3 16 2 17 1 18
REMARK H PARENT
REMARK Flexibility Score: inf
ROOT
ATOM      1  C   UNL     1      32.012   0.289 -38.275  1.00  0.00     0.000 C 
ENDROOT
BRANCH   1   2
ATOM      2  C   UNL     1      32.131  -1.210 -38.600  1.00  0.00     0.000 C 
BRANCH   2   3
ATOM      3  C   UNL     1      33.069  -1.951 -37.634  1.00  0.00     0.000 C 
BRANCH   3   4
ATOM      4  C   UNL     1      33.465  -1.094 -36.422  1.00  0.00     0.000 C 
BRANCH   4   5
ATOM      5  C   UNL     1      32.726  -1.555 -35.158  1.00  0.00     0.000 C 
BRANCH   5   6
ATOM      6  C   UNL     1      32.704  -0.488 -34.048  1.00  0.00     0.006 C 
BRANCH   6   7
ATOM      7  C   UNL     1      33.339   0.852 -34.457  1.00  0.00     0.053 C 
BRANCH   7   8
ATOM      8  C   UNL     1      32.889   1.993 -33.595  1.00  0.00     0.041 C 
ATOM      9  O   UNL     1      33.641   2.987 -33.411  1.00  0.00    -0.550 OA
ATOM     10  O   UNL     1      31.624   1.975 -33.021  1.00  0.00    -0.550 OA
ENDBRANCH   7   8
ENDBRANCH   6   7
ENDBRANCH   5   6
ENDBRANCH   4   5
ENDBRANCH   3   4
ENDBRANCH   2   3
ENDBRANCH   1   2
BRANCH   1  11
ATOM     11  C   UNL     1      30.757   0.925 -38.890  1.00  0.00     0.000 C 
BRANCH  11  12
ATOM     12  C   UNL     1      29.700   1.290 -37.831  1.00  0.00    -0.000 C 
BRANCH  12  13
ATOM     13  C   UNL     1      30.230   1.141 -36.396  1.00  0.00    -0.000 C 
BRANCH  13  14
ATOM     14  C   UNL     1      29.424   0.121 -35.574  1.00  0.00    -0.000 C 
BRANCH  14  15
ATOM     15  C   UNL     1      28.631  -0.858 -36.455  1.00  0.00    -0.000 C 
BRANCH  15  16
ATOM     16  C   UNL     1      29.312  -2.232 -36.570  1.00  0.00    -0.000 C 
BRANCH  16  17
ATOM     17  C   UNL     1      28.630  -3.141 -37.605  1.00  0.00    -0.003 C 
ATOM     18  C   UNL     1      28.625  -2.540 -39.011  1.00  0.00     0.004 C 
ENDBRANCH  16  17
ENDBRANCH  15  16
ENDBRANCH  14  15
ENDBRANCH  13  14
ENDBRANCH  12  13
ENDBRANCH  11  12
ENDBRANCH   1  11
TORSDOF 14
ENDMDL
MODEL 4
REMARK VINA RESULT:    -2.877     10.460     13.036
REMARK INTER + INTRA:          -7.763
REMARK INTER:                  -5.151
REMARK INTRA:                  -2.612
REMARK UNBOUND:                -2.532
REMARK SMILES CCCCCCCCCCCCCCCC(=O)[O-]
REMARK SMILES IDX 9 1 10 2 11 3 12 4 13 5 14 6 15 7 16 8 17 9 18 10 8 11 7 12
REMARK SMILES IDX 6 13 5 14 4 15 3 16 2 17 1 18
REMARK H PARENT
REMARK Flexibility Score: inf
ROOT
ATOM      1  C   UNL     1      31.306  -3.183 -36.504  1.00  0.00     0.000 C 
ENDROOT
BRANCH   1   2
ATOM      2  C   UNL     1      29.904  -3.557 -35.992  1.00  0.00     0.000 C 
BRANCH   2   3
ATOM      3  C   UNL     1      28.988  -2.333 -35.834  1.00  0.00     0.000 C 
BRANCH   3   4
ATOM      4  C   UNL     1      27.633  -2.514 -36.534  1.00  0.00     0.000 C 
BRANCH   4   5
ATOM      5  C   UNL     1      27.502  -3.926 -37.123  1.00  0.00     0.000 C 
BRANCH   5   6
ATOM      6  C   UNL     1      26.429  -4.776 -36.421  1.00  0.00     0.006 C 
BRANCH   6   7
ATOM      7  C   UNL     1      25.742  -4.067 -35.240  1.00  0.00     0.053 C 
BRANCH   7   8
ATOM      8  C   UNL     1      26.069  -4.694 -33.918  1.00  0.00     0.041 C 
ATOM      9  O   UNL     1      27.257  -4.712 -33.499  1.00  0.00    -0.550 OA
ATOM     10  O   UNL     1      25.056  -5.229 -33.133  1.00  0.00    -0.550 OA
ENDBRANCH   7   8
ENDBRANCH   6   7
ENDBRANCH   5   6
ENDBRANCH   4   5
ENDBRANCH   3   4
ENDBRANCH   2   3
ENDBRANCH   1   2
BRANCH   1  11
ATOM     11  C   UNL     1      31.705  -3.977 -37.757  1.00  0.00     0.000 C 
BRANCH  11  12
ATOM     12  C   UNL     1      30.630  -3.923 -38.857  1.00  0.00    -0.000 C 
BRANCH  12  13
ATOM     13  C   UNL     1      30.719  -2.643 -39.704  1.00  0.00    -0.000 C 
BRANCH  13  14
ATOM     14  C   UNL     1      29.446  -1.784 -39.609  1.00  0.00    -0.000 C 
BRANCH  14  15
ATOM     15  C   UNL     1      29.718  -0.381 -39.042  1.00  0.00    -0.000 C 
BRANCH  15  16
ATOM     16  C   UNL     1      31.189  -0.183 -38.639  1.00  0.00    -0.000 C 
BRANCH  16  17
ATOM     17  C   UNL     1      31.337   0.439 -37.242  1.00  0.00    -0.003 C 
ATOM     18  C   UNL     1      30.070   1.155 -36.773  1.00  0.00     0.004 C 
ENDBRANCH  16  17
ENDBRANCH  15  16
ENDBRANCH  14  15
ENDBRANCH  13  14
ENDBRANCH  12  13
ENDBRANCH  11  12
ENDBRANCH   1  11
TORSDOF 14
ENDMDL
MODEL 5
REMARK VINA RESULT:    -2.860      5.305      8.155
REMARK INTER + INTRA:          -7.732
REMARK INTER:                  -6.282
REMARK INTRA:                  -1.450
REMARK UNBOUND:                -2.532
REMARK SMILES CCCCCCCCCCCCCCCC(=O)[O-]
REMARK SMILES IDX 9 1 10 2 11 3 12 4 13 5 14 6 15 7 16 8 17 9 18 10 8 11 7 12
REMARK SMILES IDX 6 13 5 14 4 15 3 16 2 17 1 18
REMARK H PARENT
REMARK Flexibility Score: inf
ROOT
ATOM      1  C   UNL     1      29.401   1.721 -36.105  1.00  0.00     0.000 C 
ENDROOT
BRANCH   1   2
ATOM      2  C   UNL     1      30.873   1.596 -35.672  1.00  0.00     0.000 C 
BRANCH   2   3
ATOM      3  C   UNL     1      31.126   2.170 -34.270  1.00  0.00     0.000 C 
BRANCH   3   4
ATOM      4  C   UNL     1      32.467   1.711 -33.676  1.00  0.00     0.000 C 
BRANCH   4   5
ATOM      5  C   UNL     1      32.906   2.635 -32.531  1.00  0.00     0.000 C 
BRANCH   5   6
ATOM      6  C   UNL     1      33.725   3.846 -33.012  1.00  0.00     0.006 C 
BRANCH   6   7
ATOM      7  C   UNL     1      34.253   4.736 -31.874  1.00  0.00     0.053 C 
BRANCH   7   8
ATOM      8  C   UNL     1      35.374   5.631 -32.310  1.00  0.00     0.041 C 
ATOM      9  O   UNL     1      35.980   6.346 -31.469  1.00  0.00    -0.550 OA
ATOM     10  O   UNL     1      35.772   5.650 -33.640  1.00  0.00    -0.550 OA
ENDBRANCH   7   8
ENDBRANCH   6   7
ENDBRANCH   5   6
ENDBRANCH   4   5
ENDBRANCH   3   4
ENDBRANCH   2   3
ENDBRANCH   1   2
BRANCH   1  11
ATOM     11  C   UNL     1      29.138   1.094 -37.482  1.00  0.00     0.000 C 
BRANCH  11  12
ATOM     12  C   UNL     1      30.424   0.934 -38.313  1.00  0.00    -0.000 C 
BRANCH  12  13
ATOM     13  C   UNL     1      30.534  -0.454 -38.967  1.00  0.00    -0.000 C 
BRANCH  13  14
ATOM     14  C   UNL     1      31.783  -1.225 -38.507  1.00  0.00    -0.000 C 
BRANCH  14  15
ATOM     15  C   UNL     1      32.929  -0.294 -38.078  1.00  0.00    -0.000 C 
BRANCH  15  16
ATOM     16  C   UNL     1      33.458  -0.619 -36.671  1.00  0.00    -0.000 C 
BRANCH  16  17
ATOM     17  C   UNL     1      32.509  -1.535 -35.883  1.00  0.00    -0.003 C 
ATOM     18  C   UNL     1      33.062  -1.926 -34.513  1.00  0.00     0.004 C 
ENDBRANCH  16  17
ENDBRANCH  15  16
ENDBRANCH  14  15
ENDBRANCH  13  14
ENDBRANCH  12  13
ENDBRANCH  11  12
ENDBRANCH   1  11
TORSDOF 14
ENDMDL
MODEL 6
REMARK VINA RESULT:    -2.847     13.174     15.251
REMARK INTER + INTRA:          -7.709
REMARK INTER:                  -5.453
REMARK INTRA:                  -2.256
REMARK UNBOUND:                -2.532
REMARK SMILES CCCCCCCCCCCCCCCC(=O)[O-]
REMARK SMILES IDX 9 1 10 2 11 3 12 4 13 5 14 6 15 7 16 8 17 9 18 10 8 11 7 12
REMARK SMILES IDX 6 13 5 14 4 15 3 16 2 17 1 18
REMARK H PARENT
REMARK Flexibility Score: inf
ROOT
ATOM      1  C   UNL     1      24.787  -4.479 -26.953  1.00  0.00     0.000 C 
ENDROOT
BRANCH   1   2
ATOM      2  C   UNL     1      24.122  -3.734 -28.123  1.00  0.00     0.000 C 
BRANCH   2   3
ATOM      3  C   UNL     1      24.754  -4.082 -29.480  1.00  0.00     0.000 C 
BRANCH   3   4
ATOM      4  C   UNL     1      23.796  -4.860 -30.395  1.00  0.00     0.000 C 
BRANCH   4   5
ATOM      5  C   UNL     1      24.488  -5.253 -31.708  1.00  0.00     0.000 C 
BRANCH   5   6
ATOM      6  C   UNL     1      23.791  -4.678 -32.954  1.00  0.00     0.006 C 
BRANCH   6   7
ATOM      7  C   UNL     1      24.546  -3.510 -33.611  1.00  0.00     0.053 C 
BRANCH   7   8
ATOM      8  C   UNL     1      23.731  -2.253 -33.673  1.00  0.00     0.041 C 
ATOM      9  O   UNL     1      23.760  -1.527 -34.701  1.00  0.00    -0.550 OA
ATOM     10  O   UNL     1      22.913  -1.902 -32.607  1.00  0.00    -0.550 OA
ENDBRANCH   7   8
ENDBRANCH   6   7
ENDBRANCH   5   6
ENDBRANCH   4   5
ENDBRANCH   3   4
ENDBRANCH   2   3
ENDBRANCH   1   2
BRANCH   1  11
ATOM     11  C   UNL     1      23.906  -5.607 -26.397  1.00  0.00     0.000 C 
BRANCH  11  12
ATOM     12  C   UNL     1      24.558  -6.994 -26.545  1.00  0.00    -0.000 C 
BRANCH  12  13
ATOM     13  C   UNL     1      24.148  -7.702 -27.846  1.00  0.00    -0.000 C 
BRANCH  13  14
ATOM     14  C   UNL     1      25.303  -7.788 -28.859  1.00  0.00    -0.000 C 
BRANCH  14  15
ATOM     15  C   UNL     1      26.683  -7.647 -28.198  1.00  0.00    -0.000 C 
BRANCH  15  16
ATOM     16  C   UNL     1      27.520  -6.513 -28.816  1.00  0.00    -0.000 C 
BRANCH  16  17
ATOM     17  C   UNL     1      28.177  -5.620 -27.752  1.00  0.00    -0.003 C 
ATOM     18  C   UNL     1      28.143  -6.239 -26.355  1.00  0.00     0.004 C 
ENDBRANCH  16  17
ENDBRANCH  15  16
ENDBRANCH  14  15
ENDBRANCH  13  14
ENDBRANCH  12  13
ENDBRANCH  11  12
ENDBRANCH   1  11
TORSDOF 14
ENDMDL
MODEL 7
REMARK VINA RESULT:    -2.841     10.580     12.854
REMARK INTER + INTRA:          -7.699
REMARK INTER:                  -5.313
REMARK INTRA:                  -2.386
REMARK UNBOUND:                -2.532
REMARK SMILES CCCCCCCCCCCCCCCC(=O)[O-]
REMARK SMILES IDX 9 1 10 2 11 3 12 4 13 5 14 6 15 7 16 8 17 9 18 10 8 11 7 12
REMARK SMILES IDX 6 13 5 14 4 15 3 16 2 17 1 18
REMARK H PARENT
REMARK Flexibility Score: inf
ROOT
ATOM      1  C   UNL     1      30.730   0.802 -38.459  1.00  0.00     0.000 C 
ENDROOT
BRANCH   1   2
ATOM      2  C   UNL     1      29.960  -0.285 -39.229  1.00  0.00     0.000 C 
BRANCH   2   3
ATOM      3  C   UNL     1      28.941  -1.023 -38.346  1.00  0.00     0.000 C 
BRANCH   3   4
ATOM      4  C   UNL     1      28.269  -2.196 -39.074  1.00  0.00     0.000 C 
BRANCH   4   5
ATOM      5  C   UNL     1      28.235  -3.448 -38.186  1.00  0.00     0.000 C 
BRANCH   5   6
ATOM      6  C   UNL     1      27.143  -3.392 -37.102  1.00  0.00     0.006 C 
BRANCH   6   7
ATOM      7  C   UNL     1      26.894  -4.734 -36.394  1.00  0.00     0.053 C 
BRANCH   7   8
ATOM      8  C   UNL     1      26.129  -4.582 -35.114  1.00  0.00     0.041 C 
ATOM      9  O   UNL     1      26.281  -5.413 -34.180  1.00  0.00    -0.550 OA
ATOM     10  O   UNL     1      25.272  -3.503 -34.941  1.00  0.00    -0.550 OA
ENDBRANCH   7   8
ENDBRANCH   6   7
ENDBRANCH   5   6
ENDBRANCH   4   5
ENDBRANCH   3   4
ENDBRANCH   2   3
ENDBRANCH   1   2
BRANCH   1  11
ATOM     11  C   UNL     1      31.841   0.219 -37.572  1.00  0.00     0.000 C 
BRANCH  11  12
ATOM     12  C   UNL     1      32.822  -0.668 -38.361  1.00  0.00    -0.000 C 
BRANCH  12  13
ATOM     13  C   UNL     1      33.095  -2.010 -37.663  1.00  0.00    -0.000 C 
BRANCH  13  14
ATOM     14  C   UNL     1      32.010  -3.060 -37.960  1.00  0.00    -0.000 C 
BRANCH  14  15
ATOM     15  C   UNL     1      31.552  -3.812 -36.700  1.00  0.00    -0.000 C 
BRANCH  15  16
ATOM     16  C   UNL     1      31.493  -2.904 -35.459  1.00  0.00    -0.000 C 
BRANCH  16  17
ATOM     17  C   UNL     1      30.052  -2.576 -35.038  1.00  0.00    -0.003 C 
ATOM     18  C   UNL     1      29.845  -1.091 -34.740  1.00  0.00     0.004 C 
ENDBRANCH  16  17
ENDBRANCH  15  16
ENDBRANCH  14  15
ENDBRANCH  13  14
ENDBRANCH  12  13
ENDBRANCH  11  12
ENDBRANCH   1  11
TORSDOF 14
ENDMDL
MODEL 8
REMARK VINA RESULT:    -2.826     11.022     12.832
REMARK INTER + INTRA:          -7.671
REMARK INTER:                  -5.469
REMARK INTRA:                  -2.201
REMARK UNBOUND:                -2.532
REMARK SMILES CCCCCCCCCCCCCCCC(=O)[O-]
REMARK SMILES IDX 9 1 10 2 11 3 12 4 13 5 14 6 15 7 16 8 17 9 18 10 8 11 7 12
REMARK SMILES IDX 6 13 5 14 4 15 3 16 2 17 1 18
REMARK H PARENT
REMARK Flexibility Score: inf
ROOT
ATOM      1  C   UNL     1      29.542  -0.671 -37.464  1.00  0.00     0.000 C 
ENDROOT
BRANCH   1   2
ATOM      2  C   UNL     1      29.562  -1.187 -38.914  1.00  0.00     0.000 C 
BRANCH   2   3
ATOM      3  C   UNL     1      28.847  -2.539 -39.069  1.00  0.00     0.000 C 
BRANCH   3   4
ATOM      4  C   UNL     1      27.888  -2.837 -37.906  1.00  0.00     0.000 C 
BRANCH   4   5
ATOM      5  C   UNL     1      28.081  -4.269 -37.388  1.00  0.00     0.000 C 
BRANCH   5   6
ATOM      6  C   UNL     1      26.821  -4.843 -36.715  1.00  0.00     0.006 C 
BRANCH   6   7
ATOM      7  C   UNL     1      25.993  -3.800 -35.945  1.00  0.00     0.053 C 
BRANCH   7   8
ATOM      8  C   UNL     1      25.677  -4.229 -34.544  1.00  0.00     0.041 C 
ATOM      9  O   UNL     1      24.647  -3.795 -33.963  1.00  0.00    -0.550 OA
ATOM     10  O   UNL     1      26.502  -5.136 -33.891  1.00  0.00    -0.550 OA
ENDBRANCH   7   8
ENDBRANCH   6   7
ENDBRANCH   5   6
ENDBRANCH   4   5
ENDBRANCH   3   4
ENDBRANCH   2   3
ENDBRANCH   1   2
BRANCH   1  11
ATOM     11  C   UNL     1      30.918  -0.172 -36.999  1.00  0.00     0.000 C 
BRANCH  11  12
ATOM     12  C   UNL     1      31.824   0.241 -38.173  1.00  0.00    -0.000 C 
BRANCH  12  13
ATOM     13  C   UNL     1      33.106  -0.605 -38.253  1.00  0.00    -0.000 C 
BRANCH  13  14
ATOM     14  C   UNL     1      33.126  -1.743 -37.217  1.00  0.00    -0.000 C 
BRANCH  14  15
ATOM     15  C   UNL     1      32.875  -3.122 -37.847  1.00  0.00    -0.000 C 
BRANCH  15  16
ATOM     16  C   UNL     1      31.714  -3.875 -37.176  1.00  0.00    -0.000 C 
BRANCH  16  17
ATOM     17  C   UNL     1      31.808  -3.855 -35.643  1.00  0.00    -0.003 C 
ATOM     18  C   UNL     1      30.513  -3.391 -34.974  1.00  0.00     0.004 C 
ENDBRANCH  16  17
ENDBRANCH  15  16
ENDBRANCH  14  15
ENDBRANCH  13  14
ENDBRANCH  12  13
ENDBRANCH  11  12
ENDBRANCH   1  11
TORSDOF 14
ENDMDL
MODEL 9
REMARK VINA RESULT:    -2.825     11.121     13.412
REMARK INTER + INTRA:          -7.670
REMARK INTER:                  -4.969
REMARK INTRA:                  -2.701
REMARK UNBOUND:                -2.532
REMARK SMILES CCCCCCCCCCCCCCCC(=O)[O-]
REMARK SMILES IDX 9 1 10 2 11 3 12 4 13 5 14 6 15 7 16 8 17 9 18 10 8 11 7 12
REMARK SMILES IDX 6 13 5 14 4 15 3 16 2 17 1 18
REMARK H PARENT
REMARK Flexibility Score: inf
ROOT
ATOM      1  C   UNL     1      29.050  -2.905 -39.883  1.00  0.00     0.000 C 
ENDROOT
BRANCH   1   2
ATOM      2  C   UNL     1      29.924  -1.723 -39.427  1.00  0.00     0.000 C 
BRANCH   2   3
ATOM      3  C   UNL     1      29.188  -0.786 -38.456  1.00  0.00     0.000 C 
BRANCH   3   4
ATOM      4  C   UNL     1      28.293  -1.546 -37.465  1.00  0.00     0.000 C 
BRANCH   4   5
ATOM      5  C   UNL     1      29.104  -2.037 -36.257  1.00  0.00     0.000 C 
BRANCH   5   6
ATOM      6  C   UNL     1      28.691  -3.442 -35.783  1.00  0.00     0.006 C 
BRANCH   6   7
ATOM      7  C   UNL     1      27.702  -4.153 -36.723  1.00  0.00     0.053 C 
BRANCH   7   8
ATOM      8  C   UNL     1      26.376  -4.420 -36.075  1.00  0.00     0.041 C 
ATOM      9  O   UNL     1      25.332  -3.869 -36.514  1.00  0.00    -0.550 OA
ATOM     10  O   UNL     1      26.289  -5.303 -35.007  1.00  0.00    -0.550 OA
ENDBRANCH   7   8
ENDBRANCH   6   7
ENDBRANCH   5   6
ENDBRANCH   4   5
ENDBRANCH   3   4
ENDBRANCH   2   3
ENDBRANCH   1   2
BRANCH   1  11
ATOM     11  C   UNL     1      29.863  -4.193 -40.086  1.00  0.00     0.000 C 
BRANCH  11  12
ATOM     12  C   UNL     1      31.185  -4.187 -39.296  1.00  0.00    -0.000 C 
BRANCH  12  13
ATOM     13  C   UNL     1      31.085  -4.968 -37.976  1.00  0.00    -0.000 C 
BRANCH  13  14
ATOM     14  C   UNL     1      32.109  -4.493 -36.931  1.00  0.00    -0.000 C 
BRANCH  14  15
ATOM     15  C   UNL     1      33.004  -3.357 -37.452  1.00  0.00    -0.000 C 
BRANCH  15  16
ATOM     16  C   UNL     1      33.212  -2.244 -36.410  1.00  0.00    -0.000 C 
BRANCH  16  17
ATOM     17  C   UNL     1      32.570  -0.914 -36.835  1.00  0.00    -0.003 C 
ATOM     18  C   UNL     1      33.081  -0.414 -38.187  1.00  0.00     0.004 C 
ENDBRANCH  16  17
ENDBRANCH  15  16
ENDBRANCH  14  15
ENDBRANCH  13  14
ENDBRANCH  12  13
ENDBRANCH  11  12
ENDBRANCH   1  11
TORSDOF 14
ENDMDL
