MODEL 1
REMARK VINA RESULT:    -4.795      0.000      0.000
REMARK INTER + INTRA:          -6.974
REMARK INTER:                  -6.617
REMARK INTRA:                  -0.358
REMARK UNBOUND:                -0.358
REMARK SMILES CCCCCCCCO
REMARK SMILES IDX 5 1 4 2 3 3 2 4 1 5 6 6 7 7 8 8 9 9
REMARK H PARENT 9 10
REMARK Flexibility Score: inf
ROOT
ATOM      1  C   UNL     1      34.335 -16.960 -28.315  1.00  0.00     0.000 C 
ENDROOT
BRANCH   1   2
ATOM      2  C   UNL     1      33.723 -18.370 -28.291  1.00  0.00    -0.000 C 
BRANCH   2   3
ATOM      3  C   UNL     1      32.214 -18.367 -28.598  1.00  0.00    -0.000 C 
BRANCH   3   4
ATOM      4  C   UNL     1      31.811 -19.482 -29.576  1.00  0.00    -0.003 C 
ATOM      5  C   UNL     1      32.911 -19.805 -30.587  1.00  0.00     0.004 C 
ENDBRANCH   3   4
ENDBRANCH   2   3
ENDBRANCH   1   2
BRANCH   1   6
ATOM      6  C   UNL     1      35.673 -16.910 -29.072  1.00  0.00     0.002 C 
BRANCH   6   7
ATOM      7  C   UNL     1      36.167 -18.305 -29.489  1.00  0.00     0.028 C 
BRANCH   7   8
ATOM      8  C   UNL     1      37.405 -18.253 -30.392  1.00  0.00     0.156 C 
BRANCH   8   9
ATOM      9  O   UNL     1      38.164 -19.421 -30.238  1.00  0.00    -0.396 OA
ATOM     10  H   UNL     1      39.078 -19.212 -30.567  1.00  0.00     0.210 HD
ENDBRANCH   8   9
ENDBRANCH   7   8
ENDBRANCH   6   7
ENDBRANCH   1   6
TORSDOF 7
ENDMDL
MODEL 2
REMARK VINA RESULT:    -4.253      1.881      4.215
REMARK INTER + INTRA:          -6.226
REMARK INTER:                  -6.029
REMARK INTRA:                  -0.198
REMARK UNBOUND:                -0.358
REMARK SMILES CCCCCCCCO
REMARK SMILES IDX 5 1 4 2 3 3 2 4 1 5 6 6 7 7 8 8 9 9
REMARK H PARENT 9 10
REMARK Flexibility Score: inf
ROOT
ATOM      1  C   UNL     1      33.914 -17.757 -28.253  1.00  0.00     0.000 C 
ENDROOT
BRANCH   1   2
ATOM      2  C   UNL     1      35.214 -18.411 -28.750  1.00  0.00    -0.000 C 
BRANCH   2   3
ATOM      3  C   UNL     1      36.220 -17.385 -29.303  1.00  0.00    -0.000 C 
BRANCH   3   4
ATOM      4  C   UNL     1      37.243 -18.021 -30.258  1.00  0.00    -0.003 C 
ATOM      5  C   UNL     1      36.768 -18.029 -31.710  1.00  0.00     0.004 C 
ENDBRANCH   3   4
ENDBRANCH   2   3
ENDBRANCH   1   2
BRANCH   1   6
ATOM      6  C   UNL     1      32.743 -18.752 -28.180  1.00  0.00     0.002 C 
BRANCH   6   7
ATOM      7  C   UNL     1      31.901 -18.764 -29.466  1.00  0.00     0.028 C 
BRANCH   7   8
ATOM      8  C   UNL     1      32.094 -20.041 -30.293  1.00  0.00     0.156 C 
BRANCH   8   9
ATOM      9  O   UNL     1      33.248 -19.935 -31.081  1.00  0.00    -0.396 OA
ATOM     10  H   UNL     1      33.244 -20.713 -31.698  1.00  0.00     0.210 HD
ENDBRANCH   8   9
ENDBRANCH   7   8
ENDBRANCH   6   7
ENDBRANCH   1   6
TORSDOF 7
ENDMDL
MODEL 3
REMARK VINA RESULT:    -3.847      1.069      2.118
REMARK INTER + INTRA:          -5.667
REMARK INTER:                  -5.406
REMARK INTRA:                  -0.261
REMARK UNBOUND:                -0.358
REMARK SMILES CCCCCCCCO
REMARK SMILES IDX 5 1 4 2 3 3 2 4 1 5 6 6 7 7 8 8 9 9
REMARK H PARENT 9 10
REMARK Flexibility Score: inf
ROOT
ATOM      1  C   UNL     1      34.438 -19.199 -30.817  1.00  0.00     0.000 C 
ENDROOT
BRANCH   1   2
ATOM      2  C   UNL     1      33.226 -20.128 -30.644  1.00  0.00    -0.000 C 
BRANCH   2   3
ATOM      3  C   UNL     1      31.979 -19.385 -30.130  1.00  0.00    -0.000 C 
BRANCH   3   4
ATOM      4  C   UNL     1      31.922 -19.324 -28.595  1.00  0.00    -0.003 C 
ATOM      5  C   UNL     1      32.291 -17.946 -28.047  1.00  0.00     0.004 C 
ENDBRANCH   3   4
ENDBRANCH   2   3
ENDBRANCH   1   2
BRANCH   1   6
ATOM      6  C   UNL     1      35.306 -19.119 -29.549  1.00  0.00     0.002 C 
BRANCH   6   7
ATOM      7  C   UNL     1      36.233 -17.893 -29.546  1.00  0.00     0.028 C 
BRANCH   7   8
ATOM      8  C   UNL     1      37.472 -18.081 -30.430  1.00  0.00     0.156 C 
BRANCH   8   9
ATOM      9  O   UNL     1      38.020 -19.354 -30.230  1.00  0.00    -0.396 OA
ATOM     10  H   UNL     1      37.387 -20.004 -30.634  1.00  0.00     0.210 HD
ENDBRANCH   8   9
ENDBRANCH   7   8
ENDBRANCH   6   7
ENDBRANCH   1   6
TORSDOF 7
ENDMDL
MODEL 4
REMARK VINA RESULT:    -3.418      2.439      4.700
REMARK INTER + INTRA:          -5.075
REMARK INTER:                  -4.801
REMARK INTRA:                  -0.274
REMARK UNBOUND:                -0.358
REMARK SMILES CCCCCCCCO
REMARK SMILES IDX 5 1 4 2 3 3 2 4 1 5 6 6 7 7 8 8 9 9
REMARK H PARENT 9 10
REMARK Flexibility Score: inf
ROOT
ATOM      1  C   UNL     1      33.909 -19.324 -30.842  1.00  0.00     0.000 C 
ENDROOT
BRANCH   1   2
ATOM      2  C   UNL     1      35.066 -19.534 -29.852  1.00  0.00    -0.000 C 
BRANCH   2   3
ATOM      3  C   UNL     1      35.484 -18.232 -29.144  1.00  0.00    -0.000 C 
BRANCH   3   4
ATOM      4  C   UNL     1      36.602 -17.489 -29.893  1.00  0.00    -0.003 C 
ATOM      5  C   UNL     1      37.632 -18.438 -30.505  1.00  0.00     0.004 C 
ENDBRANCH   3   4
ENDBRANCH   2   3
ENDBRANCH   1   2
BRANCH   1   6
ATOM      6  C   UNL     1      32.593 -19.956 -30.356  1.00  0.00     0.002 C 
BRANCH   6   7
ATOM      7  C   UNL     1      31.677 -18.942 -29.652  1.00  0.00     0.028 C 
BRANCH   7   8
ATOM      8  C   UNL     1      32.001 -18.781 -28.162  1.00  0.00     0.156 C 
BRANCH   8   9
ATOM      9  O   UNL     1      32.336 -17.449 -27.882  1.00  0.00    -0.396 OA
ATOM     10  H   UNL     1      31.619 -16.886 -28.276  1.00  0.00     0.210 HD
ENDBRANCH   8   9
ENDBRANCH   7   8
ENDBRANCH   6   7
ENDBRANCH   1   6
TORSDOF 7
ENDMDL
MODEL 5
REMARK VINA RESULT:    -3.267      2.220      3.102
REMARK INTER + INTRA:          -4.866
REMARK INTER:                  -4.504
REMARK INTRA:                  -0.362
REMARK UNBOUND:                -0.358
REMARK SMILES CCCCCCCCO
REMARK SMILES IDX 5 1 4 2 3 3 2 4 1 5 6 6 7 7 8 8 9 9
REMARK H PARENT 9 10
REMARK Flexibility Score: inf
ROOT
ATOM      1  C   UNL     1      34.852 -19.260 -29.480  1.00  0.00     0.000 C 
ENDROOT
BRANCH   1   2
ATOM      2  C   UNL     1      34.314 -19.672 -30.860  1.00  0.00    -0.000 C 
BRANCH   2   3
ATOM      3  C   UNL     1      32.790 -19.891 -30.861  1.00  0.00    -0.000 C 
BRANCH   3   4
ATOM      4  C   UNL     1      32.132 -19.446 -29.546  1.00  0.00    -0.003 C 
ATOM      5  C   UNL     1      31.084 -18.353 -29.752  1.00  0.00     0.004 C 
ENDBRANCH   3   4
ENDBRANCH   2   3
ENDBRANCH   1   2
BRANCH   1   6
ATOM      6  C   UNL     1      36.038 -18.285 -29.576  1.00  0.00     0.002 C 
BRANCH   6   7
ATOM      7  C   UNL     1      35.670 -16.864 -29.120  1.00  0.00     0.028 C 
BRANCH   7   8
ATOM      8  C   UNL     1      34.344 -16.809 -28.350  1.00  0.00     0.156 C 
BRANCH   8   9
ATOM      9  O   UNL     1      34.242 -15.601 -27.649  1.00  0.00    -0.396 OA
ATOM     10  H   UNL     1      33.566 -15.051 -28.125  1.00  0.00     0.210 HD
ENDBRANCH   8   9
ENDBRANCH   7   8
ENDBRANCH   6   7
ENDBRANCH   1   6
TORSDOF 7
ENDMDL
MODEL 6
REMARK VINA RESULT:    -3.218      1.707      2.239
REMARK INTER + INTRA:          -4.799
REMARK INTER:                  -4.632
REMARK INTRA:                  -0.166
REMARK UNBOUND:                -0.358
REMARK SMILES CCCCCCCCO
REMARK SMILES IDX 5 1 4 2 3 3 2 4 1 5 6 6 7 7 8 8 9 9
REMARK H PARENT 9 10
REMARK Flexibility Score: inf
ROOT
ATOM      1  C   UNL     1      32.604 -17.847 -28.340  1.00  0.00     0.000 C 
ENDROOT
BRANCH   1   2
ATOM      2  C   UNL     1      31.873 -19.190 -28.499  1.00  0.00    -0.000 C 
BRANCH   2   3
ATOM      3  C   UNL     1      31.533 -19.509 -29.966  1.00  0.00    -0.000 C 
BRANCH   3   4
ATOM      4  C   UNL     1      32.637 -20.320 -30.663  1.00  0.00    -0.003 C 
ATOM      5  C   UNL     1      33.436 -19.488 -31.666  1.00  0.00     0.004 C 
ENDBRANCH   3   4
ENDBRANCH   2   3
ENDBRANCH   1   2
BRANCH   1   6
ATOM      6  C   UNL     1      34.029 -18.012 -27.784  1.00  0.00     0.002 C 
BRANCH   6   7
ATOM      7  C   UNL     1      34.999 -18.607 -28.817  1.00  0.00     0.028 C 
BRANCH   7   8
ATOM      8  C   UNL     1      35.933 -17.557 -29.431  1.00  0.00     0.156 C 
BRANCH   8   9
ATOM      9  O   UNL     1      35.490 -16.268 -29.106  1.00  0.00    -0.396 OA
ATOM     10  H   UNL     1      34.660 -16.378 -28.572  1.00  0.00     0.210 HD
ENDBRANCH   8   9
ENDBRANCH   7   8
ENDBRANCH   6   7
ENDBRANCH   1   6
TORSDOF 7
ENDMDL
MODEL 7
REMARK VINA RESULT:    -3.038      1.113      2.168
REMARK INTER + INTRA:          -4.551
REMARK INTER:                  -4.350
REMARK INTRA:                  -0.201
REMARK UNBOUND:                -0.358
REMARK SMILES CCCCCCCCO
REMARK SMILES IDX 5 1 4 2 3 3 2 4 1 5 6 6 7 7 8 8 9 9
REMARK H PARENT 9 10
REMARK Flexibility Score: inf
ROOT
ATOM      1  C   UNL     1      35.637 -18.270 -29.663  1.00  0.00     0.000 C 
ENDROOT
BRANCH   1   2
ATOM      2  C   UNL     1      35.223 -16.944 -29.004  1.00  0.00    -0.000 C 
BRANCH   2   3
ATOM      3  C   UNL     1      33.999 -17.097 -28.083  1.00  0.00    -0.000 C 
BRANCH   3   4
ATOM      4  C   UNL     1      33.373 -18.498 -28.165  1.00  0.00    -0.003 C 
ATOM      5  C   UNL     1      32.020 -18.498 -28.875  1.00  0.00     0.004 C 
ENDBRANCH   3   4
ENDBRANCH   2   3
ENDBRANCH   1   2
BRANCH   1   6
ATOM      6  C   UNL     1      36.617 -18.068 -30.832  1.00  0.00     0.002 C 
BRANCH   6   7
ATOM      7  C   UNL     1      38.026 -18.593 -30.515  1.00  0.00     0.028 C 
BRANCH   7   8
ATOM      8  C   UNL     1      38.032 -20.066 -30.089  1.00  0.00     0.156 C 
BRANCH   8   9
ATOM      9  O   UNL     1      39.342 -20.562 -30.085  1.00  0.00    -0.396 OA
ATOM     10  H   UNL     1      39.388 -21.240 -29.361  1.00  0.00     0.210 HD
ENDBRANCH   8   9
ENDBRANCH   7   8
ENDBRANCH   6   7
ENDBRANCH   1   6
TORSDOF 7
ENDMDL
MODEL 8
REMARK VINA RESULT:    -2.291      2.341      4.224
REMARK INTER + INTRA:          -3.519
REMARK INTER:                  -3.095
REMARK INTRA:                  -0.424
REMARK UNBOUND:                -0.358
REMARK SMILES CCCCCCCCO
REMARK SMILES IDX 5 1 4 2 3 3 2 4 1 5 6 6 7 7 8 8 9 9
REMARK H PARENT 9 10
REMARK Flexibility Score: inf
ROOT
ATOM      1  C   UNL     1      35.028 -18.861 -28.719  1.00  0.00     0.000 C 
ENDROOT
BRANCH   1   2
ATOM      2  C   UNL     1      35.037 -19.079 -30.240  1.00  0.00    -0.000 C 
BRANCH   2   3
ATOM      3  C   UNL     1      36.011 -18.134 -30.968  1.00  0.00    -0.000 C 
BRANCH   3   4
ATOM      4  C   UNL     1      37.344 -17.973 -30.220  1.00  0.00    -0.003 C 
ATOM      5  C   UNL     1      38.259 -19.187 -30.378  1.00  0.00     0.004 C 
ENDBRANCH   3   4
ENDBRANCH   2   3
ENDBRANCH   1   2
BRANCH   1   6
ATOM      6  C   UNL     1      33.623 -18.549 -28.176  1.00  0.00     0.002 C 
BRANCH   6   7
ATOM      7  C   UNL     1      33.264 -17.058 -28.292  1.00  0.00     0.028 C 
BRANCH   7   8
ATOM      8  C   UNL     1      34.433 -16.134 -27.928  1.00  0.00     0.156 C 
BRANCH   8   9
ATOM      9  O   UNL     1      34.794 -15.354 -29.034  1.00  0.00    -0.396 OA
ATOM     10  H   UNL     1      35.670 -15.698 -29.352  1.00  0.00     0.210 HD
ENDBRANCH   8   9
ENDBRANCH   7   8
ENDBRANCH   6   7
ENDBRANCH   1   6
TORSDOF 7
ENDMDL
