MODEL 1
REMARK VINA RESULT:    -5.367      0.000      0.000
REMARK INTER + INTRA:          -7.317
REMARK INTER:                  -6.779
REMARK INTRA:                  -0.538
REMARK UNBOUND:                -0.538
REMARK SMILES Oc1ccc(CCc2cc(O)cc(O)c2)cc1
REMARK SMILES IDX 6 1 5 2 4 3 3 4 2 5 16 6 17 7 1 8 7 10 8 11 15 12 9 13 13 14
REMARK SMILES IDX 10 15 12 16 14 17 11 19
REMARK H PARENT 1 9 14 18 11 20
REMARK Flexibility Score: inf
ROOT
ATOM      1  C   UNL     1     -10.141  82.302  -9.370  1.00  0.00     0.040 C 
ENDROOT
BRANCH   1   2
ATOM      2  C   UNL     1     -11.323  82.370 -10.299  1.00  0.00    -0.047 A 
ATOM      3  C   UNL     1     -11.272  81.748 -11.557  1.00  0.00     0.007 A 
ATOM      4  C   UNL     1     -12.358  81.838 -12.433  1.00  0.00     0.046 A 
ATOM      5  C   UNL     1     -13.500  82.561 -12.065  1.00  0.00     0.115 A 
ATOM      6  C   UNL     1     -12.465  83.106  -9.941  1.00  0.00     0.007 A 
ATOM      7  C   UNL     1     -13.549  83.195 -10.819  1.00  0.00     0.046 A 
BRANCH   5   8
ATOM      8  O   UNL     1     -14.588  82.660 -12.930  1.00  0.00    -0.508 OA
ATOM      9  H   UNL     1     -14.833  81.904 -13.560  1.00  0.00     0.293 HD
ENDBRANCH   5   8
ENDBRANCH   1   2
BRANCH   1  10
ATOM     10  C   UNL     1      -9.878  83.670  -8.733  1.00  0.00     0.040 C 
BRANCH  10  11
ATOM     11  C   UNL     1      -8.515  84.181  -9.121  1.00  0.00    -0.040 A 
ATOM     12  C   UNL     1      -8.251  85.559  -9.130  1.00  0.00     0.050 A 
ATOM     13  C   UNL     1      -7.516  83.284  -9.532  1.00  0.00     0.050 A 
ATOM     14  C   UNL     1      -6.993  86.036  -9.523  1.00  0.00     0.119 A 
ATOM     15  C   UNL     1      -6.259  83.758  -9.924  1.00  0.00     0.119 A 
ATOM     16  C   UNL     1      -5.999  85.135  -9.916  1.00  0.00     0.092 A 
BRANCH  14  17
ATOM     17  O   UNL     1      -6.723  87.403  -9.528  1.00  0.00    -0.508 OA
ATOM     18  H   UNL     1      -7.372  88.070  -9.929  1.00  0.00     0.293 HD
ENDBRANCH  14  17
BRANCH  15  19
ATOM     19  O   UNL     1      -5.277  82.854 -10.321  1.00  0.00    -0.508 OA
ATOM     20  H   UNL     1      -5.448  82.172 -11.052  1.00  0.00     0.293 HD
ENDBRANCH  15  19
ENDBRANCH  10  11
ENDBRANCH   1  10
TORSDOF 6
ENDMDL
MODEL 2
REMARK VINA RESULT:    -5.300      0.085      2.350
REMARK INTER + INTRA:          -7.233
REMARK INTER:                  -6.690
REMARK INTRA:                  -0.543
REMARK UNBOUND:                -0.538
REMARK SMILES Oc1ccc(CCc2cc(O)cc(O)c2)cc1
REMARK SMILES IDX 6 1 5 2 4 3 3 4 2 5 16 6 17 7 1 8 7 10 8 11 15 12 9 13 13 14
REMARK SMILES IDX 10 15 12 16 14 17 11 19
REMARK H PARENT 1 9 14 18 11 20
REMARK Flexibility Score: inf
ROOT
ATOM      1  C   UNL     1     -10.179  82.331  -9.275  1.00  0.00     0.040 C 
ENDROOT
BRANCH   1   2
ATOM      2  C   UNL     1     -11.329  82.442 -10.240  1.00  0.00    -0.047 A 
ATOM      3  C   UNL     1     -12.463  83.199  -9.907  1.00  0.00     0.007 A 
ATOM      4  C   UNL     1     -13.545  83.276 -10.790  1.00  0.00     0.046 A 
ATOM      5  C   UNL     1     -13.507  82.586 -12.009  1.00  0.00     0.115 A 
ATOM      6  C   UNL     1     -11.303  81.741 -11.458  1.00  0.00     0.007 A 
ATOM      7  C   UNL     1     -12.385  81.819 -12.339  1.00  0.00     0.046 A 
BRANCH   5   8
ATOM      8  O   UNL     1     -14.579  82.654 -12.897  1.00  0.00    -0.508 OA
ATOM      9  H   UNL     1     -15.394  82.062 -12.788  1.00  0.00     0.293 HD
ENDBRANCH   5   8
ENDBRANCH   1   2
BRANCH   1  10
ATOM     10  C   UNL     1      -9.868  83.694  -8.650  1.00  0.00     0.040 C 
BRANCH  10  11
ATOM     11  C   UNL     1      -8.520  84.188  -9.102  1.00  0.00    -0.040 A 
ATOM     12  C   UNL     1      -7.539  83.280  -9.530  1.00  0.00     0.050 A 
ATOM     13  C   UNL     1      -8.213  85.557  -9.043  1.00  0.00     0.050 A 
ATOM     14  C   UNL     1      -6.272  83.737  -9.919  1.00  0.00     0.119 A 
ATOM     15  C   UNL     1      -6.950  86.016  -9.432  1.00  0.00     0.119 A 
ATOM     16  C   UNL     1      -5.981  85.103  -9.872  1.00  0.00     0.092 A 
BRANCH  14  17
ATOM     17  O   UNL     1      -5.297  82.841 -10.350  1.00  0.00    -0.508 OA
ATOM     18  H   UNL     1      -5.537  81.911 -10.673  1.00  0.00     0.293 HD
ENDBRANCH  14  17
BRANCH  15  19
ATOM     19  O   UNL     1      -6.666  87.378  -9.375  1.00  0.00    -0.508 OA
ATOM     20  H   UNL     1      -6.597  87.942 -10.214  1.00  0.00     0.293 HD
ENDBRANCH  15  19
ENDBRANCH  10  11
ENDBRANCH   1  10
TORSDOF 6
ENDMDL
MODEL 3
REMARK VINA RESULT:    -5.214      1.421      6.423
REMARK INTER + INTRA:          -7.123
REMARK INTER:                  -6.453
REMARK INTRA:                  -0.670
REMARK UNBOUND:                -0.538
REMARK SMILES Oc1ccc(CCc2cc(O)cc(O)c2)cc1
REMARK SMILES IDX 6 1 5 2 4 3 3 4 2 5 16 6 17 7 1 8 7 10 8 11 15 12 9 13 13 14
REMARK SMILES IDX 10 15 12 16 14 17 11 19
REMARK H PARENT 1 9 14 18 11 20
REMARK Flexibility Score: inf
ROOT
ATOM      1  C   UNL     1     -10.024  84.738  -8.216  1.00  0.00     0.040 C 
ENDROOT
BRANCH   1   2
ATOM      2  C   UNL     1      -8.689  84.851  -8.900  1.00  0.00    -0.047 A 
ATOM      3  C   UNL     1      -7.780  83.781  -8.860  1.00  0.00     0.007 A 
ATOM      4  C   UNL     1      -6.525  83.898  -9.468  1.00  0.00     0.046 A 
ATOM      5  C   UNL     1      -6.164  85.090 -10.111  1.00  0.00     0.115 A 
ATOM      6  C   UNL     1      -8.315  86.048  -9.533  1.00  0.00     0.007 A 
ATOM      7  C   UNL     1      -7.061  86.163 -10.140  1.00  0.00     0.046 A 
BRANCH   5   8
ATOM      8  O   UNL     1      -4.917  85.219 -10.719  1.00  0.00    -0.508 OA
ATOM      9  H   UNL     1      -4.148  84.601 -10.485  1.00  0.00     0.293 HD
ENDBRANCH   5   8
ENDBRANCH   1   2
BRANCH   1  10
ATOM     10  C   UNL     1     -10.489  83.279  -8.180  1.00  0.00     0.040 C 
BRANCH  10  11
ATOM     11  C   UNL     1     -11.310  82.955  -9.400  1.00  0.00    -0.040 A 
ATOM     12  C   UNL     1     -10.771  82.163 -10.426  1.00  0.00     0.050 A 
ATOM     13  C   UNL     1     -12.600  83.490  -9.547  1.00  0.00     0.050 A 
ATOM     14  C   UNL     1     -11.523  81.889 -11.578  1.00  0.00     0.119 A 
ATOM     15  C   UNL     1     -13.352  83.217 -10.694  1.00  0.00     0.119 A 
ATOM     16  C   UNL     1     -12.812  82.414 -11.708  1.00  0.00     0.092 A 
BRANCH  14  17
ATOM     17  O   UNL     1     -10.996  81.099 -12.597  1.00  0.00    -0.508 OA
ATOM     18  H   UNL     1     -10.849  81.467 -13.530  1.00  0.00     0.293 HD
ENDBRANCH  14  17
BRANCH  15  19
ATOM     19  O   UNL     1     -14.633  83.750 -10.819  1.00  0.00    -0.508 OA
ATOM     20  H   UNL     1     -14.813  84.572 -11.385  1.00  0.00     0.293 HD
ENDBRANCH  15  19
ENDBRANCH  10  11
ENDBRANCH   1  10
TORSDOF 6
ENDMDL
MODEL 4
REMARK VINA RESULT:    -5.189      1.411      6.143
REMARK INTER + INTRA:          -7.092
REMARK INTER:                  -6.406
REMARK INTRA:                  -0.685
REMARK UNBOUND:                -0.538
REMARK SMILES Oc1ccc(CCc2cc(O)cc(O)c2)cc1
REMARK SMILES IDX 6 1 5 2 4 3 3 4 2 5 16 6 17 7 1 8 7 10 8 11 15 12 9 13 13 14
REMARK SMILES IDX 10 15 12 16 14 17 11 19
REMARK H PARENT 1 9 14 18 11 20
REMARK Flexibility Score: inf
ROOT
ATOM      1  C   UNL     1      -9.998  84.678  -8.115  1.00  0.00     0.040 C 
ENDROOT
BRANCH   1   2
ATOM      2  C   UNL     1      -8.678  84.776  -8.831  1.00  0.00    -0.047 A 
ATOM      3  C   UNL     1      -7.758  83.717  -8.768  1.00  0.00     0.007 A 
ATOM      4  C   UNL     1      -6.518  83.821  -9.408  1.00  0.00     0.046 A 
ATOM      5  C   UNL     1      -6.183  84.989 -10.106  1.00  0.00     0.115 A 
ATOM      6  C   UNL     1      -8.331  85.949  -9.521  1.00  0.00     0.007 A 
ATOM      7  C   UNL     1      -7.091  86.051 -10.159  1.00  0.00     0.046 A 
BRANCH   5   8
ATOM      8  O   UNL     1      -4.951  85.105 -10.746  1.00  0.00    -0.508 OA
ATOM      9  H   UNL     1      -4.371  85.928 -10.632  1.00  0.00     0.293 HD
ENDBRANCH   5   8
ENDBRANCH   1   2
BRANCH   1  10
ATOM     10  C   UNL     1     -10.520  83.239  -8.142  1.00  0.00     0.040 C 
BRANCH  10  11
ATOM     11  C   UNL     1     -11.318  82.989  -9.394  1.00  0.00    -0.040 A 
ATOM     12  C   UNL     1     -12.607  83.527  -9.531  1.00  0.00     0.050 A 
ATOM     13  C   UNL     1     -10.802  82.168 -10.409  1.00  0.00     0.050 A 
ATOM     14  C   UNL     1     -13.364  83.268 -10.683  1.00  0.00     0.119 A 
ATOM     15  C   UNL     1     -11.554  81.908 -11.560  1.00  0.00     0.119 A 
ATOM     16  C   UNL     1     -12.835  82.461 -11.695  1.00  0.00     0.092 A 
BRANCH  14  17
ATOM     17  O   UNL     1     -14.641  83.804 -10.828  1.00  0.00    -0.508 OA
ATOM     18  H   UNL     1     -15.459  83.210 -10.906  1.00  0.00     0.293 HD
ENDBRANCH  14  17
BRANCH  15  19
ATOM     19  O   UNL     1     -11.023  81.097 -12.560  1.00  0.00    -0.508 OA
ATOM     20  H   UNL     1     -11.290  80.124 -12.651  1.00  0.00     0.293 HD
ENDBRANCH  15  19
ENDBRANCH  10  11
ENDBRANCH   1  10
TORSDOF 6
ENDMDL
MODEL 5
REMARK VINA RESULT:    -5.093      2.176      6.737
REMARK INTER + INTRA:          -6.971
REMARK INTER:                  -6.455
REMARK INTRA:                  -0.515
REMARK UNBOUND:                -0.538
REMARK SMILES Oc1ccc(CCc2cc(O)cc(O)c2)cc1
REMARK SMILES IDX 6 1 5 2 4 3 3 4 2 5 16 6 17 7 1 8 7 10 8 11 15 12 9 13 13 14
REMARK SMILES IDX 10 15 12 16 14 17 11 19
REMARK H PARENT 1 9 14 18 11 20
REMARK Flexibility Score: inf
ROOT
ATOM      1  C   UNL     1      -9.095  84.139  -8.043  1.00  0.00     0.040 C 
ENDROOT
BRANCH   1   2
ATOM      2  C   UNL     1      -7.631  83.856  -8.247  1.00  0.00    -0.047 A 
ATOM      3  C   UNL     1      -7.112  83.709  -9.544  1.00  0.00     0.007 A 
ATOM      4  C   UNL     1      -5.758  83.415  -9.733  1.00  0.00     0.046 A 
ATOM      5  C   UNL     1      -4.913  83.252  -8.627  1.00  0.00     0.115 A 
ATOM      6  C   UNL     1      -6.782  83.677  -7.142  1.00  0.00     0.007 A 
ATOM      7  C   UNL     1      -5.429  83.382  -7.333  1.00  0.00     0.046 A 
BRANCH   5   8
ATOM      8  O   UNL     1      -3.562  82.957  -8.801  1.00  0.00    -0.508 OA
ATOM      9  H   UNL     1      -3.243  82.006  -8.942  1.00  0.00     0.293 HD
ENDBRANCH   5   8
ENDBRANCH   1   2
BRANCH   1  10
ATOM     10  C   UNL     1      -9.832  82.870  -7.602  1.00  0.00     0.040 C 
BRANCH  10  11
ATOM     11  C   UNL     1     -10.843  82.459  -8.639  1.00  0.00    -0.040 A 
ATOM     12  C   UNL     1     -12.176  82.217  -8.272  1.00  0.00     0.050 A 
ATOM     13  C   UNL     1     -10.447  82.257  -9.971  1.00  0.00     0.050 A 
ATOM     14  C   UNL     1     -13.110  81.802  -9.230  1.00  0.00     0.119 A 
ATOM     15  C   UNL     1     -11.378  81.843 -10.930  1.00  0.00     0.119 A 
ATOM     16  C   UNL     1     -12.710  81.618 -10.558  1.00  0.00     0.092 A 
BRANCH  14  17
ATOM     17  O   UNL     1     -14.436  81.566  -8.874  1.00  0.00    -0.508 OA
ATOM     18  H   UNL     1     -14.967  80.805  -9.281  1.00  0.00     0.293 HD
ENDBRANCH  14  17
BRANCH  15  19
ATOM     19  O   UNL     1     -10.969  81.655 -12.248  1.00  0.00    -0.508 OA
ATOM     20  H   UNL     1      -9.990  81.555 -12.491  1.00  0.00     0.293 HD
ENDBRANCH  15  19
ENDBRANCH  10  11
ENDBRANCH   1  10
TORSDOF 6
ENDMDL
MODEL 6
REMARK VINA RESULT:    -5.079      1.838      6.445
REMARK INTER + INTRA:          -6.954
REMARK INTER:                  -6.346
REMARK INTRA:                  -0.607
REMARK UNBOUND:                -0.538
REMARK SMILES Oc1ccc(CCc2cc(O)cc(O)c2)cc1
REMARK SMILES IDX 6 1 5 2 4 3 3 4 2 5 16 6 17 7 1 8 7 10 8 11 15 12 9 13 13 14
REMARK SMILES IDX 10 15 12 16 14 17 11 19
REMARK H PARENT 1 9 14 18 11 20
REMARK Flexibility Score: inf
ROOT
ATOM      1  C   UNL     1      -9.590  84.274  -7.573  1.00  0.00     0.040 C 
ENDROOT
BRANCH   1   2
ATOM      2  C   UNL     1      -8.362  84.591  -8.383  1.00  0.00    -0.047 A 
ATOM      3  C   UNL     1      -8.381  85.641  -9.316  1.00  0.00     0.007 A 
ATOM      4  C   UNL     1      -7.250  85.915 -10.092  1.00  0.00     0.046 A 
ATOM      5  C   UNL     1      -6.095  85.134  -9.951  1.00  0.00     0.115 A 
ATOM      6  C   UNL     1      -7.206  83.803  -8.257  1.00  0.00     0.007 A 
ATOM      7  C   UNL     1      -6.077  84.078  -9.034  1.00  0.00     0.046 A 
BRANCH   5   8
ATOM      8  O   UNL     1      -4.962  85.397 -10.719  1.00  0.00    -0.508 OA
ATOM      9  H   UNL     1      -4.162  84.774 -10.711  1.00  0.00     0.293 HD
ENDBRANCH   5   8
ENDBRANCH   1   2
BRANCH   1  10
ATOM     10  C   UNL     1      -9.831  82.762  -7.529  1.00  0.00     0.040 C 
BRANCH  10  11
ATOM     11  C   UNL     1     -10.815  82.352  -8.593  1.00  0.00    -0.040 A 
ATOM     12  C   UNL     1     -10.395  82.197  -9.924  1.00  0.00     0.050 A 
ATOM     13  C   UNL     1     -12.170  82.178  -8.272  1.00  0.00     0.050 A 
ATOM     14  C   UNL     1     -11.318  81.848 -10.920  1.00  0.00     0.119 A 
ATOM     15  C   UNL     1     -13.093  81.829  -9.264  1.00  0.00     0.119 A 
ATOM     16  C   UNL     1     -12.663  81.662 -10.588  1.00  0.00     0.092 A 
BRANCH  14  17
ATOM     17  O   UNL     1     -10.907  81.687 -12.242  1.00  0.00    -0.508 OA
ATOM     18  H   UNL     1      -9.938  81.805 -12.513  1.00  0.00     0.293 HD
ENDBRANCH  14  17
BRANCH  15  19
ATOM     19  O   UNL     1     -14.432  81.653  -8.927  1.00  0.00    -0.508 OA
ATOM     20  H   UNL     1     -15.038  81.040  -9.459  1.00  0.00     0.293 HD
ENDBRANCH  15  19
ENDBRANCH  10  11
ENDBRANCH   1  10
TORSDOF 6
ENDMDL
MODEL 7
REMARK VINA RESULT:    -5.071      1.037      2.372
REMARK INTER + INTRA:          -6.943
REMARK INTER:                  -6.410
REMARK INTRA:                  -0.534
REMARK UNBOUND:                -0.538
REMARK SMILES Oc1ccc(CCc2cc(O)cc(O)c2)cc1
REMARK SMILES IDX 6 1 5 2 4 3 3 4 2 5 16 6 17 7 1 8 7 10 8 11 15 12 9 13 13 14
REMARK SMILES IDX 10 15 12 16 14 17 11 19
REMARK H PARENT 1 9 14 18 11 20
REMARK Flexibility Score: inf
ROOT
ATOM      1  C   UNL     1      -9.406  82.814  -8.974  1.00  0.00     0.040 C 
ENDROOT
BRANCH   1   2
ATOM      2  C   UNL     1     -10.792  82.991  -9.531  1.00  0.00    -0.047 A 
ATOM      3  C   UNL     1     -11.296  82.085 -10.479  1.00  0.00     0.007 A 
ATOM      4  C   UNL     1     -12.572  82.268 -11.021  1.00  0.00     0.046 A 
ATOM      5  C   UNL     1     -13.352  83.364 -10.629  1.00  0.00     0.115 A 
ATOM      6  C   UNL     1     -11.573  84.095  -9.153  1.00  0.00     0.007 A 
ATOM      7  C   UNL     1     -12.848  84.276  -9.696  1.00  0.00     0.046 A 
BRANCH   5   8
ATOM      8  O   UNL     1     -14.624  83.557 -11.163  1.00  0.00    -0.508 OA
ATOM      9  H   UNL     1     -14.757  83.984 -12.072  1.00  0.00     0.293 HD
ENDBRANCH   5   8
ENDBRANCH   1   2
BRANCH   1  10
ATOM     10  C   UNL     1      -8.906  84.120  -8.349  1.00  0.00     0.040 C 
BRANCH  10  11
ATOM     11  C   UNL     1      -7.678  84.613  -9.066  1.00  0.00    -0.040 A 
ATOM     12  C   UNL     1      -6.727  83.702  -9.552  1.00  0.00     0.050 A 
ATOM     13  C   UNL     1      -7.445  85.991  -9.203  1.00  0.00     0.050 A 
ATOM     14  C   UNL     1      -5.567  84.163 -10.191  1.00  0.00     0.119 A 
ATOM     15  C   UNL     1      -6.289  86.454  -9.841  1.00  0.00     0.119 A 
ATOM     16  C   UNL     1      -5.352  85.537 -10.336  1.00  0.00     0.092 A 
BRANCH  14  17
ATOM     17  O   UNL     1      -4.622  83.264 -10.681  1.00  0.00    -0.508 OA
ATOM     18  H   UNL     1      -3.922  82.850 -10.076  1.00  0.00     0.293 HD
ENDBRANCH  14  17
BRANCH  15  19
ATOM     19  O   UNL     1      -6.079  87.824  -9.975  1.00  0.00    -0.508 OA
ATOM     20  H   UNL     1      -6.811  88.444 -10.300  1.00  0.00     0.293 HD
ENDBRANCH  15  19
ENDBRANCH  10  11
ENDBRANCH   1  10
TORSDOF 6
ENDMDL
MODEL 8
REMARK VINA RESULT:    -5.061      9.857     11.273
REMARK INTER + INTRA:          -6.931
REMARK INTER:                  -6.342
REMARK INTRA:                  -0.589
REMARK UNBOUND:                -0.538
REMARK SMILES Oc1ccc(CCc2cc(O)cc(O)c2)cc1
REMARK SMILES IDX 6 1 5 2 4 3 3 4 2 5 16 6 17 7 1 8 7 10 8 11 15 12 9 13 13 14
REMARK SMILES IDX 10 15 12 16 14 17 11 19
REMARK H PARENT 1 9 14 18 11 20
REMARK Flexibility Score: inf
ROOT
ATOM      1  C   UNL     1      -5.842  91.321 -12.385  1.00  0.00     0.040 C 
ENDROOT
BRANCH   1   2
ATOM      2  C   UNL     1      -5.253  91.136 -13.758  1.00  0.00    -0.047 A 
ATOM      3  C   UNL     1      -3.871  91.278 -13.961  1.00  0.00     0.007 A 
ATOM      4  C   UNL     1      -3.328  91.138 -15.243  1.00  0.00     0.046 A 
ATOM      5  C   UNL     1      -4.163  90.867 -16.334  1.00  0.00     0.115 A 
ATOM      6  C   UNL     1      -6.087  90.878 -14.858  1.00  0.00     0.007 A 
ATOM      7  C   UNL     1      -5.543  90.739 -16.138  1.00  0.00     0.046 A 
BRANCH   5   8
ATOM      8  O   UNL     1      -3.635  90.726 -17.616  1.00  0.00    -0.508 OA
ATOM      9  H   UNL     1      -3.902  89.955 -18.216  1.00  0.00     0.293 HD
ENDBRANCH   5   8
ENDBRANCH   1   2
BRANCH   1  10
ATOM     10  C   UNL     1      -6.204  92.790 -12.148  1.00  0.00     0.040 C 
BRANCH  10  11
ATOM     11  C   UNL     1      -5.189  93.448 -11.252  1.00  0.00    -0.040 A 
ATOM     12  C   UNL     1      -5.315  93.362  -9.857  1.00  0.00     0.050 A 
ATOM     13  C   UNL     1      -4.140  94.200 -11.806  1.00  0.00     0.050 A 
ATOM     14  C   UNL     1      -4.388  94.003  -9.022  1.00  0.00     0.119 A 
ATOM     15  C   UNL     1      -3.214  94.839 -10.975  1.00  0.00     0.119 A 
ATOM     16  C   UNL     1      -3.339  94.737  -9.582  1.00  0.00     0.092 A 
BRANCH  14  17
ATOM     17  O   UNL     1      -4.504  93.917  -7.636  1.00  0.00    -0.508 OA
ATOM     18  H   UNL     1      -3.819  93.422  -7.078  1.00  0.00     0.293 HD
ENDBRANCH  14  17
BRANCH  15  19
ATOM     19  O   UNL     1      -2.176  95.575 -11.541  1.00  0.00    -0.508 OA
ATOM     20  H   UNL     1      -1.983  95.541 -12.535  1.00  0.00     0.293 HD
ENDBRANCH  15  19
ENDBRANCH  10  11
ENDBRANCH   1  10
TORSDOF 6
ENDMDL
MODEL 9
REMARK VINA RESULT:    -5.055      9.896     11.319
REMARK INTER + INTRA:          -6.922
REMARK INTER:                  -6.405
REMARK INTRA:                  -0.518
REMARK UNBOUND:                -0.538
REMARK SMILES Oc1ccc(CCc2cc(O)cc(O)c2)cc1
REMARK SMILES IDX 6 1 5 2 4 3 3 4 2 5 16 6 17 7 1 8 7 10 8 11 15 12 9 13 13 14
REMARK SMILES IDX 10 15 12 16 14 17 11 19
REMARK H PARENT 1 9 14 18 11 20
REMARK Flexibility Score: inf
ROOT
ATOM      1  C   UNL     1      -5.579  91.252 -12.468  1.00  0.00     0.040 C 
ENDROOT
BRANCH   1   2
ATOM      2  C   UNL     1      -5.067  91.151 -13.880  1.00  0.00    -0.047 A 
ATOM      3  C   UNL     1      -5.872  90.596 -14.888  1.00  0.00     0.007 A 
ATOM      4  C   UNL     1      -5.384  90.473 -16.193  1.00  0.00     0.046 A 
ATOM      5  C   UNL     1      -4.083  90.892 -16.499  1.00  0.00     0.115 A 
ATOM      6  C   UNL     1      -3.758  91.556 -14.190  1.00  0.00     0.007 A 
ATOM      7  C   UNL     1      -3.272  91.432 -15.494  1.00  0.00     0.046 A 
BRANCH   5   8
ATOM      8  O   UNL     1      -3.585  90.774 -17.795  1.00  0.00    -0.508 OA
ATOM      9  H   UNL     1      -2.617  90.985 -18.011  1.00  0.00     0.293 HD
ENDBRANCH   5   8
ENDBRANCH   1   2
BRANCH   1  10
ATOM     10  C   UNL     1      -6.110  92.660 -12.188  1.00  0.00     0.040 C 
BRANCH  10  11
ATOM     11  C   UNL     1      -5.172  93.408 -11.278  1.00  0.00    -0.040 A 
ATOM     12  C   UNL     1      -4.120  94.166 -11.816  1.00  0.00     0.050 A 
ATOM     13  C   UNL     1      -5.307  93.307  -9.885  1.00  0.00     0.050 A 
ATOM     14  C   UNL     1      -3.225  94.836 -10.968  1.00  0.00     0.119 A 
ATOM     15  C   UNL     1      -4.417  93.975  -9.037  1.00  0.00     0.119 A 
ATOM     16  C   UNL     1      -3.377  94.741  -9.582  1.00  0.00     0.092 A 
BRANCH  14  17
ATOM     17  O   UNL     1      -2.183  95.595 -11.495  1.00  0.00    -0.508 OA
ATOM     18  H   UNL     1      -1.368  95.832 -10.940  1.00  0.00     0.293 HD
ENDBRANCH  14  17
BRANCH  15  19
ATOM     19  O   UNL     1      -4.571  93.869  -7.657  1.00  0.00    -0.508 OA
ATOM     20  H   UNL     1      -4.511  92.975  -7.184  1.00  0.00     0.293 HD
ENDBRANCH  15  19
ENDBRANCH  10  11
ENDBRANCH   1  10
TORSDOF 6
ENDMDL
