MODEL 1
REMARK VINA RESULT:    -4.374      0.000      0.000
REMARK INTER + INTRA:          -9.230
REMARK INTER:                  -7.442
REMARK INTRA:                  -1.788
REMARK UNBOUND:                -1.788
REMARK SMILES CCCCCCCCCCCCCC(=O)[O-]
REMARK SMILES IDX 8 1 9 2 10 3 11 4 12 5 13 6 14 7 15 8 16 9 7 10 6 11 5 12
REMARK SMILES IDX 4 13 3 14 2 15 1 16
REMARK H PARENT
REMARK Flexibility Score: inf
ROOT
ATOM      1  C   UNL     1     -39.162  21.308 -30.237  1.00  0.00     0.000 C 
ENDROOT
BRANCH   1   2
ATOM      2  C   UNL     1     -39.505  20.689 -28.867  1.00  0.00     0.000 C 
BRANCH   2   3
ATOM      3  C   UNL     1     -39.053  19.230 -28.682  1.00  0.00     0.000 C 
BRANCH   3   4
ATOM      4  C   UNL     1     -37.812  19.098 -27.786  1.00  0.00     0.000 C 
BRANCH   4   5
ATOM      5  C   UNL     1     -37.002  17.849 -28.151  1.00  0.00     0.006 C 
BRANCH   5   6
ATOM      6  C   UNL     1     -37.425  17.301 -29.518  1.00  0.00     0.053 C 
BRANCH   6   7
ATOM      7  C   UNL     1     -36.778  15.976 -29.774  1.00  0.00     0.041 C 
ATOM      8  O   UNL     1     -37.277  14.925 -29.296  1.00  0.00    -0.550 OA
ATOM      9  O   UNL     1     -35.596  15.910 -30.500  1.00  0.00    -0.550 OA
ENDBRANCH   6   7
ENDBRANCH   5   6
ENDBRANCH   4   5
ENDBRANCH   3   4
ENDBRANCH   2   3
ENDBRANCH   1   2
BRANCH   1  10
ATOM     10  C   UNL     1     -38.385  20.383 -31.193  1.00  0.00     0.000 C 
BRANCH  10  11
ATOM     11  C   UNL     1     -36.971  20.869 -31.568  1.00  0.00    -0.000 C 
BRANCH  11  12
ATOM     12  C   UNL     1     -35.835  20.341 -30.673  1.00  0.00    -0.000 C 
BRANCH  12  13
ATOM     13  C   UNL     1     -34.977  21.465 -30.071  1.00  0.00    -0.000 C 
BRANCH  13  14
ATOM     14  C   UNL     1     -35.802  22.706 -29.683  1.00  0.00    -0.000 C 
BRANCH  14  15
ATOM     15  C   UNL     1     -36.248  22.758 -28.210  1.00  0.00    -0.003 C 
ATOM     16  C   UNL     1     -35.464  23.778 -27.383  1.00  0.00     0.004 C 
ENDBRANCH  14  15
ENDBRANCH  13  14
ENDBRANCH  12  13
ENDBRANCH  11  12
ENDBRANCH  10  11
ENDBRANCH   1  10
TORSDOF 12
ENDMDL
MODEL 2
REMARK VINA RESULT:    -4.352      1.926      3.626
REMARK INTER + INTRA:          -9.193
REMARK INTER:                  -7.486
REMARK INTRA:                  -1.707
REMARK UNBOUND:                -1.788
REMARK SMILES CCCCCCCCCCCCCC(=O)[O-]
REMARK SMILES IDX 8 1 9 2 10 3 11 4 12 5 13 6 14 7 15 8 16 9 7 10 6 11 5 12
REMARK SMILES IDX 4 13 3 14 2 15 1 16
REMARK H PARENT
REMARK Flexibility Score: inf
ROOT
ATOM      1  C   UNL     1     -34.447  20.579 -27.677  1.00  0.00     0.000 C 
ENDROOT
BRANCH   1   2
ATOM      2  C   UNL     1     -34.818  19.083 -27.626  1.00  0.00     0.000 C 
BRANCH   2   3
ATOM      3  C   UNL     1     -36.148  18.767 -26.919  1.00  0.00     0.000 C 
BRANCH   3   4
ATOM      4  C   UNL     1     -37.053  17.834 -27.737  1.00  0.00     0.000 C 
BRANCH   4   5
ATOM      5  C   UNL     1     -36.640  17.825 -29.213  1.00  0.00     0.006 C 
BRANCH   5   6
ATOM      6  C   UNL     1     -37.441  16.783 -30.001  1.00  0.00     0.053 C 
BRANCH   6   7
ATOM      7  C   UNL     1     -38.505  17.448 -30.817  1.00  0.00     0.041 C 
ATOM      8  O   UNL     1     -39.535  16.809 -31.155  1.00  0.00    -0.550 OA
ATOM      9  O   UNL     1     -38.334  18.758 -31.246  1.00  0.00    -0.550 OA
ENDBRANCH   6   7
ENDBRANCH   5   6
ENDBRANCH   4   5
ENDBRANCH   3   4
ENDBRANCH   2   3
ENDBRANCH   1   2
BRANCH   1  10
ATOM     10  C   UNL     1     -34.245  21.151 -29.094  1.00  0.00     0.000 C 
BRANCH  10  11
ATOM     11  C   UNL     1     -35.522  21.229 -29.955  1.00  0.00    -0.000 C 
BRANCH  11  12
ATOM     12  C   UNL     1     -36.303  22.552 -29.853  1.00  0.00    -0.000 C 
BRANCH  12  13
ATOM     13  C   UNL     1     -37.443  22.495 -28.823  1.00  0.00    -0.000 C 
BRANCH  13  14
ATOM     14  C   UNL     1     -38.083  21.098 -28.716  1.00  0.00    -0.000 C 
BRANCH  14  15
ATOM     15  C   UNL     1     -39.602  21.057 -28.963  1.00  0.00    -0.003 C 
ATOM     16  C   UNL     1     -40.269  19.806 -28.392  1.00  0.00     0.004 C 
ENDBRANCH  14  15
ENDBRANCH  13  14
ENDBRANCH  12  13
ENDBRANCH  11  12
ENDBRANCH  10  11
ENDBRANCH   1  10
TORSDOF 12
ENDMDL
MODEL 3
REMARK VINA RESULT:    -4.333      3.030      4.971
REMARK INTER + INTRA:          -9.161
REMARK INTER:                  -7.219
REMARK INTRA:                  -1.942
REMARK UNBOUND:                -1.788
REMARK SMILES CCCCCCCCCCCCCC(=O)[O-]
REMARK SMILES IDX 8 1 9 2 10 3 11 4 12 5 13 6 14 7 15 8 16 9 7 10 6 11 5 12
REMARK SMILES IDX 4 13 3 14 2 15 1 16
REMARK H PARENT
REMARK Flexibility Score: inf
ROOT
ATOM      1  C   UNL     1     -36.761  17.076 -29.309  1.00  0.00     0.000 C 
ENDROOT
BRANCH   1   2
ATOM      2  C   UNL     1     -37.152  17.741 -27.973  1.00  0.00     0.000 C 
BRANCH   2   3
ATOM      3  C   UNL     1     -36.179  18.824 -27.477  1.00  0.00     0.000 C 
BRANCH   3   4
ATOM      4  C   UNL     1     -34.997  19.049 -28.433  1.00  0.00     0.000 C 
BRANCH   4   5
ATOM      5  C   UNL     1     -34.921  20.515 -28.876  1.00  0.00     0.006 C 
BRANCH   5   6
ATOM      6  C   UNL     1     -35.351  21.453 -27.744  1.00  0.00     0.053 C 
BRANCH   6   7
ATOM      7  C   UNL     1     -35.629  22.823 -28.277  1.00  0.00     0.041 C 
ATOM      8  O   UNL     1     -35.745  23.798 -27.489  1.00  0.00    -0.550 OA
ATOM      9  O   UNL     1     -35.811  23.014 -29.641  1.00  0.00    -0.550 OA
ENDBRANCH   6   7
ENDBRANCH   5   6
ENDBRANCH   4   5
ENDBRANCH   3   4
ENDBRANCH   2   3
ENDBRANCH   1   2
BRANCH   1  10
ATOM     10  C   UNL     1     -37.912  16.928 -30.324  1.00  0.00     0.000 C 
BRANCH  10  11
ATOM     11  C   UNL     1     -38.664  18.233 -30.654  1.00  0.00    -0.000 C 
BRANCH  11  12
ATOM     12  C   UNL     1     -37.778  19.400 -31.131  1.00  0.00    -0.000 C 
BRANCH  12  13
ATOM     13  C   UNL     1     -38.344  20.775 -30.742  1.00  0.00    -0.000 C 
BRANCH  13  14
ATOM     14  C   UNL     1     -38.661  20.890 -29.239  1.00  0.00    -0.000 C 
BRANCH  14  15
ATOM     15  C   UNL     1     -40.159  20.863 -28.886  1.00  0.00    -0.003 C 
ATOM     16  C   UNL     1     -40.551  19.659 -28.029  1.00  0.00     0.004 C 
ENDBRANCH  14  15
ENDBRANCH  13  14
ENDBRANCH  12  13
ENDBRANCH  11  12
ENDBRANCH  10  11
ENDBRANCH   1  10
TORSDOF 12
ENDMDL
MODEL 4
REMARK VINA RESULT:    -4.207      2.840      5.468
REMARK INTER + INTRA:          -8.946
REMARK INTER:                  -6.942
REMARK INTRA:                  -2.004
REMARK UNBOUND:                -1.788
REMARK SMILES CCCCCCCCCCCCCC(=O)[O-]
REMARK SMILES IDX 8 1 9 2 10 3 11 4 12 5 13 6 14 7 15 8 16 9 7 10 6 11 5 12
REMARK SMILES IDX 4 13 3 14 2 15 1 16
REMARK H PARENT
REMARK Flexibility Score: inf
ROOT
ATOM      1  C   UNL     1     -34.456  21.666 -28.802  1.00  0.00     0.000 C 
ENDROOT
BRANCH   1   2
ATOM      2  C   UNL     1     -34.151  20.771 -30.020  1.00  0.00     0.000 C 
BRANCH   2   3
ATOM      3  C   UNL     1     -35.259  20.725 -31.087  1.00  0.00     0.000 C 
BRANCH   3   4
ATOM      4  C   UNL     1     -36.344  21.790 -30.868  1.00  0.00     0.000 C 
BRANCH   4   5
ATOM      5  C   UNL     1     -37.712  21.140 -30.634  1.00  0.00     0.006 C 
BRANCH   5   6
ATOM      6  C   UNL     1     -38.246  21.472 -29.238  1.00  0.00     0.053 C 
BRANCH   6   7
ATOM      7  C   UNL     1     -39.720  21.225 -29.168  1.00  0.00     0.041 C 
ATOM      8  O   UNL     1     -40.162  20.175 -28.633  1.00  0.00    -0.550 OA
ATOM      9  O   UNL     1     -40.604  22.131 -29.740  1.00  0.00    -0.550 OA
ENDBRANCH   6   7
ENDBRANCH   5   6
ENDBRANCH   4   5
ENDBRANCH   3   4
ENDBRANCH   2   3
ENDBRANCH   1   2
BRANCH   1  10
ATOM     10  C   UNL     1     -34.905  20.911 -27.536  1.00  0.00     0.000 C 
BRANCH  10  11
ATOM     11  C   UNL     1     -35.001  19.379 -27.687  1.00  0.00    -0.000 C 
BRANCH  11  12
ATOM     12  C   UNL     1     -36.174  18.717 -26.942  1.00  0.00    -0.000 C 
BRANCH  12  13
ATOM     13  C   UNL     1     -37.287  18.236 -27.887  1.00  0.00    -0.000 C 
BRANCH  13  14
ATOM     14  C   UNL     1     -36.765  17.866 -29.288  1.00  0.00    -0.000 C 
BRANCH  14  15
ATOM     15  C   UNL     1     -37.654  16.889 -30.078  1.00  0.00    -0.003 C 
ATOM     16  C   UNL     1     -38.780  17.587 -30.841  1.00  0.00     0.004 C 
ENDBRANCH  14  15
ENDBRANCH  13  14
ENDBRANCH  12  13
ENDBRANCH  11  12
ENDBRANCH  10  11
ENDBRANCH   1  10
TORSDOF 12
ENDMDL
MODEL 5
REMARK VINA RESULT:    -4.113      1.597      3.412
REMARK INTER + INTRA:          -8.785
REMARK INTER:                  -6.898
REMARK INTRA:                  -1.887
REMARK UNBOUND:                -1.788
REMARK SMILES CCCCCCCCCCCCCC(=O)[O-]
REMARK SMILES IDX 8 1 9 2 10 3 11 4 12 5 13 6 14 7 15 8 16 9 7 10 6 11 5 12
REMARK SMILES IDX 4 13 3 14 2 15 1 16
REMARK H PARENT
REMARK Flexibility Score: inf
ROOT
ATOM      1  C   UNL     1     -35.509  21.717 -28.343  1.00  0.00     0.000 C 
ENDROOT
BRANCH   1   2
ATOM      2  C   UNL     1     -34.479  20.739 -27.742  1.00  0.00     0.000 C 
BRANCH   2   3
ATOM      3  C   UNL     1     -34.900  19.259 -27.763  1.00  0.00     0.000 C 
BRANCH   3   4
ATOM      4  C   UNL     1     -34.212  18.458 -28.878  1.00  0.00     0.000 C 
BRANCH   4   5
ATOM      5  C   UNL     1     -35.245  17.736 -29.752  1.00  0.00     0.006 C 
BRANCH   5   6
ATOM      6  C   UNL     1     -36.578  17.584 -29.013  1.00  0.00     0.053 C 
BRANCH   6   7
ATOM      7  C   UNL     1     -37.437  16.562 -29.689  1.00  0.00     0.041 C 
ATOM      8  O   UNL     1     -37.323  15.344 -29.394  1.00  0.00    -0.550 OA
ATOM      9  O   UNL     1     -38.329  16.950 -30.681  1.00  0.00    -0.550 OA
ENDBRANCH   6   7
ENDBRANCH   5   6
ENDBRANCH   4   5
ENDBRANCH   3   4
ENDBRANCH   2   3
ENDBRANCH   1   2
BRANCH   1  10
ATOM     10  C   UNL     1     -35.136  22.284 -29.727  1.00  0.00     0.000 C 
BRANCH  10  11
ATOM     11  C   UNL     1     -35.228  21.279 -30.893  1.00  0.00    -0.000 C 
BRANCH  11  12
ATOM     12  C   UNL     1     -36.539  21.327 -31.700  1.00  0.00    -0.000 C 
BRANCH  12  13
ATOM     13  C   UNL     1     -37.588  20.325 -31.194  1.00  0.00    -0.000 C 
BRANCH  13  14
ATOM     14  C   UNL     1     -38.768  21.004 -30.474  1.00  0.00    -0.000 C 
BRANCH  14  15
ATOM     15  C   UNL     1     -38.857  20.726 -28.963  1.00  0.00    -0.003 C 
ATOM     16  C   UNL     1     -39.774  19.550 -28.623  1.00  0.00     0.004 C 
ENDBRANCH  14  15
ENDBRANCH  13  14
ENDBRANCH  12  13
ENDBRANCH  11  12
ENDBRANCH  10  11
ENDBRANCH   1  10
TORSDOF 12
ENDMDL
MODEL 6
REMARK VINA RESULT:    -4.088      1.506      3.314
REMARK INTER + INTRA:          -8.743
REMARK INTER:                  -7.249
REMARK INTRA:                  -1.494
REMARK UNBOUND:                -1.788
REMARK SMILES CCCCCCCCCCCCCC(=O)[O-]
REMARK SMILES IDX 8 1 9 2 10 3 11 4 12 5 13 6 14 7 15 8 16 9 7 10 6 11 5 12
REMARK SMILES IDX 4 13 3 14 2 15 1 16
REMARK H PARENT
REMARK Flexibility Score: inf
ROOT
ATOM      1  C   UNL     1     -36.383  22.117 -29.025  1.00  0.00     0.000 C 
ENDROOT
BRANCH   1   2
ATOM      2  C   UNL     1     -35.327  21.438 -28.128  1.00  0.00     0.000 C 
BRANCH   2   3
ATOM      3  C   UNL     1     -35.231  19.911 -28.281  1.00  0.00     0.000 C 
BRANCH   3   4
ATOM      4  C   UNL     1     -35.968  19.151 -27.168  1.00  0.00     0.000 C 
BRANCH   4   5
ATOM      5  C   UNL     1     -36.819  18.016 -27.749  1.00  0.00     0.006 C 
BRANCH   5   6
ATOM      6  C   UNL     1     -36.397  17.694 -29.186  1.00  0.00     0.053 C 
BRANCH   6   7
ATOM      7  C   UNL     1     -37.299  16.657 -29.778  1.00  0.00     0.041 C 
ATOM      8  O   UNL     1     -38.114  16.970 -30.685  1.00  0.00    -0.550 OA
ATOM      9  O   UNL     1     -37.275  15.356 -29.291  1.00  0.00    -0.550 OA
ENDBRANCH   6   7
ENDBRANCH   5   6
ENDBRANCH   4   5
ENDBRANCH   3   4
ENDBRANCH   2   3
ENDBRANCH   1   2
BRANCH   1  10
ATOM     10  C   UNL     1     -36.163  21.938 -30.540  1.00  0.00     0.000 C 
BRANCH  10  11
ATOM     11  C   UNL     1     -36.968  20.792 -31.186  1.00  0.00    -0.000 C 
BRANCH  11  12
ATOM     12  C   UNL     1     -38.496  20.890 -31.024  1.00  0.00    -0.000 C 
BRANCH  12  13
ATOM     13  C   UNL     1     -39.011  20.165 -29.770  1.00  0.00    -0.000 C 
BRANCH  13  14
ATOM     14  C   UNL     1     -39.969  21.028 -28.929  1.00  0.00    -0.000 C 
BRANCH  14  15
ATOM     15  C   UNL     1     -40.110  22.489 -29.396  1.00  0.00    -0.003 C 
ATOM     16  C   UNL     1     -41.469  22.786 -30.029  1.00  0.00     0.004 C 
ENDBRANCH  14  15
ENDBRANCH  13  14
ENDBRANCH  12  13
ENDBRANCH  11  12
ENDBRANCH  10  11
ENDBRANCH   1  10
TORSDOF 12
ENDMDL
MODEL 7
REMARK VINA RESULT:    -4.066      1.772      3.627
REMARK INTER + INTRA:          -8.706
REMARK INTER:                  -7.158
REMARK INTRA:                  -1.548
REMARK UNBOUND:                -1.788
REMARK SMILES CCCCCCCCCCCCCC(=O)[O-]
REMARK SMILES IDX 8 1 9 2 10 3 11 4 12 5 13 6 14 7 15 8 16 9 7 10 6 11 5 12
REMARK SMILES IDX 4 13 3 14 2 15 1 16
REMARK H PARENT
REMARK Flexibility Score: inf
ROOT
ATOM      1  C   UNL     1     -36.813  20.738 -31.443  1.00  0.00     0.000 C 
ENDROOT
BRANCH   1   2
ATOM      2  C   UNL     1     -35.956  21.664 -30.556  1.00  0.00     0.000 C 
BRANCH   2   3
ATOM      3  C   UNL     1     -35.062  20.940 -29.535  1.00  0.00     0.000 C 
BRANCH   3   4
ATOM      4  C   UNL     1     -35.859  20.313 -28.381  1.00  0.00     0.000 C 
BRANCH   4   5
ATOM      5  C   UNL     1     -35.408  18.870 -28.124  1.00  0.00     0.006 C 
BRANCH   5   6
ATOM      6  C   UNL     1     -36.596  17.905 -28.180  1.00  0.00     0.053 C 
BRANCH   6   7
ATOM      7  C   UNL     1     -36.593  17.145 -29.469  1.00  0.00     0.041 C 
ATOM      8  O   UNL     1     -37.672  16.716 -29.954  1.00  0.00    -0.550 OA
ATOM      9  O   UNL     1     -35.391  16.867 -30.109  1.00  0.00    -0.550 OA
ENDBRANCH   6   7
ENDBRANCH   5   6
ENDBRANCH   4   5
ENDBRANCH   3   4
ENDBRANCH   2   3
ENDBRANCH   1   2
BRANCH   1  10
ATOM     10  C   UNL     1     -38.335  20.872 -31.244  1.00  0.00     0.000 C 
BRANCH  10  11
ATOM     11  C   UNL     1     -38.939  19.938 -30.176  1.00  0.00    -0.000 C 
BRANCH  11  12
ATOM     12  C   UNL     1     -39.459  20.640 -28.907  1.00  0.00    -0.000 C 
BRANCH  12  13
ATOM     13  C   UNL     1     -39.068  22.125 -28.844  1.00  0.00    -0.000 C 
BRANCH  13  14
ATOM     14  C   UNL     1     -40.286  23.067 -28.881  1.00  0.00    -0.000 C 
BRANCH  14  15
ATOM     15  C   UNL     1     -41.289  22.793 -30.016  1.00  0.00    -0.003 C 
ATOM     16  C   UNL     1     -42.615  23.530 -29.834  1.00  0.00     0.004 C 
ENDBRANCH  14  15
ENDBRANCH  13  14
ENDBRANCH  12  13
ENDBRANCH  11  12
ENDBRANCH  10  11
ENDBRANCH   1  10
TORSDOF 12
ENDMDL
MODEL 8
REMARK VINA RESULT:    -3.926     14.778     16.938
REMARK INTER + INTRA:          -8.468
REMARK INTER:                  -6.428
REMARK INTRA:                  -2.041
REMARK UNBOUND:                -1.788
REMARK SMILES CCCCCCCCCCCCCC(=O)[O-]
REMARK SMILES IDX 8 1 9 2 10 3 11 4 12 5 13 6 14 7 15 8 16 9 7 10 6 11 5 12
REMARK SMILES IDX 4 13 3 14 2 15 1 16
REMARK H PARENT
REMARK Flexibility Score: inf
ROOT
ATOM      1  C   UNL     1     -48.100   8.356 -33.341  1.00  0.00     0.000 C 
ENDROOT
BRANCH   1   2
ATOM      2  C   UNL     1     -49.217   9.340 -32.939  1.00  0.00     0.000 C 
BRANCH   2   3
ATOM      3  C   UNL     1     -50.616   8.714 -32.805  1.00  0.00     0.000 C 
BRANCH   3   4
ATOM      4  C   UNL     1     -51.498   9.437 -31.775  1.00  0.00     0.000 C 
BRANCH   4   5
ATOM      5  C   UNL     1     -51.175  10.935 -31.732  1.00  0.00     0.006 C 
BRANCH   5   6
ATOM      6  C   UNL     1     -51.204  11.461 -30.294  1.00  0.00     0.053 C 
BRANCH   6   7
ATOM      7  C   UNL     1     -50.407  12.722 -30.181  1.00  0.00     0.041 C 
ATOM      8  O   UNL     1     -49.313  12.726 -29.558  1.00  0.00    -0.550 OA
ATOM      9  O   UNL     1     -50.897  13.905 -30.721  1.00  0.00    -0.550 OA
ENDBRANCH   6   7
ENDBRANCH   5   6
ENDBRANCH   4   5
ENDBRANCH   3   4
ENDBRANCH   2   3
ENDBRANCH   1   2
BRANCH   1  10
ATOM     10  C   UNL     1     -48.456   6.865 -33.179  1.00  0.00     0.000 C 
BRANCH  10  11
ATOM     11  C   UNL     1     -47.789   6.160 -31.981  1.00  0.00    -0.000 C 
BRANCH  11  12
ATOM     12  C   UNL     1     -48.714   5.886 -30.781  1.00  0.00    -0.000 C 
BRANCH  12  13
ATOM     13  C   UNL     1     -48.352   6.725 -29.545  1.00  0.00    -0.000 C 
BRANCH  13  14
ATOM     14  C   UNL     1     -49.166   8.028 -29.445  1.00  0.00    -0.000 C 
BRANCH  14  15
ATOM     15  C   UNL     1     -48.333   9.301 -29.207  1.00  0.00    -0.003 C 
ATOM     16  C   UNL     1     -46.999   9.292 -29.953  1.00  0.00     0.004 C 
ENDBRANCH  14  15
ENDBRANCH  13  14
ENDBRANCH  12  13
ENDBRANCH  11  12
ENDBRANCH  10  11
ENDBRANCH   1  10
TORSDOF 12
ENDMDL
MODEL 9
REMARK VINA RESULT:    -3.880      3.453      5.701
REMARK INTER + INTRA:          -8.389
REMARK INTER:                  -6.860
REMARK INTRA:                  -1.529
REMARK UNBOUND:                -1.788
REMARK SMILES CCCCCCCCCCCCCC(=O)[O-]
REMARK SMILES IDX 8 1 9 2 10 3 11 4 12 5 13 6 14 7 15 8 16 9 7 10 6 11 5 12
REMARK SMILES IDX 4 13 3 14 2 15 1 16
REMARK H PARENT
REMARK Flexibility Score: inf
ROOT
ATOM      1  C   UNL     1     -34.281  20.944 -30.306  1.00  0.00     0.000 C 
ENDROOT
BRANCH   1   2
ATOM      2  C   UNL     1     -35.626  21.687 -30.438  1.00  0.00     0.000 C 
BRANCH   2   3
ATOM      3  C   UNL     1     -36.496  21.249 -31.629  1.00  0.00     0.000 C 
BRANCH   3   4
ATOM      4  C   UNL     1     -37.924  20.862 -31.215  1.00  0.00     0.000 C 
BRANCH   4   5
ATOM      5  C   UNL     1     -38.219  21.306 -29.777  1.00  0.00     0.006 C 
BRANCH   5   6
ATOM      6  C   UNL     1     -39.706  21.147 -29.448  1.00  0.00     0.053 C 
BRANCH   6   7
ATOM      7  C   UNL     1     -40.355  22.486 -29.299  1.00  0.00     0.041 C 
ATOM      8  O   UNL     1     -39.878  23.337 -28.503  1.00  0.00    -0.550 OA
ATOM      9  O   UNL     1     -41.518  22.777 -30.002  1.00  0.00    -0.550 OA
ENDBRANCH   6   7
ENDBRANCH   5   6
ENDBRANCH   4   5
ENDBRANCH   3   4
ENDBRANCH   2   3
ENDBRANCH   1   2
BRANCH   1  10
ATOM     10  C   UNL     1     -34.375  19.408 -30.400  1.00  0.00     0.000 C 
BRANCH  10  11
ATOM     11  C   UNL     1     -34.339  18.667 -29.048  1.00  0.00    -0.000 C 
BRANCH  11  12
ATOM     12  C   UNL     1     -35.377  19.138 -28.013  1.00  0.00    -0.000 C 
BRANCH  12  13
ATOM     13  C   UNL     1     -36.800  18.652 -28.330  1.00  0.00    -0.000 C 
BRANCH  13  14
ATOM     14  C   UNL     1     -36.873  17.134 -28.578  1.00  0.00    -0.000 C 
BRANCH  14  15
ATOM     15  C   UNL     1     -37.291  16.725 -30.003  1.00  0.00    -0.003 C 
ATOM     16  C   UNL     1     -38.497  17.508 -30.521  1.00  0.00     0.004 C 
ENDBRANCH  14  15
ENDBRANCH  13  14
ENDBRANCH  12  13
ENDBRANCH  11  12
ENDBRANCH  10  11
ENDBRANCH   1  10
TORSDOF 12
ENDMDL
