MODEL 1
REMARK VINA RESULT:     1.728      0.000      0.000
REMARK INTER + INTRA:           2.094
REMARK INTER:                   1.879
REMARK INTRA:                   0.215
REMARK UNBOUND:                 0.215
REMARK SMILES C[C@@H]1[C@H]2C3=CC[C@@H]4[C@]5(C)CC[C@@H](O)C(C)(C)[C@H]5CC[C@]4(C)[C@@]3(C)CC[C@]2(C(=O)[O-])CC[C@@H]1C
REMARK SMILES IDX 26 1 30 2 25 3 3 4 31 5 24 6 4 7 2 8 32 9 22 10 5 11 1 12
REMARK SMILES IDX 33 13 23 14 20 15 6 16 7 17 19 18 21 19 8 20 18 21 17 22
REMARK SMILES IDX 10 23 9 24 14 25 11 26 12 27 15 28 16 29 27 30 28 31 29 32
REMARK SMILES IDX 13 33
REMARK H PARENT 13 34
REMARK Flexibility Score: inf
ROOT
ATOM      1  C   UNL     1      -2.605   2.116   7.974  1.00  0.00     0.017 C 
ATOM      2  C   UNL     1      -2.281   2.141   6.440  1.00  0.00     0.014 C 
ATOM      3  C   UNL     1      -4.135   1.919   8.119  1.00  0.00     0.014 C 
ATOM      4  C   UNL     1      -1.856   0.917   8.651  1.00  0.00     0.030 C 
ATOM      5  C   UNL     1      -0.835   1.768   6.066  1.00  0.00     0.004 C 
ATOM      6  C   UNL     1      -4.569   1.808   9.583  1.00  0.00     0.013 C 
ATOM      7  C   UNL     1      -2.340   0.690  10.119  1.00  0.00    -0.063 C 
ATOM      8  C   UNL     1      -0.289   0.993   8.437  1.00  0.00    -0.003 C 
ATOM      9  C   UNL     1       0.132   1.916   7.246  1.00  0.00    -0.011 C 
ATOM     10  C   UNL     1      -3.866   0.658  10.392  1.00  0.00    -0.006 C 
ATOM     11  C   UNL     1      -1.473   0.243  11.067  1.00  0.00    -0.027 C 
ATOM     12  C   UNL     1       0.289  -0.437   8.287  1.00  0.00     0.008 C 
ATOM     13  C   UNL     1       1.588   1.726   6.790  1.00  0.00     0.008 C 
ATOM     14  C   UNL     1      -4.377  -0.683   9.791  1.00  0.00     0.017 C 
ATOM     15  C   UNL     1      -4.197   0.803  11.975  1.00  0.00    -0.020 C 
ATOM     16  C   UNL     1      -1.777   0.074  12.528  1.00  0.00     0.032 C 
ATOM     17  C   UNL     1      -3.267  -0.126  12.865  1.00  0.00     0.006 C 
ATOM     18  C   UNL     1      -5.727   0.571  12.327  1.00  0.00     0.008 C 
ATOM     19  C   UNL     1      -3.883   2.283  12.422  1.00  0.00     0.012 C 
ATOM     20  C   UNL     1      -3.695  -1.632  13.225  1.00  0.00    -0.025 C 
ATOM     21  C   UNL     1      -6.029  -0.582  13.305  1.00  0.00     0.005 C 
ATOM     22  C   UNL     1      -5.220  -1.835  12.924  1.00  0.00     0.003 C 
ATOM     23  C   UNL     1      -2.873  -2.739  12.466  1.00  0.00     0.010 C 
ATOM     24  C   UNL     1      -3.388  -1.818  14.751  1.00  0.00     0.012 C 
ATOM     25  C   UNL     1      -5.831  -3.240  13.320  1.00  0.00    -0.006 C 
ATOM     26  C   UNL     1      -3.688  -3.984  12.041  1.00  0.00     0.033 C 
ATOM     27  C   UNL     1      -4.784  -4.398  13.046  1.00  0.00     0.120 C 
ATOM     28  C   UNL     1      -7.067  -3.517  12.414  1.00  0.00     0.014 C 
ATOM     29  C   UNL     1      -6.356  -3.267  14.781  1.00  0.00     0.014 C 
ENDROOT
BRANCH   1  30
ATOM     30  C   UNL     1      -2.236   3.460   8.600  1.00  0.00     0.048 C 
ATOM     31  O   UNL     1      -2.251   4.523   7.921  1.00  0.00    -0.550 OA
ATOM     32  O   UNL     1      -1.813   3.520   9.924  1.00  0.00    -0.550 OA
ENDBRANCH   1  30
BRANCH  27  33
ATOM     33  O   UNL     1      -4.172  -4.873  14.220  1.00  0.00    -0.393 OA
ATOM     34  H   UNL     1      -3.404  -4.276  14.417  1.00  0.00     0.210 HD
ENDBRANCH  27  33
TORSDOF 2
ENDMDL
MODEL 2
REMARK VINA RESULT:     2.644      1.753      3.376
REMARK INTER + INTRA:           3.091
REMARK INTER:                   2.845
REMARK INTRA:                   0.245
REMARK UNBOUND:                 0.215
REMARK SMILES C[C@@H]1[C@H]2C3=CC[C@@H]4[C@]5(C)CC[C@@H](O)C(C)(C)[C@H]5CC[C@]4(C)[C@@]3(C)CC[C@]2(C(=O)[O-])CC[C@@H]1C
REMARK SMILES IDX 26 1 30 2 25 3 3 4 31 5 24 6 4 7 2 8 32 9 22 10 5 11 1 12
REMARK SMILES IDX 33 13 23 14 20 15 6 16 7 17 19 18 21 19 8 20 18 21 17 22
REMARK SMILES IDX 10 23 9 24 14 25 11 26 12 27 15 28 16 29 27 30 28 31 29 32
REMARK SMILES IDX 13 33
REMARK H PARENT 13 34
REMARK Flexibility Score: inf
ROOT
ATOM      1  C   UNL     1      -1.618   2.068   8.925  1.00  0.00     0.017 C 
ATOM      2  C   UNL     1      -1.877   3.525   8.407  1.00  0.00     0.014 C 
ATOM      3  C   UNL     1      -1.400   2.155  10.456  1.00  0.00     0.014 C 
ATOM      4  C   UNL     1      -2.868   1.172   8.624  1.00  0.00     0.030 C 
ATOM      5  C   UNL     1      -2.651   3.624   7.079  1.00  0.00     0.004 C 
ATOM      6  C   UNL     1      -1.205   0.776  11.093  1.00  0.00     0.013 C 
ATOM      7  C   UNL     1      -2.771  -0.213   9.340  1.00  0.00    -0.063 C 
ATOM      8  C   UNL     1      -3.222   1.135   7.080  1.00  0.00    -0.003 C 
ATOM      9  C   UNL     1      -2.600   2.322   6.273  1.00  0.00    -0.011 C 
ATOM     10  C   UNL     1      -2.379  -0.237  10.840  1.00  0.00    -0.006 C 
ATOM     11  C   UNL     1      -3.295  -1.326   8.760  1.00  0.00    -0.027 C 
ATOM     12  C   UNL     1      -4.759   1.058   6.897  1.00  0.00     0.008 C 
ATOM     13  C   UNL     1      -3.211   2.517   4.875  1.00  0.00     0.008 C 
ATOM     14  C   UNL     1      -3.613   0.314  11.611  1.00  0.00     0.017 C 
ATOM     15  C   UNL     1      -1.948  -1.726  11.326  1.00  0.00    -0.020 C 
ATOM     16  C   UNL     1      -3.188  -2.727   9.288  1.00  0.00     0.032 C 
ATOM     17  C   UNL     1      -2.958  -2.836  10.807  1.00  0.00     0.006 C 
ATOM     18  C   UNL     1      -1.736  -1.846  12.894  1.00  0.00     0.008 C 
ATOM     19  C   UNL     1      -0.551  -2.080  10.685  1.00  0.00     0.012 C 
ATOM     20  C   UNL     1      -4.246  -3.258  11.671  1.00  0.00    -0.025 C 
ATOM     21  C   UNL     1      -2.636  -2.863  13.623  1.00  0.00     0.005 C 
ATOM     22  C   UNL     1      -4.092  -2.734  13.139  1.00  0.00     0.003 C 
ATOM     23  C   UNL     1      -5.614  -2.747  11.086  1.00  0.00     0.010 C 
ATOM     24  C   UNL     1      -4.302  -4.824  11.629  1.00  0.00     0.012 C 
ATOM     25  C   UNL     1      -5.232  -3.153  14.155  1.00  0.00    -0.006 C 
ATOM     26  C   UNL     1      -6.656  -2.311  12.144  1.00  0.00     0.033 C 
ATOM     27  C   UNL     1      -6.643  -3.159  13.434  1.00  0.00     0.120 C 
ATOM     28  C   UNL     1      -5.302  -2.088  15.289  1.00  0.00     0.014 C 
ATOM     29  C   UNL     1      -4.933  -4.505  14.856  1.00  0.00     0.014 C 
ENDROOT
BRANCH   1  30
ATOM     30  C   UNL     1      -0.342   1.516   8.291  1.00  0.00     0.048 C 
ATOM     31  O   UNL     1       0.568   2.285   7.878  1.00  0.00    -0.550 OA
ATOM     32  O   UNL     1      -0.193   0.146   8.102  1.00  0.00    -0.550 OA
ENDBRANCH   1  30
BRANCH  27  33
ATOM     33  O   UNL     1      -7.099  -4.455  13.133  1.00  0.00    -0.393 OA
ATOM     34  H   UNL     1      -7.571  -4.409  12.262  1.00  0.00     0.210 HD
ENDBRANCH  27  33
TORSDOF 2
ENDMDL
MODEL 3
REMARK VINA RESULT:     3.747      1.888      3.355
REMARK INTER + INTRA:           4.291
REMARK INTER:                   4.027
REMARK INTRA:                   0.264
REMARK UNBOUND:                 0.215
REMARK SMILES C[C@@H]1[C@H]2C3=CC[C@@H]4[C@]5(C)CC[C@@H](O)C(C)(C)[C@H]5CC[C@]4(C)[C@@]3(C)CC[C@]2(C(=O)[O-])CC[C@@H]1C
REMARK SMILES IDX 26 1 30 2 25 3 3 4 31 5 24 6 4 7 2 8 32 9 22 10 5 11 1 12
REMARK SMILES IDX 33 13 23 14 20 15 6 16 7 17 19 18 21 19 8 20 18 21 17 22
REMARK SMILES IDX 10 23 9 24 14 25 11 26 12 27 15 28 16 29 27 30 28 31 29 32
REMARK SMILES IDX 13 33
REMARK H PARENT 13 34
REMARK Flexibility Score: inf
ROOT
ATOM      1  C   UNL     1      -1.766   0.817   7.859  1.00  0.00     0.017 C 
ATOM      2  C   UNL     1      -0.361   1.462   7.603  1.00  0.00     0.014 C 
ATOM      3  C   UNL     1      -1.567  -0.719   7.902  1.00  0.00     0.014 C 
ATOM      4  C   UNL     1      -2.330   1.311   9.235  1.00  0.00     0.030 C 
ATOM      5  C   UNL     1      -0.213   2.923   8.067  1.00  0.00     0.004 C 
ATOM      6  C   UNL     1      -2.868  -1.463   8.218  1.00  0.00     0.013 C 
ATOM      7  C   UNL     1      -3.601   0.508   9.660  1.00  0.00    -0.063 C 
ATOM      8  C   UNL     1      -2.447   2.889   9.303  1.00  0.00    -0.003 C 
ATOM      9  C   UNL     1      -1.564   3.623   8.239  1.00  0.00    -0.011 C 
ATOM     10  C   UNL     1      -3.558  -1.039   9.564  1.00  0.00    -0.006 C 
ATOM     11  C   UNL     1      -4.595   1.116  10.362  1.00  0.00    -0.027 C 
ATOM     12  C   UNL     1      -2.136   3.375  10.742  1.00  0.00     0.008 C 
ATOM     13  C   UNL     1      -1.375   5.125   8.512  1.00  0.00     0.008 C 
ATOM     14  C   UNL     1      -2.619  -1.509  10.711  1.00  0.00     0.017 C 
ATOM     15  C   UNL     1      -5.043  -1.689   9.662  1.00  0.00    -0.020 C 
ATOM     16  C   UNL     1      -5.906   0.495  10.748  1.00  0.00     0.032 C 
ATOM     17  C   UNL     1      -5.900  -1.043  10.832  1.00  0.00     0.006 C 
ATOM     18  C   UNL     1      -5.036  -3.272   9.776  1.00  0.00     0.008 C 
ATOM     19  C   UNL     1      -5.823  -1.367   8.329  1.00  0.00     0.012 C 
ATOM     20  C   UNL     1      -5.868  -1.652  12.320  1.00  0.00    -0.025 C 
ATOM     21  C   UNL     1      -5.692  -3.863  11.040  1.00  0.00     0.005 C 
ATOM     22  C   UNL     1      -5.240  -3.087  12.290  1.00  0.00     0.003 C 
ATOM     23  C   UNL     1      -5.084  -0.772  13.363  1.00  0.00     0.010 C 
ATOM     24  C   UNL     1      -7.357  -1.693  12.804  1.00  0.00     0.012 C 
ATOM     25  C   UNL     1      -5.226  -3.874  13.664  1.00  0.00    -0.006 C 
ATOM     26  C   UNL     1      -4.271  -1.570  14.412  1.00  0.00     0.033 C 
ATOM     27  C   UNL     1      -4.942  -2.883  14.868  1.00  0.00     0.120 C 
ATOM     28  C   UNL     1      -4.059  -4.904  13.635  1.00  0.00     0.014 C 
ATOM     29  C   UNL     1      -6.521  -4.700  13.886  1.00  0.00     0.014 C 
ENDROOT
BRANCH   1  30
ATOM     30  C   UNL     1      -2.703   1.144   6.696  1.00  0.00     0.048 C 
ATOM     31  O   UNL     1      -2.251   1.436   5.556  1.00  0.00    -0.550 OA
ATOM     32  O   UNL     1      -4.078   1.187   6.899  1.00  0.00    -0.550 OA
ENDBRANCH   1  30
BRANCH  27  33
ATOM     33  O   UNL     1      -6.098  -2.574  15.608  1.00  0.00    -0.393 OA
ATOM     34  H   UNL     1      -6.872  -2.638  14.991  1.00  0.00     0.210 HD
ENDBRANCH  27  33
TORSDOF 2
ENDMDL
