MODEL 1
REMARK VINA RESULT:    -4.526      0.000      0.000
REMARK INTER + INTRA:          -5.850
REMARK INTER:                  -5.585
REMARK INTRA:                  -0.265
REMARK UNBOUND:                -0.265
REMARK SMILES CCCCC=CC(C)=O
REMARK SMILES IDX 4 1 3 2 2 3 1 4 5 5 6 6 7 7 9 8 8 9
REMARK H PARENT
REMARK Flexibility Score: inf
ROOT
ATOM      1  C   UNL     1     -27.257  20.621 -34.257  1.00  0.00     0.027 C 
ENDROOT
BRANCH   1   2
ATOM      2  C   UNL     1     -28.151  21.329 -33.231  1.00  0.00     0.004 C 
BRANCH   2   3
ATOM      3  C   UNL     1     -29.074  20.329 -32.525  1.00  0.00    -0.003 C 
ATOM      4  C   UNL     1     -29.708  19.364 -33.522  1.00  0.00     0.004 C 
ENDBRANCH   2   3
ENDBRANCH   1   2
BRANCH   1   5
ATOM      5  C   UNL     1     -25.838  20.539 -33.777  1.00  0.00    -0.023 C 
ATOM      6  C   UNL     1     -25.421  19.538 -32.994  1.00  0.00     0.042 C 
BRANCH   6   7
ATOM      7  C   UNL     1     -24.034  19.447 -32.501  1.00  0.00     0.152 C 
ATOM      8  O   UNL     1     -23.566  18.350 -32.089  1.00  0.00    -0.295 OA
ATOM      9  C   UNL     1     -23.173  20.668 -32.485  1.00  0.00     0.093 C 
ENDBRANCH   6   7
ENDBRANCH   1   5
TORSDOF 4
ENDMDL
MODEL 2
REMARK VINA RESULT:    -4.430      2.456      5.071
REMARK INTER + INTRA:          -5.731
REMARK INTER:                  -5.580
REMARK INTRA:                  -0.151
REMARK UNBOUND:                -0.265
REMARK SMILES CCCCC=CC(C)=O
REMARK SMILES IDX 4 1 3 2 2 3 1 4 5 5 6 6 7 7 9 8 8 9
REMARK H PARENT
REMARK Flexibility Score: inf
ROOT
ATOM      1  C   UNL     1     -26.584  20.681 -34.330  1.00  0.00     0.027 C 
ENDROOT
BRANCH   1   2
ATOM      2  C   UNL     1     -25.648  19.820 -33.472  1.00  0.00     0.004 C 
BRANCH   2   3
ATOM      3  C   UNL     1     -24.317  20.538 -33.220  1.00  0.00    -0.003 C 
ATOM      4  C   UNL     1     -23.533  19.866 -32.097  1.00  0.00     0.004 C 
ENDBRANCH   2   3
ENDBRANCH   1   2
BRANCH   1   5
ATOM      5  C   UNL     1     -27.987  20.657 -33.797  1.00  0.00    -0.023 C 
ATOM      6  C   UNL     1     -28.480  19.580 -33.175  1.00  0.00     0.042 C 
BRANCH   6   7
ATOM      7  C   UNL     1     -29.859  19.531 -32.656  1.00  0.00     0.152 C 
ATOM      8  O   UNL     1     -30.147  20.035 -31.536  1.00  0.00    -0.295 OA
ATOM      9  C   UNL     1     -30.931  18.874 -33.465  1.00  0.00     0.093 C 
ENDBRANCH   6   7
ENDBRANCH   1   5
TORSDOF 4
ENDMDL
MODEL 3
REMARK VINA RESULT:    -4.377      0.990      1.737
REMARK INTER + INTRA:          -5.666
REMARK INTER:                  -5.394
REMARK INTRA:                  -0.272
REMARK UNBOUND:                -0.265
REMARK SMILES CCCCC=CC(C)=O
REMARK SMILES IDX 4 1 3 2 2 3 1 4 5 5 6 6 7 7 9 8 8 9
REMARK H PARENT
REMARK Flexibility Score: inf
ROOT
ATOM      1  C   UNL     1     -27.806  19.051 -32.807  1.00  0.00     0.027 C 
ENDROOT
BRANCH   1   2
ATOM      2  C   UNL     1     -28.770  20.140 -33.293  1.00  0.00     0.004 C 
BRANCH   2   3
ATOM      3  C   UNL     1     -28.002  21.354 -33.829  1.00  0.00    -0.003 C 
ATOM      4  C   UNL     1     -28.298  22.602 -33.003  1.00  0.00     0.004 C 
ENDBRANCH   2   3
ENDBRANCH   1   2
BRANCH   1   5
ATOM      5  C   UNL     1     -26.376  19.461 -33.008  1.00  0.00    -0.023 C 
ATOM      6  C   UNL     1     -25.395  18.981 -32.235  1.00  0.00     0.042 C 
BRANCH   6   7
ATOM      7  C   UNL     1     -23.987  19.381 -32.407  1.00  0.00     0.152 C 
ATOM      8  O   UNL     1     -23.050  18.624 -32.035  1.00  0.00    -0.295 OA
ATOM      9  C   UNL     1     -23.664  20.702 -33.028  1.00  0.00     0.093 C 
ENDBRANCH   6   7
ENDBRANCH   1   5
TORSDOF 4
ENDMDL
MODEL 4
REMARK VINA RESULT:    -3.976     11.097     13.769
REMARK INTER + INTRA:          -5.171
REMARK INTER:                  -4.985
REMARK INTRA:                  -0.186
REMARK UNBOUND:                -0.265
REMARK SMILES CCCCC=CC(C)=O
REMARK SMILES IDX 4 1 3 2 2 3 1 4 5 5 6 6 7 7 9 8 8 9
REMARK H PARENT
REMARK Flexibility Score: inf
ROOT
ATOM      1  C   UNL     1     -13.219  14.456 -31.986  1.00  0.00     0.027 C 
ENDROOT
BRANCH   1   2
ATOM      2  C   UNL     1     -13.142  15.077 -30.586  1.00  0.00     0.004 C 
BRANCH   2   3
ATOM      3  C   UNL     1     -11.879  14.616 -29.848  1.00  0.00    -0.003 C 
ATOM      4  C   UNL     1     -12.205  14.163 -28.428  1.00  0.00     0.004 C 
ENDBRANCH   2   3
ENDBRANCH   1   2
BRANCH   1   5
ATOM      5  C   UNL     1     -14.641  14.191 -32.386  1.00  0.00    -0.023 C 
ATOM      6  C   UNL     1     -15.664  14.497 -31.579  1.00  0.00     0.042 C 
BRANCH   6   7
ATOM      7  C   UNL     1     -17.066  14.233 -31.948  1.00  0.00     0.152 C 
ATOM      8  O   UNL     1     -17.600  14.826 -32.925  1.00  0.00    -0.295 OA
ATOM      9  C   UNL     1     -17.868  13.253 -31.154  1.00  0.00     0.093 C 
ENDBRANCH   6   7
ENDBRANCH   1   5
TORSDOF 4
ENDMDL
MODEL 5
REMARK VINA RESULT:    -3.934     11.054     13.866
REMARK INTER + INTRA:          -5.119
REMARK INTER:                  -4.936
REMARK INTRA:                  -0.183
REMARK UNBOUND:                -0.265
REMARK SMILES CCCCC=CC(C)=O
REMARK SMILES IDX 4 1 3 2 2 3 1 4 5 5 6 6 7 7 9 8 8 9
REMARK H PARENT
REMARK Flexibility Score: inf
ROOT
ATOM      1  C   UNL     1     -13.499  15.211 -31.072  1.00  0.00     0.027 C 
ENDROOT
BRANCH   1   2
ATOM      2  C   UNL     1     -13.166  14.492 -29.758  1.00  0.00     0.004 C 
BRANCH   2   3
ATOM      3  C   UNL     1     -11.655  14.269 -29.622  1.00  0.00    -0.003 C 
ATOM      4  C   UNL     1     -10.940  14.515 -30.947  1.00  0.00     0.004 C 
ENDBRANCH   2   3
ENDBRANCH   1   2
BRANCH   1   5
ATOM      5  C   UNL     1     -14.979  15.230 -31.321  1.00  0.00    -0.023 C 
ATOM      6  C   UNL     1     -15.644  14.124 -31.674  1.00  0.00     0.042 C 
BRANCH   6   7
ATOM      7  C   UNL     1     -17.095  14.124 -31.935  1.00  0.00     0.152 C 
ATOM      8  O   UNL     1     -17.583  14.823 -32.865  1.00  0.00    -0.295 OA
ATOM      9  C   UNL     1     -18.000  13.291 -31.087  1.00  0.00     0.093 C 
ENDBRANCH   6   7
ENDBRANCH   1   5
TORSDOF 4
ENDMDL
MODEL 6
REMARK VINA RESULT:    -3.831      6.782      7.522
REMARK INTER + INTRA:          -4.992
REMARK INTER:                  -4.730
REMARK INTRA:                  -0.262
REMARK UNBOUND:                -0.265
REMARK SMILES CCCCC=CC(C)=O
REMARK SMILES IDX 4 1 3 2 2 3 1 4 5 5 6 6 7 7 9 8 8 9
REMARK H PARENT
REMARK Flexibility Score: inf
ROOT
ATOM      1  C   UNL     1     -27.000  12.165 -29.387  1.00  0.00     0.027 C 
ENDROOT
BRANCH   1   2
ATOM      2  C   UNL     1     -28.141  11.913 -30.380  1.00  0.00     0.004 C 
BRANCH   2   3
ATOM      3  C   UNL     1     -29.505  12.013 -29.686  1.00  0.00    -0.003 C 
ATOM      4  C   UNL     1     -29.350  12.404 -28.219  1.00  0.00     0.004 C 
ENDBRANCH   2   3
ENDBRANCH   1   2
BRANCH   1   5
ATOM      5  C   UNL     1     -26.125  13.298 -29.839  1.00  0.00    -0.023 C 
ATOM      6  C   UNL     1     -26.613  14.531 -30.015  1.00  0.00     0.042 C 
BRANCH   6   7
ATOM      7  C   UNL     1     -25.774  15.654 -30.471  1.00  0.00     0.152 C 
ATOM      8  O   UNL     1     -24.620  15.450 -30.938  1.00  0.00    -0.295 OA
ATOM      9  C   UNL     1     -26.294  17.052 -30.378  1.00  0.00     0.093 C 
ENDBRANCH   6   7
ENDBRANCH   1   5
TORSDOF 4
ENDMDL
MODEL 7
REMARK VINA RESULT:    -3.748      7.483      8.253
REMARK INTER + INTRA:          -4.890
REMARK INTER:                  -4.708
REMARK INTRA:                  -0.182
REMARK UNBOUND:                -0.265
REMARK SMILES CCCCC=CC(C)=O
REMARK SMILES IDX 4 1 3 2 2 3 1 4 5 5 6 6 7 7 9 8 8 9
REMARK H PARENT
REMARK Flexibility Score: inf
ROOT
ATOM      1  C   UNL     1     -28.670  12.218 -28.367  1.00  0.00     0.027 C 
ENDROOT
BRANCH   1   2
ATOM      2  C   UNL     1     -30.026  12.068 -29.068  1.00  0.00     0.004 C 
BRANCH   2   3
ATOM      3  C   UNL     1     -29.932  11.086 -30.242  1.00  0.00    -0.003 C 
ATOM      4  C   UNL     1     -31.041  11.335 -31.259  1.00  0.00     0.004 C 
ENDBRANCH   2   3
ENDBRANCH   1   2
BRANCH   1   5
ATOM      5  C   UNL     1     -27.890  13.369 -28.931  1.00  0.00    -0.023 C 
ATOM      6  C   UNL     1     -26.850  13.175 -29.750  1.00  0.00     0.042 C 
BRANCH   6   7
ATOM      7  C   UNL     1     -26.064  14.292 -30.304  1.00  0.00     0.152 C 
ATOM      8  O   UNL     1     -26.635  15.296 -30.812  1.00  0.00    -0.295 OA
ATOM      9  C   UNL     1     -24.570  14.235 -30.269  1.00  0.00     0.093 C 
ENDBRANCH   6   7
ENDBRANCH   1   5
TORSDOF 4
ENDMDL
MODEL 8
REMARK VINA RESULT:    -3.618     11.296     12.868
REMARK INTER + INTRA:          -4.729
REMARK INTER:                  -4.487
REMARK INTRA:                  -0.241
REMARK UNBOUND:                -0.265
REMARK SMILES CCCCC=CC(C)=O
REMARK SMILES IDX 4 1 3 2 2 3 1 4 5 5 6 6 7 7 9 8 8 9
REMARK H PARENT
REMARK Flexibility Score: inf
ROOT
ATOM      1  C   UNL     1     -17.427  13.238 -28.452  1.00  0.00     0.027 C 
ENDROOT
BRANCH   1   2
ATOM      2  C   UNL     1     -17.191  11.724 -28.387  1.00  0.00     0.004 C 
BRANCH   2   3
ATOM      3  C   UNL     1     -15.708  11.409 -28.156  1.00  0.00    -0.003 C 
ATOM      4  C   UNL     1     -15.275  11.802 -26.747  1.00  0.00     0.004 C 
ENDBRANCH   2   3
ENDBRANCH   1   2
BRANCH   1   5
ATOM      5  C   UNL     1     -16.877  13.820 -29.721  1.00  0.00    -0.023 C 
ATOM      6  C   UNL     1     -17.425  13.550 -30.911  1.00  0.00     0.042 C 
BRANCH   6   7
ATOM      7  C   UNL     1     -16.891  14.101 -32.170  1.00  0.00     0.152 C 
ATOM      8  O   UNL     1     -17.598  14.847 -32.900  1.00  0.00    -0.295 OA
ATOM      9  C   UNL     1     -15.495  13.770 -32.589  1.00  0.00     0.093 C 
ENDBRANCH   6   7
ENDBRANCH   1   5
TORSDOF 4
ENDMDL
MODEL 9
REMARK VINA RESULT:    -3.525     10.573     12.023
REMARK INTER + INTRA:          -4.614
REMARK INTER:                  -4.337
REMARK INTRA:                  -0.277
REMARK UNBOUND:                -0.265
REMARK SMILES CCCCC=CC(C)=O
REMARK SMILES IDX 4 1 3 2 2 3 1 4 5 5 6 6 7 7 9 8 8 9
REMARK H PARENT
REMARK Flexibility Score: inf
ROOT
ATOM      1  C   UNL     1     -17.468  13.706 -29.118  1.00  0.00     0.027 C 
ENDROOT
BRANCH   1   2
ATOM      2  C   UNL     1     -17.614  12.180 -29.097  1.00  0.00     0.004 C 
BRANCH   2   3
ATOM      3  C   UNL     1     -19.091  11.769 -29.137  1.00  0.00    -0.003 C 
ATOM      4  C   UNL     1     -19.945  12.847 -29.798  1.00  0.00     0.004 C 
ENDBRANCH   2   3
ENDBRANCH   1   2
BRANCH   1   5
ATOM      5  C   UNL     1     -16.542  14.149 -30.213  1.00  0.00    -0.023 C 
ATOM      6  C   UNL     1     -16.292  13.373 -31.274  1.00  0.00     0.042 C 
BRANCH   6   7
ATOM      7  C   UNL     1     -15.376  13.784 -32.354  1.00  0.00     0.152 C 
ATOM      8  O   UNL     1     -15.797  13.947 -33.531  1.00  0.00    -0.295 OA
ATOM      9  C   UNL     1     -13.929  14.008 -32.052  1.00  0.00     0.093 C 
ENDBRANCH   6   7
ENDBRANCH   1   5
TORSDOF 4
ENDMDL
