MODEL 1
REMARK VINA RESULT:    -5.252      0.000      0.000
REMARK INTER + INTRA:          -8.495
REMARK INTER:                  -8.015
REMARK INTRA:                  -0.480
REMARK UNBOUND:                -0.480
REMARK SMILES O=C([O-])CCCCCCCCC(=O)[O-]
REMARK SMILES IDX 7 1 6 2 5 3 4 4 2 5 1 6 3 7 8 8 9 9 10 10 11 11 12 12 13 13
REMARK SMILES IDX 14 14
REMARK H PARENT
REMARK Flexibility Score: inf
ROOT
ATOM      1  C   UNL     1     -10.875 -15.837  27.150  1.00  0.00     0.000 C 
ENDROOT
BRANCH   1   2
ATOM      2  C   UNL     1     -10.366 -14.941  26.003  1.00  0.00     0.000 C 
BRANCH   2   3
ATOM      3  C   UNL     1      -9.015 -14.252  26.267  1.00  0.00     0.006 C 
BRANCH   3   4
ATOM      4  C   UNL     1      -7.887 -15.249  26.564  1.00  0.00     0.053 C 
BRANCH   4   5
ATOM      5  C   UNL     1      -6.953 -14.688  27.589  1.00  0.00     0.041 C 
ATOM      6  O   UNL     1      -7.293 -14.647  28.800  1.00  0.00    -0.550 OA
ATOM      7  O   UNL     1      -5.686 -14.256  27.214  1.00  0.00    -0.550 OA
ENDBRANCH   4   5
ENDBRANCH   3   4
ENDBRANCH   2   3
ENDBRANCH   1   2
BRANCH   1   8
ATOM      8  C   UNL     1     -12.404 -16.025  27.201  1.00  0.00     0.000 C 
BRANCH   8   9
ATOM      9  C   UNL     1     -12.973 -16.373  28.591  1.00  0.00     0.000 C 
BRANCH   9  10
ATOM     10  C   UNL     1     -11.998 -16.161  29.763  1.00  0.00     0.006 C 
BRANCH  10  11
ATOM     11  C   UNL     1     -11.720 -17.450  30.547  1.00  0.00     0.053 C 
BRANCH  11  12
ATOM     12  C   UNL     1     -10.259 -17.770  30.526  1.00  0.00     0.041 C 
ATOM     13  O   UNL     1      -9.872 -18.957  30.364  1.00  0.00    -0.550 OA
ATOM     14  O   UNL     1      -9.324 -16.764  30.736  1.00  0.00    -0.550 OA
ENDBRANCH  11  12
ENDBRANCH  10  11
ENDBRANCH   9  10
ENDBRANCH   8   9
ENDBRANCH   1   8
TORSDOF 9
ENDMDL
MODEL 2
REMARK VINA RESULT:    -5.145      0.935      5.055
REMARK INTER + INTRA:          -8.333
REMARK INTER:                  -7.902
REMARK INTRA:                  -0.431
REMARK UNBOUND:                -0.480
REMARK SMILES O=C([O-])CCCCCCCCC(=O)[O-]
REMARK SMILES IDX 7 1 6 2 5 3 4 4 2 5 1 6 3 7 8 8 9 9 10 10 11 11 12 12 13 13
REMARK SMILES IDX 14 14
REMARK H PARENT
REMARK Flexibility Score: inf
ROOT
ATOM      1  C   UNL     1     -10.695 -15.951  27.369  1.00  0.00     0.000 C 
ENDROOT
BRANCH   1   2
ATOM      2  C   UNL     1     -12.144 -16.446  27.547  1.00  0.00     0.000 C 
BRANCH   2   3
ATOM      3  C   UNL     1     -12.464 -17.035  28.933  1.00  0.00     0.006 C 
BRANCH   3   4
ATOM      4  C   UNL     1     -11.679 -18.318  29.230  1.00  0.00     0.053 C 
BRANCH   4   5
ATOM      5  C   UNL     1     -10.723 -18.095  30.360  1.00  0.00     0.041 C 
ATOM      6  O   UNL     1     -10.833 -17.076  31.090  1.00  0.00    -0.550 OA
ATOM      7  O   UNL     1      -9.741 -19.038  30.636  1.00  0.00    -0.550 OA
ENDBRANCH   4   5
ENDBRANCH   3   4
ENDBRANCH   2   3
ENDBRANCH   1   2
BRANCH   1   8
ATOM      8  C   UNL     1     -10.491 -14.928  26.234  1.00  0.00     0.000 C 
BRANCH   8   9
ATOM      9  C   UNL     1      -9.087 -14.295  26.171  1.00  0.00     0.000 C 
BRANCH   9  10
ATOM     10  C   UNL     1      -7.934 -15.230  26.580  1.00  0.00     0.006 C 
BRANCH  10  11
ATOM     11  C   UNL     1      -6.673 -14.469  27.008  1.00  0.00     0.053 C 
BRANCH  11  12
ATOM     12  C   UNL     1      -6.534 -14.483  28.497  1.00  0.00     0.041 C 
ATOM     13  O   UNL     1      -7.498 -14.847  29.221  1.00  0.00    -0.550 OA
ATOM     14  O   UNL     1      -5.356 -14.046  29.090  1.00  0.00    -0.550 OA
ENDBRANCH  11  12
ENDBRANCH  10  11
ENDBRANCH   9  10
ENDBRANCH   8   9
ENDBRANCH   1   8
TORSDOF 9
ENDMDL
MODEL 3
REMARK VINA RESULT:    -5.127      2.013      3.224
REMARK INTER + INTRA:          -8.305
REMARK INTER:                  -7.795
REMARK INTRA:                  -0.510
REMARK UNBOUND:                -0.480
REMARK SMILES O=C([O-])CCCCCCCCC(=O)[O-]
REMARK SMILES IDX 7 1 6 2 5 3 4 4 2 5 1 6 3 7 8 8 9 9 10 10 11 11 12 12 13 13
REMARK SMILES IDX 14 14
REMARK H PARENT
REMARK Flexibility Score: inf
ROOT
ATOM      1  C   UNL     1      -8.109 -15.259  26.557  1.00  0.00     0.000 C 
ENDROOT
BRANCH   1   2
ATOM      2  C   UNL     1      -6.963 -14.276  26.869  1.00  0.00     0.000 C 
BRANCH   2   3
ATOM      3  C   UNL     1      -6.196 -14.564  28.172  1.00  0.00     0.006 C 
BRANCH   3   4
ATOM      4  C   UNL     1      -6.454 -13.513  29.259  1.00  0.00     0.053 C 
BRANCH   4   5
ATOM      5  C   UNL     1      -7.171 -14.128  30.420  1.00  0.00     0.041 C 
ATOM      6  O   UNL     1      -7.849 -15.176  30.261  1.00  0.00    -0.550 OA
ATOM      7  O   UNL     1      -7.050 -13.570  31.686  1.00  0.00    -0.550 OA
ENDBRANCH   4   5
ENDBRANCH   3   4
ENDBRANCH   2   3
ENDBRANCH   1   2
BRANCH   1   8
ATOM      8  C   UNL     1      -9.431 -14.601  26.115  1.00  0.00     0.000 C 
BRANCH   8   9
ATOM      9  C   UNL     1     -10.709 -15.327  26.579  1.00  0.00     0.000 C 
BRANCH   9  10
ATOM     10  C   UNL     1     -10.531 -16.229  27.813  1.00  0.00     0.006 C 
BRANCH  10  11
ATOM     11  C   UNL     1     -11.744 -17.131  28.071  1.00  0.00     0.053 C 
BRANCH  11  12
ATOM     12  C   UNL     1     -12.427 -16.738  29.343  1.00  0.00     0.041 C 
ATOM     13  O   UNL     1     -13.648 -16.992  29.512  1.00  0.00    -0.550 OA
ATOM     14  O   UNL     1     -11.727 -16.042  30.322  1.00  0.00    -0.550 OA
ENDBRANCH  11  12
ENDBRANCH  10  11
ENDBRANCH   9  10
ENDBRANCH   8   9
ENDBRANCH   1   8
TORSDOF 9
ENDMDL
MODEL 4
REMARK VINA RESULT:    -5.089      3.666      7.489
REMARK INTER + INTRA:          -8.246
REMARK INTER:                  -7.784
REMARK INTRA:                  -0.463
REMARK UNBOUND:                -0.480
REMARK SMILES O=C([O-])CCCCCCCCC(=O)[O-]
REMARK SMILES IDX 7 1 6 2 5 3 4 4 2 5 1 6 3 7 8 8 9 9 10 10 11 11 12 12 13 13
REMARK SMILES IDX 14 14
REMARK H PARENT
REMARK Flexibility Score: inf
ROOT
ATOM      1  C   UNL     1     -13.308 -17.805  31.626  1.00  0.00     0.000 C 
ENDROOT
BRANCH   1   2
ATOM      2  C   UNL     1     -12.540 -19.030  32.162  1.00  0.00     0.000 C 
BRANCH   2   3
ATOM      3  C   UNL     1     -12.884 -19.431  33.608  1.00  0.00     0.006 C 
BRANCH   3   4
ATOM      4  C   UNL     1     -12.233 -20.754  34.029  1.00  0.00     0.053 C 
BRANCH   4   5
ATOM      5  C   UNL     1     -13.239 -21.644  34.689  1.00  0.00     0.041 C 
ATOM      6  O   UNL     1     -13.018 -22.879  34.795  1.00  0.00    -0.550 OA
ATOM      7  O   UNL     1     -14.397 -21.101  35.232  1.00  0.00    -0.550 OA
ENDBRANCH   4   5
ENDBRANCH   3   4
ENDBRANCH   2   3
ENDBRANCH   1   2
BRANCH   1   8
ATOM      8  C   UNL     1     -13.505 -17.777  30.098  1.00  0.00     0.000 C 
BRANCH   8   9
ATOM      9  C   UNL     1     -12.926 -16.537  29.388  1.00  0.00     0.000 C 
BRANCH   9  10
ATOM     10  C   UNL     1     -11.970 -16.845  28.222  1.00  0.00     0.006 C 
BRANCH  10  11
ATOM     11  C   UNL     1     -10.497 -16.615  28.583  1.00  0.00     0.053 C 
BRANCH  11  12
ATOM     12  C   UNL     1     -10.107 -17.464  29.751  1.00  0.00     0.041 C 
ATOM     13  O   UNL     1      -9.722 -16.929  30.824  1.00  0.00    -0.550 OA
ATOM     14  O   UNL     1     -10.118 -18.849  29.638  1.00  0.00    -0.550 OA
ENDBRANCH  11  12
ENDBRANCH  10  11
ENDBRANCH   9  10
ENDBRANCH   8   9
ENDBRANCH   1   8
TORSDOF 9
ENDMDL
MODEL 5
REMARK VINA RESULT:    -5.045      2.586      4.363
REMARK INTER + INTRA:          -8.179
REMARK INTER:                  -7.537
REMARK INTRA:                  -0.643
REMARK UNBOUND:                -0.480
REMARK SMILES O=C([O-])CCCCCCCCC(=O)[O-]
REMARK SMILES IDX 7 1 6 2 5 3 4 4 2 5 1 6 3 7 8 8 9 9 10 10 11 11 12 12 13 13
REMARK SMILES IDX 14 14
REMARK H PARENT
REMARK Flexibility Score: inf
ROOT
ATOM      1  C   UNL     1     -11.015 -18.864  31.498  1.00  0.00     0.000 C 
ENDROOT
BRANCH   1   2
ATOM      2  C   UNL     1      -9.781 -18.372  30.715  1.00  0.00     0.000 C 
BRANCH   2   3
ATOM      3  C   UNL     1      -9.499 -16.863  30.829  1.00  0.00     0.006 C 
BRANCH   3   4
ATOM      4  C   UNL     1      -8.194 -16.556  31.575  1.00  0.00     0.053 C 
BRANCH   4   5
ATOM      5  C   UNL     1      -7.549 -15.328  31.012  1.00  0.00     0.041 C 
ATOM      6  O   UNL     1      -6.797 -14.622  31.734  1.00  0.00    -0.550 OA
ATOM      7  O   UNL     1      -7.738 -14.992  29.678  1.00  0.00    -0.550 OA
ENDBRANCH   4   5
ENDBRANCH   3   4
ENDBRANCH   2   3
ENDBRANCH   1   2
BRANCH   1   8
ATOM      8  C   UNL     1     -12.262 -17.967  31.381  1.00  0.00     0.000 C 
BRANCH   8   9
ATOM      9  C   UNL     1     -12.992 -18.037  30.026  1.00  0.00     0.000 C 
BRANCH   9  10
ATOM     10  C   UNL     1     -12.809 -16.803  29.124  1.00  0.00     0.006 C 
BRANCH  10  11
ATOM     11  C   UNL     1     -11.883 -17.069  27.932  1.00  0.00     0.053 C 
BRANCH  11  12
ATOM     12  C   UNL     1     -11.962 -15.946  26.947  1.00  0.00     0.041 C 
ATOM     13  O   UNL     1     -10.929 -15.294  26.642  1.00  0.00    -0.550 OA
ATOM     14  O   UNL     1     -13.189 -15.584  26.403  1.00  0.00    -0.550 OA
ENDBRANCH  11  12
ENDBRANCH  10  11
ENDBRANCH   9  10
ENDBRANCH   8   9
ENDBRANCH   1   8
TORSDOF 9
ENDMDL
MODEL 6
REMARK VINA RESULT:    -5.042      1.804      4.995
REMARK INTER + INTRA:          -8.176
REMARK INTER:                  -7.605
REMARK INTRA:                  -0.571
REMARK UNBOUND:                -0.480
REMARK SMILES O=C([O-])CCCCCCCCC(=O)[O-]
REMARK SMILES IDX 7 1 6 2 5 3 4 4 2 5 1 6 3 7 8 8 9 9 10 10 11 11 12 12 13 13
REMARK SMILES IDX 14 14
REMARK H PARENT
REMARK Flexibility Score: inf
ROOT
ATOM      1  C   UNL     1      -9.162 -14.596  25.923  1.00  0.00     0.000 C 
ENDROOT
BRANCH   1   2
ATOM      2  C   UNL     1     -10.580 -15.066  26.305  1.00  0.00     0.000 C 
BRANCH   2   3
ATOM      3  C   UNL     1     -10.653 -15.963  27.554  1.00  0.00     0.006 C 
BRANCH   3   4
ATOM      4  C   UNL     1     -12.067 -16.493  27.824  1.00  0.00     0.053 C 
BRANCH   4   5
ATOM      5  C   UNL     1     -12.144 -17.101  29.190  1.00  0.00     0.041 C 
ATOM      6  O   UNL     1     -11.974 -16.385  30.211  1.00  0.00    -0.550 OA
ATOM      7  O   UNL     1     -12.453 -18.447  29.335  1.00  0.00    -0.550 OA
ENDBRANCH   4   5
ENDBRANCH   3   4
ENDBRANCH   2   3
ENDBRANCH   1   2
BRANCH   1   8
ATOM      8  C   UNL     1      -8.016 -15.317  26.659  1.00  0.00     0.000 C 
BRANCH   8   9
ATOM      9  C   UNL     1      -6.736 -14.480  26.853  1.00  0.00     0.000 C 
BRANCH   9  10
ATOM     10  C   UNL     1      -6.147 -14.513  28.274  1.00  0.00     0.006 C 
BRANCH  10  11
ATOM     11  C   UNL     1      -7.030 -13.794  29.302  1.00  0.00     0.053 C 
BRANCH  11  12
ATOM     12  C   UNL     1      -7.397 -14.723  30.416  1.00  0.00     0.041 C 
ATOM     13  O   UNL     1      -8.362 -15.520  30.285  1.00  0.00    -0.550 OA
ATOM     14  O   UNL     1      -6.704 -14.672  31.620  1.00  0.00    -0.550 OA
ENDBRANCH  11  12
ENDBRANCH  10  11
ENDBRANCH   9  10
ENDBRANCH   8   9
ENDBRANCH   1   8
TORSDOF 9
ENDMDL
MODEL 7
REMARK VINA RESULT:    -5.031      1.381      2.091
REMARK INTER + INTRA:          -8.159
REMARK INTER:                  -7.724
REMARK INTRA:                  -0.434
REMARK UNBOUND:                -0.480
REMARK SMILES O=C([O-])CCCCCCCCC(=O)[O-]
REMARK SMILES IDX 7 1 6 2 5 3 4 4 2 5 1 6 3 7 8 8 9 9 10 10 11 11 12 12 13 13
REMARK SMILES IDX 14 14
REMARK H PARENT
REMARK Flexibility Score: inf
ROOT
ATOM      1  C   UNL     1      -9.553 -14.773  25.882  1.00  0.00     0.000 C 
ENDROOT
BRANCH   1   2
ATOM      2  C   UNL     1      -8.267 -15.270  26.572  1.00  0.00     0.000 C 
BRANCH   2   3
ATOM      3  C   UNL     1      -7.139 -14.227  26.670  1.00  0.00     0.006 C 
BRANCH   3   4
ATOM      4  C   UNL     1      -6.044 -14.629  27.667  1.00  0.00     0.053 C 
BRANCH   4   5
ATOM      5  C   UNL     1      -6.041 -13.699  28.840  1.00  0.00     0.041 C 
ATOM      6  O   UNL     1      -5.065 -12.928  29.033  1.00  0.00    -0.550 OA
ATOM      7  O   UNL     1      -7.138 -13.650  29.691  1.00  0.00    -0.550 OA
ENDBRANCH   4   5
ENDBRANCH   3   4
ENDBRANCH   2   3
ENDBRANCH   1   2
BRANCH   1   8
ATOM      8  C   UNL     1     -10.867 -15.266  26.518  1.00  0.00     0.000 C 
BRANCH   8   9
ATOM      9  C   UNL     1     -10.695 -16.154  27.767  1.00  0.00     0.000 C 
BRANCH   9  10
ATOM     10  C   UNL     1     -11.877 -17.094  28.063  1.00  0.00     0.006 C 
BRANCH  10  11
ATOM     11  C   UNL     1     -11.491 -18.268  28.971  1.00  0.00     0.053 C 
BRANCH  11  12
ATOM     12  C   UNL     1     -10.914 -17.767  30.257  1.00  0.00     0.041 C 
ATOM     13  O   UNL     1      -9.758 -18.118  30.613  1.00  0.00    -0.550 OA
ATOM     14  O   UNL     1     -11.671 -16.951  31.088  1.00  0.00    -0.550 OA
ENDBRANCH  11  12
ENDBRANCH  10  11
ENDBRANCH   9  10
ENDBRANCH   8   9
ENDBRANCH   1   8
TORSDOF 9
ENDMDL
MODEL 8
REMARK VINA RESULT:    -5.019      3.514      4.834
REMARK INTER + INTRA:          -8.140
REMARK INTER:                  -7.892
REMARK INTRA:                  -0.248
REMARK UNBOUND:                -0.480
REMARK SMILES O=C([O-])CCCCCCCCC(=O)[O-]
REMARK SMILES IDX 7 1 6 2 5 3 4 4 2 5 1 6 3 7 8 8 9 9 10 10 11 11 12 12 13 13
REMARK SMILES IDX 14 14
REMARK H PARENT
REMARK Flexibility Score: inf
ROOT
ATOM      1  C   UNL     1     -13.405 -17.595  30.076  1.00  0.00     0.000 C 
ENDROOT
BRANCH   1   2
ATOM      2  C   UNL     1     -13.100 -16.530  29.004  1.00  0.00     0.000 C 
BRANCH   2   3
ATOM      3  C   UNL     1     -11.882 -16.834  28.114  1.00  0.00     0.006 C 
BRANCH   3   4
ATOM      4  C   UNL     1     -11.784 -15.900  26.901  1.00  0.00     0.053 C 
BRANCH   4   5
ATOM      5  C   UNL     1     -10.387 -15.383  26.752  1.00  0.00     0.041 C 
ATOM      6  O   UNL     1     -10.111 -14.557  25.844  1.00  0.00    -0.550 OA
ATOM      7  O   UNL     1      -9.401 -15.777  27.649  1.00  0.00    -0.550 OA
ENDBRANCH   4   5
ENDBRANCH   3   4
ENDBRANCH   2   3
ENDBRANCH   1   2
BRANCH   1   8
ATOM      8  C   UNL     1     -12.480 -17.564  31.309  1.00  0.00     0.000 C 
BRANCH   8   9
ATOM      9  C   UNL     1     -12.060 -18.946  31.845  1.00  0.00     0.000 C 
BRANCH   9  10
ATOM     10  C   UNL     1     -13.126 -19.665  32.693  1.00  0.00     0.006 C 
BRANCH  10  11
ATOM     11  C   UNL     1     -12.610 -20.072  34.078  1.00  0.00     0.053 C 
BRANCH  11  12
ATOM     12  C   UNL     1     -12.816 -21.536  34.303  1.00  0.00     0.041 C 
ATOM     13  O   UNL     1     -11.940 -22.216  34.899  1.00  0.00    -0.550 OA
ATOM     14  O   UNL     1     -13.954 -22.163  33.808  1.00  0.00    -0.550 OA
ENDBRANCH  11  12
ENDBRANCH  10  11
ENDBRANCH   9  10
ENDBRANCH   8   9
ENDBRANCH   1   8
TORSDOF 9
ENDMDL
MODEL 9
REMARK VINA RESULT:    -5.018      3.473      7.335
REMARK INTER + INTRA:          -8.138
REMARK INTER:                  -7.592
REMARK INTRA:                  -0.546
REMARK UNBOUND:                -0.480
REMARK SMILES O=C([O-])CCCCCCCCC(=O)[O-]
REMARK SMILES IDX 7 1 6 2 5 3 4 4 2 5 1 6 3 7 8 8 9 9 10 10 11 11 12 12 13 13
REMARK SMILES IDX 14 14
REMARK H PARENT
REMARK Flexibility Score: inf
ROOT
ATOM      1  C   UNL     1     -12.341 -18.581  31.419  1.00  0.00     0.000 C 
ENDROOT
BRANCH   1   2
ATOM      2  C   UNL     1     -13.134 -17.990  32.601  1.00  0.00     0.000 C 
BRANCH   2   3
ATOM      3  C   UNL     1     -13.354 -18.952  33.782  1.00  0.00     0.006 C 
BRANCH   3   4
ATOM      4  C   UNL     1     -12.399 -20.152  33.758  1.00  0.00     0.053 C 
BRANCH   4   5
ATOM      5  C   UNL     1     -13.160 -21.428  33.933  1.00  0.00     0.041 C 
ATOM      6  O   UNL     1     -14.097 -21.719  33.145  1.00  0.00    -0.550 OA
ATOM      7  O   UNL     1     -12.801 -22.320  34.937  1.00  0.00    -0.550 OA
ENDBRANCH   4   5
ENDBRANCH   3   4
ENDBRANCH   2   3
ENDBRANCH   1   2
BRANCH   1   8
ATOM      8  C   UNL     1     -13.051 -18.504  30.053  1.00  0.00     0.000 C 
BRANCH   8   9
ATOM      9  C   UNL     1     -13.652 -17.128  29.707  1.00  0.00     0.000 C 
BRANCH   9  10
ATOM     10  C   UNL     1     -12.944 -16.379  28.564  1.00  0.00     0.006 C 
BRANCH  10  11
ATOM     11  C   UNL     1     -11.740 -17.146  28.004  1.00  0.00     0.053 C 
BRANCH  11  12
ATOM     12  C   UNL     1     -10.489 -16.342  28.162  1.00  0.00     0.041 C 
ATOM     13  O   UNL     1      -9.844 -16.377  29.243  1.00  0.00    -0.550 OA
ATOM     14  O   UNL     1     -10.061 -15.513  27.132  1.00  0.00    -0.550 OA
ENDBRANCH  11  12
ENDBRANCH  10  11
ENDBRANCH   9  10
ENDBRANCH   8   9
ENDBRANCH   1   8
TORSDOF 9
ENDMDL
