MODEL 1
REMARK VINA RESULT:    -5.082      0.000      0.000
REMARK INTER + INTRA:         -10.348
REMARK INTER:                  -8.944
REMARK INTRA:                  -1.404
REMARK UNBOUND:                -1.404
REMARK SMILES CCCCCCCCCCCCCCC(=O)[O-]
REMARK SMILES IDX 9 1 10 2 11 3 12 4 13 5 14 6 15 7 16 8 17 9 8 10 7 11 6 12
REMARK SMILES IDX 5 13 4 14 3 15 2 16 1 17
REMARK H PARENT
REMARK Flexibility Score: inf
ROOT
ATOM      1  C   UNL     1      22.746   7.508  12.951  1.00  0.00     0.000 C 
ENDROOT
BRANCH   1   2
ATOM      2  C   UNL     1      23.924   6.520  12.872  1.00  0.00     0.000 C 
BRANCH   2   3
ATOM      3  C   UNL     1      25.292   7.206  13.038  1.00  0.00     0.000 C 
BRANCH   3   4
ATOM      4  C   UNL     1      25.261   8.743  12.958  1.00  0.00     0.000 C 
BRANCH   4   5
ATOM      5  C   UNL     1      25.638   9.279  11.567  1.00  0.00     0.006 C 
BRANCH   5   6
ATOM      6  C   UNL     1      24.449   9.943  10.859  1.00  0.00     0.053 C 
BRANCH   6   7
ATOM      7  C   UNL     1      23.885   9.071   9.779  1.00  0.00     0.041 C 
ATOM      8  O   UNL     1      22.909   9.467   9.090  1.00  0.00    -0.550 OA
ATOM      9  O   UNL     1      24.420   7.809   9.553  1.00  0.00    -0.550 OA
ENDBRANCH   6   7
ENDBRANCH   5   6
ENDBRANCH   4   5
ENDBRANCH   3   4
ENDBRANCH   2   3
ENDBRANCH   1   2
BRANCH   1  10
ATOM     10  C   UNL     1      21.635   7.182  11.941  1.00  0.00     0.000 C 
BRANCH  10  11
ATOM     11  C   UNL     1      20.691   8.374  11.701  1.00  0.00    -0.000 C 
BRANCH  11  12
ATOM     12  C   UNL     1      19.360   7.956  11.055  1.00  0.00    -0.000 C 
BRANCH  12  13
ATOM     13  C   UNL     1      19.157   6.432  11.059  1.00  0.00    -0.000 C 
BRANCH  13  14
ATOM     14  C   UNL     1      19.307   5.805   9.660  1.00  0.00    -0.000 C 
BRANCH  14  15
ATOM     15  C   UNL     1      20.046   6.677   8.624  1.00  0.00    -0.000 C 
BRANCH  15  16
ATOM     16  C   UNL     1      19.181   7.160   7.446  1.00  0.00    -0.003 C 
ATOM     17  C   UNL     1      19.659   8.490   6.863  1.00  0.00     0.004 C 
ENDBRANCH  15  16
ENDBRANCH  14  15
ENDBRANCH  13  14
ENDBRANCH  12  13
ENDBRANCH  11  12
ENDBRANCH  10  11
ENDBRANCH   1  10
TORSDOF 13
ENDMDL
MODEL 2
REMARK VINA RESULT:    -4.895      1.992      2.647
REMARK INTER + INTRA:         -10.019
REMARK INTER:                  -8.405
REMARK INTRA:                  -1.614
REMARK UNBOUND:                -1.404
REMARK SMILES CCCCCCCCCCCCCCC(=O)[O-]
REMARK SMILES IDX 9 1 10 2 11 3 12 4 13 5 14 6 15 7 16 8 17 9 8 10 7 11 6 12
REMARK SMILES IDX 5 13 4 14 3 15 2 16 1 17
REMARK H PARENT
REMARK Flexibility Score: inf
ROOT
ATOM      1  C   UNL     1      22.336   9.272  10.358  1.00  0.00     0.000 C 
ENDROOT
BRANCH   1   2
ATOM      2  C   UNL     1      23.520   9.056   9.400  1.00  0.00     0.000 C 
BRANCH   2   3
ATOM      3  C   UNL     1      24.362   7.819   9.758  1.00  0.00     0.000 C 
BRANCH   3   4
ATOM      4  C   UNL     1      25.809   8.120  10.188  1.00  0.00     0.000 C 
BRANCH   4   5
ATOM      5  C   UNL     1      25.937   9.430  10.985  1.00  0.00     0.006 C 
BRANCH   5   6
ATOM      6  C   UNL     1      25.799   9.204  12.497  1.00  0.00     0.053 C 
BRANCH   6   7
ATOM      7  C   UNL     1      24.868  10.195  13.125  1.00  0.00     0.041 C 
ATOM      8  O   UNL     1      23.926   9.802  13.862  1.00  0.00    -0.550 OA
ATOM      9  O   UNL     1      25.024  11.553  12.874  1.00  0.00    -0.550 OA
ENDBRANCH   6   7
ENDBRANCH   5   6
ENDBRANCH   4   5
ENDBRANCH   3   4
ENDBRANCH   2   3
ENDBRANCH   1   2
BRANCH   1  10
ATOM     10  C   UNL     1      22.157   8.108  11.345  1.00  0.00     0.000 C 
BRANCH  10  11
ATOM     11  C   UNL     1      20.793   8.146  12.058  1.00  0.00    -0.000 C 
BRANCH  11  12
ATOM     12  C   UNL     1      19.613   7.953  11.092  1.00  0.00    -0.000 C 
BRANCH  12  13
ATOM     13  C   UNL     1      19.134   6.493  11.031  1.00  0.00    -0.000 C 
BRANCH  13  14
ATOM     14  C   UNL     1      19.338   5.854   9.645  1.00  0.00    -0.000 C 
BRANCH  14  15
ATOM     15  C   UNL     1      20.128   6.711   8.635  1.00  0.00    -0.000 C 
BRANCH  15  16
ATOM     16  C   UNL     1      19.311   7.218   7.433  1.00  0.00    -0.003 C 
ATOM     17  C   UNL     1      19.832   8.542   6.875  1.00  0.00     0.004 C 
ENDBRANCH  15  16
ENDBRANCH  14  15
ENDBRANCH  13  14
ENDBRANCH  12  13
ENDBRANCH  11  12
ENDBRANCH  10  11
ENDBRANCH   1  10
TORSDOF 13
ENDMDL
MODEL 3
REMARK VINA RESULT:    -4.834      1.771      2.771
REMARK INTER + INTRA:          -9.911
REMARK INTER:                  -8.487
REMARK INTRA:                  -1.425
REMARK UNBOUND:                -1.404
REMARK SMILES CCCCCCCCCCCCCCC(=O)[O-]
REMARK SMILES IDX 9 1 10 2 11 3 12 4 13 5 14 6 15 7 16 8 17 9 8 10 7 11 6 12
REMARK SMILES IDX 5 13 4 14 3 15 2 16 1 17
REMARK H PARENT
REMARK Flexibility Score: inf
ROOT
ATOM      1  C   UNL     1      22.690   8.422   9.933  1.00  0.00     0.000 C 
ENDROOT
BRANCH   1   2
ATOM      2  C   UNL     1      23.848   9.426   9.803  1.00  0.00     0.000 C 
BRANCH   2   3
ATOM      3  C   UNL     1      24.889   9.288  10.929  1.00  0.00     0.000 C 
BRANCH   3   4
ATOM      4  C   UNL     1      24.729  10.290  12.087  1.00  0.00     0.000 C 
BRANCH   4   5
ATOM      5  C   UNL     1      24.752   9.616  13.469  1.00  0.00     0.006 C 
BRANCH   5   6
ATOM      6  C   UNL     1      23.529   8.718  13.697  1.00  0.00     0.053 C 
BRANCH   6   7
ATOM      7  C   UNL     1      23.895   7.265  13.697  1.00  0.00     0.041 C 
ATOM      8  O   UNL     1      23.394   6.485  12.846  1.00  0.00    -0.550 OA
ATOM      9  O   UNL     1      24.769   6.768  14.656  1.00  0.00    -0.550 OA
ENDBRANCH   6   7
ENDBRANCH   5   6
ENDBRANCH   4   5
ENDBRANCH   3   4
ENDBRANCH   2   3
ENDBRANCH   1   2
BRANCH   1  10
ATOM     10  C   UNL     1      21.386   9.084  10.406  1.00  0.00     0.000 C 
BRANCH  10  11
ATOM     11  C   UNL     1      20.666   8.259  11.489  1.00  0.00    -0.000 C 
BRANCH  11  12
ATOM     12  C   UNL     1      19.254   7.827  11.064  1.00  0.00    -0.000 C 
BRANCH  12  13
ATOM     13  C   UNL     1      19.077   6.299  11.076  1.00  0.00    -0.000 C 
BRANCH  13  14
ATOM     14  C   UNL     1      19.134   5.679   9.668  1.00  0.00    -0.000 C 
BRANCH  14  15
ATOM     15  C   UNL     1      19.941   6.483   8.628  1.00  0.00    -0.000 C 
BRANCH  15  16
ATOM     16  C   UNL     1      19.111   7.063   7.469  1.00  0.00    -0.003 C 
ATOM     17  C   UNL     1      19.605   8.436   7.012  1.00  0.00     0.004 C 
ENDBRANCH  15  16
ENDBRANCH  14  15
ENDBRANCH  13  14
ENDBRANCH  12  13
ENDBRANCH  11  12
ENDBRANCH  10  11
ENDBRANCH   1  10
TORSDOF 13
ENDMDL
MODEL 4
REMARK VINA RESULT:    -4.801      1.954      2.928
REMARK INTER + INTRA:          -9.853
REMARK INTER:                  -8.203
REMARK INTRA:                  -1.650
REMARK UNBOUND:                -1.404
REMARK SMILES CCCCCCCCCCCCCCC(=O)[O-]
REMARK SMILES IDX 9 1 10 2 11 3 12 4 13 5 14 6 15 7 16 8 17 9 8 10 7 11 6 12
REMARK SMILES IDX 5 13 4 14 3 15 2 16 1 17
REMARK H PARENT
REMARK Flexibility Score: inf
ROOT
ATOM      1  C   UNL     1      22.468   9.048   9.322  1.00  0.00     0.000 C 
ENDROOT
BRANCH   1   2
ATOM      2  C   UNL     1      23.922   8.959   9.816  1.00  0.00     0.000 C 
BRANCH   2   3
ATOM      3  C   UNL     1      24.418   7.509   9.958  1.00  0.00     0.000 C 
BRANCH   3   4
ATOM      4  C   UNL     1      25.508   7.296  11.024  1.00  0.00     0.000 C 
BRANCH   4   5
ATOM      5  C   UNL     1      25.095   6.288  12.110  1.00  0.00     0.006 C 
BRANCH   5   6
ATOM      6  C   UNL     1      23.761   6.661  12.770  1.00  0.00     0.053 C 
BRANCH   6   7
ATOM      7  C   UNL     1      23.907   7.818  13.710  1.00  0.00     0.041 C 
ATOM      8  O   UNL     1      23.195   8.846  13.565  1.00  0.00    -0.550 OA
ATOM      9  O   UNL     1      24.851   7.773  14.728  1.00  0.00    -0.550 OA
ENDBRANCH   6   7
ENDBRANCH   5   6
ENDBRANCH   4   5
ENDBRANCH   3   4
ENDBRANCH   2   3
ENDBRANCH   1   2
BRANCH   1  10
ATOM     10  C   UNL     1      21.457   9.137  10.475  1.00  0.00     0.000 C 
BRANCH  10  11
ATOM     11  C   UNL     1      20.989   7.751  10.957  1.00  0.00    -0.000 C 
BRANCH  11  12
ATOM     12  C   UNL     1      19.499   7.725  11.333  1.00  0.00    -0.000 C 
BRANCH  12  13
ATOM     13  C   UNL     1      18.816   6.404  10.943  1.00  0.00    -0.000 C 
BRANCH  13  14
ATOM     14  C   UNL     1      19.463   5.736   9.715  1.00  0.00    -0.000 C 
BRANCH  14  15
ATOM     15  C   UNL     1      18.908   6.192   8.350  1.00  0.00    -0.000 C 
BRANCH  15  16
ATOM     16  C   UNL     1      19.843   7.110   7.542  1.00  0.00    -0.003 C 
ATOM     17  C   UNL     1      19.185   8.432   7.148  1.00  0.00     0.004 C 
ENDBRANCH  15  16
ENDBRANCH  14  15
ENDBRANCH  13  14
ENDBRANCH  12  13
ENDBRANCH  11  12
ENDBRANCH  10  11
ENDBRANCH   1  10
TORSDOF 13
ENDMDL
MODEL 5
REMARK VINA RESULT:    -4.739      1.514      2.263
REMARK INTER + INTRA:          -9.745
REMARK INTER:                  -8.109
REMARK INTRA:                  -1.636
REMARK UNBOUND:                -1.404
REMARK SMILES CCCCCCCCCCCCCCC(=O)[O-]
REMARK SMILES IDX 9 1 10 2 11 3 12 4 13 5 14 6 15 7 16 8 17 9 8 10 7 11 6 12
REMARK SMILES IDX 5 13 4 14 3 15 2 16 1 17
REMARK H PARENT
REMARK Flexibility Score: inf
ROOT
ATOM      1  C   UNL     1      23.794   5.897  12.869  1.00  0.00     0.000 C 
ENDROOT
BRANCH   1   2
ATOM      2  C   UNL     1      25.242   5.477  12.561  1.00  0.00     0.000 C 
BRANCH   2   3
ATOM      3  C   UNL     1      25.876   6.301  11.426  1.00  0.00     0.000 C 
BRANCH   3   4
ATOM      4  C   UNL     1      25.016   6.427  10.156  1.00  0.00     0.000 C 
BRANCH   4   5
ATOM      5  C   UNL     1      24.928   7.870   9.632  1.00  0.00     0.006 C 
BRANCH   5   6
ATOM      6  C   UNL     1      25.516   8.884  10.623  1.00  0.00     0.053 C 
BRANCH   6   7
ATOM      7  C   UNL     1      24.572  10.017  10.887  1.00  0.00     0.041 C 
ATOM      8  O   UNL     1      24.861  10.897  11.739  1.00  0.00    -0.550 OA
ATOM      9  O   UNL     1      23.360  10.085  10.212  1.00  0.00    -0.550 OA
ENDBRANCH   6   7
ENDBRANCH   5   6
ENDBRANCH   4   5
ENDBRANCH   3   4
ENDBRANCH   2   3
ENDBRANCH   1   2
BRANCH   1  10
ATOM     10  C   UNL     1      23.710   7.282  13.530  1.00  0.00     0.000 C 
BRANCH  10  11
ATOM     11  C   UNL     1      22.548   8.128  12.980  1.00  0.00    -0.000 C 
BRANCH  11  12
ATOM     12  C   UNL     1      21.815   7.441  11.816  1.00  0.00    -0.000 C 
BRANCH  12  13
ATOM     13  C   UNL     1      20.418   8.035  11.568  1.00  0.00    -0.000 C 
BRANCH  13  14
ATOM     14  C   UNL     1      20.189   8.433  10.098  1.00  0.00    -0.000 C 
BRANCH  14  15
ATOM     15  C   UNL     1      20.509   7.336   9.062  1.00  0.00    -0.000 C 
BRANCH  15  16
ATOM     16  C   UNL     1      19.400   7.076   8.028  1.00  0.00    -0.003 C 
ATOM     17  C   UNL     1      19.347   8.139   6.931  1.00  0.00     0.004 C 
ENDBRANCH  15  16
ENDBRANCH  14  15
ENDBRANCH  13  14
ENDBRANCH  12  13
ENDBRANCH  11  12
ENDBRANCH  10  11
ENDBRANCH   1  10
TORSDOF 13
ENDMDL
MODEL 6
REMARK VINA RESULT:    -4.706      1.834      5.171
REMARK INTER + INTRA:          -9.686
REMARK INTER:                  -7.904
REMARK INTRA:                  -1.782
REMARK UNBOUND:                -1.404
REMARK SMILES CCCCCCCCCCCCCCC(=O)[O-]
REMARK SMILES IDX 9 1 10 2 11 3 12 4 13 5 14 6 15 7 16 8 17 9 8 10 7 11 6 12
REMARK SMILES IDX 5 13 4 14 3 15 2 16 1 17
REMARK H PARENT
REMARK Flexibility Score: inf
ROOT
ATOM      1  C   UNL     1      22.421   8.122  12.867  1.00  0.00     0.000 C 
ENDROOT
BRANCH   1   2
ATOM      2  C   UNL     1      21.696   7.091  11.985  1.00  0.00     0.000 C 
BRANCH   2   3
ATOM      3  C   UNL     1      20.376   7.626  11.401  1.00  0.00     0.000 C 
BRANCH   3   4
ATOM      4  C   UNL     1      19.344   6.545  11.033  1.00  0.00     0.000 C 
BRANCH   4   5
ATOM      5  C   UNL     1      19.407   6.136   9.552  1.00  0.00     0.006 C 
BRANCH   5   6
ATOM      6  C   UNL     1      20.496   6.900   8.785  1.00  0.00     0.053 C 
BRANCH   6   7
ATOM      7  C   UNL     1      19.944   7.595   7.579  1.00  0.00     0.041 C 
ATOM      8  O   UNL     1      18.992   7.085   6.933  1.00  0.00    -0.550 OA
ATOM      9  O   UNL     1      20.502   8.794   7.151  1.00  0.00    -0.550 OA
ENDBRANCH   6   7
ENDBRANCH   5   6
ENDBRANCH   4   5
ENDBRANCH   3   4
ENDBRANCH   2   3
ENDBRANCH   1   2
BRANCH   1  10
ATOM     10  C   UNL     1      23.729   7.575  13.459  1.00  0.00     0.000 C 
BRANCH  10  11
ATOM     11  C   UNL     1      23.842   6.045  13.325  1.00  0.00    -0.000 C 
BRANCH  11  12
ATOM     12  C   UNL     1      25.097   5.608  12.552  1.00  0.00    -0.000 C 
BRANCH  12  13
ATOM     13  C   UNL     1      25.731   6.762  11.757  1.00  0.00    -0.000 C 
BRANCH  13  14
ATOM     14  C   UNL     1      25.598   6.582  10.234  1.00  0.00    -0.000 C 
BRANCH  14  15
ATOM     15  C   UNL     1      24.416   7.331   9.584  1.00  0.00    -0.000 C 
BRANCH  15  16
ATOM     16  C   UNL     1      24.379   8.846   9.852  1.00  0.00    -0.003 C 
ATOM     17  C   UNL     1      23.050   9.488   9.456  1.00  0.00     0.004 C 
ENDBRANCH  15  16
ENDBRANCH  14  15
ENDBRANCH  13  14
ENDBRANCH  12  13
ENDBRANCH  11  12
ENDBRANCH  10  11
ENDBRANCH   1  10
TORSDOF 13
ENDMDL
MODEL 7
REMARK VINA RESULT:    -4.631      2.220      3.619
REMARK INTER + INTRA:          -9.554
REMARK INTER:                  -7.868
REMARK INTRA:                  -1.686
REMARK UNBOUND:                -1.404
REMARK SMILES CCCCCCCCCCCCCCC(=O)[O-]
REMARK SMILES IDX 9 1 10 2 11 3 12 4 13 5 14 6 15 7 16 8 17 9 8 10 7 11 6 12
REMARK SMILES IDX 5 13 4 14 3 15 2 16 1 17
REMARK H PARENT
REMARK Flexibility Score: inf
ROOT
ATOM      1  C   UNL     1      24.340   7.271  10.293  1.00  0.00     0.000 C 
ENDROOT
BRANCH   1   2
ATOM      2  C   UNL     1      25.134   6.855  11.543  1.00  0.00     0.000 C 
BRANCH   2   3
ATOM      3  C   UNL     1      24.227   6.488  12.732  1.00  0.00     0.000 C 
BRANCH   3   4
ATOM      4  C   UNL     1      22.772   6.976  12.614  1.00  0.00     0.000 C 
BRANCH   4   5
ATOM      5  C   UNL     1      22.557   8.372  13.222  1.00  0.00     0.006 C 
BRANCH   5   6
ATOM      6  C   UNL     1      23.564   8.680  14.339  1.00  0.00     0.053 C 
BRANCH   6   7
ATOM      7  C   UNL     1      24.236  10.003  14.136  1.00  0.00     0.041 C 
ATOM      8  O   UNL     1      23.953  10.978  14.879  1.00  0.00    -0.550 OA
ATOM      9  O   UNL     1      25.155  10.166  13.106  1.00  0.00    -0.550 OA
ENDBRANCH   6   7
ENDBRANCH   5   6
ENDBRANCH   4   5
ENDBRANCH   3   4
ENDBRANCH   2   3
ENDBRANCH   1   2
BRANCH   1  10
ATOM     10  C   UNL     1      24.621   8.723   9.872  1.00  0.00     0.000 C 
BRANCH  10  11
ATOM     11  C   UNL     1      23.411   9.646  10.098  1.00  0.00    -0.000 C 
BRANCH  11  12
ATOM     12  C   UNL     1      22.262   9.369   9.115  1.00  0.00    -0.000 C 
BRANCH  12  13
ATOM     13  C   UNL     1      21.022   8.779   9.808  1.00  0.00    -0.000 C 
BRANCH  13  14
ATOM     14  C   UNL     1      19.995   8.208   8.813  1.00  0.00    -0.000 C 
BRANCH  14  15
ATOM     15  C   UNL     1      19.716   6.698   8.951  1.00  0.00    -0.000 C 
BRANCH  15  16
ATOM     16  C   UNL     1      19.923   6.124  10.364  1.00  0.00    -0.003 C 
ATOM     17  C   UNL     1      18.612   5.735  11.046  1.00  0.00     0.004 C 
ENDBRANCH  15  16
ENDBRANCH  14  15
ENDBRANCH  13  14
ENDBRANCH  12  13
ENDBRANCH  11  12
ENDBRANCH  10  11
ENDBRANCH   1  10
TORSDOF 13
ENDMDL
MODEL 8
REMARK VINA RESULT:    -4.595      1.665      5.365
REMARK INTER + INTRA:          -9.492
REMARK INTER:                  -7.671
REMARK INTRA:                  -1.821
REMARK UNBOUND:                -1.404
REMARK SMILES CCCCCCCCCCCCCCC(=O)[O-]
REMARK SMILES IDX 9 1 10 2 11 3 12 4 13 5 14 6 15 7 16 8 17 9 8 10 7 11 6 12
REMARK SMILES IDX 5 13 4 14 3 15 2 16 1 17
REMARK H PARENT
REMARK Flexibility Score: inf
ROOT
ATOM      1  C   UNL     1      22.059   6.998  12.085  1.00  0.00     0.000 C 
ENDROOT
BRANCH   1   2
ATOM      2  C   UNL     1      21.126   8.206  11.888  1.00  0.00     0.000 C 
BRANCH   2   3
ATOM      3  C   UNL     1      19.761   7.817  11.293  1.00  0.00     0.000 C 
BRANCH   3   4
ATOM      4  C   UNL     1      19.751   6.499  10.498  1.00  0.00     0.000 C 
BRANCH   4   5
ATOM      5  C   UNL     1      19.392   6.696   9.015  1.00  0.00     0.006 C 
BRANCH   5   6
ATOM      6  C   UNL     1      20.511   7.402   8.237  1.00  0.00     0.053 C 
BRANCH   6   7
ATOM      7  C   UNL     1      19.966   8.300   7.168  1.00  0.00     0.041 C 
ATOM      8  O   UNL     1      20.735   9.065   6.530  1.00  0.00    -0.550 OA
ATOM      9  O   UNL     1      18.603   8.310   6.896  1.00  0.00    -0.550 OA
ENDBRANCH   6   7
ENDBRANCH   5   6
ENDBRANCH   4   5
ENDBRANCH   3   4
ENDBRANCH   2   3
ENDBRANCH   1   2
BRANCH   1  10
ATOM     10  C   UNL     1      23.230   7.305  13.030  1.00  0.00     0.000 C 
BRANCH  10  11
ATOM     11  C   UNL     1      23.021   8.608  13.823  1.00  0.00    -0.000 C 
BRANCH  11  12
ATOM     12  C   UNL     1      24.118   9.650  13.553  1.00  0.00    -0.000 C 
BRANCH  12  13
ATOM     13  C   UNL     1      25.328   9.054  12.814  1.00  0.00    -0.000 C 
BRANCH  13  14
ATOM     14  C   UNL     1      25.510   9.633  11.399  1.00  0.00    -0.000 C 
BRANCH  14  15
ATOM     15  C   UNL     1      24.202   9.948  10.644  1.00  0.00    -0.000 C 
BRANCH  15  16
ATOM     16  C   UNL     1      23.825   8.934   9.548  1.00  0.00    -0.003 C 
ATOM     17  C   UNL     1      24.730   7.703   9.539  1.00  0.00     0.004 C 
ENDBRANCH  15  16
ENDBRANCH  14  15
ENDBRANCH  13  14
ENDBRANCH  12  13
ENDBRANCH  11  12
ENDBRANCH  10  11
ENDBRANCH   1  10
TORSDOF 13
ENDMDL
MODEL 9
REMARK VINA RESULT:    -4.463      1.794      5.876
REMARK INTER + INTRA:          -9.258
REMARK INTER:                  -7.197
REMARK INTRA:                  -2.061
REMARK UNBOUND:                -1.404
REMARK SMILES CCCCCCCCCCCCCCC(=O)[O-]
REMARK SMILES IDX 9 1 10 2 11 3 12 4 13 5 14 6 15 7 16 8 17 9 8 10 7 11 6 12
REMARK SMILES IDX 5 13 4 14 3 15 2 16 1 17
REMARK H PARENT
REMARK Flexibility Score: inf
ROOT
ATOM      1  C   UNL     1      22.775   8.215   9.877  1.00  0.00     0.000 C 
ENDROOT
BRANCH   1   2
ATOM      2  C   UNL     1      21.968   9.138  10.806  1.00  0.00     0.000 C 
BRANCH   2   3
ATOM      3  C   UNL     1      21.038   8.365  11.759  1.00  0.00     0.000 C 
BRANCH   3   4
ATOM      4  C   UNL     1      20.770   6.903  11.359  1.00  0.00     0.000 C 
BRANCH   4   5
ATOM      5  C   UNL     1      19.367   6.691  10.767  1.00  0.00     0.006 C 
BRANCH   5   6
ATOM      6  C   UNL     1      19.418   6.178   9.321  1.00  0.00     0.053 C 
BRANCH   6   7
ATOM      7  C   UNL     1      19.512   7.300   8.334  1.00  0.00     0.041 C 
ATOM      8  O   UNL     1      19.373   8.492   8.714  1.00  0.00    -0.550 OA
ATOM      9  O   UNL     1      19.723   7.027   6.988  1.00  0.00    -0.550 OA
ENDBRANCH   6   7
ENDBRANCH   5   6
ENDBRANCH   4   5
ENDBRANCH   3   4
ENDBRANCH   2   3
ENDBRANCH   1   2
BRANCH   1  10
ATOM     10  C   UNL     1      24.258   8.610   9.796  1.00  0.00     0.000 C 
BRANCH  10  11
ATOM     11  C   UNL     1      24.618   9.747  10.770  1.00  0.00    -0.000 C 
BRANCH  11  12
ATOM     12  C   UNL     1      26.016   9.579  11.387  1.00  0.00    -0.000 C 
BRANCH  12  13
ATOM     13  C   UNL     1      25.968   8.970  12.798  1.00  0.00    -0.000 C 
BRANCH  13  14
ATOM     14  C   UNL     1      24.559   9.003  13.416  1.00  0.00    -0.000 C 
BRANCH  14  15
ATOM     15  C   UNL     1      24.025   7.643  13.911  1.00  0.00    -0.000 C 
BRANCH  15  16
ATOM     16  C   UNL     1      24.113   6.499  12.886  1.00  0.00    -0.003 C 
ATOM     17  C   UNL     1      23.909   5.120  13.515  1.00  0.00     0.004 C 
ENDBRANCH  15  16
ENDBRANCH  14  15
ENDBRANCH  13  14
ENDBRANCH  12  13
ENDBRANCH  11  12
ENDBRANCH  10  11
ENDBRANCH   1  10
TORSDOF 13
ENDMDL
