MODEL 1
REMARK VINA RESULT:    -3.816      0.000      0.000
REMARK INTER + INTRA:          -3.928
REMARK INTER:                  -3.928
REMARK INTRA:                   0.000
REMARK UNBOUND:                 0.000
REMARK SMILES C=C1CCC[C@]2(C)C[C@@]3(O)OC(=O)C(C)=C3C[C@@H]12
REMARK SMILES IDX 15 1 14 2 16 3 17 4 18 5 2 6 1 7 3 8 4 9 5 10 6 11 8 12 9 13
REMARK SMILES IDX 11 14 12 15 13 16 7 17 10 18
REMARK H PARENT 10 19
REMARK Flexibility Score: inf
ROOT
ATOM      1  C   UNL     1      16.134  21.726  -0.256  1.00  0.00     0.052 C 
ATOM      2  C   UNL     1      14.775  22.279  -0.553  1.00  0.00     0.040 C 
ATOM      3  C   UNL     1      14.023  22.000  -1.616  1.00  0.00     0.012 C 
ATOM      4  C   UNL     1      14.381  21.045  -2.718  1.00  0.00     0.047 C 
ATOM      5  C   UNL     1      13.093  20.574  -3.441  1.00  0.00     0.025 C 
ATOM      6  C   UNL     1      13.289  19.444  -4.450  1.00  0.00    -0.073 C 
ATOM      7  C   UNL     1      14.495  18.983  -4.827  1.00  0.00     0.008 C 
ATOM      8  C   UNL     1      12.060  18.875  -5.125  1.00  0.00     0.031 C 
ATOM      9  C   UNL     1      10.783  19.587  -4.668  1.00  0.00     0.005 C 
ATOM     10  C   UNL     1      10.688  19.600  -3.136  1.00  0.00     0.008 C 
ATOM     11  C   UNL     1      11.944  20.227  -2.416  1.00  0.00    -0.019 C 
ATOM     12  C   UNL     1      11.517  21.536  -1.653  1.00  0.00     0.092 C 
ATOM     13  C   UNL     1      12.643  22.597  -1.476  1.00  0.00     0.235 C 
ATOM     14  O   UNL     1      12.657  23.138  -0.154  1.00  0.00    -0.426 OA
ATOM     15  C   UNL     1      13.922  22.979   0.381  1.00  0.00     0.336 C 
ATOM     16  O   UNL     1      14.251  23.363   1.533  1.00  0.00    -0.246 OA
ATOM     17  C   UNL     1      12.446  19.188  -1.373  1.00  0.00     0.012 C 
ENDROOT
BRANCH  13  18
ATOM     18  O   UNL     1      12.504  23.633  -2.415  1.00  0.00    -0.353 OA
ATOM     19  H   UNL     1      11.623  23.511  -2.854  1.00  0.00     0.215 HD
ENDBRANCH  13  18
TORSDOF 1
ENDMDL
MODEL 2
REMARK VINA RESULT:    -1.873      1.914      2.904
REMARK INTER + INTRA:          -1.928
REMARK INTER:                  -1.928
REMARK INTRA:                   0.000
REMARK UNBOUND:                 0.000
REMARK SMILES C=C1CCC[C@]2(C)C[C@@]3(O)OC(=O)C(C)=C3C[C@@H]12
REMARK SMILES IDX 15 1 14 2 16 3 17 4 18 5 2 6 1 7 3 8 4 9 5 10 6 11 8 12 9 13
REMARK SMILES IDX 11 14 12 15 13 16 7 17 10 18
REMARK H PARENT 10 19
REMARK Flexibility Score: inf
ROOT
ATOM      1  C   UNL     1      14.015  25.279  -3.978  1.00  0.00     0.052 C 
ATOM      2  C   UNL     1      13.683  24.790  -2.603  1.00  0.00     0.040 C 
ATOM      3  C   UNL     1      12.963  23.712  -2.298  1.00  0.00     0.012 C 
ATOM      4  C   UNL     1      12.366  22.750  -3.284  1.00  0.00     0.047 C 
ATOM      5  C   UNL     1      12.102  21.388  -2.591  1.00  0.00     0.025 C 
ATOM      6  C   UNL     1      11.686  20.252  -3.524  1.00  0.00    -0.073 C 
ATOM      7  C   UNL     1      11.401  20.426  -4.827  1.00  0.00     0.008 C 
ATOM      8  C   UNL     1      11.501  18.875  -2.927  1.00  0.00     0.031 C 
ATOM      9  C   UNL     1      11.756  18.875  -1.415  1.00  0.00     0.005 C 
ATOM     10  C   UNL     1      13.119  19.502  -1.095  1.00  0.00     0.008 C 
ATOM     11  C   UNL     1      13.314  20.956  -1.677  1.00  0.00    -0.019 C 
ATOM     12  C   UNL     1      13.463  21.983  -0.494  1.00  0.00     0.092 C 
ATOM     13  C   UNL     1      13.000  23.435  -0.814  1.00  0.00     0.235 C 
ATOM     14  O   UNL     1      13.929  24.406  -0.327  1.00  0.00    -0.426 OA
ATOM     15  C   UNL     1      14.309  25.225  -1.374  1.00  0.00     0.336 C 
ATOM     16  O   UNL     1      15.116  26.184  -1.259  1.00  0.00    -0.246 OA
ATOM     17  C   UNL     1      14.636  20.953  -2.497  1.00  0.00     0.012 C 
ENDROOT
BRANCH  13  18
ATOM     18  O   UNL     1      11.725  23.683  -0.279  1.00  0.00    -0.353 OA
ATOM     19  H   UNL     1      11.784  23.518   0.698  1.00  0.00     0.215 HD
ENDBRANCH  13  18
TORSDOF 1
ENDMDL
MODEL 3
REMARK VINA RESULT:    -1.435      2.164      5.090
REMARK INTER + INTRA:          -1.477
REMARK INTER:                  -1.477
REMARK INTRA:                   0.000
REMARK UNBOUND:                 0.000
REMARK SMILES C=C1CCC[C@]2(C)C[C@@]3(O)OC(=O)C(C)=C3C[C@@H]12
REMARK SMILES IDX 15 1 14 2 16 3 17 4 18 5 2 6 1 7 3 8 4 9 5 10 6 11 8 12 9 13
REMARK SMILES IDX 11 14 12 15 13 16 7 17 10 18
REMARK H PARENT 10 19
REMARK Flexibility Score: inf
ROOT
ATOM      1  C   UNL     1      13.625  19.522  -5.124  1.00  0.00     0.052 C 
ATOM      2  C   UNL     1      12.652  19.507  -3.986  1.00  0.00     0.040 C 
ATOM      3  C   UNL     1      12.873  19.953  -2.751  1.00  0.00     0.012 C 
ATOM      4  C   UNL     1      14.140  20.593  -2.264  1.00  0.00     0.047 C 
ATOM      5  C   UNL     1      13.843  21.452  -1.008  1.00  0.00     0.025 C 
ATOM      6  C   UNL     1      15.001  22.324  -0.526  1.00  0.00    -0.073 C 
ATOM      7  C   UNL     1      16.246  22.253  -1.028  1.00  0.00     0.008 C 
ATOM      8  C   UNL     1      14.750  23.255   0.640  1.00  0.00     0.031 C 
ATOM      9  C   UNL     1      13.316  23.132   1.165  1.00  0.00     0.005 C 
ATOM     10  C   UNL     1      12.305  23.296   0.023  1.00  0.00     0.008 C 
ATOM     11  C   UNL     1      12.526  22.305  -1.185  1.00  0.00    -0.019 C 
ATOM     12  C   UNL     1      11.293  21.335  -1.306  1.00  0.00     0.092 C 
ATOM     13  C   UNL     1      11.602  19.945  -1.935  1.00  0.00     0.235 C 
ATOM     14  O   UNL     1      10.608  19.564  -2.889  1.00  0.00    -0.426 OA
ATOM     15  C   UNL     1      11.229  19.275  -4.090  1.00  0.00     0.336 C 
ATOM     16  O   UNL     1      10.617  18.901  -5.125  1.00  0.00    -0.246 OA
ATOM     17  C   UNL     1      12.608  23.164  -2.480  1.00  0.00     0.012 C 
ENDROOT
BRANCH  13  18
ATOM     18  O   UNL     1      11.713  18.959  -0.940  1.00  0.00    -0.353 OA
ATOM     19  H   UNL     1      11.787  19.432  -0.071  1.00  0.00     0.215 HD
ENDBRANCH  13  18
TORSDOF 1
ENDMDL
MODEL 4
REMARK VINA RESULT:    -1.061      1.724      2.733
REMARK INTER + INTRA:          -1.092
REMARK INTER:                  -1.092
REMARK INTRA:                   0.000
REMARK UNBOUND:                 0.000
REMARK SMILES C=C1CCC[C@]2(C)C[C@@]3(O)OC(=O)C(C)=C3C[C@@H]12
REMARK SMILES IDX 15 1 14 2 16 3 17 4 18 5 2 6 1 7 3 8 4 9 5 10 6 11 8 12 9 13
REMARK SMILES IDX 11 14 12 15 13 16 7 17 10 18
REMARK H PARENT 10 19
REMARK Flexibility Score: inf
ROOT
ATOM      1  C   UNL     1      13.251  22.541   1.648  1.00  0.00     0.052 C 
ATOM      2  C   UNL     1      14.151  22.523   0.451  1.00  0.00     0.040 C 
ATOM      3  C   UNL     1      14.022  21.750  -0.625  1.00  0.00     0.012 C 
ATOM      4  C   UNL     1      12.919  20.758  -0.864  1.00  0.00     0.047 C 
ATOM      5  C   UNL     1      12.789  20.478  -2.383  1.00  0.00     0.025 C 
ATOM      6  C   UNL     1      11.575  19.645  -2.791  1.00  0.00    -0.073 C 
ATOM      7  C   UNL     1      10.754  19.046  -1.910  1.00  0.00     0.008 C 
ATOM      8  C   UNL     1      11.338  19.411  -4.266  1.00  0.00     0.031 C 
ATOM      9  C   UNL     1      12.425  20.066  -5.125  1.00  0.00     0.005 C 
ATOM     10  C   UNL     1      12.586  21.547  -4.759  1.00  0.00     0.008 C 
ATOM     11  C   UNL     1      12.874  21.808  -3.230  1.00  0.00    -0.019 C 
ATOM     12  C   UNL     1      14.307  22.438  -3.062  1.00  0.00     0.092 C 
ATOM     13  C   UNL     1      15.004  22.146  -1.701  1.00  0.00     0.235 C 
ATOM     14  O   UNL     1      15.620  23.317  -1.161  1.00  0.00    -0.426 OA
ATOM     15  C   UNL     1      15.141  23.523   0.120  1.00  0.00     0.336 C 
ATOM     16  O   UNL     1      15.503  24.475   0.861  1.00  0.00    -0.246 OA
ATOM     17  C   UNL     1      11.820  22.836  -2.729  1.00  0.00     0.012 C 
ENDROOT
BRANCH  13  18
ATOM     18  O   UNL     1      15.958  21.124  -1.837  1.00  0.00    -0.353 OA
ATOM     19  H   UNL     1      15.965  20.618  -0.983  1.00  0.00     0.215 HD
ENDBRANCH  13  18
TORSDOF 1
ENDMDL
