MODEL 1
REMARK VINA RESULT:    -3.733      0.000      0.000
REMARK INTER + INTRA:          -4.723
REMARK INTER:                  -4.606
REMARK INTRA:                  -0.117
REMARK UNBOUND:                -0.117
REMARK SMILES CCCCCC(=O)[O-]
REMARK SMILES IDX 4 1 5 2 6 3 7 4 8 5 3 6 2 7 1 8
REMARK H PARENT
REMARK Flexibility Score: inf
ROOT
ATOM      1  C   UNL     1       4.774 -10.153   4.675  1.00  0.00     0.006 C 
ENDROOT
BRANCH   1   2
ATOM      2  C   UNL     1       4.935  -9.278   3.428  1.00  0.00     0.053 C 
BRANCH   2   3
ATOM      3  C   UNL     1       3.709  -9.351   2.575  1.00  0.00     0.041 C 
ATOM      4  O   UNL     1       3.331  -8.344   1.920  1.00  0.00    -0.550 OA
ATOM      5  O   UNL     1       2.955 -10.517   2.540  1.00  0.00    -0.550 OA
ENDBRANCH   2   3
ENDBRANCH   1   2
BRANCH   1   6
ATOM      6  C   UNL     1       5.534  -9.559   5.867  1.00  0.00     0.000 C 
BRANCH   6   7
ATOM      7  C   UNL     1       6.384  -8.359   5.434  1.00  0.00    -0.003 C 
ATOM      8  C   UNL     1       6.721  -7.464   6.624  1.00  0.00     0.004 C 
ENDBRANCH   6   7
ENDBRANCH   1   6
TORSDOF 4
ENDMDL
MODEL 2
REMARK VINA RESULT:    -3.536     11.793     12.790
REMARK INTER + INTRA:          -4.479
REMARK INTER:                  -4.280
REMARK INTRA:                  -0.200
REMARK UNBOUND:                -0.117
REMARK SMILES CCCCCC(=O)[O-]
REMARK SMILES IDX 4 1 5 2 6 3 7 4 8 5 3 6 2 7 1 8
REMARK H PARENT
REMARK Flexibility Score: inf
ROOT
ATOM      1  C   UNL     1       7.986   0.828   9.013  1.00  0.00     0.006 C 
ENDROOT
BRANCH   1   2
ATOM      2  C   UNL     1       6.736   1.564   9.507  1.00  0.00     0.053 C 
BRANCH   2   3
ATOM      3  C   UNL     1       6.430   2.729   8.620  1.00  0.00     0.041 C 
ATOM      4  O   UNL     1       6.397   3.895   9.093  1.00  0.00    -0.550 OA
ATOM      5  O   UNL     1       6.131   2.522   7.279  1.00  0.00    -0.550 OA
ENDBRANCH   2   3
ENDBRANCH   1   2
BRANCH   1   6
ATOM      6  C   UNL     1       9.147   0.990  10.002  1.00  0.00     0.000 C 
BRANCH   6   7
ATOM      7  C   UNL     1       9.942   2.268   9.711  1.00  0.00    -0.003 C 
ATOM      8  C   UNL     1      10.125   2.474   8.209  1.00  0.00     0.004 C 
ENDBRANCH   6   7
ENDBRANCH   1   6
TORSDOF 4
ENDMDL
MODEL 3
REMARK VINA RESULT:    -3.250     14.770     16.191
REMARK INTER + INTRA:          -4.127
REMARK INTER:                  -4.057
REMARK INTRA:                  -0.070
REMARK UNBOUND:                -0.117
REMARK SMILES CCCCCC(=O)[O-]
REMARK SMILES IDX 4 1 5 2 6 3 7 4 8 5 3 6 2 7 1 8
REMARK H PARENT
REMARK Flexibility Score: inf
ROOT
ATOM      1  C   UNL     1      -5.593  -7.061  -7.133  1.00  0.00     0.006 C 
ENDROOT
BRANCH   1   2
ATOM      2  C   UNL     1      -6.896  -6.804  -7.897  1.00  0.00     0.053 C 
BRANCH   2   3
ATOM      3  C   UNL     1      -7.153  -5.335  -8.014  1.00  0.00     0.041 C 
ATOM      4  O   UNL     1      -8.088  -4.801  -7.363  1.00  0.00    -0.550 OA
ATOM      5  O   UNL     1      -6.389  -4.563  -8.881  1.00  0.00    -0.550 OA
ENDBRANCH   2   3
ENDBRANCH   1   2
BRANCH   1   6
ATOM      6  C   UNL     1      -5.582  -8.468  -6.523  1.00  0.00     0.000 C 
BRANCH   6   7
ATOM      7  C   UNL     1      -4.502  -9.340  -7.175  1.00  0.00    -0.003 C 
ATOM      8  C   UNL     1      -3.106  -8.791  -6.894  1.00  0.00     0.004 C 
ENDBRANCH   6   7
ENDBRANCH   1   6
TORSDOF 4
ENDMDL
MODEL 4
REMARK VINA RESULT:    -3.214     20.876     21.770
REMARK INTER + INTRA:          -4.082
REMARK INTER:                  -3.926
REMARK INTRA:                  -0.156
REMARK UNBOUND:                -0.117
REMARK SMILES CCCCCC(=O)[O-]
REMARK SMILES IDX 4 1 5 2 6 3 7 4 8 5 3 6 2 7 1 8
REMARK H PARENT
REMARK Flexibility Score: inf
ROOT
ATOM      1  C   UNL     1      -5.283   2.996  -8.959  1.00  0.00     0.006 C 
ENDROOT
BRANCH   1   2
ATOM      2  C   UNL     1      -5.623   4.229  -9.801  1.00  0.00     0.053 C 
BRANCH   2   3
ATOM      3  C   UNL     1      -5.118   5.471  -9.138  1.00  0.00     0.041 C 
ATOM      4  O   UNL     1      -5.080   5.549  -7.882  1.00  0.00    -0.550 OA
ATOM      5  O   UNL     1      -4.734   6.562  -9.907  1.00  0.00    -0.550 OA
ENDBRANCH   2   3
ENDBRANCH   1   2
BRANCH   1   6
ATOM      6  C   UNL     1      -6.451   2.002  -8.941  1.00  0.00     0.000 C 
BRANCH   6   7
ATOM      7  C   UNL     1      -7.797   2.736  -8.931  1.00  0.00    -0.003 C 
ATOM      8  C   UNL     1      -8.534   2.517  -7.612  1.00  0.00     0.004 C 
ENDBRANCH   6   7
ENDBRANCH   1   6
TORSDOF 4
ENDMDL
MODEL 5
REMARK VINA RESULT:    -3.191     21.518     22.738
REMARK INTER + INTRA:          -4.053
REMARK INTER:                  -4.006
REMARK INTRA:                  -0.047
REMARK UNBOUND:                -0.117
REMARK SMILES CCCCCC(=O)[O-]
REMARK SMILES IDX 4 1 5 2 6 3 7 4 8 5 3 6 2 7 1 8
REMARK H PARENT
REMARK Flexibility Score: inf
ROOT
ATOM      1  C   UNL     1      -5.546   5.825  -8.523  1.00  0.00     0.006 C 
ENDROOT
BRANCH   1   2
ATOM      2  C   UNL     1      -5.012   6.972  -9.386  1.00  0.00     0.053 C 
BRANCH   2   3
ATOM      3  C   UNL     1      -4.914   8.230  -8.582  1.00  0.00     0.041 C 
ATOM      4  O   UNL     1      -3.814   8.832  -8.479  1.00  0.00    -0.550 OA
ATOM      5  O   UNL     1      -6.028   8.711  -7.907  1.00  0.00    -0.550 OA
ENDBRANCH   2   3
ENDBRANCH   1   2
BRANCH   1   6
ATOM      6  C   UNL     1      -5.981   4.639  -9.393  1.00  0.00     0.000 C 
BRANCH   6   7
ATOM      7  C   UNL     1      -5.227   3.364  -8.999  1.00  0.00    -0.003 C 
ATOM      8  C   UNL     1      -6.143   2.144  -9.051  1.00  0.00     0.004 C 
ENDBRANCH   6   7
ENDBRANCH   1   6
TORSDOF 4
ENDMDL
MODEL 6
REMARK VINA RESULT:    -3.187     20.717     21.313
REMARK INTER + INTRA:          -4.049
REMARK INTER:                  -3.840
REMARK INTRA:                  -0.208
REMARK UNBOUND:                -0.117
REMARK SMILES CCCCCC(=O)[O-]
REMARK SMILES IDX 4 1 5 2 6 3 7 4 8 5 3 6 2 7 1 8
REMARK H PARENT
REMARK Flexibility Score: inf
ROOT
ATOM      1  C   UNL     1      -6.818   2.021  -8.660  1.00  0.00     0.006 C 
ENDROOT
BRANCH   1   2
ATOM      2  C   UNL     1      -8.291   2.440  -8.658  1.00  0.00     0.053 C 
BRANCH   2   3
ATOM      3  C   UNL     1      -8.640   3.121  -7.373  1.00  0.00     0.041 C 
ATOM      4  O   UNL     1      -8.541   4.372  -7.272  1.00  0.00    -0.550 OA
ATOM      5  O   UNL     1      -9.028   2.370  -6.271  1.00  0.00    -0.550 OA
ENDBRANCH   2   3
ENDBRANCH   1   2
BRANCH   1   6
ATOM      6  C   UNL     1      -6.009   2.853  -9.662  1.00  0.00     0.000 C 
BRANCH   6   7
ATOM      7  C   UNL     1      -4.855   3.582  -8.966  1.00  0.00    -0.003 C 
ATOM      8  C   UNL     1      -5.264   4.993  -8.551  1.00  0.00     0.004 C 
ENDBRANCH   6   7
ENDBRANCH   1   6
TORSDOF 4
ENDMDL
MODEL 7
REMARK VINA RESULT:    -3.182     20.814     21.554
REMARK INTER + INTRA:          -4.043
REMARK INTER:                  -3.832
REMARK INTRA:                  -0.211
REMARK UNBOUND:                -0.117
REMARK SMILES CCCCCC(=O)[O-]
REMARK SMILES IDX 4 1 5 2 6 3 7 4 8 5 3 6 2 7 1 8
REMARK H PARENT
REMARK Flexibility Score: inf
ROOT
ATOM      1  C   UNL     1      -5.286   3.154  -8.863  1.00  0.00     0.006 C 
ENDROOT
BRANCH   1   2
ATOM      2  C   UNL     1      -6.181   1.989  -9.299  1.00  0.00     0.053 C 
BRANCH   2   3
ATOM      3  C   UNL     1      -7.619   2.309  -9.043  1.00  0.00     0.041 C 
ATOM      4  O   UNL     1      -7.960   2.887  -7.978  1.00  0.00    -0.550 OA
ATOM      5  O   UNL     1      -8.590   1.925  -9.959  1.00  0.00    -0.550 OA
ENDBRANCH   2   3
ENDBRANCH   1   2
BRANCH   1   6
ATOM      6  C   UNL     1      -5.056   4.135 -10.019  1.00  0.00     0.000 C 
BRANCH   6   7
ATOM      7  C   UNL     1      -4.998   5.580  -9.511  1.00  0.00    -0.003 C 
ATOM      8  C   UNL     1      -5.734   5.726  -8.181  1.00  0.00     0.004 C 
ENDBRANCH   6   7
ENDBRANCH   1   6
TORSDOF 4
ENDMDL
MODEL 8
REMARK VINA RESULT:    -3.102     13.591     14.459
REMARK INTER + INTRA:          -3.944
REMARK INTER:                  -3.812
REMARK INTRA:                  -0.132
REMARK UNBOUND:                -0.117
REMARK SMILES CCCCCC(=O)[O-]
REMARK SMILES IDX 4 1 5 2 6 3 7 4 8 5 3 6 2 7 1 8
REMARK H PARENT
REMARK Flexibility Score: inf
ROOT
ATOM      1  C   UNL     1      -5.798 -10.551  -5.620  1.00  0.00     0.006 C 
ENDROOT
BRANCH   1   2
ATOM      2  C   UNL     1      -6.517  -9.255  -5.232  1.00  0.00     0.053 C 
BRANCH   2   3
ATOM      3  C   UNL     1      -6.781  -9.224  -3.760  1.00  0.00     0.041 C 
ATOM      4  O   UNL     1      -5.939  -9.699  -2.955  1.00  0.00    -0.550 OA
ATOM      5  O   UNL     1      -7.981  -8.714  -3.280  1.00  0.00    -0.550 OA
ENDBRANCH   2   3
ENDBRANCH   1   2
BRANCH   1   6
ATOM      6  C   UNL     1      -5.004 -10.373  -6.920  1.00  0.00     0.000 C 
BRANCH   6   7
ATOM      7  C   UNL     1      -4.523  -8.926  -7.075  1.00  0.00    -0.003 C 
ATOM      8  C   UNL     1      -3.012  -8.824  -6.885  1.00  0.00     0.004 C 
ENDBRANCH   6   7
ENDBRANCH   1   6
TORSDOF 4
ENDMDL
MODEL 9
REMARK VINA RESULT:    -3.060     21.107     21.630
REMARK INTER + INTRA:          -3.893
REMARK INTER:                  -3.759
REMARK INTRA:                  -0.133
REMARK UNBOUND:                -0.117
REMARK SMILES CCCCCC(=O)[O-]
REMARK SMILES IDX 4 1 5 2 6 3 7 4 8 5 3 6 2 7 1 8
REMARK H PARENT
REMARK Flexibility Score: inf
ROOT
ATOM      1  C   UNL     1      -7.416   3.215  -9.501  1.00  0.00     0.006 C 
ENDROOT
BRANCH   1   2
ATOM      2  C   UNL     1      -6.854   4.587  -9.115  1.00  0.00     0.053 C 
BRANCH   2   3
ATOM      3  C   UNL     1      -5.382   4.499  -8.866  1.00  0.00     0.041 C 
ATOM      4  O   UNL     1      -4.836   5.257  -8.022  1.00  0.00    -0.550 OA
ATOM      5  O   UNL     1      -4.605   3.613  -9.600  1.00  0.00    -0.550 OA
ENDBRANCH   2   3
ENDBRANCH   1   2
BRANCH   1   6
ATOM      6  C   UNL     1      -7.639   2.343  -8.260  1.00  0.00     0.000 C 
BRANCH   6   7
ATOM      7  C   UNL     1      -9.095   2.420  -7.788  1.00  0.00    -0.003 C 
ATOM      8  C   UNL     1      -9.175   2.613  -6.276  1.00  0.00     0.004 C 
ENDBRANCH   6   7
ENDBRANCH   1   6
TORSDOF 4
ENDMDL
