MODEL 1
REMARK VINA RESULT:     3.221      0.000      0.000
REMARK INTER + INTRA:           6.346
REMARK INTER:                   6.988
REMARK INTRA:                  -0.642
REMARK UNBOUND:                -0.642
REMARK SMILES CCCCCCCCCCCCCCCCCCCCCC(=O)[O-]
REMARK SMILES IDX 12 1 11 2 10 3 9 4 8 5 7 6 6 7 5 8 4 9 3 10 2 11 1 12 13 13
REMARK SMILES IDX 14 14 15 15 16 16 17 17 18 18 19 19 20 20 21 21 22 22 23 23
REMARK SMILES IDX 24 24
REMARK H PARENT
REMARK Flexibility Score: inf
ROOT
ATOM      1  C   UNL     1      -5.504  35.294  22.406  1.00  0.00     0.000 C 
ENDROOT
BRANCH   1   2
ATOM      2  C   UNL     1      -5.180  34.566  21.091  1.00  0.00     0.000 C 
BRANCH   2   3
ATOM      3  C   UNL     1      -6.125  34.958  19.945  1.00  0.00     0.000 C 
BRANCH   3   4
ATOM      4  C   UNL     1      -6.039  33.996  18.748  1.00  0.00    -0.000 C 
BRANCH   4   5
ATOM      5  C   UNL     1      -4.755  34.190  17.913  1.00  0.00    -0.000 C 
BRANCH   5   6
ATOM      6  C   UNL     1      -4.589  35.606  17.328  1.00  0.00    -0.000 C 
BRANCH   6   7
ATOM      7  C   UNL     1      -3.347  35.819  16.441  1.00  0.00    -0.000 C 
BRANCH   7   8
ATOM      8  C   UNL     1      -3.433  35.213  15.024  1.00  0.00    -0.000 C 
BRANCH   8   9
ATOM      9  C   UNL     1      -3.466  36.256  13.889  1.00  0.00    -0.000 C 
BRANCH   9  10
ATOM     10  C   UNL     1      -3.673  37.703  14.393  1.00  0.00    -0.000 C 
BRANCH  10  11
ATOM     11  C   UNL     1      -5.011  38.319  13.951  1.00  0.00    -0.003 C 
ATOM     12  C   UNL     1      -5.043  39.840  14.099  1.00  0.00     0.004 C 
ENDBRANCH  10  11
ENDBRANCH   9  10
ENDBRANCH   8   9
ENDBRANCH   7   8
ENDBRANCH   6   7
ENDBRANCH   5   6
ENDBRANCH   4   5
ENDBRANCH   3   4
ENDBRANCH   2   3
ENDBRANCH   1   2
BRANCH   1  13
ATOM     13  C   UNL     1      -5.775  34.290  23.532  1.00  0.00     0.000 C 
BRANCH  13  14
ATOM     14  C   UNL     1      -5.379  34.867  24.899  1.00  0.00     0.000 C 
BRANCH  14  15
ATOM     15  C   UNL     1      -6.030  36.232  25.171  1.00  0.00     0.000 C 
BRANCH  15  16
ATOM     16  C   UNL     1      -4.998  37.330  25.468  1.00  0.00     0.000 C 
BRANCH  16  17
ATOM     17  C   UNL     1      -4.633  38.101  24.188  1.00  0.00     0.000 C 
BRANCH  17  18
ATOM     18  C   UNL     1      -5.762  39.027  23.709  1.00  0.00     0.000 C 
BRANCH  18  19
ATOM     19  C   UNL     1      -5.295  40.042  22.656  1.00  0.00     0.000 C 
BRANCH  19  20
ATOM     20  C   UNL     1      -6.125  39.925  21.372  1.00  0.00     0.006 C 
BRANCH  20  21
ATOM     21  C   UNL     1      -6.100  38.494  20.825  1.00  0.00     0.053 C 
BRANCH  21  22
ATOM     22  C   UNL     1      -4.743  38.148  20.296  1.00  0.00     0.041 C 
ATOM     23  O   UNL     1      -4.606  37.745  19.109  1.00  0.00    -0.550 OA
ATOM     24  O   UNL     1      -3.626  38.272  21.114  1.00  0.00    -0.550 OA
ENDBRANCH  21  22
ENDBRANCH  20  21
ENDBRANCH  19  20
ENDBRANCH  18  19
ENDBRANCH  17  18
ENDBRANCH  16  17
ENDBRANCH  15  16
ENDBRANCH  14  15
ENDBRANCH  13  14
ENDBRANCH   1  13
TORSDOF 20
ENDMDL
MODEL 2
REMARK VINA RESULT:     3.410      1.607      6.920
REMARK INTER + INTRA:           6.754
REMARK INTER:                   7.461
REMARK INTRA:                  -0.707
REMARK UNBOUND:                -0.642
REMARK SMILES CCCCCCCCCCCCCCCCCCCCCC(=O)[O-]
REMARK SMILES IDX 12 1 11 2 10 3 9 4 8 5 7 6 6 7 5 8 4 9 3 10 2 11 1 12 13 13
REMARK SMILES IDX 14 14 15 15 16 16 17 17 18 18 19 19 20 20 21 21 22 22 23 23
REMARK SMILES IDX 24 24
REMARK H PARENT
REMARK Flexibility Score: inf
ROOT
ATOM      1  C   UNL     1      -6.125  34.804  22.614  1.00  0.00     0.000 C 
ENDROOT
BRANCH   1   2
ATOM      2  C   UNL     1      -5.541  34.111  23.856  1.00  0.00     0.000 C 
BRANCH   2   3
ATOM      3  C   UNL     1      -5.627  34.983  25.118  1.00  0.00     0.000 C 
BRANCH   3   4
ATOM      4  C   UNL     1      -6.039  36.434  24.813  1.00  0.00    -0.000 C 
BRANCH   4   5
ATOM      5  C   UNL     1      -5.106  37.474  25.470  1.00  0.00    -0.000 C 
BRANCH   5   6
ATOM      6  C   UNL     1      -5.044  38.824  24.729  1.00  0.00    -0.000 C 
BRANCH   6   7
ATOM      7  C   UNL     1      -5.870  38.909  23.431  1.00  0.00    -0.000 C 
BRANCH   7   8
ATOM      8  C   UNL     1      -5.443  40.018  22.446  1.00  0.00    -0.000 C 
BRANCH   8   9
ATOM      9  C   UNL     1      -5.996  39.846  21.017  1.00  0.00    -0.000 C 
BRANCH   9  10
ATOM     10  C   UNL     1      -6.042  38.372  20.551  1.00  0.00    -0.000 C 
BRANCH  10  11
ATOM     11  C   UNL     1      -4.667  37.818  20.142  1.00  0.00    -0.003 C 
ATOM     12  C   UNL     1      -3.676  37.768  21.305  1.00  0.00     0.004 C 
ENDBRANCH  10  11
ENDBRANCH   9  10
ENDBRANCH   8   9
ENDBRANCH   7   8
ENDBRANCH   6   7
ENDBRANCH   5   6
ENDBRANCH   4   5
ENDBRANCH   3   4
ENDBRANCH   2   3
ENDBRANCH   1   2
BRANCH   1  13
ATOM     13  C   UNL     1      -5.161  34.694  21.427  1.00  0.00     0.000 C 
BRANCH  13  14
ATOM     14  C   UNL     1      -5.871  35.013  20.103  1.00  0.00     0.000 C 
BRANCH  14  15
ATOM     15  C   UNL     1      -5.890  33.812  19.143  1.00  0.00     0.000 C 
BRANCH  15  16
ATOM     16  C   UNL     1      -5.711  34.227  17.675  1.00  0.00     0.000 C 
BRANCH  16  17
ATOM     17  C   UNL     1      -4.264  34.667  17.402  1.00  0.00     0.000 C 
BRANCH  17  18
ATOM     18  C   UNL     1      -4.163  35.720  16.286  1.00  0.00     0.000 C 
BRANCH  18  19
ATOM     19  C   UNL     1      -3.259  35.276  15.127  1.00  0.00     0.000 C 
BRANCH  19  20
ATOM     20  C   UNL     1      -3.125  36.386  14.077  1.00  0.00     0.006 C 
BRANCH  20  21
ATOM     21  C   UNL     1      -4.454  37.122  13.877  1.00  0.00     0.053 C 
BRANCH  21  22
ATOM     22  C   UNL     1      -4.354  38.541  14.341  1.00  0.00     0.041 C 
ATOM     23  O   UNL     1      -5.147  39.414  13.896  1.00  0.00    -0.550 OA
ATOM     24  O   UNL     1      -3.384  38.902  15.270  1.00  0.00    -0.550 OA
ENDBRANCH  21  22
ENDBRANCH  20  21
ENDBRANCH  19  20
ENDBRANCH  18  19
ENDBRANCH  17  18
ENDBRANCH  16  17
ENDBRANCH  15  16
ENDBRANCH  14  15
ENDBRANCH  13  14
ENDBRANCH   1  13
TORSDOF 20
ENDMDL
MODEL 3
REMARK VINA RESULT:     4.118      2.396      3.833
REMARK INTER + INTRA:           8.291
REMARK INTER:                   7.505
REMARK INTRA:                   0.787
REMARK UNBOUND:                -0.642
REMARK SMILES CCCCCCCCCCCCCCCCCCCCCC(=O)[O-]
REMARK SMILES IDX 12 1 11 2 10 3 9 4 8 5 7 6 6 7 5 8 4 9 3 10 2 11 1 12 13 13
REMARK SMILES IDX 14 14 15 15 16 16 17 17 18 18 19 19 20 20 21 21 22 22 23 23
REMARK SMILES IDX 24 24
REMARK H PARENT
REMARK Flexibility Score: inf
ROOT
ATOM      1  C   UNL     1      -4.625  35.353  21.480  1.00  0.00     0.000 C 
ENDROOT
BRANCH   1   2
ATOM      2  C   UNL     1      -5.939  34.702  21.018  1.00  0.00     0.000 C 
BRANCH   2   3
ATOM      3  C   UNL     1      -6.015  34.533  19.493  1.00  0.00     0.000 C 
BRANCH   3   4
ATOM      4  C   UNL     1      -5.029  35.446  18.743  1.00  0.00    -0.000 C 
BRANCH   4   5
ATOM      5  C   UNL     1      -4.662  34.911  17.342  1.00  0.00    -0.000 C 
BRANCH   5   6
ATOM      6  C   UNL     1      -3.779  35.864  16.513  1.00  0.00    -0.000 C 
BRANCH   6   7
ATOM      7  C   UNL     1      -3.787  35.623  14.991  1.00  0.00    -0.000 C 
BRANCH   7   8
ATOM      8  C   UNL     1      -3.485  36.864  14.123  1.00  0.00    -0.000 C 
BRANCH   8   9
ATOM      9  C   UNL     1      -4.695  37.792  13.898  1.00  0.00    -0.000 C 
BRANCH   9  10
ATOM     10  C   UNL     1      -4.442  39.249  14.350  1.00  0.00    -0.000 C 
BRANCH  10  11
ATOM     11  C   UNL     1      -5.525  40.232  13.876  1.00  0.00    -0.003 C 
ATOM     12  C   UNL     1      -5.141  41.694  14.104  1.00  0.00     0.004 C 
ENDBRANCH  10  11
ENDBRANCH   9  10
ENDBRANCH   8   9
ENDBRANCH   7   8
ENDBRANCH   6   7
ENDBRANCH   5   6
ENDBRANCH   4   5
ENDBRANCH   3   4
ENDBRANCH   2   3
ENDBRANCH   1   2
BRANCH   1  13
ATOM     13  C   UNL     1      -4.881  36.760  22.034  1.00  0.00     0.000 C 
BRANCH  13  14
ATOM     14  C   UNL     1      -5.847  37.545  21.135  1.00  0.00     0.000 C 
BRANCH  14  15
ATOM     15  C   UNL     1      -5.381  38.989  20.891  1.00  0.00     0.000 C 
BRANCH  15  16
ATOM     16  C   UNL     1      -5.297  39.809  22.187  1.00  0.00     0.000 C 
BRANCH  16  17
ATOM     17  C   UNL     1      -4.392  39.115  23.218  1.00  0.00     0.000 C 
BRANCH  17  18
ATOM     18  C   UNL     1      -5.108  38.841  24.550  1.00  0.00     0.000 C 
BRANCH  18  19
ATOM     19  C   UNL     1      -5.445  37.356  24.752  1.00  0.00     0.000 C 
BRANCH  19  20
ATOM     20  C   UNL     1      -4.855  36.833  26.067  1.00  0.00     0.006 C 
BRANCH  20  21
ATOM     21  C   UNL     1      -3.936  37.873  26.715  1.00  0.00     0.053 C 
BRANCH  21  22
ATOM     22  C   UNL     1      -2.582  37.295  26.987  1.00  0.00     0.041 C 
ATOM     23  O   UNL     1      -2.456  36.071  27.259  1.00  0.00    -0.550 OA
ATOM     24  O   UNL     1      -1.456  38.110  26.938  1.00  0.00    -0.550 OA
ENDBRANCH  21  22
ENDBRANCH  20  21
ENDBRANCH  19  20
ENDBRANCH  18  19
ENDBRANCH  17  18
ENDBRANCH  16  17
ENDBRANCH  15  16
ENDBRANCH  14  15
ENDBRANCH  13  14
ENDBRANCH   1  13
TORSDOF 20
ENDMDL
MODEL 4
REMARK VINA RESULT:     5.441      1.878      3.298
REMARK INTER + INTRA:          11.161
REMARK INTER:                   9.954
REMARK INTRA:                   1.207
REMARK UNBOUND:                -0.642
REMARK SMILES CCCCCCCCCCCCCCCCCCCCCC(=O)[O-]
REMARK SMILES IDX 12 1 11 2 10 3 9 4 8 5 7 6 6 7 5 8 4 9 3 10 2 11 1 12 13 13
REMARK SMILES IDX 14 14 15 15 16 16 17 17 18 18 19 19 20 20 21 21 22 22 23 23
REMARK SMILES IDX 24 24
REMARK H PARENT
REMARK Flexibility Score: inf
ROOT
ATOM      1  C   UNL     1      -4.682  35.547  21.595  1.00  0.00     0.000 C 
ENDROOT
BRANCH   1   2
ATOM      2  C   UNL     1      -6.104  35.104  21.214  1.00  0.00     0.000 C 
BRANCH   2   3
ATOM      3  C   UNL     1      -6.116  33.884  20.281  1.00  0.00     0.000 C 
BRANCH   3   4
ATOM      4  C   UNL     1      -6.060  34.272  18.793  1.00  0.00    -0.000 C 
BRANCH   4   5
ATOM      5  C   UNL     1      -4.796  35.083  18.432  1.00  0.00    -0.000 C 
BRANCH   5   6
ATOM      6  C   UNL     1      -4.502  35.154  16.921  1.00  0.00    -0.000 C 
BRANCH   6   7
ATOM      7  C   UNL     1      -3.022  35.362  16.540  1.00  0.00    -0.000 C 
BRANCH   7   8
ATOM      8  C   UNL     1      -2.720  35.345  15.027  1.00  0.00    -0.000 C 
BRANCH   8   9
ATOM      9  C   UNL     1      -3.846  35.927  14.148  1.00  0.00    -0.000 C 
BRANCH   9  10
ATOM     10  C   UNL     1      -3.688  37.441  13.875  1.00  0.00    -0.000 C 
BRANCH  10  11
ATOM     11  C   UNL     1      -4.820  38.292  14.477  1.00  0.00    -0.003 C 
ATOM     12  C   UNL     1      -4.796  39.741  13.992  1.00  0.00     0.004 C 
ENDBRANCH  10  11
ENDBRANCH   9  10
ENDBRANCH   8   9
ENDBRANCH   7   8
ENDBRANCH   6   7
ENDBRANCH   5   6
ENDBRANCH   4   5
ENDBRANCH   3   4
ENDBRANCH   2   3
ENDBRANCH   1   2
BRANCH   1  13
ATOM     13  C   UNL     1      -4.460  37.024  21.245  1.00  0.00     0.000 C 
BRANCH  13  14
ATOM     14  C   UNL     1      -5.721  37.856  21.521  1.00  0.00     0.000 C 
BRANCH  14  15
ATOM     15  C   UNL     1      -5.499  39.358  21.278  1.00  0.00     0.000 C 
BRANCH  15  16
ATOM     16  C   UNL     1      -5.215  40.130  22.575  1.00  0.00     0.000 C 
BRANCH  16  17
ATOM     17  C   UNL     1      -5.559  39.278  23.807  1.00  0.00     0.000 C 
BRANCH  17  18
ATOM     18  C   UNL     1      -4.315  38.864  24.611  1.00  0.00     0.000 C 
BRANCH  18  19
ATOM     19  C   UNL     1      -4.627  38.569  26.085  1.00  0.00     0.000 C 
BRANCH  19  20
ATOM     20  C   UNL     1      -5.361  37.231  26.235  1.00  0.00     0.006 C 
BRANCH  20  21
ATOM     21  C   UNL     1      -5.925  36.756  24.892  1.00  0.00     0.053 C 
BRANCH  21  22
ATOM     22  C   UNL     1      -5.957  35.261  24.825  1.00  0.00     0.041 C 
ATOM     23  O   UNL     1      -5.831  34.669  23.719  1.00  0.00    -0.550 OA
ATOM     24  O   UNL     1      -6.125  34.517  25.988  1.00  0.00    -0.550 OA
ENDBRANCH  21  22
ENDBRANCH  20  21
ENDBRANCH  19  20
ENDBRANCH  18  19
ENDBRANCH  17  18
ENDBRANCH  16  17
ENDBRANCH  15  16
ENDBRANCH  14  15
ENDBRANCH  13  14
ENDBRANCH   1  13
TORSDOF 20
ENDMDL
MODEL 5
REMARK VINA RESULT:     5.788      1.929      7.452
REMARK INTER + INTRA:          11.913
REMARK INTER:                   9.105
REMARK INTRA:                   2.808
REMARK UNBOUND:                -0.642
REMARK SMILES CCCCCCCCCCCCCCCCCCCCCC(=O)[O-]
REMARK SMILES IDX 12 1 11 2 10 3 9 4 8 5 7 6 6 7 5 8 4 9 3 10 2 11 1 12 13 13
REMARK SMILES IDX 14 14 15 15 16 16 17 17 18 18 19 19 20 20 21 21 22 22 23 23
REMARK SMILES IDX 24 24
REMARK H PARENT
REMARK Flexibility Score: inf
ROOT
ATOM      1  C   UNL     1      -4.639  34.502  22.872  1.00  0.00     0.000 C 
ENDROOT
BRANCH   1   2
ATOM      2  C   UNL     1      -5.839  35.454  23.008  1.00  0.00     0.000 C 
BRANCH   2   3
ATOM      3  C   UNL     1      -6.120  36.244  21.721  1.00  0.00     0.000 C 
BRANCH   3   4
ATOM      4  C   UNL     1      -5.215  37.480  21.572  1.00  0.00    -0.000 C 
BRANCH   4   5
ATOM      5  C   UNL     1      -5.479  38.263  20.268  1.00  0.00    -0.000 C 
BRANCH   5   6
ATOM      6  C   UNL     1      -6.046  39.679  20.485  1.00  0.00    -0.000 C 
BRANCH   6   7
ATOM      7  C   UNL     1      -5.768  40.302  21.867  1.00  0.00    -0.000 C 
BRANCH   7   8
ATOM      8  C   UNL     1      -5.965  39.357  23.071  1.00  0.00    -0.000 C 
BRANCH   8   9
ATOM      9  C   UNL     1      -4.654  38.909  23.748  1.00  0.00    -0.000 C 
BRANCH   9  10
ATOM     10  C   UNL     1      -4.759  38.827  25.289  1.00  0.00    -0.000 C 
BRANCH  10  11
ATOM     11  C   UNL     1      -4.675  37.389  25.830  1.00  0.00    -0.003 C 
ATOM     12  C   UNL     1      -6.046  36.731  25.985  1.00  0.00     0.004 C 
ENDBRANCH  10  11
ENDBRANCH   9  10
ENDBRANCH   8   9
ENDBRANCH   7   8
ENDBRANCH   6   7
ENDBRANCH   5   6
ENDBRANCH   4   5
ENDBRANCH   3   4
ENDBRANCH   2   3
ENDBRANCH   1   2
BRANCH   1  13
ATOM     13  C   UNL     1      -3.943  34.693  21.519  1.00  0.00     0.000 C 
BRANCH  13  14
ATOM     14  C   UNL     1      -4.619  33.856  20.423  1.00  0.00     0.000 C 
BRANCH  14  15
ATOM     15  C   UNL     1      -5.674  34.654  19.641  1.00  0.00     0.000 C 
BRANCH  15  16
ATOM     16  C   UNL     1      -5.625  34.376  18.131  1.00  0.00     0.000 C 
BRANCH  16  17
ATOM     17  C   UNL     1      -4.232  34.689  17.561  1.00  0.00     0.000 C 
BRANCH  17  18
ATOM     18  C   UNL     1      -4.272  35.092  16.078  1.00  0.00     0.000 C 
BRANCH  18  19
ATOM     19  C   UNL     1      -2.885  35.436  15.515  1.00  0.00     0.000 C 
BRANCH  19  20
ATOM     20  C   UNL     1      -2.975  35.836  14.038  1.00  0.00     0.006 C 
BRANCH  20  21
ATOM     21  C   UNL     1      -2.994  37.360  13.877  1.00  0.00     0.053 C 
BRANCH  21  22
ATOM     22  C   UNL     1      -4.365  37.906  14.127  1.00  0.00     0.041 C 
ATOM     23  O   UNL     1      -5.384  37.200  13.894  1.00  0.00    -0.550 OA
ATOM     24  O   UNL     1      -4.520  39.197  14.620  1.00  0.00    -0.550 OA
ENDBRANCH  21  22
ENDBRANCH  20  21
ENDBRANCH  19  20
ENDBRANCH  18  19
ENDBRANCH  17  18
ENDBRANCH  16  17
ENDBRANCH  15  16
ENDBRANCH  14  15
ENDBRANCH  13  14
ENDBRANCH   1  13
TORSDOF 20
ENDMDL
