MODEL 1
REMARK VINA RESULT:    -5.301      0.000      0.000
REMARK INTER + INTRA:          -9.253
REMARK INTER:                  -7.315
REMARK INTRA:                  -1.938
REMARK UNBOUND:                -1.938
REMARK SMILES CC[C@@H](CC[C@H](C)[C@H]1CC[C@@H]2[C@@H]3CC=C4C[C@H](O)CC[C@@]4(C)[C@@H]3CC[C@]21C)C(C)C
REMARK SMILES IDX 5 1 4 2 3 3 2 4 1 5 28 6 29 7 30 8 6 9 7 10 8 11 9 12 26 13
REMARK SMILES IDX 10 14 11 15 25 16 27 17 12 18 24 19 23 20 13 21 21 22 14 23
REMARK SMILES IDX 15 24 20 25 22 26 16 27 19 28 17 29 18 30
REMARK H PARENT 18 31
REMARK Flexibility Score: inf
ROOT
ATOM      1  C   UNL     1     -12.204  -3.758 -39.067  1.00  0.00     0.004 C 
ENDROOT
BRANCH   1   2
ATOM      2  C   UNL     1     -11.417  -3.858 -37.737  1.00  0.00     0.004 C 
BRANCH   2   3
ATOM      3  C   UNL     1     -10.012  -4.503 -37.896  1.00  0.00    -0.009 C 
BRANCH   3   4
ATOM      4  C   UNL     1     -10.013  -5.946 -37.317  1.00  0.00     0.000 C 
ATOM      5  C   UNL     1      -8.615  -6.441 -36.938  1.00  0.00     0.004 C 
ENDBRANCH   3   4
BRANCH   3   6
ATOM      6  C   UNL     1      -8.870  -3.618 -37.290  1.00  0.00    -0.014 C 
ATOM      7  C   UNL     1      -9.338  -2.844 -36.045  1.00  0.00     0.007 C 
ATOM      8  C   UNL     1      -8.233  -2.654 -38.305  1.00  0.00     0.007 C 
ENDBRANCH   3   6
ENDBRANCH   2   3
ENDBRANCH   1   2
BRANCH   1   9
ATOM      9  C   UNL     1     -12.628  -2.312 -39.464  1.00  0.00    -0.011 C 
ATOM     10  C   UNL     1     -13.031  -2.282 -40.953  1.00  0.00     0.008 C 
BRANCH   9  11
ATOM     11  C   UNL     1     -11.538  -1.244 -39.041  1.00  0.00    -0.002 C 
ATOM     12  C   UNL     1     -11.026  -0.325 -40.200  1.00  0.00     0.005 C 
ATOM     13  C   UNL     1     -11.992  -0.192 -37.960  1.00  0.00    -0.026 C 
ATOM     14  C   UNL     1     -11.699   1.049 -40.048  1.00  0.00     0.005 C 
ATOM     15  C   UNL     1     -12.639   0.872 -38.868  1.00  0.00    -0.001 C 
ATOM     16  C   UNL     1     -13.044  -0.609 -36.893  1.00  0.00     0.007 C 
ATOM     17  C   UNL     1     -10.694   0.278 -37.217  1.00  0.00     0.012 C 
ATOM     18  C   UNL     1     -13.242   2.121 -38.182  1.00  0.00     0.000 C 
ATOM     19  C   UNL     1     -13.651   0.612 -36.147  1.00  0.00     0.005 C 
ATOM     20  C   UNL     1     -14.277   1.669 -37.114  1.00  0.00     0.003 C 
ATOM     21  C   UNL     1     -12.233   3.108 -37.580  1.00  0.00     0.031 C 
ATOM     22  C   UNL     1     -15.008   2.913 -36.433  1.00  0.00    -0.008 C 
ATOM     23  C   UNL     1     -12.941   4.284 -36.994  1.00  0.00    -0.027 C 
ATOM     24  C   UNL     1     -14.154   4.196 -36.410  1.00  0.00    -0.065 C 
ATOM     25  C   UNL     1     -16.284   3.240 -37.278  1.00  0.00     0.014 C 
ATOM     26  C   UNL     1     -15.448   2.571 -34.984  1.00  0.00     0.016 C 
ATOM     27  C   UNL     1     -14.826   5.479 -35.961  1.00  0.00     0.063 C 
ATOM     28  C   UNL     1     -17.007   4.538 -36.864  1.00  0.00     0.033 C 
ATOM     29  C   UNL     1     -16.050   5.745 -36.849  1.00  0.00     0.118 C 
BRANCH  29  30
ATOM     30  O   UNL     1     -16.723   6.906 -36.435  1.00  0.00    -0.393 OA
ATOM     31  H   UNL     1     -16.467   7.640 -37.052  1.00  0.00     0.210 HD
ENDBRANCH  29  30
ENDBRANCH   9  11
ENDBRANCH   1   9
TORSDOF 7
ENDMDL
MODEL 2
REMARK VINA RESULT:    -5.290      3.805      8.699
REMARK INTER + INTRA:          -9.238
REMARK INTER:                  -7.285
REMARK INTRA:                  -1.953
REMARK UNBOUND:                -1.938
REMARK SMILES CC[C@@H](CC[C@H](C)[C@H]1CC[C@@H]2[C@@H]3CC=C4C[C@H](O)CC[C@@]4(C)[C@@H]3CC[C@]21C)C(C)C
REMARK SMILES IDX 5 1 4 2 3 3 2 4 1 5 28 6 29 7 30 8 6 9 7 10 8 11 9 12 26 13
REMARK SMILES IDX 10 14 11 15 25 16 27 17 12 18 24 19 23 20 13 21 21 22 14 23
REMARK SMILES IDX 15 24 20 25 22 26 16 27 19 28 17 29 18 30
REMARK H PARENT 18 31
REMARK Flexibility Score: inf
ROOT
ATOM      1  C   UNL     1     -13.415   6.941 -40.036  1.00  0.00     0.004 C 
ENDROOT
BRANCH   1   2
ATOM      2  C   UNL     1     -12.146   6.895 -40.921  1.00  0.00     0.004 C 
BRANCH   2   3
ATOM      3  C   UNL     1     -11.047   7.902 -40.480  1.00  0.00    -0.009 C 
BRANCH   3   4
ATOM      4  C   UNL     1      -9.906   7.159 -39.729  1.00  0.00     0.000 C 
ATOM      5  C   UNL     1      -9.111   6.213 -40.633  1.00  0.00     0.004 C 
ENDBRANCH   3   4
BRANCH   3   6
ATOM      6  C   UNL     1     -11.624   9.100 -39.653  1.00  0.00    -0.014 C 
ATOM      7  C   UNL     1     -11.135  10.459 -40.185  1.00  0.00     0.007 C 
ATOM      8  C   UNL     1     -11.353   8.994 -38.143  1.00  0.00     0.007 C 
ENDBRANCH   3   6
ENDBRANCH   2   3
ENDBRANCH   1   2
BRANCH   1   9
ATOM      9  C   UNL     1     -13.757   5.600 -39.320  1.00  0.00    -0.011 C 
ATOM     10  C   UNL     1     -15.175   5.683 -38.716  1.00  0.00     0.008 C 
BRANCH   9  11
ATOM     11  C   UNL     1     -12.620   5.169 -38.307  1.00  0.00    -0.002 C 
ATOM     12  C   UNL     1     -13.105   4.887 -36.846  1.00  0.00     0.005 C 
ATOM     13  C   UNL     1     -11.851   3.841 -38.663  1.00  0.00    -0.026 C 
ATOM     14  C   UNL     1     -13.156   3.363 -36.649  1.00  0.00     0.005 C 
ATOM     15  C   UNL     1     -12.785   2.802 -38.010  1.00  0.00    -0.001 C 
ATOM     16  C   UNL     1     -11.673   3.446 -40.157  1.00  0.00     0.007 C 
ATOM     17  C   UNL     1     -10.432   3.953 -38.008  1.00  0.00     0.012 C 
ATOM     18  C   UNL     1     -12.388   1.311 -38.136  1.00  0.00     0.000 C 
ATOM     19  C   UNL     1     -11.235   1.966 -40.333  1.00  0.00     0.005 C 
ATOM     20  C   UNL     1     -12.204   0.955 -39.638  1.00  0.00     0.003 C 
ATOM     21  C   UNL     1     -11.165   0.872 -37.318  1.00  0.00     0.031 C 
ATOM     22  C   UNL     1     -11.887  -0.594 -39.845  1.00  0.00    -0.008 C 
ATOM     23  C   UNL     1     -10.921  -0.591 -37.492  1.00  0.00    -0.027 C 
ATOM     24  C   UNL     1     -11.171  -1.246 -38.645  1.00  0.00    -0.065 C 
ATOM     25  C   UNL     1     -13.249  -1.345 -40.013  1.00  0.00     0.014 C 
ATOM     26  C   UNL     1     -11.036  -0.819 -41.125  1.00  0.00     0.016 C 
ATOM     27  C   UNL     1     -10.998  -2.752 -38.663  1.00  0.00     0.063 C 
ATOM     28  C   UNL     1     -13.132  -2.883 -40.037  1.00  0.00     0.033 C 
ATOM     29  C   UNL     1     -12.375  -3.416 -38.805  1.00  0.00     0.118 C 
BRANCH  29  30
ATOM     30  O   UNL     1     -12.250  -4.814 -38.867  1.00  0.00    -0.393 OA
ATOM     31  H   UNL     1     -13.150  -5.190 -39.053  1.00  0.00     0.210 HD
ENDBRANCH  29  30
ENDBRANCH   9  11
ENDBRANCH   1   9
TORSDOF 7
ENDMDL
MODEL 3
REMARK VINA RESULT:    -5.165      5.892      8.304
REMARK INTER + INTRA:          -9.066
REMARK INTER:                  -6.911
REMARK INTRA:                  -2.155
REMARK UNBOUND:                -1.938
REMARK SMILES CC[C@@H](CC[C@H](C)[C@H]1CC[C@@H]2[C@@H]3CC=C4C[C@H](O)CC[C@@]4(C)[C@@H]3CC[C@]21C)C(C)C
REMARK SMILES IDX 5 1 4 2 3 3 2 4 1 5 28 6 29 7 30 8 6 9 7 10 8 11 9 12 26 13
REMARK SMILES IDX 10 14 11 15 25 16 27 17 12 18 24 19 23 20 13 21 21 22 14 23
REMARK SMILES IDX 15 24 20 25 22 26 16 27 19 28 17 29 18 30
REMARK H PARENT 18 31
REMARK Flexibility Score: inf
ROOT
ATOM      1  C   UNL     1     -11.884   8.666 -40.096  1.00  0.00     0.004 C 
ENDROOT
BRANCH   1   2
ATOM      2  C   UNL     1     -11.160   7.480 -40.776  1.00  0.00     0.004 C 
BRANCH   2   3
ATOM      3  C   UNL     1      -9.666   7.768 -41.097  1.00  0.00    -0.009 C 
BRANCH   3   4
ATOM      4  C   UNL     1      -8.821   6.473 -40.937  1.00  0.00     0.000 C 
ATOM      5  C   UNL     1      -9.633   5.290 -40.403  1.00  0.00     0.004 C 
ENDBRANCH   3   4
BRANCH   3   6
ATOM      6  C   UNL     1      -9.090   8.963 -40.264  1.00  0.00    -0.014 C 
ATOM      7  C   UNL     1      -8.186   9.876 -41.110  1.00  0.00     0.007 C 
ATOM      8  C   UNL     1      -8.354   8.525 -38.986  1.00  0.00     0.007 C 
ENDBRANCH   3   6
ENDBRANCH   2   3
ENDBRANCH   1   2
BRANCH   1   9
ATOM      9  C   UNL     1     -12.338   8.397 -38.629  1.00  0.00    -0.011 C 
ATOM     10  C   UNL     1     -11.923   9.583 -37.734  1.00  0.00     0.008 C 
BRANCH   9  11
ATOM     11  C   UNL     1     -11.864   6.974 -38.121  1.00  0.00    -0.002 C 
ATOM     12  C   UNL     1     -11.054   6.984 -36.782  1.00  0.00     0.005 C 
ATOM     13  C   UNL     1     -13.012   5.942 -37.806  1.00  0.00    -0.026 C 
ATOM     14  C   UNL     1     -11.991   6.514 -35.657  1.00  0.00     0.005 C 
ATOM     15  C   UNL     1     -13.331   6.324 -36.347  1.00  0.00    -0.001 C 
ATOM     16  C   UNL     1     -14.338   6.013 -38.616  1.00  0.00     0.007 C 
ATOM     17  C   UNL     1     -12.395   4.513 -37.993  1.00  0.00     0.012 C 
ATOM     18  C   UNL     1     -14.449   5.528 -35.632  1.00  0.00     0.000 C 
ATOM     19  C   UNL     1     -15.483   5.195 -37.956  1.00  0.00     0.005 C 
ATOM     20  C   UNL     1     -15.753   5.608 -36.473  1.00  0.00     0.003 C 
ATOM     21  C   UNL     1     -14.115   4.072 -35.280  1.00  0.00     0.031 C 
ATOM     22  C   UNL     1     -16.974   4.888 -35.743  1.00  0.00    -0.008 C 
ATOM     23  C   UNL     1     -15.255   3.437 -34.556  1.00  0.00    -0.027 C 
ATOM     24  C   UNL     1     -16.546   3.740 -34.807  1.00  0.00    -0.065 C 
ATOM     25  C   UNL     1     -17.693   5.950 -34.848  1.00  0.00     0.014 C 
ATOM     26  C   UNL     1     -17.994   4.341 -36.780  1.00  0.00     0.016 C 
ATOM     27  C   UNL     1     -17.611   3.120 -33.923  1.00  0.00     0.063 C 
ATOM     28  C   UNL     1     -18.787   5.373 -33.926  1.00  0.00     0.033 C 
ATOM     29  C   UNL     1     -18.251   4.217 -33.060  1.00  0.00     0.118 C 
BRANCH  29  30
ATOM     30  O   UNL     1     -19.273   3.685 -32.256  1.00  0.00    -0.393 OA
ATOM     31  H   UNL     1     -19.809   3.067 -32.819  1.00  0.00     0.210 HD
ENDBRANCH  29  30
ENDBRANCH   9  11
ENDBRANCH   1   9
TORSDOF 7
ENDMDL
MODEL 4
REMARK VINA RESULT:    -5.150      5.445      8.489
REMARK INTER + INTRA:          -9.045
REMARK INTER:                  -7.293
REMARK INTRA:                  -1.753
REMARK UNBOUND:                -1.938
REMARK SMILES CC[C@@H](CC[C@H](C)[C@H]1CC[C@@H]2[C@@H]3CC=C4C[C@H](O)CC[C@@]4(C)[C@@H]3CC[C@]21C)C(C)C
REMARK SMILES IDX 5 1 4 2 3 3 2 4 1 5 28 6 29 7 30 8 6 9 7 10 8 11 9 12 26 13
REMARK SMILES IDX 10 14 11 15 25 16 27 17 12 18 24 19 23 20 13 21 21 22 14 23
REMARK SMILES IDX 15 24 20 25 22 26 16 27 19 28 17 29 18 30
REMARK H PARENT 18 31
REMARK Flexibility Score: inf
ROOT
ATOM      1  C   UNL     1     -12.007   5.528 -36.372  1.00  0.00     0.004 C 
ENDROOT
BRANCH   1   2
ATOM      2  C   UNL     1     -12.363   7.015 -36.611  1.00  0.00     0.004 C 
BRANCH   2   3
ATOM      3  C   UNL     1     -12.623   7.358 -38.105  1.00  0.00    -0.009 C 
BRANCH   3   4
ATOM      4  C   UNL     1     -11.997   6.271 -39.024  1.00  0.00     0.000 C 
ATOM      5  C   UNL     1     -13.026   5.585 -39.927  1.00  0.00     0.004 C 
ENDBRANCH   3   4
BRANCH   3   6
ATOM      6  C   UNL     1     -12.149   8.802 -38.482  1.00  0.00    -0.014 C 
ATOM      7  C   UNL     1     -12.627   9.220 -39.884  1.00  0.00     0.007 C 
ATOM      8  C   UNL     1     -10.630   9.005 -38.357  1.00  0.00     0.007 C 
ENDBRANCH   3   6
ENDBRANCH   2   3
ENDBRANCH   1   2
BRANCH   1   9
ATOM      9  C   UNL     1     -13.127   4.693 -35.682  1.00  0.00    -0.011 C 
ATOM     10  C   UNL     1     -12.489   3.641 -34.751  1.00  0.00     0.008 C 
BRANCH   9  11
ATOM     11  C   UNL     1     -14.163   4.120 -36.732  1.00  0.00    -0.002 C 
ATOM     12  C   UNL     1     -14.472   2.592 -36.594  1.00  0.00     0.005 C 
ATOM     13  C   UNL     1     -15.605   4.754 -36.690  1.00  0.00    -0.026 C 
ATOM     14  C   UNL     1     -15.845   2.445 -35.918  1.00  0.00     0.005 C 
ATOM     15  C   UNL     1     -16.259   3.872 -35.608  1.00  0.00    -0.001 C 
ATOM     16  C   UNL     1     -15.767   6.239 -36.254  1.00  0.00     0.007 C 
ATOM     17  C   UNL     1     -16.210   4.592 -38.126  1.00  0.00     0.012 C 
ATOM     18  C   UNL     1     -17.732   4.174 -35.240  1.00  0.00     0.000 C 
ATOM     19  C   UNL     1     -17.239   6.601 -35.911  1.00  0.00     0.005 C 
ATOM     20  C   UNL     1     -17.861   5.666 -34.824  1.00  0.00     0.003 C 
ATOM     21  C   UNL     1     -18.777   3.813 -36.305  1.00  0.00     0.031 C 
ATOM     22  C   UNL     1     -19.338   6.021 -34.339  1.00  0.00    -0.008 C 
ATOM     23  C   UNL     1     -20.153   4.109 -35.807  1.00  0.00    -0.027 C 
ATOM     24  C   UNL     1     -20.429   5.142 -34.984  1.00  0.00    -0.065 C 
ATOM     25  C   UNL     1     -19.412   5.765 -32.798  1.00  0.00     0.014 C 
ATOM     26  C   UNL     1     -19.666   7.515 -34.610  1.00  0.00     0.016 C 
ATOM     27  C   UNL     1     -21.842   5.270 -34.448  1.00  0.00     0.063 C 
ATOM     28  C   UNL     1     -20.829   5.881 -32.198  1.00  0.00     0.033 C 
ATOM     29  C   UNL     1     -21.836   4.982 -32.939  1.00  0.00     0.118 C 
BRANCH  29  30
ATOM     30  O   UNL     1     -23.125   5.132 -32.399  1.00  0.00    -0.393 OA
ATOM     31  H   UNL     1     -23.360   6.095 -32.442  1.00  0.00     0.210 HD
ENDBRANCH  29  30
ENDBRANCH   9  11
ENDBRANCH   1   9
TORSDOF 7
ENDMDL
MODEL 5
REMARK VINA RESULT:    -5.142     12.535     15.100
REMARK INTER + INTRA:          -9.033
REMARK INTER:                  -6.749
REMARK INTRA:                  -2.284
REMARK UNBOUND:                -1.938
REMARK SMILES CC[C@@H](CC[C@H](C)[C@H]1CC[C@@H]2[C@@H]3CC=C4C[C@H](O)CC[C@@]4(C)[C@@H]3CC[C@]21C)C(C)C
REMARK SMILES IDX 5 1 4 2 3 3 2 4 1 5 28 6 29 7 30 8 6 9 7 10 8 11 9 12 26 13
REMARK SMILES IDX 10 14 11 15 25 16 27 17 12 18 24 19 23 20 13 21 21 22 14 23
REMARK SMILES IDX 15 24 20 25 22 26 16 27 19 28 17 29 18 30
REMARK H PARENT 18 31
REMARK Flexibility Score: inf
ROOT
ATOM      1  C   UNL     1     -13.270   0.301 -24.083  1.00  0.00     0.004 C 
ENDROOT
BRANCH   1   2
ATOM      2  C   UNL     1     -12.364  -0.096 -22.893  1.00  0.00     0.004 C 
BRANCH   2   3
ATOM      3  C   UNL     1     -10.974  -0.641 -23.327  1.00  0.00    -0.009 C 
BRANCH   3   4
ATOM      4  C   UNL     1     -10.974  -0.962 -24.849  1.00  0.00     0.000 C 
ATOM      5  C   UNL     1      -9.911  -0.181 -25.626  1.00  0.00     0.004 C 
ENDBRANCH   3   4
BRANCH   3   6
ATOM      6  C   UNL     1     -10.508  -1.859 -22.460  1.00  0.00    -0.014 C 
ATOM      7  C   UNL     1     -10.340  -3.137 -23.301  1.00  0.00     0.007 C 
ATOM      8  C   UNL     1     -11.413  -2.136 -21.249  1.00  0.00     0.007 C 
ENDBRANCH   3   6
ENDBRANCH   2   3
ENDBRANCH   1   2
BRANCH   1   9
ATOM      9  C   UNL     1     -14.569  -0.548 -24.223  1.00  0.00    -0.011 C 
ATOM     10  C   UNL     1     -15.802   0.351 -23.995  1.00  0.00     0.008 C 
BRANCH   9  11
ATOM     11  C   UNL     1     -14.515  -1.853 -23.328  1.00  0.00    -0.002 C 
ATOM     12  C   UNL     1     -15.740  -2.055 -22.376  1.00  0.00     0.005 C 
ATOM     13  C   UNL     1     -14.476  -3.220 -24.111  1.00  0.00    -0.026 C 
ATOM     14  C   UNL     1     -16.651  -3.128 -22.995  1.00  0.00     0.005 C 
ATOM     15  C   UNL     1     -15.984  -3.460 -24.319  1.00  0.00    -0.001 C 
ATOM     16  C   UNL     1     -13.790  -3.273 -25.507  1.00  0.00     0.007 C 
ATOM     17  C   UNL     1     -13.767  -4.255 -23.173  1.00  0.00     0.012 C 
ATOM     18  C   UNL     1     -16.402  -4.740 -25.081  1.00  0.00     0.000 C 
ATOM     19  C   UNL     1     -14.149  -4.563 -26.296  1.00  0.00     0.005 C 
ATOM     20  C   UNL     1     -15.690  -4.769 -26.462  1.00  0.00     0.003 C 
ATOM     21  C   UNL     1     -16.195  -6.064 -24.333  1.00  0.00     0.031 C 
ATOM     22  C   UNL     1     -16.152  -6.017 -27.341  1.00  0.00    -0.008 C 
ATOM     23  C   UNL     1     -16.680  -7.210 -25.157  1.00  0.00    -0.027 C 
ATOM     24  C   UNL     1     -16.598  -7.233 -26.504  1.00  0.00    -0.065 C 
ATOM     25  C   UNL     1     -17.393  -5.577 -28.186  1.00  0.00     0.014 C 
ATOM     26  C   UNL     1     -15.023  -6.459 -28.312  1.00  0.00     0.016 C 
ATOM     27  C   UNL     1     -17.234  -8.396 -27.239  1.00  0.00     0.063 C 
ATOM     28  C   UNL     1     -18.081  -6.723 -28.955  1.00  0.00     0.033 C 
ATOM     29  C   UNL     1     -18.455  -7.891 -28.022  1.00  0.00     0.118 C 
BRANCH  29  30
ATOM     30  O   UNL     1     -19.047  -8.937 -28.750  1.00  0.00    -0.393 OA
ATOM     31  H   UNL     1     -18.995  -8.702 -29.713  1.00  0.00     0.210 HD
ENDBRANCH  29  30
ENDBRANCH   9  11
ENDBRANCH   1   9
TORSDOF 7
ENDMDL
MODEL 6
REMARK VINA RESULT:    -5.072      6.365      9.095
REMARK INTER + INTRA:          -8.937
REMARK INTER:                  -6.631
REMARK INTRA:                  -2.306
REMARK UNBOUND:                -1.938
REMARK SMILES CC[C@@H](CC[C@H](C)[C@H]1CC[C@@H]2[C@@H]3CC=C4C[C@H](O)CC[C@@]4(C)[C@@H]3CC[C@]21C)C(C)C
REMARK SMILES IDX 5 1 4 2 3 3 2 4 1 5 28 6 29 7 30 8 6 9 7 10 8 11 9 12 26 13
REMARK SMILES IDX 10 14 11 15 25 16 27 17 12 18 24 19 23 20 13 21 21 22 14 23
REMARK SMILES IDX 15 24 20 25 22 26 16 27 19 28 17 29 18 30
REMARK H PARENT 18 31
REMARK Flexibility Score: inf
ROOT
ATOM      1  C   UNL     1     -17.637   2.392 -38.875  1.00  0.00     0.004 C 
ENDROOT
BRANCH   1   2
ATOM      2  C   UNL     1     -17.584   1.029 -38.143  1.00  0.00     0.004 C 
BRANCH   2   3
ATOM      3  C   UNL     1     -18.894   0.204 -38.275  1.00  0.00    -0.009 C 
BRANCH   3   4
ATOM      4  C   UNL     1     -20.039   1.096 -38.835  1.00  0.00     0.000 C 
ATOM      5  C   UNL     1     -20.610   0.578 -40.157  1.00  0.00     0.004 C 
ENDBRANCH   3   4
BRANCH   3   6
ATOM      6  C   UNL     1     -19.294  -0.510 -36.940  1.00  0.00    -0.014 C 
ATOM      7  C   UNL     1     -20.587   0.067 -36.339  1.00  0.00     0.007 C 
ATOM      8  C   UNL     1     -18.175  -0.514 -35.884  1.00  0.00     0.007 C 
ENDBRANCH   3   6
ENDBRANCH   2   3
ENDBRANCH   1   2
BRANCH   1   9
ATOM      9  C   UNL     1     -17.549   3.635 -37.940  1.00  0.00    -0.011 C 
ATOM     10  C   UNL     1     -16.361   4.522 -38.367  1.00  0.00     0.008 C 
BRANCH   9  11
ATOM     11  C   UNL     1     -17.563   3.222 -36.412  1.00  0.00    -0.002 C 
ATOM     12  C   UNL     1     -16.362   3.765 -35.567  1.00  0.00     0.005 C 
ATOM     13  C   UNL     1     -18.805   3.718 -35.578  1.00  0.00    -0.026 C 
ATOM     14  C   UNL     1     -16.869   4.950 -34.729  1.00  0.00     0.005 C 
ATOM     15  C   UNL     1     -18.314   5.119 -35.164  1.00  0.00    -0.001 C 
ATOM     16  C   UNL     1     -20.177   3.887 -36.291  1.00  0.00     0.007 C 
ATOM     17  C   UNL     1     -18.984   2.707 -34.394  1.00  0.00     0.012 C 
ATOM     18  C   UNL     1     -19.270   5.983 -34.307  1.00  0.00     0.000 C 
ATOM     19  C   UNL     1     -21.186   4.716 -35.449  1.00  0.00     0.005 C 
ATOM     20  C   UNL     1     -20.633   6.119 -35.040  1.00  0.00     0.003 C 
ATOM     21  C   UNL     1     -19.475   5.519 -32.858  1.00  0.00     0.031 C 
ATOM     22  C   UNL     1     -21.636   7.079 -34.254  1.00  0.00    -0.008 C 
ATOM     23  C   UNL     1     -20.377   6.461 -32.132  1.00  0.00    -0.027 C 
ATOM     24  C   UNL     1     -21.397   7.110 -32.731  1.00  0.00    -0.065 C 
ATOM     25  C   UNL     1     -21.409   8.538 -34.772  1.00  0.00     0.014 C 
ATOM     26  C   UNL     1     -23.112   6.681 -34.527  1.00  0.00     0.016 C 
ATOM     27  C   UNL     1     -22.168   8.134 -31.920  1.00  0.00     0.063 C 
ATOM     28  C   UNL     1     -22.170   9.622 -33.980  1.00  0.00     0.033 C 
ATOM     29  C   UNL     1     -21.875   9.537 -32.471  1.00  0.00     0.118 C 
BRANCH  29  30
ATOM     30  O   UNL     1     -22.606  10.510 -31.768  1.00  0.00    -0.393 OA
ATOM     31  H   UNL     1     -23.487  10.608 -32.216  1.00  0.00     0.210 HD
ENDBRANCH  29  30
ENDBRANCH   9  11
ENDBRANCH   1   9
TORSDOF 7
ENDMDL
MODEL 7
REMARK VINA RESULT:    -5.055      4.422      7.292
REMARK INTER + INTRA:          -8.913
REMARK INTER:                  -6.838
REMARK INTRA:                  -2.075
REMARK UNBOUND:                -1.938
REMARK SMILES CC[C@@H](CC[C@H](C)[C@H]1CC[C@@H]2[C@@H]3CC=C4C[C@H](O)CC[C@@]4(C)[C@@H]3CC[C@]21C)C(C)C
REMARK SMILES IDX 5 1 4 2 3 3 2 4 1 5 28 6 29 7 30 8 6 9 7 10 8 11 9 12 26 13
REMARK SMILES IDX 10 14 11 15 25 16 27 17 12 18 24 19 23 20 13 21 21 22 14 23
REMARK SMILES IDX 15 24 20 25 22 26 16 27 19 28 17 29 18 30
REMARK H PARENT 18 31
REMARK Flexibility Score: inf
ROOT
ATOM      1  C   UNL     1     -16.092   3.537 -34.037  1.00  0.00     0.004 C 
ENDROOT
BRANCH   1   2
ATOM      2  C   UNL     1     -15.769   2.098 -34.508  1.00  0.00     0.004 C 
BRANCH   2   3
ATOM      3  C   UNL     1     -14.628   1.422 -33.697  1.00  0.00    -0.009 C 
BRANCH   3   4
ATOM      4  C   UNL     1     -13.718   2.501 -33.045  1.00  0.00     0.000 C 
ATOM      5  C   UNL     1     -12.279   2.465 -33.566  1.00  0.00     0.004 C 
ENDBRANCH   3   4
BRANCH   3   6
ATOM      6  C   UNL     1     -13.814   0.390 -34.548  1.00  0.00    -0.014 C 
ATOM      7  C   UNL     1     -14.326   0.303 -35.997  1.00  0.00     0.007 C 
ATOM      8  C   UNL     1     -13.753  -1.014 -33.922  1.00  0.00     0.007 C 
ENDBRANCH   3   6
ENDBRANCH   2   3
ENDBRANCH   1   2
BRANCH   1   9
ATOM      9  C   UNL     1     -15.961   4.628 -35.142  1.00  0.00    -0.011 C 
ATOM     10  C   UNL     1     -17.211   5.532 -35.127  1.00  0.00     0.008 C 
BRANCH   9  11
ATOM     11  C   UNL     1     -15.606   3.997 -36.550  1.00  0.00    -0.002 C 
ATOM     12  C   UNL     1     -16.608   4.339 -37.702  1.00  0.00     0.005 C 
ATOM     13  C   UNL     1     -14.225   4.436 -37.170  1.00  0.00    -0.026 C 
ATOM     14  C   UNL     1     -15.961   5.416 -38.589  1.00  0.00     0.005 C 
ATOM     15  C   UNL     1     -14.649   5.731 -37.891  1.00  0.00    -0.001 C 
ATOM     16  C   UNL     1     -13.045   4.787 -36.219  1.00  0.00     0.007 C 
ATOM     17  C   UNL     1     -13.768   3.275 -38.118  1.00  0.00     0.012 C 
ATOM     18  C   UNL     1     -13.552   6.513 -38.651  1.00  0.00     0.000 C 
ATOM     19  C   UNL     1     -11.898   5.540 -36.948  1.00  0.00     0.005 C 
ATOM     20  C   UNL     1     -12.384   6.834 -37.677  1.00  0.00     0.003 C 
ATOM     21  C   UNL     1     -13.026   5.855 -39.935  1.00  0.00     0.031 C 
ATOM     22  C   UNL     1     -11.259   7.725 -38.374  1.00  0.00    -0.008 C 
ATOM     23  C   UNL     1     -12.012   6.731 -40.591  1.00  0.00    -0.027 C 
ATOM     24  C   UNL     1     -11.162   7.519 -39.899  1.00  0.00    -0.065 C 
ATOM     25  C   UNL     1     -11.629   9.228 -38.149  1.00  0.00     0.014 C 
ATOM     26  C   UNL     1      -9.868   7.457 -37.738  1.00  0.00     0.016 C 
ATOM     27  C   UNL     1     -10.260   8.455 -40.679  1.00  0.00     0.063 C 
ATOM     28  C   UNL     1     -10.742  10.226 -38.921  1.00  0.00     0.033 C 
ATOM     29  C   UNL     1     -10.700   9.905 -40.427  1.00  0.00     0.118 C 
BRANCH  29  30
ATOM     30  O   UNL     1      -9.858  10.805 -41.103  1.00  0.00    -0.393 OA
ATOM     31  H   UNL     1      -9.957  11.693 -40.671  1.00  0.00     0.210 HD
ENDBRANCH  29  30
ENDBRANCH   9  11
ENDBRANCH   1   9
TORSDOF 7
ENDMDL
MODEL 8
REMARK VINA RESULT:    -5.054      3.661      9.809
REMARK INTER + INTRA:          -8.912
REMARK INTER:                  -7.211
REMARK INTRA:                  -1.701
REMARK UNBOUND:                -1.938
REMARK SMILES CC[C@@H](CC[C@H](C)[C@H]1CC[C@@H]2[C@@H]3CC=C4C[C@H](O)CC[C@@]4(C)[C@@H]3CC[C@]21C)C(C)C
REMARK SMILES IDX 5 1 4 2 3 3 2 4 1 5 28 6 29 7 30 8 6 9 7 10 8 11 9 12 26 13
REMARK SMILES IDX 10 14 11 15 25 16 27 17 12 18 24 19 23 20 13 21 21 22 14 23
REMARK SMILES IDX 15 24 20 25 22 26 16 27 19 28 17 29 18 30
REMARK H PARENT 18 31
REMARK Flexibility Score: inf
ROOT
ATOM      1  C   UNL     1     -17.110   5.802 -35.225  1.00  0.00     0.004 C 
ENDROOT
BRANCH   1   2
ATOM      2  C   UNL     1     -18.274   5.399 -34.289  1.00  0.00     0.004 C 
BRANCH   2   3
ATOM      3  C   UNL     1     -19.651   5.968 -34.732  1.00  0.00    -0.009 C 
BRANCH   3   4
ATOM      4  C   UNL     1     -19.900   7.353 -34.070  1.00  0.00     0.000 C 
ATOM      5  C   UNL     1     -20.914   8.209 -34.834  1.00  0.00     0.004 C 
ENDBRANCH   3   4
BRANCH   3   6
ATOM      6  C   UNL     1     -20.827   4.966 -34.478  1.00  0.00    -0.014 C 
ATOM      7  C   UNL     1     -20.360   3.702 -33.736  1.00  0.00     0.007 C 
ATOM      8  C   UNL     1     -21.594   4.579 -35.754  1.00  0.00     0.007 C 
ENDBRANCH   3   6
ENDBRANCH   2   3
ENDBRANCH   1   2
BRANCH   1   9
ATOM      9  C   UNL     1     -16.664   4.692 -36.224  1.00  0.00    -0.011 C 
ATOM     10  C   UNL     1     -16.243   5.338 -37.561  1.00  0.00     0.008 C 
BRANCH   9  11
ATOM     11  C   UNL     1     -17.747   3.544 -36.345  1.00  0.00    -0.002 C 
ATOM     12  C   UNL     1     -18.565   3.541 -37.678  1.00  0.00     0.005 C 
ATOM     13  C   UNL     1     -17.192   2.070 -36.295  1.00  0.00    -0.026 C 
ATOM     14  C   UNL     1     -18.012   2.420 -38.573  1.00  0.00     0.005 C 
ATOM     15  C   UNL     1     -16.844   1.858 -37.781  1.00  0.00    -0.001 C 
ATOM     16  C   UNL     1     -15.913   1.770 -35.461  1.00  0.00     0.007 C 
ATOM     17  C   UNL     1     -18.355   1.169 -35.756  1.00  0.00     0.012 C 
ATOM     18  C   UNL     1     -16.241   0.491 -38.183  1.00  0.00     0.000 C 
ATOM     19  C   UNL     1     -15.292   0.387 -35.801  1.00  0.00     0.005 C 
ATOM     20  C   UNL     1     -14.976   0.216 -37.322  1.00  0.00     0.003 C 
ATOM     21  C   UNL     1     -17.202  -0.706 -38.136  1.00  0.00     0.031 C 
ATOM     22  C   UNL     1     -14.248  -1.136 -37.752  1.00  0.00    -0.008 C 
ATOM     23  C   UNL     1     -16.509  -1.948 -38.589  1.00  0.00    -0.027 C 
ATOM     24  C   UNL     1     -15.201  -2.186 -38.358  1.00  0.00    -0.065 C 
ATOM     25  C   UNL     1     -13.204  -0.787 -38.863  1.00  0.00     0.014 C 
ATOM     26  C   UNL     1     -13.498  -1.768 -36.548  1.00  0.00     0.016 C 
ATOM     27  C   UNL     1     -14.581  -3.426 -38.972  1.00  0.00     0.063 C 
ATOM     28  C   UNL     1     -12.542  -2.014 -39.524  1.00  0.00     0.033 C 
ATOM     29  C   UNL     1     -13.589  -3.004 -40.067  1.00  0.00     0.118 C 
BRANCH  29  30
ATOM     30  O   UNL     1     -12.964  -4.129 -40.631  1.00  0.00    -0.393 OA
ATOM     31  H   UNL     1     -12.048  -3.859 -40.905  1.00  0.00     0.210 HD
ENDBRANCH  29  30
ENDBRANCH   9  11
ENDBRANCH   1   9
TORSDOF 7
ENDMDL
