MODEL 1
REMARK VINA RESULT:    -3.856      0.000      0.000
REMARK INTER + INTRA:         -11.095
REMARK INTER:                  -8.814
REMARK INTRA:                  -2.281
REMARK UNBOUND:                -2.281
REMARK SMILES CCCCCCCCCCCCCCCCCCCCCCCC(=O)[O-]
REMARK SMILES IDX 13 1 14 2 15 3 16 4 17 5 18 6 19 7 20 8 21 9 22 10 23 11
REMARK SMILES IDX 24 12 25 13 26 14 12 15 11 16 10 17 9 18 8 19 7 20 6 21 5 22
REMARK SMILES IDX 4 23 3 24 2 25 1 26
REMARK H PARENT
REMARK Flexibility Score: inf
ROOT
ATOM      1  C   UNL     1       1.863 -34.071  23.872  1.00  0.00     0.000 C 
ENDROOT
BRANCH   1   2
ATOM      2  C   UNL     1       2.560 -34.638  22.623  1.00  0.00     0.000 C 
BRANCH   2   3
ATOM      3  C   UNL     1       1.772 -35.797  21.982  1.00  0.00     0.000 C 
BRANCH   3   4
ATOM      4  C   UNL     1       2.450 -36.421  20.744  1.00  0.00     0.000 C 
BRANCH   4   5
ATOM      5  C   UNL     1       1.556 -37.363  19.903  1.00  0.00     0.000 C 
BRANCH   5   6
ATOM      6  C   UNL     1       2.119 -37.709  18.509  1.00  0.00     0.000 C 
BRANCH   6   7
ATOM      7  C   UNL     1       2.724 -36.497  17.770  1.00  0.00     0.000 C 
BRANCH   7   8
ATOM      8  C   UNL     1       4.213 -36.255  18.089  1.00  0.00     0.000 C 
BRANCH   8   9
ATOM      9  C   UNL     1       5.016 -37.528  18.412  1.00  0.00     0.000 C 
BRANCH   9  10
ATOM     10  C   UNL     1       6.125 -37.305  19.451  1.00  0.00     0.006 C 
BRANCH  10  11
ATOM     11  C   UNL     1       5.865 -38.125  20.717  1.00  0.00     0.053 C 
BRANCH  11  12
ATOM     12  C   UNL     1       5.473 -37.233  21.854  1.00  0.00     0.041 C 
ATOM     13  O   UNL     1       5.785 -36.013  21.842  1.00  0.00    -0.550 OA
ATOM     14  O   UNL     1       4.808 -37.761  22.954  1.00  0.00    -0.550 OA
ENDBRANCH  11  12
ENDBRANCH  10  11
ENDBRANCH   9  10
ENDBRANCH   8   9
ENDBRANCH   7   8
ENDBRANCH   6   7
ENDBRANCH   5   6
ENDBRANCH   4   5
ENDBRANCH   3   4
ENDBRANCH   2   3
ENDBRANCH   1   2
BRANCH   1  15
ATOM     15  C   UNL     1       2.014 -32.544  23.988  1.00  0.00     0.000 C 
BRANCH  15  16
ATOM     16  C   UNL     1       0.793 -31.819  24.591  1.00  0.00     0.000 C 
BRANCH  16  17
ATOM     17  C   UNL     1      -0.450 -31.762  23.679  1.00  0.00     0.000 C 
BRANCH  17  18
ATOM     18  C   UNL     1      -1.678 -32.528  24.214  1.00  0.00    -0.000 C 
BRANCH  18  19
ATOM     19  C   UNL     1      -1.883 -33.930  23.604  1.00  0.00    -0.000 C 
BRANCH  19  20
ATOM     20  C   UNL     1      -1.425 -34.074  22.137  1.00  0.00    -0.000 C 
BRANCH  20  21
ATOM     21  C   UNL     1      -1.699 -35.452  21.506  1.00  0.00    -0.000 C 
BRANCH  21  22
ATOM     22  C   UNL     1      -3.067 -36.025  21.916  1.00  0.00    -0.000 C 
BRANCH  22  23
ATOM     23  C   UNL     1      -3.325 -37.417  21.322  1.00  0.00    -0.000 C 
BRANCH  23  24
ATOM     24  C   UNL     1      -2.550 -37.652  20.015  1.00  0.00    -0.000 C 
BRANCH  24  25
ATOM     25  C   UNL     1      -3.510 -37.927  18.852  1.00  0.00    -0.003 C 
ATOM     26  C   UNL     1      -4.065 -36.628  18.272  1.00  0.00     0.004 C 
ENDBRANCH  24  25
ENDBRANCH  23  24
ENDBRANCH  22  23
ENDBRANCH  21  22
ENDBRANCH  20  21
ENDBRANCH  19  20
ENDBRANCH  18  19
ENDBRANCH  17  18
ENDBRANCH  16  17
ENDBRANCH  15  16
ENDBRANCH   1  15
TORSDOF 22
ENDMDL
MODEL 2
REMARK VINA RESULT:    -3.677      3.356      7.143
REMARK INTER + INTRA:         -10.687
REMARK INTER:                  -8.488
REMARK INTRA:                  -2.199
REMARK UNBOUND:                -2.281
REMARK SMILES CCCCCCCCCCCCCCCCCCCCCCCC(=O)[O-]
REMARK SMILES IDX 13 1 14 2 15 3 16 4 17 5 18 6 19 7 20 8 21 9 22 10 23 11
REMARK SMILES IDX 24 12 25 13 26 14 12 15 11 16 10 17 9 18 8 19 7 20 6 21 5 22
REMARK SMILES IDX 4 23 3 24 2 25 1 26
REMARK H PARENT
REMARK Flexibility Score: inf
ROOT
ATOM      1  C   UNL     1      -0.514 -32.538  24.606  1.00  0.00     0.000 C 
ENDROOT
BRANCH   1   2
ATOM      2  C   UNL     1      -1.864 -32.134  23.989  1.00  0.00     0.000 C 
BRANCH   2   3
ATOM      3  C   UNL     1      -2.538 -33.295  23.232  1.00  0.00     0.000 C 
BRANCH   3   4
ATOM      4  C   UNL     1      -1.582 -34.442  22.843  1.00  0.00     0.000 C 
BRANCH   4   5
ATOM      5  C   UNL     1      -1.914 -35.161  21.514  1.00  0.00     0.000 C 
BRANCH   5   6
ATOM      6  C   UNL     1      -0.950 -36.306  21.142  1.00  0.00     0.000 C 
BRANCH   6   7
ATOM      7  C   UNL     1      -1.647 -37.676  20.999  1.00  0.00     0.000 C 
BRANCH   7   8
ATOM      8  C   UNL     1      -3.183 -37.606  21.106  1.00  0.00     0.000 C 
BRANCH   8   9
ATOM      9  C   UNL     1      -3.936 -38.056  19.841  1.00  0.00     0.000 C 
BRANCH   9  10
ATOM     10  C   UNL     1      -3.210 -37.697  18.536  1.00  0.00     0.006 C 
BRANCH  10  11
ATOM     11  C   UNL     1      -4.196 -37.597  17.369  1.00  0.00     0.053 C 
BRANCH  11  12
ATOM     12  C   UNL     1      -4.708 -36.197  17.226  1.00  0.00     0.041 C 
ATOM     13  O   UNL     1      -3.921 -35.219  17.330  1.00  0.00    -0.550 OA
ATOM     14  O   UNL     1      -6.064 -35.970  17.029  1.00  0.00    -0.550 OA
ENDBRANCH  11  12
ENDBRANCH  10  11
ENDBRANCH   9  10
ENDBRANCH   8   9
ENDBRANCH   7   8
ENDBRANCH   6   7
ENDBRANCH   5   6
ENDBRANCH   4   5
ENDBRANCH   3   4
ENDBRANCH   2   3
ENDBRANCH   1   2
BRANCH   1  15
ATOM     15  C   UNL     1       0.665 -31.750  24.008  1.00  0.00     0.000 C 
BRANCH  15  16
ATOM     16  C   UNL     1       2.013 -32.501  24.013  1.00  0.00     0.000 C 
BRANCH  16  17
ATOM     17  C   UNL     1       1.939 -33.978  23.569  1.00  0.00     0.000 C 
BRANCH  17  18
ATOM     18  C   UNL     1       3.280 -34.577  23.097  1.00  0.00    -0.000 C 
BRANCH  18  19
ATOM     19  C   UNL     1       3.157 -35.661  22.006  1.00  0.00    -0.000 C 
BRANCH  19  20
ATOM     20  C   UNL     1       3.985 -36.938  22.262  1.00  0.00    -0.000 C 
BRANCH  20  21
ATOM     21  C   UNL     1       4.412 -37.697  20.992  1.00  0.00    -0.000 C 
BRANCH  21  22
ATOM     22  C   UNL     1       5.340 -36.862  20.092  1.00  0.00    -0.000 C 
BRANCH  22  23
ATOM     23  C   UNL     1       4.951 -36.941  18.609  1.00  0.00    -0.000 C 
BRANCH  23  24
ATOM     24  C   UNL     1       3.614 -36.241  18.314  1.00  0.00    -0.000 C 
BRANCH  24  25
ATOM     25  C   UNL     1       2.596 -37.228  17.729  1.00  0.00    -0.003 C 
ATOM     26  C   UNL     1       1.677 -37.783  18.814  1.00  0.00     0.004 C 
ENDBRANCH  24  25
ENDBRANCH  23  24
ENDBRANCH  22  23
ENDBRANCH  21  22
ENDBRANCH  20  21
ENDBRANCH  19  20
ENDBRANCH  18  19
ENDBRANCH  17  18
ENDBRANCH  16  17
ENDBRANCH  15  16
ENDBRANCH   1  15
TORSDOF 22
ENDMDL
MODEL 3
REMARK VINA RESULT:    -3.542      1.692      3.117
REMARK INTER + INTRA:         -10.379
REMARK INTER:                  -8.278
REMARK INTRA:                  -2.101
REMARK UNBOUND:                -2.281
REMARK SMILES CCCCCCCCCCCCCCCCCCCCCCCC(=O)[O-]
REMARK SMILES IDX 13 1 14 2 15 3 16 4 17 5 18 6 19 7 20 8 21 9 22 10 23 11
REMARK SMILES IDX 24 12 25 13 26 14 12 15 11 16 10 17 9 18 8 19 7 20 6 21 5 22
REMARK SMILES IDX 4 23 3 24 2 25 1 26
REMARK H PARENT
REMARK Flexibility Score: inf
ROOT
ATOM      1  C   UNL     1       0.207 -32.204  24.699  1.00  0.00     0.000 C 
ENDROOT
BRANCH   1   2
ATOM      2  C   UNL     1       1.666 -32.432  24.268  1.00  0.00     0.000 C 
BRANCH   2   3
ATOM      3  C   UNL     1       1.858 -33.760  23.510  1.00  0.00     0.000 C 
BRANCH   3   4
ATOM      4  C   UNL     1       3.330 -34.186  23.332  1.00  0.00     0.000 C 
BRANCH   4   5
ATOM      5  C   UNL     1       3.544 -35.626  22.807  1.00  0.00     0.000 C 
BRANCH   5   6
ATOM      6  C   UNL     1       5.012 -35.987  22.501  1.00  0.00     0.000 C 
BRANCH   6   7
ATOM      7  C   UNL     1       5.275 -36.290  21.010  1.00  0.00     0.000 C 
BRANCH   7   8
ATOM      8  C   UNL     1       5.810 -37.712  20.750  1.00  0.00     0.000 C 
BRANCH   8   9
ATOM      9  C   UNL     1       5.917 -38.097  19.264  1.00  0.00     0.000 C 
BRANCH   9  10
ATOM     10  C   UNL     1       5.012 -37.260  18.348  1.00  0.00     0.006 C 
BRANCH  10  11
ATOM     11  C   UNL     1       3.721 -38.013  18.015  1.00  0.00     0.053 C 
BRANCH  11  12
ATOM     12  C   UNL     1       2.534 -37.314  18.601  1.00  0.00     0.041 C 
ATOM     13  O   UNL     1       2.385 -36.073  18.445  1.00  0.00    -0.550 OA
ATOM     14  O   UNL     1       1.618 -38.024  19.367  1.00  0.00    -0.550 OA
ENDBRANCH  11  12
ENDBRANCH  10  11
ENDBRANCH   9  10
ENDBRANCH   8   9
ENDBRANCH   7   8
ENDBRANCH   6   7
ENDBRANCH   5   6
ENDBRANCH   4   5
ENDBRANCH   3   4
ENDBRANCH   2   3
ENDBRANCH   1   2
BRANCH   1  15
ATOM     15  C   UNL     1      -0.677 -31.705  23.542  1.00  0.00     0.000 C 
BRANCH  15  16
ATOM     16  C   UNL     1      -2.004 -32.472  23.366  1.00  0.00     0.000 C 
BRANCH  16  17
ATOM     17  C   UNL     1      -1.963 -33.955  23.789  1.00  0.00     0.000 C 
BRANCH  17  18
ATOM     18  C   UNL     1      -2.316 -34.956  22.669  1.00  0.00    -0.000 C 
BRANCH  18  19
ATOM     19  C   UNL     1      -1.419 -34.869  21.416  1.00  0.00    -0.000 C 
BRANCH  19  20
ATOM     20  C   UNL     1      -0.517 -36.097  21.176  1.00  0.00    -0.000 C 
BRANCH  20  21
ATOM     21  C   UNL     1      -1.233 -37.456  21.286  1.00  0.00    -0.000 C 
BRANCH  21  22
ATOM     22  C   UNL     1      -2.110 -37.759  20.059  1.00  0.00    -0.000 C 
BRANCH  22  23
ATOM     23  C   UNL     1      -3.592 -37.933  20.420  1.00  0.00    -0.000 C 
BRANCH  23  24
ATOM     24  C   UNL     1      -4.481 -38.125  19.180  1.00  0.00    -0.000 C 
BRANCH  24  25
ATOM     25  C   UNL     1      -3.851 -37.464  17.948  1.00  0.00    -0.003 C 
ATOM     26  C   UNL     1      -4.685 -36.278  17.468  1.00  0.00     0.004 C 
ENDBRANCH  24  25
ENDBRANCH  23  24
ENDBRANCH  22  23
ENDBRANCH  21  22
ENDBRANCH  20  21
ENDBRANCH  19  20
ENDBRANCH  18  19
ENDBRANCH  17  18
ENDBRANCH  16  17
ENDBRANCH  15  16
ENDBRANCH   1  15
TORSDOF 22
ENDMDL
MODEL 4
REMARK VINA RESULT:    -3.342      3.281      7.555
REMARK INTER + INTRA:          -9.920
REMARK INTER:                  -7.762
REMARK INTRA:                  -2.158
REMARK UNBOUND:                -2.281
REMARK SMILES CCCCCCCCCCCCCCCCCCCCCCCC(=O)[O-]
REMARK SMILES IDX 13 1 14 2 15 3 16 4 17 5 18 6 19 7 20 8 21 9 22 10 23 11
REMARK SMILES IDX 24 12 25 13 26 14 12 15 11 16 10 17 9 18 8 19 7 20 6 21 5 22
REMARK SMILES IDX 4 23 3 24 2 25 1 26
REMARK H PARENT
REMARK Flexibility Score: inf
ROOT
ATOM      1  C   UNL     1       2.533 -34.043  23.086  1.00  0.00     0.000 C 
ENDROOT
BRANCH   1   2
ATOM      2  C   UNL     1       2.227 -32.858  24.018  1.00  0.00     0.000 C 
BRANCH   2   3
ATOM      3  C   UNL     1       0.715 -32.605  24.176  1.00  0.00     0.000 C 
BRANCH   3   4
ATOM      4  C   UNL     1      -0.178 -33.538  23.332  1.00  0.00     0.000 C 
BRANCH   4   5
ATOM      5  C   UNL     1      -1.655 -33.096  23.195  1.00  0.00     0.000 C 
BRANCH   5   6
ATOM      6  C   UNL     1      -2.666 -34.256  23.083  1.00  0.00     0.000 C 
BRANCH   6   7
ATOM      7  C   UNL     1      -2.163 -35.431  22.217  1.00  0.00     0.000 C 
BRANCH   7   8
ATOM      8  C   UNL     1      -3.281 -36.387  21.759  1.00  0.00     0.000 C 
BRANCH   8   9
ATOM      9  C   UNL     1      -2.787 -37.658  21.045  1.00  0.00     0.000 C 
BRANCH   9  10
ATOM     10  C   UNL     1      -3.188 -37.723  19.564  1.00  0.00     0.006 C 
BRANCH  10  11
ATOM     11  C   UNL     1      -3.587 -36.341  19.041  1.00  0.00     0.053 C 
BRANCH  11  12
ATOM     12  C   UNL     1      -4.372 -36.461  17.772  1.00  0.00     0.041 C 
ATOM     13  O   UNL     1      -4.792 -35.429  17.184  1.00  0.00    -0.550 OA
ATOM     14  O   UNL     1      -4.687 -37.716  17.266  1.00  0.00    -0.550 OA
ENDBRANCH  11  12
ENDBRANCH  10  11
ENDBRANCH   9  10
ENDBRANCH   8   9
ENDBRANCH   7   8
ENDBRANCH   6   7
ENDBRANCH   5   6
ENDBRANCH   4   5
ENDBRANCH   3   4
ENDBRANCH   2   3
ENDBRANCH   1   2
BRANCH   1  15
ATOM     15  C   UNL     1       3.202 -35.216  23.826  1.00  0.00     0.000 C 
BRANCH  15  16
ATOM     16  C   UNL     1       4.603 -35.593  23.304  1.00  0.00     0.000 C 
BRANCH  16  17
ATOM     17  C   UNL     1       4.669 -36.908  22.499  1.00  0.00     0.000 C 
BRANCH  17  18
ATOM     18  C   UNL     1       6.034 -37.191  21.837  1.00  0.00    -0.000 C 
BRANCH  18  19
ATOM     19  C   UNL     1       6.124 -36.799  20.347  1.00  0.00    -0.000 C 
BRANCH  19  20
ATOM     20  C   UNL     1       6.113 -37.987  19.361  1.00  0.00    -0.000 C 
BRANCH  20  21
ATOM     21  C   UNL     1       4.861 -38.074  18.469  1.00  0.00    -0.000 C 
BRANCH  21  22
ATOM     22  C   UNL     1       4.411 -36.698  17.950  1.00  0.00    -0.000 C 
BRANCH  22  23
ATOM     23  C   UNL     1       2.909 -36.452  18.152  1.00  0.00    -0.000 C 
BRANCH  23  24
ATOM     24  C   UNL     1       2.427 -36.881  19.548  1.00  0.00    -0.000 C 
BRANCH  24  25
ATOM     25  C   UNL     1       1.305 -35.961  20.046  1.00  0.00    -0.003 C 
ATOM     26  C   UNL     1       0.670 -36.503  21.324  1.00  0.00     0.004 C 
ENDBRANCH  24  25
ENDBRANCH  23  24
ENDBRANCH  22  23
ENDBRANCH  21  22
ENDBRANCH  20  21
ENDBRANCH  19  20
ENDBRANCH  18  19
ENDBRANCH  17  18
ENDBRANCH  16  17
ENDBRANCH  15  16
ENDBRANCH   1  15
TORSDOF 22
ENDMDL
MODEL 5
REMARK VINA RESULT:    -3.267      1.647      3.569
REMARK INTER + INTRA:          -9.749
REMARK INTER:                  -7.275
REMARK INTRA:                  -2.474
REMARK UNBOUND:                -2.281
REMARK SMILES CCCCCCCCCCCCCCCCCCCCCCCC(=O)[O-]
REMARK SMILES IDX 13 1 14 2 15 3 16 4 17 5 18 6 19 7 20 8 21 9 22 10 23 11
REMARK SMILES IDX 24 12 25 13 26 14 12 15 11 16 10 17 9 18 8 19 7 20 6 21 5 22
REMARK SMILES IDX 4 23 3 24 2 25 1 26
REMARK H PARENT
REMARK Flexibility Score: inf
ROOT
ATOM      1  C   UNL     1      -0.433 -32.010  24.750  1.00  0.00     0.000 C 
ENDROOT
BRANCH   1   2
ATOM      2  C   UNL     1       0.653 -31.916  23.664  1.00  0.00     0.000 C 
BRANCH   2   3
ATOM      3  C   UNL     1       1.892 -32.772  23.993  1.00  0.00     0.000 C 
BRANCH   3   4
ATOM      4  C   UNL     1       1.952 -34.119  23.244  1.00  0.00     0.000 C 
BRANCH   4   5
ATOM      5  C   UNL     1       3.340 -34.499  22.675  1.00  0.00     0.000 C 
BRANCH   5   6
ATOM      6  C   UNL     1       3.855 -35.887  23.107  1.00  0.00     0.000 C 
BRANCH   6   7
ATOM      7  C   UNL     1       5.375 -36.071  22.906  1.00  0.00     0.000 C 
BRANCH   7   8
ATOM      8  C   UNL     1       5.803 -37.539  22.717  1.00  0.00     0.000 C 
BRANCH   8   9
ATOM      9  C   UNL     1       5.626 -38.082  21.288  1.00  0.00     0.000 C 
BRANCH   9  10
ATOM     10  C   UNL     1       5.622 -36.984  20.213  1.00  0.00     0.006 C 
BRANCH  10  11
ATOM     11  C   UNL     1       4.928 -37.468  18.937  1.00  0.00     0.053 C 
BRANCH  11  12
ATOM     12  C   UNL     1       3.826 -36.533  18.546  1.00  0.00     0.041 C 
ATOM     13  O   UNL     1       3.517 -35.567  19.293  1.00  0.00    -0.550 OA
ATOM     14  O   UNL     1       3.102 -36.758  17.382  1.00  0.00    -0.550 OA
ENDBRANCH  11  12
ENDBRANCH  10  11
ENDBRANCH   9  10
ENDBRANCH   8   9
ENDBRANCH   7   8
ENDBRANCH   6   7
ENDBRANCH   5   6
ENDBRANCH   4   5
ENDBRANCH   3   4
ENDBRANCH   2   3
ENDBRANCH   1   2
BRANCH   1  15
ATOM     15  C   UNL     1      -1.372 -33.212  24.541  1.00  0.00     0.000 C 
BRANCH  15  16
ATOM     16  C   UNL     1      -1.830 -33.427  23.084  1.00  0.00     0.000 C 
BRANCH  16  17
ATOM     17  C   UNL     1      -1.406 -34.772  22.457  1.00  0.00     0.000 C 
BRANCH  17  18
ATOM     18  C   UNL     1      -1.139 -34.721  20.938  1.00  0.00    -0.000 C 
BRANCH  18  19
ATOM     19  C   UNL     1       0.060 -35.569  20.463  1.00  0.00    -0.000 C 
BRANCH  19  20
ATOM     20  C   UNL     1       0.442 -36.735  21.399  1.00  0.00    -0.000 C 
BRANCH  20  21
ATOM     21  C   UNL     1      -0.020 -38.124  20.922  1.00  0.00    -0.000 C 
BRANCH  21  22
ATOM     22  C   UNL     1      -1.308 -38.061  20.083  1.00  0.00    -0.000 C 
BRANCH  22  23
ATOM     23  C   UNL     1      -2.570 -37.940  20.948  1.00  0.00    -0.000 C 
BRANCH  23  24
ATOM     24  C   UNL     1      -3.858 -37.913  20.107  1.00  0.00    -0.000 C 
BRANCH  24  25
ATOM     25  C   UNL     1      -3.533 -37.911  18.608  1.00  0.00    -0.003 C 
ATOM     26  C   UNL     1      -4.284 -36.800  17.880  1.00  0.00     0.004 C 
ENDBRANCH  24  25
ENDBRANCH  23  24
ENDBRANCH  22  23
ENDBRANCH  21  22
ENDBRANCH  20  21
ENDBRANCH  19  20
ENDBRANCH  18  19
ENDBRANCH  17  18
ENDBRANCH  16  17
ENDBRANCH  15  16
ENDBRANCH   1  15
TORSDOF 22
ENDMDL
MODEL 6
REMARK VINA RESULT:    -2.989      2.922      6.983
REMARK INTER + INTRA:          -9.115
REMARK INTER:                  -6.618
REMARK INTRA:                  -2.497
REMARK UNBOUND:                -2.281
REMARK SMILES CCCCCCCCCCCCCCCCCCCCCCCC(=O)[O-]
REMARK SMILES IDX 13 1 14 2 15 3 16 4 17 5 18 6 19 7 20 8 21 9 22 10 23 11
REMARK SMILES IDX 24 12 25 13 26 14 12 15 11 16 10 17 9 18 8 19 7 20 6 21 5 22
REMARK SMILES IDX 4 23 3 24 2 25 1 26
REMARK H PARENT
REMARK Flexibility Score: inf
ROOT
ATOM      1  C   UNL     1       2.137 -33.550  23.038  1.00  0.00     0.000 C 
ENDROOT
BRANCH   1   2
ATOM      2  C   UNL     1       1.786 -33.260  24.508  1.00  0.00     0.000 C 
BRANCH   2   3
ATOM      3  C   UNL     1       1.002 -31.944  24.678  1.00  0.00     0.000 C 
BRANCH   3   4
ATOM      4  C   UNL     1      -0.102 -31.718  23.625  1.00  0.00     0.000 C 
BRANCH   4   5
ATOM      5  C   UNL     1      -1.550 -31.937  24.125  1.00  0.00     0.000 C 
BRANCH   5   6
ATOM      6  C   UNL     1      -2.158 -33.306  23.757  1.00  0.00     0.000 C 
BRANCH   6   7
ATOM      7  C   UNL     1      -1.364 -34.061  22.670  1.00  0.00     0.000 C 
BRANCH   7   8
ATOM      8  C   UNL     1      -2.099 -35.295  22.109  1.00  0.00     0.000 C 
BRANCH   8   9
ATOM      9  C   UNL     1      -1.343 -36.041  20.995  1.00  0.00     0.000 C 
BRANCH   9  10
ATOM     10  C   UNL     1      -1.521 -37.566  21.050  1.00  0.00     0.006 C 
BRANCH  10  11
ATOM     11  C   UNL     1      -1.895 -38.125  19.675  1.00  0.00     0.053 C 
BRANCH  11  12
ATOM     12  C   UNL     1      -3.342 -37.878  19.379  1.00  0.00     0.041 C 
ATOM     13  O   UNL     1      -4.172 -37.757  20.319  1.00  0.00    -0.550 OA
ATOM     14  O   UNL     1      -3.785 -37.833  18.063  1.00  0.00    -0.550 OA
ENDBRANCH  11  12
ENDBRANCH  10  11
ENDBRANCH   9  10
ENDBRANCH   8   9
ENDBRANCH   7   8
ENDBRANCH   6   7
ENDBRANCH   5   6
ENDBRANCH   4   5
ENDBRANCH   3   4
ENDBRANCH   2   3
ENDBRANCH   1   2
BRANCH   1  15
ATOM     15  C   UNL     1       2.804 -34.925  22.853  1.00  0.00     0.000 C 
BRANCH  15  16
ATOM     16  C   UNL     1       4.151 -35.093  23.585  1.00  0.00     0.000 C 
BRANCH  16  17
ATOM     17  C   UNL     1       5.311 -35.614  22.710  1.00  0.00     0.000 C 
BRANCH  17  18
ATOM     18  C   UNL     1       5.779 -37.046  23.045  1.00  0.00    -0.000 C 
BRANCH  18  19
ATOM     19  C   UNL     1       5.539 -38.083  21.928  1.00  0.00    -0.000 C 
BRANCH  19  20
ATOM     20  C   UNL     1       4.460 -37.690  20.897  1.00  0.00    -0.000 C 
BRANCH  20  21
ATOM     21  C   UNL     1       3.028 -38.124  21.262  1.00  0.00    -0.000 C 
BRANCH  21  22
ATOM     22  C   UNL     1       2.020 -37.832  20.138  1.00  0.00    -0.000 C 
BRANCH  22  23
ATOM     23  C   UNL     1       1.935 -36.338  19.794  1.00  0.00    -0.000 C 
BRANCH  23  24
ATOM     24  C   UNL     1       2.429 -36.034  18.370  1.00  0.00    -0.000 C 
BRANCH  24  25
ATOM     25  C   UNL     1       2.789 -37.327  17.628  1.00  0.00    -0.003 C 
ATOM     26  C   UNL     1       4.301 -37.527  17.565  1.00  0.00     0.004 C 
ENDBRANCH  24  25
ENDBRANCH  23  24
ENDBRANCH  22  23
ENDBRANCH  21  22
ENDBRANCH  20  21
ENDBRANCH  19  20
ENDBRANCH  18  19
ENDBRANCH  17  18
ENDBRANCH  16  17
ENDBRANCH  15  16
ENDBRANCH   1  15
TORSDOF 22
ENDMDL
MODEL 7
REMARK VINA RESULT:    -2.902      1.623      4.153
REMARK INTER + INTRA:          -8.915
REMARK INTER:                  -7.172
REMARK INTRA:                  -1.743
REMARK UNBOUND:                -2.281
REMARK SMILES CCCCCCCCCCCCCCCCCCCCCCCC(=O)[O-]
REMARK SMILES IDX 13 1 14 2 15 3 16 4 17 5 18 6 19 7 20 8 21 9 22 10 23 11
REMARK SMILES IDX 24 12 25 13 26 14 12 15 11 16 10 17 9 18 8 19 7 20 6 21 5 22
REMARK SMILES IDX 4 23 3 24 2 25 1 26
REMARK H PARENT
REMARK Flexibility Score: inf
ROOT
ATOM      1  C   UNL     1      -1.641 -31.093  23.818  1.00  0.00     0.000 C 
ENDROOT
BRANCH   1   2
ATOM      2  C   UNL     1      -0.479 -31.867  24.466  1.00  0.00     0.000 C 
BRANCH   2   3
ATOM      3  C   UNL     1       0.833 -31.740  23.668  1.00  0.00     0.000 C 
BRANCH   3   4
ATOM      4  C   UNL     1       2.016 -32.538  24.255  1.00  0.00     0.000 C 
BRANCH   4   5
ATOM      5  C   UNL     1       2.123 -34.007  23.783  1.00  0.00     0.000 C 
BRANCH   5   6
ATOM      6  C   UNL     1       3.333 -34.304  22.873  1.00  0.00     0.000 C 
BRANCH   6   7
ATOM      7  C   UNL     1       3.860 -35.749  23.000  1.00  0.00     0.000 C 
BRANCH   7   8
ATOM      8  C   UNL     1       5.332 -35.913  22.574  1.00  0.00     0.000 C 
BRANCH   8   9
ATOM      9  C   UNL     1       5.822 -37.371  22.502  1.00  0.00     0.000 C 
BRANCH   9  10
ATOM     10  C   UNL     1       6.011 -37.883  21.066  1.00  0.00     0.006 C 
BRANCH  10  11
ATOM     11  C   UNL     1       4.720 -37.738  20.257  1.00  0.00     0.053 C 
BRANCH  11  12
ATOM     12  C   UNL     1       5.026 -37.520  18.807  1.00  0.00     0.041 C 
ATOM     13  O   UNL     1       6.001 -36.802  18.464  1.00  0.00    -0.550 OA
ATOM     14  O   UNL     1       4.200 -38.068  17.833  1.00  0.00    -0.550 OA
ENDBRANCH  11  12
ENDBRANCH  10  11
ENDBRANCH   9  10
ENDBRANCH   8   9
ENDBRANCH   7   8
ENDBRANCH   6   7
ENDBRANCH   5   6
ENDBRANCH   4   5
ENDBRANCH   3   4
ENDBRANCH   2   3
ENDBRANCH   1   2
BRANCH   1  15
ATOM     15  C   UNL     1      -2.852 -31.994  23.518  1.00  0.00     0.000 C 
BRANCH  15  16
ATOM     16  C   UNL     1      -2.603 -33.502  23.727  1.00  0.00     0.000 C 
BRANCH  16  17
ATOM     17  C   UNL     1      -1.497 -34.111  22.840  1.00  0.00     0.000 C 
BRANCH  17  18
ATOM     18  C   UNL     1      -2.001 -35.093  21.763  1.00  0.00    -0.000 C 
BRANCH  18  19
ATOM     19  C   UNL     1      -3.298 -35.845  22.129  1.00  0.00    -0.000 C 
BRANCH  19  20
ATOM     20  C   UNL     1      -3.408 -37.271  21.549  1.00  0.00    -0.000 C 
BRANCH  20  21
ATOM     21  C   UNL     1      -3.260 -37.361  20.019  1.00  0.00    -0.000 C 
BRANCH  21  22
ATOM     22  C   UNL     1      -1.993 -38.124  19.595  1.00  0.00    -0.000 C 
BRANCH  22  23
ATOM     23  C   UNL     1      -0.904 -38.108  20.676  1.00  0.00    -0.000 C 
BRANCH  23  24
ATOM     24  C   UNL     1       0.502 -37.893  20.091  1.00  0.00    -0.000 C 
BRANCH  24  25
ATOM     25  C   UNL     1       1.153 -36.635  20.679  1.00  0.00    -0.003 C 
ATOM     26  C   UNL     1       1.676 -35.716  19.578  1.00  0.00     0.004 C 
ENDBRANCH  24  25
ENDBRANCH  23  24
ENDBRANCH  22  23
ENDBRANCH  21  22
ENDBRANCH  20  21
ENDBRANCH  19  20
ENDBRANCH  18  19
ENDBRANCH  17  18
ENDBRANCH  16  17
ENDBRANCH  15  16
ENDBRANCH   1  15
TORSDOF 22
ENDMDL
MODEL 8
REMARK VINA RESULT:    -2.875      1.961      7.365
REMARK INTER + INTRA:          -8.854
REMARK INTER:                  -7.929
REMARK INTRA:                  -0.925
REMARK UNBOUND:                -2.281
REMARK SMILES CCCCCCCCCCCCCCCCCCCCCCCC(=O)[O-]
REMARK SMILES IDX 13 1 14 2 15 3 16 4 17 5 18 6 19 7 20 8 21 9 22 10 23 11
REMARK SMILES IDX 24 12 25 13 26 14 12 15 11 16 10 17 9 18 8 19 7 20 6 21 5 22
REMARK SMILES IDX 4 23 3 24 2 25 1 26
REMARK H PARENT
REMARK Flexibility Score: inf
ROOT
ATOM      1  C   UNL     1      -1.128 -37.342  19.698  1.00  0.00     0.000 C 
ENDROOT
BRANCH   1   2
ATOM      2  C   UNL     1      -2.415 -38.125  19.382  1.00  0.00     0.000 C 
BRANCH   2   3
ATOM      3  C   UNL     1      -3.663 -37.497  20.032  1.00  0.00     0.000 C 
BRANCH   3   4
ATOM      4  C   UNL     1      -3.594 -37.386  21.569  1.00  0.00     0.000 C 
BRANCH   4   5
ATOM      5  C   UNL     1      -3.542 -35.944  22.128  1.00  0.00     0.000 C 
BRANCH   5   6
ATOM      6  C   UNL     1      -2.337 -35.110  21.648  1.00  0.00     0.000 C 
BRANCH   6   7
ATOM      7  C   UNL     1      -1.560 -34.431  22.796  1.00  0.00     0.000 C 
BRANCH   7   8
ATOM      8  C   UNL     1      -2.316 -33.255  23.446  1.00  0.00     0.000 C 
BRANCH   8   9
ATOM      9  C   UNL     1      -1.488 -32.436  24.452  1.00  0.00     0.000 C 
BRANCH   9  10
ATOM     10  C   UNL     1      -1.078 -31.053  23.925  1.00  0.00     0.006 C 
BRANCH  10  11
ATOM     11  C   UNL     1       0.444 -30.885  23.950  1.00  0.00     0.053 C 
BRANCH  11  12
ATOM     12  C   UNL     1       1.107 -32.137  24.436  1.00  0.00     0.041 C 
ATOM     13  O   UNL     1       0.554 -32.849  25.315  1.00  0.00    -0.550 OA
ATOM     14  O   UNL     1       2.361 -32.490  23.955  1.00  0.00    -0.550 OA
ENDBRANCH  11  12
ENDBRANCH  10  11
ENDBRANCH   9  10
ENDBRANCH   8   9
ENDBRANCH   7   8
ENDBRANCH   6   7
ENDBRANCH   5   6
ENDBRANCH   4   5
ENDBRANCH   3   4
ENDBRANCH   2   3
ENDBRANCH   1   2
BRANCH   1  15
ATOM     15  C   UNL     1      -0.175 -38.124  20.619  1.00  0.00     0.000 C 
BRANCH  15  16
ATOM     16  C   UNL     1       1.319 -37.786  20.436  1.00  0.00     0.000 C 
BRANCH  16  17
ATOM     17  C   UNL     1       1.645 -36.280  20.360  1.00  0.00     0.000 C 
BRANCH  17  18
ATOM     18  C   UNL     1       1.794 -35.582  21.728  1.00  0.00    -0.000 C 
BRANCH  18  19
ATOM     19  C   UNL     1       3.243 -35.217  22.114  1.00  0.00    -0.000 C 
BRANCH  19  20
ATOM     20  C   UNL     1       4.141 -36.419  22.474  1.00  0.00    -0.000 C 
BRANCH  20  21
ATOM     21  C   UNL     1       5.623 -36.258  22.088  1.00  0.00    -0.000 C 
BRANCH  21  22
ATOM     22  C   UNL     1       6.122 -37.396  21.181  1.00  0.00    -0.000 C 
BRANCH  22  23
ATOM     23  C   UNL     1       5.018 -37.953  20.271  1.00  0.00    -0.000 C 
BRANCH  23  24
ATOM     24  C   UNL     1       4.948 -37.225  18.919  1.00  0.00    -0.000 C 
BRANCH  24  25
ATOM     25  C   UNL     1       4.022 -37.965  17.945  1.00  0.00    -0.003 C 
ATOM     26  C   UNL     1       3.061 -37.002  17.253  1.00  0.00     0.004 C 
ENDBRANCH  24  25
ENDBRANCH  23  24
ENDBRANCH  22  23
ENDBRANCH  21  22
ENDBRANCH  20  21
ENDBRANCH  19  20
ENDBRANCH  18  19
ENDBRANCH  17  18
ENDBRANCH  16  17
ENDBRANCH  15  16
ENDBRANCH   1  15
TORSDOF 22
ENDMDL
