MODEL 1
REMARK VINA RESULT:    -5.422      0.000      0.000
REMARK INTER + INTRA:          -5.897
REMARK INTER:                  -5.897
REMARK INTRA:                   0.000
REMARK UNBOUND:                 0.000
REMARK SMILES Cc1cc(O)c2c(c1)C(=O)c1cc(O)cc(O)c1C2=O
REMARK SMILES IDX 1 1 2 2 8 3 7 4 6 5 4 6 3 7 19 8 20 9 18 10 11 11 9 12 10 13
REMARK SMILES IDX 12 14 13 15 15 16 16 17 5 18 17 20 14 22
REMARK H PARENT 5 19 17 21 14 23
REMARK Flexibility Score: inf
ROOT
ATOM      1  C   UNL     1      54.175  -1.847 -53.828  1.00  0.00     0.044 C 
ATOM      2  C   UNL     1      55.522  -2.211 -53.276  1.00  0.00    -0.047 A 
ATOM      3  C   UNL     1      55.772  -2.107 -51.903  1.00  0.00     0.016 A 
ATOM      4  C   UNL     1      57.015  -2.487 -51.371  1.00  0.00     0.038 A 
ATOM      5  C   UNL     1      58.017  -3.006 -52.223  1.00  0.00     0.076 A 
ATOM      6  C   UNL     1      57.773  -3.066 -53.619  1.00  0.00     0.127 A 
ATOM      7  C   UNL     1      56.521  -2.700 -54.123  1.00  0.00     0.050 A 
ATOM      8  C   UNL     1      59.260  -3.533 -51.603  1.00  0.00     0.201 C 
ATOM      9  O   UNL     1      59.889  -4.471 -52.162  1.00  0.00    -0.288 OA
ATOM     10  C   UNL     1      59.654  -3.087 -50.242  1.00  0.00     0.076 A 
ATOM     11  C   UNL     1      58.649  -2.570 -49.394  1.00  0.00     0.041 A 
ATOM     12  C   UNL     1      57.283  -2.344 -49.920  1.00  0.00     0.194 C 
ATOM     13  O   UNL     1      56.352  -2.005 -49.137  1.00  0.00    -0.289 OA
ATOM     14  C   UNL     1      58.952  -2.267 -48.054  1.00  0.00     0.059 A 
ATOM     15  C   UNL     1      60.245  -2.459 -47.560  1.00  0.00     0.120 A 
ATOM     16  C   UNL     1      61.248  -2.931 -48.405  1.00  0.00     0.093 A 
ATOM     17  C   UNL     1      60.977  -3.221 -49.746  1.00  0.00     0.131 A 
ENDROOT
BRANCH   6  18
ATOM     18  O   UNL     1      58.752  -3.448 -54.540  1.00  0.00    -0.507 OA
ATOM     19  H   UNL     1      59.189  -4.358 -54.546  1.00  0.00     0.293 HD
ENDBRANCH   6  18
BRANCH  17  20
ATOM     20  O   UNL     1      62.051  -3.603 -50.553  1.00  0.00    -0.507 OA
ATOM     21  H   UNL     1      62.147  -4.524 -50.957  1.00  0.00     0.293 HD
ENDBRANCH  17  20
BRANCH  15  22
ATOM     22  O   UNL     1      60.547  -2.172 -46.231  1.00  0.00    -0.508 OA
ATOM     23  H   UNL     1      61.449  -2.400 -45.830  1.00  0.00     0.293 HD
ENDBRANCH  15  22
TORSDOF 3
ENDMDL
MODEL 2
REMARK VINA RESULT:    -5.215      2.269      6.664
REMARK INTER + INTRA:          -5.672
REMARK INTER:                  -5.672
REMARK INTRA:                   0.000
REMARK UNBOUND:                 0.000
REMARK SMILES Cc1cc(O)c2c(c1)C(=O)c1cc(O)cc(O)c1C2=O
REMARK SMILES IDX 1 1 2 2 8 3 7 4 6 5 4 6 3 7 19 8 20 9 18 10 11 11 9 12 10 13
REMARK SMILES IDX 12 14 13 15 15 16 16 17 5 18 17 20 14 22
REMARK H PARENT 5 19 17 21 14 23
REMARK Flexibility Score: inf
ROOT
ATOM      1  C   UNL     1      61.863  -2.301 -43.505  1.00  0.00     0.044 C 
ATOM      2  C   UNL     1      61.034  -2.250 -44.754  1.00  0.00    -0.047 A 
ATOM      3  C   UNL     1      61.364  -3.053 -45.852  1.00  0.00     0.016 A 
ATOM      4  C   UNL     1      60.568  -3.044 -47.010  1.00  0.00     0.038 A 
ATOM      5  C   UNL     1      59.408  -2.239 -47.061  1.00  0.00     0.076 A 
ATOM      6  C   UNL     1      59.105  -1.392 -45.963  1.00  0.00     0.127 A 
ATOM      7  C   UNL     1      59.901  -1.433 -44.814  1.00  0.00     0.050 A 
ATOM      8  C   UNL     1      58.515  -2.369 -48.242  1.00  0.00     0.201 C 
ATOM      9  O   UNL     1      57.277  -2.166 -48.117  1.00  0.00    -0.288 OA
ATOM     10  C   UNL     1      59.049  -2.918 -49.515  1.00  0.00     0.076 A 
ATOM     11  C   UNL     1      60.209  -3.723 -49.458  1.00  0.00     0.041 A 
ATOM     12  C   UNL     1      60.942  -3.874 -48.180  1.00  0.00     0.194 C 
ATOM     13  O   UNL     1      61.900  -4.692 -48.093  1.00  0.00    -0.289 OA
ATOM     14  C   UNL     1      60.666  -4.373 -50.619  1.00  0.00     0.059 A 
ATOM     15  C   UNL     1      59.990  -4.216 -51.831  1.00  0.00     0.120 A 
ATOM     16  C   UNL     1      58.868  -3.391 -51.898  1.00  0.00     0.093 A 
ATOM     17  C   UNL     1      58.406  -2.717 -50.764  1.00  0.00     0.131 A 
ENDROOT
BRANCH   6  18
ATOM     18  O   UNL     1      58.049  -0.477 -45.984  1.00  0.00    -0.507 OA
ATOM     19  H   UNL     1      57.521  -0.253 -46.815  1.00  0.00     0.293 HD
ENDBRANCH   6  18
BRANCH  17  20
ATOM     20  O   UNL     1      57.333  -1.837 -50.928  1.00  0.00    -0.507 OA
ATOM     21  H   UNL     1      57.324  -1.088 -51.605  1.00  0.00     0.293 HD
ENDBRANCH  17  20
BRANCH  15  22
ATOM     22  O   UNL     1      60.431  -4.869 -52.980  1.00  0.00    -0.508 OA
ATOM     23  H   UNL     1      59.802  -5.079 -53.746  1.00  0.00     0.293 HD
ENDBRANCH  15  22
TORSDOF 3
ENDMDL
MODEL 3
REMARK VINA RESULT:    -5.005      2.386      6.447
REMARK INTER + INTRA:          -5.444
REMARK INTER:                  -5.444
REMARK INTRA:                   0.000
REMARK UNBOUND:                 0.000
REMARK SMILES Cc1cc(O)c2c(c1)C(=O)c1cc(O)cc(O)c1C2=O
REMARK SMILES IDX 1 1 2 2 8 3 7 4 6 5 4 6 3 7 19 8 20 9 18 10 11 11 9 12 10 13
REMARK SMILES IDX 12 14 13 15 15 16 16 17 5 18 17 20 14 22
REMARK H PARENT 5 19 17 21 14 23
REMARK Flexibility Score: inf
ROOT
ATOM      1  C   UNL     1      62.046  -4.419 -43.136  1.00  0.00     0.044 C 
ATOM      2  C   UNL     1      61.669  -4.351 -44.587  1.00  0.00    -0.047 A 
ATOM      3  C   UNL     1      60.935  -3.263 -45.073  1.00  0.00     0.016 A 
ATOM      4  C   UNL     1      60.614  -3.169 -46.437  1.00  0.00     0.038 A 
ATOM      5  C   UNL     1      61.057  -4.166 -47.336  1.00  0.00     0.076 A 
ATOM      6  C   UNL     1      61.761  -5.289 -46.829  1.00  0.00     0.127 A 
ATOM      7  C   UNL     1      62.085  -5.351 -45.471  1.00  0.00     0.050 A 
ATOM      8  C   UNL     1      60.825  -3.955 -48.788  1.00  0.00     0.201 C 
ATOM      9  O   UNL     1      61.631  -4.436 -49.628  1.00  0.00    -0.288 OA
ATOM     10  C   UNL     1      59.758  -3.024 -49.238  1.00  0.00     0.076 A 
ATOM     11  C   UNL     1      59.318  -2.029 -48.337  1.00  0.00     0.041 A 
ATOM     12  C   UNL     1      59.809  -2.029 -46.939  1.00  0.00     0.194 C 
ATOM     13  O   UNL     1      59.522  -1.072 -46.168  1.00  0.00    -0.289 OA
ATOM     14  C   UNL     1      58.411  -1.045 -48.770  1.00  0.00     0.059 A 
ATOM     15  C   UNL     1      57.930  -1.054 -50.081  1.00  0.00     0.120 A 
ATOM     16  C   UNL     1      58.331  -2.058 -50.961  1.00  0.00     0.093 A 
ATOM     17  C   UNL     1      59.216  -3.059 -50.549  1.00  0.00     0.131 A 
ENDROOT
BRANCH   6  18
ATOM     18  O   UNL     1      62.125  -6.375 -47.629  1.00  0.00    -0.507 OA
ATOM     19  H   UNL     1      61.459  -6.966 -48.107  1.00  0.00     0.293 HD
ENDBRANCH   6  18
BRANCH  17  20
ATOM     20  O   UNL     1      59.500  -4.082 -51.457  1.00  0.00    -0.507 OA
ATOM     21  H   UNL     1      58.827  -4.779 -51.742  1.00  0.00     0.293 HD
ENDBRANCH  17  20
BRANCH  15  22
ATOM     22  O   UNL     1      57.042  -0.073 -50.518  1.00  0.00    -0.508 OA
ATOM     23  H   UNL     1      56.097  -0.303 -50.804  1.00  0.00     0.293 HD
ENDBRANCH  15  22
TORSDOF 3
ENDMDL
MODEL 4
REMARK VINA RESULT:    -4.951     14.485     16.091
REMARK INTER + INTRA:          -5.386
REMARK INTER:                  -5.386
REMARK INTRA:                   0.000
REMARK UNBOUND:                 0.000
REMARK SMILES Cc1cc(O)c2c(c1)C(=O)c1cc(O)cc(O)c1C2=O
REMARK SMILES IDX 1 1 2 2 8 3 7 4 6 5 4 6 3 7 19 8 20 9 18 10 11 11 9 12 10 13
REMARK SMILES IDX 12 14 13 15 15 16 16 17 5 18 17 20 14 22
REMARK H PARENT 5 19 17 21 14 23
REMARK Flexibility Score: inf
ROOT
ATOM      1  C   UNL     1      45.895   4.547 -50.888  1.00  0.00     0.044 C 
ATOM      2  C   UNL     1      45.253   4.091 -49.610  1.00  0.00    -0.047 A 
ATOM      3  C   UNL     1      45.984   4.087 -48.417  1.00  0.00     0.016 A 
ATOM      4  C   UNL     1      45.379   3.703 -47.209  1.00  0.00     0.038 A 
ATOM      5  C   UNL     1      44.013   3.343 -47.188  1.00  0.00     0.076 A 
ATOM      6  C   UNL     1      43.290   3.305 -48.408  1.00  0.00     0.127 A 
ATOM      7  C   UNL     1      43.907   3.710 -49.595  1.00  0.00     0.050 A 
ATOM      8  C   UNL     1      43.375   3.088 -45.871  1.00  0.00     0.201 C 
ATOM      9  O   UNL     1      42.148   3.329 -45.711  1.00  0.00    -0.288 OA
ATOM     10  C   UNL     1      44.216   2.731 -44.699  1.00  0.00     0.076 A 
ATOM     11  C   UNL     1      45.581   3.093 -44.724  1.00  0.00     0.041 A 
ATOM     12  C   UNL     1      46.169   3.672 -45.955  1.00  0.00     0.194 C 
ATOM     13  O   UNL     1      47.351   4.116 -45.942  1.00  0.00    -0.289 OA
ATOM     14  C   UNL     1      46.378   2.898 -43.582  1.00  0.00     0.059 A 
ATOM     15  C   UNL     1      45.832   2.333 -42.426  1.00  0.00     0.120 A 
ATOM     16  C   UNL     1      44.495   1.937 -42.412  1.00  0.00     0.093 A 
ATOM     17  C   UNL     1      43.687   2.103 -43.541  1.00  0.00     0.131 A 
ENDROOT
BRANCH   6  18
ATOM     18  O   UNL     1      41.974   2.842 -48.491  1.00  0.00    -0.507 OA
ATOM     19  H   UNL     1      41.695   2.045 -49.045  1.00  0.00     0.293 HD
ENDBRANCH   6  18
BRANCH  17  20
ATOM     20  O   UNL     1      42.385   1.600 -43.483  1.00  0.00    -0.507 OA
ATOM     21  H   UNL     1      41.738   1.633 -44.257  1.00  0.00     0.293 HD
ENDBRANCH  17  20
BRANCH  15  22
ATOM     22  O   UNL     1      46.614   2.149 -41.288  1.00  0.00    -0.508 OA
ATOM     23  H   UNL     1      47.089   2.925 -40.840  1.00  0.00     0.293 HD
ENDBRANCH  15  22
TORSDOF 3
ENDMDL
MODEL 5
REMARK VINA RESULT:    -4.934      9.685     11.971
REMARK INTER + INTRA:          -5.366
REMARK INTER:                  -5.366
REMARK INTRA:                   0.000
REMARK UNBOUND:                 0.000
REMARK SMILES Cc1cc(O)c2c(c1)C(=O)c1cc(O)cc(O)c1C2=O
REMARK SMILES IDX 1 1 2 2 8 3 7 4 6 5 4 6 3 7 19 8 20 9 18 10 11 11 9 12 10 13
REMARK SMILES IDX 12 14 13 15 15 16 16 17 5 18 17 20 14 22
REMARK H PARENT 5 19 17 21 14 23
REMARK Flexibility Score: inf
ROOT
ATOM      1  C   UNL     1      53.482  -8.247 -42.127  1.00  0.00     0.044 C 
ATOM      2  C   UNL     1      52.807  -7.977 -43.439  1.00  0.00    -0.047 A 
ATOM      3  C   UNL     1      51.413  -7.869 -43.505  1.00  0.00     0.016 A 
ATOM      4  C   UNL     1      50.774  -7.574 -44.721  1.00  0.00     0.038 A 
ATOM      5  C   UNL     1      51.544  -7.357 -45.886  1.00  0.00     0.076 A 
ATOM      6  C   UNL     1      52.953  -7.514 -45.823  1.00  0.00     0.127 A 
ATOM      7  C   UNL     1      53.567  -7.789 -44.598  1.00  0.00     0.050 A 
ATOM      8  C   UNL     1      50.843  -6.903 -47.115  1.00  0.00     0.201 C 
ATOM      9  O   UNL     1      51.446  -6.174 -47.948  1.00  0.00    -0.288 OA
ATOM     10  C   UNL     1      49.386  -7.148 -47.268  1.00  0.00     0.076 A 
ATOM     11  C   UNL     1      48.621  -7.365 -46.100  1.00  0.00     0.041 A 
ATOM     12  C   UNL     1      49.296  -7.492 -44.787  1.00  0.00     0.194 C 
ATOM     13  O   UNL     1      48.612  -7.555 -43.729  1.00  0.00    -0.289 OA
ATOM     14  C   UNL     1      47.221  -7.463 -46.190  1.00  0.00     0.059 A 
ATOM     15  C   UNL     1      46.582  -7.365 -47.429  1.00  0.00     0.120 A 
ATOM     16  C   UNL     1      47.338  -7.191 -48.587  1.00  0.00     0.093 A 
ATOM     17  C   UNL     1      48.732  -7.111 -48.527  1.00  0.00     0.131 A 
ENDROOT
BRANCH   6  18
ATOM     18  O   UNL     1      53.772  -7.439 -46.952  1.00  0.00    -0.507 OA
ATOM     19  H   UNL     1      54.779  -7.378 -46.910  1.00  0.00     0.293 HD
ENDBRANCH   6  18
BRANCH  17  20
ATOM     20  O   UNL     1      49.426  -7.029 -49.736  1.00  0.00    -0.507 OA
ATOM     21  H   UNL     1      49.025  -7.280 -50.629  1.00  0.00     0.293 HD
ENDBRANCH  17  20
BRANCH  15  22
ATOM     22  O   UNL     1      45.194  -7.448 -47.521  1.00  0.00    -0.508 OA
ATOM     23  H   UNL     1      44.589  -6.845 -46.976  1.00  0.00     0.293 HD
ENDBRANCH  15  22
TORSDOF 3
ENDMDL
MODEL 6
REMARK VINA RESULT:    -4.855     11.352     12.100
REMARK INTER + INTRA:          -5.280
REMARK INTER:                  -5.280
REMARK INTRA:                   0.000
REMARK UNBOUND:                 0.000
REMARK SMILES Cc1cc(O)c2c(c1)C(=O)c1cc(O)cc(O)c1C2=O
REMARK SMILES IDX 1 1 2 2 8 3 7 4 6 5 4 6 3 7 19 8 20 9 18 10 11 11 9 12 10 13
REMARK SMILES IDX 12 14 13 15 15 16 16 17 5 18 17 20 14 22
REMARK H PARENT 5 19 17 21 14 23
REMARK Flexibility Score: inf
ROOT
ATOM      1  C   UNL     1      49.777   6.060 -49.899  1.00  0.00     0.044 C 
ATOM      2  C   UNL     1      51.025   6.458 -49.166  1.00  0.00    -0.047 A 
ATOM      3  C   UNL     1      51.072   6.392 -47.769  1.00  0.00     0.016 A 
ATOM      4  C   UNL     1      52.249   6.721 -47.076  1.00  0.00     0.038 A 
ATOM      5  C   UNL     1      53.407   7.095 -47.794  1.00  0.00     0.076 A 
ATOM      6  C   UNL     1      53.339   7.204 -49.207  1.00  0.00     0.127 A 
ATOM      7  C   UNL     1      52.163   6.853 -49.876  1.00  0.00     0.050 A 
ATOM      8  C   UNL     1      54.670   7.291 -47.036  1.00  0.00     0.201 C 
ATOM      9  O   UNL     1      55.777   7.056 -47.590  1.00  0.00    -0.288 OA
ATOM     10  C   UNL     1      54.620   7.578 -45.579  1.00  0.00     0.076 A 
ATOM     11  C   UNL     1      53.460   7.202 -44.865  1.00  0.00     0.041 A 
ATOM     12  C   UNL     1      52.281   6.679 -45.595  1.00  0.00     0.194 C 
ATOM     13  O   UNL     1      51.294   6.222 -44.955  1.00  0.00    -0.289 OA
ATOM     14  C   UNL     1      53.428   7.329 -43.465  1.00  0.00     0.059 A 
ATOM     15  C   UNL     1      54.530   7.841 -42.776  1.00  0.00     0.120 A 
ATOM     16  C   UNL     1      55.661   8.251 -43.481  1.00  0.00     0.093 A 
ATOM     17  C   UNL     1      55.710   8.153 -44.875  1.00  0.00     0.131 A 
ENDROOT
BRANCH   6  18
ATOM     18  O   UNL     1      54.400   7.686 -49.979  1.00  0.00    -0.507 OA
ATOM     19  H   UNL     1      54.957   7.105 -50.589  1.00  0.00     0.293 HD
ENDBRANCH   6  18
BRANCH  17  20
ATOM     20  O   UNL     1      56.838   8.667 -45.519  1.00  0.00    -0.507 OA
ATOM     21  H   UNL     1      57.775   8.322 -45.365  1.00  0.00     0.293 HD
ENDBRANCH  17  20
BRANCH  15  22
ATOM     22  O   UNL     1      54.508   7.957 -41.388  1.00  0.00    -0.508 OA
ATOM     23  H   UNL     1      54.846   8.790 -40.919  1.00  0.00     0.293 HD
ENDBRANCH  15  22
TORSDOF 3
ENDMDL
MODEL 7
REMARK VINA RESULT:    -4.813     14.473     16.473
REMARK INTER + INTRA:          -5.235
REMARK INTER:                  -5.235
REMARK INTRA:                   0.000
REMARK UNBOUND:                 0.000
REMARK SMILES Cc1cc(O)c2c(c1)C(=O)c1cc(O)cc(O)c1C2=O
REMARK SMILES IDX 1 1 2 2 8 3 7 4 6 5 4 6 3 7 19 8 20 9 18 10 11 11 9 12 10 13
REMARK SMILES IDX 12 14 13 15 15 16 16 17 5 18 17 20 14 22
REMARK H PARENT 5 19 17 21 14 23
REMARK Flexibility Score: inf
ROOT
ATOM      1  C   UNL     1      46.334   1.530 -40.126  1.00  0.00     0.044 C 
ATOM      2  C   UNL     1      46.341   2.054 -41.532  1.00  0.00    -0.047 A 
ATOM      3  C   UNL     1      45.188   1.969 -42.321  1.00  0.00     0.016 A 
ATOM      4  C   UNL     1      45.171   2.496 -43.623  1.00  0.00     0.038 A 
ATOM      5  C   UNL     1      46.319   3.142 -44.136  1.00  0.00     0.076 A 
ATOM      6  C   UNL     1      47.499   3.183 -43.349  1.00  0.00     0.127 A 
ATOM      7  C   UNL     1      47.485   2.669 -42.049  1.00  0.00     0.050 A 
ATOM      8  C   UNL     1      46.214   3.814 -45.457  1.00  0.00     0.201 C 
ATOM      9  O   UNL     1      46.922   4.827 -45.703  1.00  0.00    -0.288 OA
ATOM     10  C   UNL     1      45.148   3.409 -46.409  1.00  0.00     0.076 A 
ATOM     11  C   UNL     1      44.002   2.764 -45.892  1.00  0.00     0.041 A 
ATOM     12  C   UNL     1      43.956   2.375 -44.463  1.00  0.00     0.194 C 
ATOM     13  O   UNL     1      42.889   1.917 -43.967  1.00  0.00    -0.289 OA
ATOM     14  C   UNL     1      42.913   2.489 -46.737  1.00  0.00     0.059 A 
ATOM     15  C   UNL     1      42.961   2.835 -48.090  1.00  0.00     0.120 A 
ATOM     16  C   UNL     1      44.106   3.435 -48.612  1.00  0.00     0.093 A 
ATOM     17  C   UNL     1      45.210   3.701 -47.797  1.00  0.00     0.131 A 
ENDROOT
BRANCH   6  18
ATOM     18  O   UNL     1      48.709   3.691 -43.828  1.00  0.00    -0.507 OA
ATOM     19  H   UNL     1      48.774   4.476 -44.461  1.00  0.00     0.293 HD
ENDBRANCH   6  18
BRANCH  17  20
ATOM     20  O   UNL     1      46.354   4.219 -48.409  1.00  0.00    -0.507 OA
ATOM     21  H   UNL     1      46.339   4.994 -49.057  1.00  0.00     0.293 HD
ENDBRANCH  17  20
BRANCH  15  22
ATOM     22  O   UNL     1      41.879   2.577 -48.928  1.00  0.00    -0.508 OA
ATOM     23  H   UNL     1      41.954   1.936 -49.709  1.00  0.00     0.293 HD
ENDBRANCH  15  22
TORSDOF 3
ENDMDL
MODEL 8
REMARK VINA RESULT:    -4.813      4.327      7.072
REMARK INTER + INTRA:          -5.235
REMARK INTER:                  -5.235
REMARK INTRA:                   0.000
REMARK UNBOUND:                 0.000
REMARK SMILES Cc1cc(O)c2c(c1)C(=O)c1cc(O)cc(O)c1C2=O
REMARK SMILES IDX 1 1 2 2 8 3 7 4 6 5 4 6 3 7 19 8 20 9 18 10 11 11 9 12 10 13
REMARK SMILES IDX 12 14 13 15 15 16 16 17 5 18 17 20 14 22
REMARK H PARENT 5 19 17 21 14 23
REMARK Flexibility Score: inf
ROOT
ATOM      1  C   UNL     1      51.287  -8.158 -48.682  1.00  0.00     0.044 C 
ATOM      2  C   UNL     1      52.211  -7.098 -49.205  1.00  0.00    -0.047 A 
ATOM      3  C   UNL     1      51.979  -6.514 -50.455  1.00  0.00     0.016 A 
ATOM      4  C   UNL     1      52.813  -5.490 -50.933  1.00  0.00     0.038 A 
ATOM      5  C   UNL     1      53.884  -5.024 -50.136  1.00  0.00     0.076 A 
ATOM      6  C   UNL     1      54.142  -5.652 -48.890  1.00  0.00     0.127 A 
ATOM      7  C   UNL     1      53.286  -6.655 -48.427  1.00  0.00     0.050 A 
ATOM      8  C   UNL     1      54.650  -3.844 -50.612  1.00  0.00     0.201 C 
ATOM      9  O   UNL     1      55.175  -3.059 -49.778  1.00  0.00    -0.288 OA
ATOM     10  C   UNL     1      54.638  -3.487 -52.055  1.00  0.00     0.076 A 
ATOM     11  C   UNL     1      53.565  -3.955 -52.847  1.00  0.00     0.041 A 
ATOM     12  C   UNL     1      52.578  -4.899 -52.272  1.00  0.00     0.194 C 
ATOM     13  O   UNL     1      51.551  -5.218 -52.931  1.00  0.00    -0.289 OA
ATOM     14  C   UNL     1      53.443  -3.527 -54.181  1.00  0.00     0.059 A 
ATOM     15  C   UNL     1      54.383  -2.654 -54.733  1.00  0.00     0.120 A 
ATOM     16  C   UNL     1      55.464  -2.222 -53.966  1.00  0.00     0.093 A 
ATOM     17  C   UNL     1      55.619  -2.649 -52.644  1.00  0.00     0.131 A 
ENDROOT
BRANCH   6  18
ATOM     18  O   UNL     1      55.251  -5.335 -48.102  1.00  0.00    -0.507 OA
ATOM     19  H   UNL     1      55.582  -5.915 -47.344  1.00  0.00     0.293 HD
ENDBRANCH   6  18
BRANCH  17  20
ATOM     20  O   UNL     1      56.774  -2.248 -51.968  1.00  0.00    -0.507 OA
ATOM     21  H   UNL     1      56.774  -1.903 -51.019  1.00  0.00     0.293 HD
ENDBRANCH  17  20
BRANCH  15  22
ATOM     22  O   UNL     1      54.258  -2.217 -56.050  1.00  0.00    -0.508 OA
ATOM     23  H   UNL     1      54.544  -1.285 -56.330  1.00  0.00     0.293 HD
ENDBRANCH  15  22
TORSDOF 3
ENDMDL
MODEL 9
REMARK VINA RESULT:    -4.812      4.048      6.821
REMARK INTER + INTRA:          -5.234
REMARK INTER:                  -5.234
REMARK INTRA:                   0.000
REMARK UNBOUND:                 0.000
REMARK SMILES Cc1cc(O)c2c(c1)C(=O)c1cc(O)cc(O)c1C2=O
REMARK SMILES IDX 1 1 2 2 8 3 7 4 6 5 4 6 3 7 19 8 20 9 18 10 11 11 9 12 10 13
REMARK SMILES IDX 12 14 13 15 15 16 16 17 5 18 17 20 14 22
REMARK H PARENT 5 19 17 21 14 23
REMARK Flexibility Score: inf
ROOT
ATOM      1  C   UNL     1      61.143  -7.041 -43.100  1.00  0.00     0.044 C 
ATOM      2  C   UNL     1      61.086  -6.139 -44.298  1.00  0.00    -0.047 A 
ATOM      3  C   UNL     1      60.505  -4.870 -44.197  1.00  0.00     0.016 A 
ATOM      4  C   UNL     1      60.486  -4.001 -45.301  1.00  0.00     0.038 A 
ATOM      5  C   UNL     1      61.082  -4.398 -46.520  1.00  0.00     0.076 A 
ATOM      6  C   UNL     1      61.629  -5.703 -46.629  1.00  0.00     0.127 A 
ATOM      7  C   UNL     1      61.653  -6.542 -45.511  1.00  0.00     0.050 A 
ATOM      8  C   UNL     1      61.172  -3.398 -47.615  1.00  0.00     0.201 C 
ATOM      9  O   UNL     1      62.125  -3.453 -48.437  1.00  0.00    -0.288 OA
ATOM     10  C   UNL     1      60.253  -2.231 -47.627  1.00  0.00     0.076 A 
ATOM     11  C   UNL     1      59.659  -1.838 -46.406  1.00  0.00     0.041 A 
ATOM     12  C   UNL     1      59.840  -2.671 -45.195  1.00  0.00     0.194 C 
ATOM     13  O   UNL     1      59.422  -2.260 -44.077  1.00  0.00    -0.289 OA
ATOM     14  C   UNL     1      58.895  -0.659 -46.348  1.00  0.00     0.059 A 
ATOM     15  C   UNL     1      58.704   0.119 -47.493  1.00  0.00     0.120 A 
ATOM     16  C   UNL     1      59.255  -0.288 -48.707  1.00  0.00     0.093 A 
ATOM     17  C   UNL     1      60.003  -1.466 -48.796  1.00  0.00     0.131 A 
ENDROOT
BRANCH   6  18
ATOM     18  O   UNL     1      62.124  -6.215 -47.831  1.00  0.00    -0.507 OA
ATOM     19  H   UNL     1      63.106  -6.245 -48.063  1.00  0.00     0.293 HD
ENDBRANCH   6  18
BRANCH  17  20
ATOM     20  O   UNL     1      60.445  -1.856 -50.062  1.00  0.00    -0.507 OA
ATOM     21  H   UNL     1      61.032  -2.662 -50.225  1.00  0.00     0.293 HD
ENDBRANCH  17  20
BRANCH  15  22
ATOM     22  O   UNL     1      57.958   1.294 -47.437  1.00  0.00    -0.508 OA
ATOM     23  H   UNL     1      57.981   1.899 -46.624  1.00  0.00     0.293 HD
ENDBRANCH  15  22
TORSDOF 3
ENDMDL
