MODEL 1
REMARK VINA RESULT:    -4.921      0.000      0.000
REMARK INTER + INTRA:          -8.647
REMARK INTER:                  -7.510
REMARK INTRA:                  -1.137
REMARK UNBOUND:                -1.137
REMARK SMILES OC[C@@H]1O[C@H](O[C@@]2(CO)O[C@@H](CO)[C@H](O)[C@H]2O)[C@H](O)[C@@H](O)[C@@H]1O
REMARK SMILES IDX 6 1 5 2 3 3 22 4 4 5 20 6 18 7 2 8 1 9 23 11 21 13 19 15
REMARK SMILES IDX 7 17 16 18 10 19 14 20 11 21 8 22 9 23 17 25 15 27 12 29
REMARK SMILES IDX 13 30
REMARK H PARENT 1 10 23 12 21 14 19 16 9 24 17 26 15 28 13 31
REMARK Flexibility Score: inf
ROOT
ATOM      1  O   UNL     1      58.835  -3.457   0.861  1.00  0.00    -0.313 OA
ENDROOT
BRANCH   1   2
ATOM      2  C   UNL     1      58.120  -4.468   1.562  1.00  0.00     0.285 C 
ATOM      3  C   UNL     1      59.073  -6.593   0.991  1.00  0.00     0.178 C 
ATOM      4  C   UNL     1      59.113  -7.103   2.466  1.00  0.00     0.177 C 
ATOM      5  O   UNL     1      58.032  -5.651   0.768  1.00  0.00    -0.341 OA
ATOM      6  C   UNL     1      58.387  -6.134   3.431  1.00  0.00     0.179 C 
ATOM      7  C   UNL     1      58.668  -4.690   3.012  1.00  0.00     0.202 C 
BRANCH   3   8
ATOM      8  C   UNL     1      60.427  -6.118   0.423  1.00  0.00     0.191 C 
BRANCH   8   9
ATOM      9  O   UNL     1      61.160  -7.210  -0.066  1.00  0.00    -0.394 OA
ATOM     10  H   UNL     1      60.486  -7.854  -0.405  1.00  0.00     0.210 HD
ENDBRANCH   8   9
ENDBRANCH   3   8
BRANCH   4  11
ATOM     11  O   UNL     1      60.436  -7.300   2.892  1.00  0.00    -0.387 OA
ATOM     12  H   UNL     1      60.432  -7.267   3.884  1.00  0.00     0.211 HD
ENDBRANCH   4  11
BRANCH   6  13
ATOM     13  O   UNL     1      57.000  -6.359   3.398  1.00  0.00    -0.387 OA
ATOM     14  H   UNL     1      56.811  -6.855   2.565  1.00  0.00     0.211 HD
ENDBRANCH   6  13
BRANCH   7  15
ATOM     15  O   UNL     1      60.041  -4.431   3.149  1.00  0.00    -0.385 OA
ATOM     16  H   UNL     1      60.483  -5.247   3.516  1.00  0.00     0.211 HD
ENDBRANCH   7  15
ENDBRANCH   1   2
BRANCH   1  17
ATOM     17  C   UNL     1      58.121  -2.221   0.731  1.00  0.00     0.224 C 
ATOM     18  C   UNL     1      58.252  -1.643  -0.707  1.00  0.00     0.208 C 
ATOM     19  O   UNL     1      58.584  -1.234   1.650  1.00  0.00    -0.337 OA
ATOM     20  C   UNL     1      59.083  -0.392  -0.515  1.00  0.00     0.180 C 
ATOM     21  C   UNL     1      58.755  -0.035   0.930  1.00  0.00     0.179 C 
BRANCH  17  22
ATOM     22  C   UNL     1      56.644  -2.516   1.055  1.00  0.00     0.225 C 
BRANCH  22  23
ATOM     23  O   UNL     1      55.845  -2.340  -0.084  1.00  0.00    -0.391 OA
ATOM     24  H   UNL     1      55.724  -3.240  -0.485  1.00  0.00     0.210 HD
ENDBRANCH  22  23
ENDBRANCH  17  22
BRANCH  18  25
ATOM     25  O   UNL     1      58.816  -2.544  -1.631  1.00  0.00    -0.385 OA
ATOM     26  H   UNL     1      58.391  -3.436  -1.508  1.00  0.00     0.211 HD
ENDBRANCH  18  25
BRANCH  20  27
ATOM     27  O   UNL     1      58.689   0.638  -1.388  1.00  0.00    -0.387 OA
ATOM     28  H   UNL     1      57.894   1.060  -0.979  1.00  0.00     0.211 HD
ENDBRANCH  20  27
BRANCH  21  29
ATOM     29  C   UNL     1      59.828   0.841   1.591  1.00  0.00     0.191 C 
BRANCH  29  30
ATOM     30  O   UNL     1      60.969   0.953   0.776  1.00  0.00    -0.394 OA
ATOM     31  H   UNL     1      60.934   0.204   0.124  1.00  0.00     0.210 HD
ENDBRANCH  29  30
ENDBRANCH  21  29
ENDBRANCH   1  17
TORSDOF 13
ENDMDL
MODEL 2
REMARK VINA RESULT:    -4.897      1.500      1.801
REMARK INTER + INTRA:          -8.610
REMARK INTER:                  -7.381
REMARK INTRA:                  -1.229
REMARK UNBOUND:                -1.137
REMARK SMILES OC[C@@H]1O[C@H](O[C@@]2(CO)O[C@@H](CO)[C@H](O)[C@H]2O)[C@H](O)[C@@H](O)[C@@H]1O
REMARK SMILES IDX 6 1 5 2 3 3 22 4 4 5 20 6 18 7 2 8 1 9 23 11 21 13 19 15
REMARK SMILES IDX 7 17 16 18 10 19 14 20 11 21 8 22 9 23 17 25 15 27 12 29
REMARK SMILES IDX 13 30
REMARK H PARENT 1 10 23 12 21 14 19 16 9 24 17 26 15 28 13 31
REMARK Flexibility Score: inf
ROOT
ATOM      1  O   UNL     1      57.719  -3.065   1.038  1.00  0.00    -0.313 OA
ENDROOT
BRANCH   1   2
ATOM      2  C   UNL     1      57.871  -3.242   2.443  1.00  0.00     0.285 C 
ATOM      3  C   UNL     1      57.522  -5.560   2.948  1.00  0.00     0.178 C 
ATOM      4  C   UNL     1      58.767  -5.663   3.884  1.00  0.00     0.177 C 
ATOM      5  O   UNL     1      56.975  -4.248   2.913  1.00  0.00    -0.341 OA
ATOM      6  C   UNL     1      59.410  -4.280   4.143  1.00  0.00     0.179 C 
ATOM      7  C   UNL     1      59.366  -3.448   2.860  1.00  0.00     0.202 C 
BRANCH   3   8
ATOM      8  C   UNL     1      57.709  -6.156   1.537  1.00  0.00     0.191 C 
BRANCH   8   9
ATOM      9  O   UNL     1      57.778  -7.557   1.605  1.00  0.00    -0.394 OA
ATOM     10  H   UNL     1      58.546  -7.757   2.199  1.00  0.00     0.210 HD
ENDBRANCH   8   9
ENDBRANCH   3   8
BRANCH   4  11
ATOM     11  O   UNL     1      59.722  -6.543   3.351  1.00  0.00    -0.387 OA
ATOM     12  H   UNL     1      60.155  -6.078   2.588  1.00  0.00     0.211 HD
ENDBRANCH   4  11
BRANCH   6  13
ATOM     13  O   UNL     1      58.715  -3.598   5.156  1.00  0.00    -0.387 OA
ATOM     14  H   UNL     1      58.228  -4.282   5.678  1.00  0.00     0.211 HD
ENDBRANCH   6  13
BRANCH   7  15
ATOM     15  O   UNL     1      60.152  -4.072   1.879  1.00  0.00    -0.385 OA
ATOM     16  H   UNL     1      59.564  -4.665   1.332  1.00  0.00     0.211 HD
ENDBRANCH   7  15
ENDBRANCH   1   2
BRANCH   1  17
ATOM     17  C   UNL     1      57.401  -1.722   0.651  1.00  0.00     0.224 C 
ATOM     18  C   UNL     1      58.004  -1.379  -0.741  1.00  0.00     0.208 C 
ATOM     19  O   UNL     1      57.881  -0.764   1.591  1.00  0.00    -0.337 OA
ATOM     20  C   UNL     1      59.066  -0.346  -0.426  1.00  0.00     0.180 C 
ATOM     21  C   UNL     1      58.520   0.259   0.861  1.00  0.00     0.179 C 
BRANCH  17  22
ATOM     22  C   UNL     1      55.865  -1.616   0.607  1.00  0.00     0.225 C 
BRANCH  22  23
ATOM     23  O   UNL     1      55.399  -1.742  -0.709  1.00  0.00    -0.391 OA
ATOM     24  H   UNL     1      55.368  -0.823  -1.086  1.00  0.00     0.210 HD
ENDBRANCH  22  23
ENDBRANCH  17  22
BRANCH  18  25
ATOM     25  O   UNL     1      58.511  -2.498  -1.431  1.00  0.00    -0.385 OA
ATOM     26  H   UNL     1      59.467  -2.329  -1.656  1.00  0.00     0.211 HD
ENDBRANCH  18  25
BRANCH  20  27
ATOM     27  O   UNL     1      59.164   0.628  -1.436  1.00  0.00    -0.387 OA
ATOM     28  H   UNL     1      59.418   0.147  -2.263  1.00  0.00     0.211 HD
ENDBRANCH  20  27
BRANCH  21  29
ATOM     29  C   UNL     1      59.603   0.934   1.715  1.00  0.00     0.191 C 
BRANCH  29  30
ATOM     30  O   UNL     1      60.847   0.924   1.060  1.00  0.00    -0.394 OA
ATOM     31  H   UNL     1      60.667   1.072   0.094  1.00  0.00     0.210 HD
ENDBRANCH  29  30
ENDBRANCH  21  29
ENDBRANCH   1  17
TORSDOF 13
ENDMDL
MODEL 3
REMARK VINA RESULT:    -4.868      1.746      3.383
REMARK INTER + INTRA:          -8.567
REMARK INTER:                  -7.577
REMARK INTRA:                  -0.989
REMARK UNBOUND:                -1.137
REMARK SMILES OC[C@@H]1O[C@H](O[C@@]2(CO)O[C@@H](CO)[C@H](O)[C@H]2O)[C@H](O)[C@@H](O)[C@@H]1O
REMARK SMILES IDX 6 1 5 2 3 3 22 4 4 5 20 6 18 7 2 8 1 9 23 11 21 13 19 15
REMARK SMILES IDX 7 17 16 18 10 19 14 20 11 21 8 22 9 23 17 25 15 27 12 29
REMARK SMILES IDX 13 30
REMARK H PARENT 1 10 23 12 21 14 19 16 9 24 17 26 15 28 13 31
REMARK Flexibility Score: inf
ROOT
ATOM      1  O   UNL     1      58.880  -3.718   2.031  1.00  0.00    -0.313 OA
ENDROOT
BRANCH   1   2
ATOM      2  C   UNL     1      58.450  -4.929   1.419  1.00  0.00     0.285 C 
ATOM      3  C   UNL     1      60.386  -6.082   0.598  1.00  0.00     0.178 C 
ATOM      4  C   UNL     1      59.945  -7.468   1.165  1.00  0.00     0.177 C 
ATOM      5  O   UNL     1      59.281  -5.239   0.300  1.00  0.00    -0.341 OA
ATOM      6  C   UNL     1      58.508  -7.426   1.737  1.00  0.00     0.179 C 
ATOM      7  C   UNL     1      58.281  -6.093   2.453  1.00  0.00     0.202 C 
BRANCH   3   8
ATOM      8  C   UNL     1      61.477  -5.356   1.413  1.00  0.00     0.191 C 
BRANCH   8   9
ATOM      9  O   UNL     1      62.751  -5.802   1.028  1.00  0.00    -0.394 OA
ATOM     10  H   UNL     1      63.319  -4.990   0.996  1.00  0.00     0.210 HD
ENDBRANCH   8   9
ENDBRANCH   3   8
BRANCH   4  11
ATOM     11  O   UNL     1      60.839  -7.914   2.151  1.00  0.00    -0.387 OA
ATOM     12  H   UNL     1      60.849  -8.905   2.111  1.00  0.00     0.211 HD
ENDBRANCH   4  11
BRANCH   6  13
ATOM     13  O   UNL     1      57.564  -7.557   0.704  1.00  0.00    -0.387 OA
ATOM     14  H   UNL     1      57.817  -8.361   0.188  1.00  0.00     0.211 HD
ENDBRANCH   6  13
BRANCH   7  15
ATOM     15  O   UNL     1      59.149  -6.009   3.553  1.00  0.00    -0.385 OA
ATOM     16  H   UNL     1      59.941  -6.591   3.379  1.00  0.00     0.211 HD
ENDBRANCH   7  15
ENDBRANCH   1   2
BRANCH   1  17
ATOM     17  C   UNL     1      58.302  -2.538   1.458  1.00  0.00     0.224 C 
ATOM     18  C   UNL     1      57.653  -1.641   2.550  1.00  0.00     0.208 C 
ATOM     19  O   UNL     1      57.306  -2.846   0.485  1.00  0.00    -0.337 OA
ATOM     20  C   UNL     1      56.171  -1.727   2.248  1.00  0.00     0.180 C 
ATOM     21  C   UNL     1      56.188  -2.030   0.755  1.00  0.00     0.179 C 
BRANCH  17  22
ATOM     22  C   UNL     1      59.439  -1.777   0.748  1.00  0.00     0.225 C 
BRANCH  22  23
ATOM     23  O   UNL     1      59.743  -0.593   1.436  1.00  0.00    -0.391 OA
ATOM     24  H   UNL     1      60.330  -0.062   0.836  1.00  0.00     0.210 HD
ENDBRANCH  22  23
ENDBRANCH  17  22
BRANCH  18  25
ATOM     25  O   UNL     1      57.971  -2.030   3.866  1.00  0.00    -0.385 OA
ATOM     26  H   UNL     1      58.317  -2.964   3.848  1.00  0.00     0.211 HD
ENDBRANCH  18  25
BRANCH  20  27
ATOM     27  O   UNL     1      55.513  -0.510   2.506  1.00  0.00    -0.387 OA
ATOM     28  H   UNL     1      55.861  -0.184   3.372  1.00  0.00     0.211 HD
ENDBRANCH  20  27
BRANCH  21  29
ATOM     29  C   UNL     1      54.900  -2.705   0.264  1.00  0.00     0.191 C 
BRANCH  29  30
ATOM     30  O   UNL     1      54.474  -2.160  -0.961  1.00  0.00    -0.394 OA
ATOM     31  H   UNL     1      53.885  -2.837  -1.389  1.00  0.00     0.210 HD
ENDBRANCH  29  30
ENDBRANCH  21  29
ENDBRANCH   1  17
TORSDOF 13
ENDMDL
MODEL 4
REMARK VINA RESULT:    -4.853      1.442      5.986
REMARK INTER + INTRA:          -8.544
REMARK INTER:                  -7.117
REMARK INTRA:                  -1.427
REMARK UNBOUND:                -1.137
REMARK SMILES OC[C@@H]1O[C@H](O[C@@]2(CO)O[C@@H](CO)[C@H](O)[C@H]2O)[C@H](O)[C@@H](O)[C@@H]1O
REMARK SMILES IDX 6 1 5 2 3 3 22 4 4 5 20 6 18 7 2 8 1 9 23 11 21 13 19 15
REMARK SMILES IDX 7 17 16 18 10 19 14 20 11 21 8 22 9 23 17 25 15 27 12 29
REMARK SMILES IDX 13 30
REMARK H PARENT 1 10 23 12 21 14 19 16 9 24 17 26 15 28 13 31
REMARK Flexibility Score: inf
ROOT
ATOM      1  O   UNL     1      57.660  -3.751   1.792  1.00  0.00    -0.313 OA
ENDROOT
BRANCH   1   2
ATOM      2  C   UNL     1      57.846  -3.215   0.486  1.00  0.00     0.285 C 
ATOM      3  C   UNL     1      56.767  -1.077   0.393  1.00  0.00     0.178 C 
ATOM      4  C   UNL     1      57.968  -0.371  -0.311  1.00  0.00     0.177 C 
ATOM      5  O   UNL     1      56.699  -2.464   0.092  1.00  0.00    -0.341 OA
ATOM      6  C   UNL     1      59.062  -1.380  -0.735  1.00  0.00     0.179 C 
ATOM      7  C   UNL     1      59.209  -2.457   0.342  1.00  0.00     0.202 C 
BRANCH   3   8
ATOM      8  C   UNL     1      56.633  -0.795   1.904  1.00  0.00     0.191 C 
BRANCH   8   9
ATOM      9  O   UNL     1      55.656  -1.629   2.470  1.00  0.00    -0.394 OA
ATOM     10  H   UNL     1      55.310  -2.181   1.722  1.00  0.00     0.210 HD
ENDBRANCH   8   9
ENDBRANCH   3   8
BRANCH   4  11
ATOM     11  O   UNL     1      58.524   0.617   0.517  1.00  0.00    -0.387 OA
ATOM     12  H   UNL     1      58.202   1.494   0.183  1.00  0.00     0.211 HD
ENDBRANCH   4  11
BRANCH   6  13
ATOM     13  O   UNL     1      58.719  -1.994  -1.952  1.00  0.00    -0.387 OA
ATOM     14  H   UNL     1      57.794  -1.715  -2.160  1.00  0.00     0.211 HD
ENDBRANCH   6  13
BRANCH   7  15
ATOM     15  O   UNL     1      59.659  -1.861   1.530  1.00  0.00    -0.385 OA
ATOM     16  H   UNL     1      59.041  -1.111   1.763  1.00  0.00     0.211 HD
ENDBRANCH   7  15
ENDBRANCH   1   2
BRANCH   1  17
ATOM     17  C   UNL     1      57.708  -5.183   1.848  1.00  0.00     0.224 C 
ATOM     18  C   UNL     1      58.384  -5.673   3.160  1.00  0.00     0.208 C 
ATOM     19  O   UNL     1      58.422  -5.739   0.746  1.00  0.00    -0.337 OA
ATOM     20  C   UNL     1      59.680  -6.295   2.684  1.00  0.00     0.180 C 
ATOM     21  C   UNL     1      59.310  -6.704   1.263  1.00  0.00     0.179 C 
BRANCH  17  22
ATOM     22  C   UNL     1      56.255  -5.688   1.775  1.00  0.00     0.225 C 
BRANCH  22  23
ATOM     23  O   UNL     1      55.355  -4.629   1.962  1.00  0.00    -0.391 OA
ATOM     24  H   UNL     1      54.803  -4.866   2.753  1.00  0.00     0.210 HD
ENDBRANCH  22  23
ENDBRANCH  17  22
BRANCH  18  25
ATOM     25  O   UNL     1      58.579  -4.654   4.113  1.00  0.00    -0.385 OA
ATOM     26  H   UNL     1      59.516  -4.705   4.448  1.00  0.00     0.211 HD
ENDBRANCH  18  25
BRANCH  20  27
ATOM     27  O   UNL     1      60.035  -7.419   3.453  1.00  0.00    -0.387 OA
ATOM     28  H   UNL     1      59.786  -7.207   4.386  1.00  0.00     0.211 HD
ENDBRANCH  20  27
BRANCH  21  29
ATOM     29  C   UNL     1      60.531  -6.859   0.346  1.00  0.00     0.191 C 
BRANCH  29  30
ATOM     30  O   UNL     1      61.718  -6.504   1.011  1.00  0.00    -0.394 OA
ATOM     31  H   UNL     1      62.470  -6.883   0.484  1.00  0.00     0.210 HD
ENDBRANCH  29  30
ENDBRANCH  21  29
ENDBRANCH   1  17
TORSDOF 13
ENDMDL
MODEL 5
REMARK VINA RESULT:    -4.745      1.647      6.183
REMARK INTER + INTRA:          -8.379
REMARK INTER:                  -7.370
REMARK INTRA:                  -1.009
REMARK UNBOUND:                -1.137
REMARK SMILES OC[C@@H]1O[C@H](O[C@@]2(CO)O[C@@H](CO)[C@H](O)[C@H]2O)[C@H](O)[C@@H](O)[C@@H]1O
REMARK SMILES IDX 6 1 5 2 3 3 22 4 4 5 20 6 18 7 2 8 1 9 23 11 21 13 19 15
REMARK SMILES IDX 7 17 16 18 10 19 14 20 11 21 8 22 9 23 17 25 15 27 12 29
REMARK SMILES IDX 13 30
REMARK H PARENT 1 10 23 12 21 14 19 16 9 24 17 26 15 28 13 31
REMARK Flexibility Score: inf
ROOT
ATOM      1  O   UNL     1      58.116  -4.426   1.483  1.00  0.00    -0.313 OA
ENDROOT
BRANCH   1   2
ATOM      2  C   UNL     1      58.145  -3.112   2.031  1.00  0.00     0.285 C 
ATOM      3  C   UNL     1      59.022  -1.626   0.366  1.00  0.00     0.178 C 
ATOM      4  C   UNL     1      57.926  -0.538   0.593  1.00  0.00     0.177 C 
ATOM      5  O   UNL     1      59.275  -2.396   1.534  1.00  0.00    -0.341 OA
ATOM      6  C   UNL     1      57.035  -0.863   1.815  1.00  0.00     0.179 C 
ATOM      7  C   UNL     1      56.776  -2.370   1.873  1.00  0.00     0.202 C 
BRANCH   3   8
ATOM      8  C   UNL     1      58.826  -2.506  -0.886  1.00  0.00     0.191 C 
BRANCH   8   9
ATOM      9  O   UNL     1      58.932  -1.728  -2.050  1.00  0.00    -0.394 OA
ATOM     10  H   UNL     1      58.423  -0.897  -1.863  1.00  0.00     0.210 HD
ENDBRANCH   8   9
ENDBRANCH   3   8
BRANCH   4  11
ATOM     11  O   UNL     1      57.129  -0.384  -0.552  1.00  0.00    -0.387 OA
ATOM     12  H   UNL     1      57.171   0.573  -0.813  1.00  0.00     0.211 HD
ENDBRANCH   4  11
BRANCH   6  13
ATOM     13  O   UNL     1      57.668  -0.462   3.004  1.00  0.00    -0.387 OA
ATOM     14  H   UNL     1      57.240  -0.965   3.739  1.00  0.00     0.211 HD
ENDBRANCH   6  13
BRANCH   7  15
ATOM     15  O   UNL     1      56.045  -2.754   0.737  1.00  0.00    -0.385 OA
ATOM     16  H   UNL     1      55.072  -2.656   0.937  1.00  0.00     0.211 HD
ENDBRANCH   7  15
ENDBRANCH   1   2
BRANCH   1  17
ATOM     17  C   UNL     1      58.443  -5.457   2.424  1.00  0.00     0.224 C 
ATOM     18  C   UNL     1      59.941  -5.861   2.318  1.00  0.00     0.208 C 
ATOM     19  O   UNL     1      57.652  -6.628   2.233  1.00  0.00    -0.337 OA
ATOM     20  C   UNL     1      59.893  -7.273   1.773  1.00  0.00     0.180 C 
ATOM     21  C   UNL     1      58.525  -7.735   2.261  1.00  0.00     0.179 C 
BRANCH  17  22
ATOM     22  C   UNL     1      58.138  -4.902   3.828  1.00  0.00     0.225 C 
BRANCH  22  23
ATOM     23  O   UNL     1      59.189  -5.190   4.711  1.00  0.00    -0.391 OA
ATOM     24  H   UNL     1      59.649  -5.992   4.348  1.00  0.00     0.210 HD
ENDBRANCH  22  23
ENDBRANCH  17  22
BRANCH  18  25
ATOM     25  O   UNL     1      60.709  -4.989   1.522  1.00  0.00    -0.385 OA
ATOM     26  H   UNL     1      61.618  -4.908   1.923  1.00  0.00     0.211 HD
ENDBRANCH  18  25
BRANCH  20  27
ATOM     27  O   UNL     1      60.915  -8.077   2.310  1.00  0.00    -0.387 OA
ATOM     28  H   UNL     1      61.724  -7.510   2.347  1.00  0.00     0.211 HD
ENDBRANCH  20  27
BRANCH  21  29
ATOM     29  C   UNL     1      57.951  -8.894   1.435  1.00  0.00     0.191 C 
BRANCH  29  30
ATOM     30  O   UNL     1      57.250  -8.421   0.312  1.00  0.00    -0.394 OA
ATOM     31  H   UNL     1      57.501  -7.466   0.194  1.00  0.00     0.210 HD
ENDBRANCH  29  30
ENDBRANCH  21  29
ENDBRANCH   1  17
TORSDOF 13
ENDMDL
MODEL 6
REMARK VINA RESULT:    -4.647      8.551     12.465
REMARK INTER + INTRA:          -8.230
REMARK INTER:                  -7.168
REMARK INTRA:                  -1.062
REMARK UNBOUND:                -1.137
REMARK SMILES OC[C@@H]1O[C@H](O[C@@]2(CO)O[C@@H](CO)[C@H](O)[C@H]2O)[C@H](O)[C@@H](O)[C@@H]1O
REMARK SMILES IDX 6 1 5 2 3 3 22 4 4 5 20 6 18 7 2 8 1 9 23 11 21 13 19 15
REMARK SMILES IDX 7 17 16 18 10 19 14 20 11 21 8 22 9 23 17 25 15 27 12 29
REMARK SMILES IDX 13 30
REMARK H PARENT 1 10 23 12 21 14 19 16 9 24 17 26 15 28 13 31
REMARK Flexibility Score: inf
ROOT
ATOM      1  O   UNL     1      64.850   3.260  -5.498  1.00  0.00    -0.313 OA
ENDROOT
BRANCH   1   2
ATOM      2  C   UNL     1      64.667   4.306  -6.446  1.00  0.00     0.285 C 
ATOM      3  C   UNL     1      66.183   3.940  -8.268  1.00  0.00     0.178 C 
ATOM      4  C   UNL     1      65.108   4.208  -9.368  1.00  0.00     0.177 C 
ATOM      5  O   UNL     1      65.911   4.639  -7.060  1.00  0.00    -0.341 OA
ATOM      6  C   UNL     1      63.782   4.730  -8.765  1.00  0.00     0.179 C 
ATOM      7  C   UNL     1      63.501   4.006  -7.447  1.00  0.00     0.202 C 
BRANCH   3   8
ATOM      8  C   UNL     1      66.516   2.453  -8.023  1.00  0.00     0.191 C 
BRANCH   8   9
ATOM      9  O   UNL     1      67.289   2.312  -6.860  1.00  0.00    -0.394 OA
ATOM     10  H   UNL     1      66.818   1.636  -6.307  1.00  0.00     0.210 HD
ENDBRANCH   8   9
ENDBRANCH   3   8
BRANCH   4  11
ATOM     11  O   UNL     1      64.867   3.051 -10.125  1.00  0.00    -0.387 OA
ATOM     12  H   UNL     1      63.961   3.142 -10.520  1.00  0.00     0.211 HD
ENDBRANCH   4  11
BRANCH   6  13
ATOM     13  O   UNL     1      63.866   6.111  -8.520  1.00  0.00    -0.387 OA
ATOM     14  H   UNL     1      64.640   6.446  -9.035  1.00  0.00     0.211 HD
ENDBRANCH   6  13
BRANCH   7  15
ATOM     15  O   UNL     1      63.308   2.640  -7.706  1.00  0.00    -0.385 OA
ATOM     16  H   UNL     1      62.349   2.494  -7.946  1.00  0.00     0.211 HD
ENDBRANCH   7  15
ENDBRANCH   1   2
BRANCH   1  17
ATOM     17  C   UNL     1      64.547   3.638  -4.148  1.00  0.00     0.224 C 
ATOM     18  C   UNL     1      65.590   3.054  -3.153  1.00  0.00     0.208 C 
ATOM     19  O   UNL     1      63.253   3.197  -3.745  1.00  0.00    -0.337 OA
ATOM     20  C   UNL     1      64.797   2.037  -2.359  1.00  0.00     0.180 C 
ATOM     21  C   UNL     1      63.388   2.605  -2.472  1.00  0.00     0.179 C 
BRANCH  17  22
ATOM     22  C   UNL     1      64.562   5.177  -4.095  1.00  0.00     0.225 C 
BRANCH  22  23
ATOM     23  O   UNL     1      65.057   5.623  -2.861  1.00  0.00    -0.391 OA
ATOM     24  H   UNL     1      65.628   4.892  -2.506  1.00  0.00     0.210 HD
ENDBRANCH  22  23
ENDBRANCH  17  22
BRANCH  18  25
ATOM     25  O   UNL     1      66.725   2.502  -3.779  1.00  0.00    -0.385 OA
ATOM     26  H   UNL     1      66.492   1.594  -4.119  1.00  0.00     0.211 HD
ENDBRANCH  18  25
BRANCH  20  27
ATOM     27  O   UNL     1      65.210   1.984  -1.015  1.00  0.00    -0.387 OA
ATOM     28  H   UNL     1      64.715   1.235  -0.602  1.00  0.00     0.211 HD
ENDBRANCH  20  27
BRANCH  21  29
ATOM     29  C   UNL     1      62.295   1.550  -2.252  1.00  0.00     0.191 C 
BRANCH  29  30
ATOM     30  O   UNL     1      61.013   2.126  -2.297  1.00  0.00    -0.394 OA
ATOM     31  H   UNL     1      61.121   3.044  -2.661  1.00  0.00     0.210 HD
ENDBRANCH  29  30
ENDBRANCH  21  29
ENDBRANCH   1  17
TORSDOF 13
ENDMDL
MODEL 7
REMARK VINA RESULT:    -4.613      9.204     13.038
REMARK INTER + INTRA:          -8.177
REMARK INTER:                  -6.644
REMARK INTRA:                  -1.533
REMARK UNBOUND:                -1.137
REMARK SMILES OC[C@@H]1O[C@H](O[C@@]2(CO)O[C@@H](CO)[C@H](O)[C@H]2O)[C@H](O)[C@@H](O)[C@@H]1O
REMARK SMILES IDX 6 1 5 2 3 3 22 4 4 5 20 6 18 7 2 8 1 9 23 11 21 13 19 15
REMARK SMILES IDX 7 17 16 18 10 19 14 20 11 21 8 22 9 23 17 25 15 27 12 29
REMARK SMILES IDX 13 30
REMARK H PARENT 1 10 23 12 21 14 19 16 9 24 17 26 15 28 13 31
REMARK Flexibility Score: inf
ROOT
ATOM      1  O   UNL     1      66.284   4.392  -4.054  1.00  0.00    -0.313 OA
ENDROOT
BRANCH   1   2
ATOM      2  C   UNL     1      66.452   4.318  -5.466  1.00  0.00     0.285 C 
ATOM      3  C   UNL     1      68.540   5.354  -6.027  1.00  0.00     0.178 C 
ATOM      4  C   UNL     1      68.982   4.210  -6.992  1.00  0.00     0.177 C 
ATOM      5  O   UNL     1      67.127   5.481  -5.944  1.00  0.00    -0.341 OA
ATOM      6  C   UNL     1      67.848   3.183  -7.226  1.00  0.00     0.179 C 
ATOM      7  C   UNL     1      67.083   2.959  -5.921  1.00  0.00     0.202 C 
BRANCH   3   8
ATOM      8  C   UNL     1      69.211   5.338  -4.637  1.00  0.00     0.191 C 
BRANCH   8   9
ATOM      9  O   UNL     1      68.656   6.332  -3.816  1.00  0.00    -0.394 OA
ATOM     10  H   UNL     1      69.300   7.086  -3.837  1.00  0.00     0.210 HD
ENDBRANCH   8   9
ENDBRANCH   3   8
BRANCH   4  11
ATOM     11  O   UNL     1      70.125   3.556  -6.504  1.00  0.00    -0.387 OA
ATOM     12  H   UNL     1      70.200   2.694  -6.990  1.00  0.00     0.211 HD
ENDBRANCH   4  11
BRANCH   6  13
ATOM     13  O   UNL     1      66.956   3.654  -8.205  1.00  0.00    -0.387 OA
ATOM     14  H   UNL     1      67.480   3.775  -9.034  1.00  0.00     0.211 HD
ENDBRANCH   6  13
BRANCH   7  15
ATOM     15  O   UNL     1      67.947   2.386  -4.974  1.00  0.00    -0.385 OA
ATOM     16  H   UNL     1      68.141   1.446  -5.250  1.00  0.00     0.211 HD
ENDBRANCH   7  15
ENDBRANCH   1   2
BRANCH   1  17
ATOM     17  C   UNL     1      64.927   4.595  -3.638  1.00  0.00     0.224 C 
ATOM     18  C   UNL     1      64.475   3.495  -2.635  1.00  0.00     0.208 C 
ATOM     19  O   UNL     1      64.022   4.591  -4.739  1.00  0.00    -0.337 OA
ATOM     20  C   UNL     1      63.437   2.710  -3.409  1.00  0.00     0.180 C 
ATOM     21  C   UNL     1      62.935   3.764  -4.388  1.00  0.00     0.179 C 
BRANCH  17  22
ATOM     22  C   UNL     1      64.860   5.983  -2.973  1.00  0.00     0.225 C 
BRANCH  22  23
ATOM     23  O   UNL     1      66.044   6.698  -3.204  1.00  0.00    -0.391 OA
ATOM     24  H   UNL     1      65.794   7.485  -3.756  1.00  0.00     0.210 HD
ENDBRANCH  22  23
ENDBRANCH  17  22
BRANCH  18  25
ATOM     25  O   UNL     1      65.531   2.693  -2.159  1.00  0.00    -0.385 OA
ATOM     26  H   UNL     1      66.006   3.187  -1.435  1.00  0.00     0.211 HD
ENDBRANCH  18  25
BRANCH  20  27
ATOM     27  O   UNL     1      62.395   2.259  -2.579  1.00  0.00    -0.387 OA
ATOM     28  H   UNL     1      61.999   3.067  -2.167  1.00  0.00     0.211 HD
ENDBRANCH  20  27
BRANCH  21  29
ATOM     29  C   UNL     1      62.290   3.161  -5.644  1.00  0.00     0.191 C 
BRANCH  29  30
ATOM     30  O   UNL     1      61.013   2.645  -5.363  1.00  0.00    -0.394 OA
ATOM     31  H   UNL     1      60.584   2.442  -6.236  1.00  0.00     0.210 HD
ENDBRANCH  29  30
ENDBRANCH  21  29
ENDBRANCH   1  17
TORSDOF 13
ENDMDL
MODEL 8
REMARK VINA RESULT:    -4.490      8.628     12.001
REMARK INTER + INTRA:          -7.990
REMARK INTER:                  -6.510
REMARK INTRA:                  -1.480
REMARK UNBOUND:                -1.137
REMARK SMILES OC[C@@H]1O[C@H](O[C@@]2(CO)O[C@@H](CO)[C@H](O)[C@H]2O)[C@H](O)[C@@H](O)[C@@H]1O
REMARK SMILES IDX 6 1 5 2 3 3 22 4 4 5 20 6 18 7 2 8 1 9 23 11 21 13 19 15
REMARK SMILES IDX 7 17 16 18 10 19 14 20 11 21 8 22 9 23 17 25 15 27 12 29
REMARK SMILES IDX 13 30
REMARK H PARENT 1 10 23 12 21 14 19 16 9 24 17 26 15 28 13 31
REMARK Flexibility Score: inf
ROOT
ATOM      1  O   UNL     1      64.141   5.052  -4.950  1.00  0.00    -0.313 OA
ENDROOT
BRANCH   1   2
ATOM      2  C   UNL     1      62.869   4.428  -4.820  1.00  0.00     0.285 C 
ATOM      3  C   UNL     1      61.363   5.462  -6.373  1.00  0.00     0.178 C 
ATOM      4  C   UNL     1      60.780   4.109  -6.888  1.00  0.00     0.177 C 
ATOM      5  O   UNL     1      61.827   5.380  -5.032  1.00  0.00    -0.341 OA
ATOM      6  C   UNL     1      61.285   2.908  -6.053  1.00  0.00     0.179 C 
ATOM      7  C   UNL     1      62.753   3.125  -5.682  1.00  0.00     0.202 C 
BRANCH   3   8
ATOM      8  C   UNL     1      62.390   6.134  -7.310  1.00  0.00     0.191 C 
BRANCH   8   9
ATOM      9  O   UNL     1      62.936   7.273  -6.697  1.00  0.00    -0.394 OA
ATOM     10  H   UNL     1      62.159   7.803  -6.379  1.00  0.00     0.210 HD
ENDBRANCH   8   9
ENDBRANCH   3   8
BRANCH   4  11
ATOM     11  O   UNL     1      61.089   3.913  -8.243  1.00  0.00    -0.387 OA
ATOM     12  H   UNL     1      61.879   3.313  -8.280  1.00  0.00     0.211 HD
ENDBRANCH   4  11
BRANCH   6  13
ATOM     13  O   UNL     1      60.529   2.778  -4.875  1.00  0.00    -0.387 OA
ATOM     14  H   UNL     1      60.264   3.691  -4.604  1.00  0.00     0.211 HD
ENDBRANCH   6  13
BRANCH   7  15
ATOM     15  O   UNL     1      63.525   3.146  -6.854  1.00  0.00    -0.385 OA
ATOM     16  H   UNL     1      64.120   3.947  -6.828  1.00  0.00     0.211 HD
ENDBRANCH   7  15
ENDBRANCH   1   2
BRANCH   1  17
ATOM     17  C   UNL     1      65.071   4.702  -3.916  1.00  0.00     0.224 C 
ATOM     18  C   UNL     1      66.199   3.781  -4.462  1.00  0.00     0.208 C 
ATOM     19  O   UNL     1      64.437   4.033  -2.829  1.00  0.00    -0.337 OA
ATOM     20  C   UNL     1      65.938   2.455  -3.779  1.00  0.00     0.180 C 
ATOM     21  C   UNL     1      65.224   2.907  -2.511  1.00  0.00     0.179 C 
BRANCH  17  22
ATOM     22  C   UNL     1      65.668   6.018  -3.381  1.00  0.00     0.225 C 
BRANCH  22  23
ATOM     23  O   UNL     1      67.069   5.956  -3.376  1.00  0.00    -0.391 OA
ATOM     24  H   UNL     1      67.320   5.202  -3.971  1.00  0.00     0.210 HD
ENDBRANCH  22  23
ENDBRANCH  17  22
BRANCH  18  25
ATOM     25  O   UNL     1      66.222   3.683  -5.867  1.00  0.00    -0.385 OA
ATOM     26  H   UNL     1      67.091   4.040  -6.198  1.00  0.00     0.211 HD
ENDBRANCH  18  25
BRANCH  20  27
ATOM     27  O   UNL     1      67.134   1.782  -3.468  1.00  0.00    -0.387 OA
ATOM     28  H   UNL     1      66.930   1.194  -2.699  1.00  0.00     0.211 HD
ENDBRANCH  20  27
BRANCH  21  29
ATOM     29  C   UNL     1      64.359   1.806  -1.883  1.00  0.00     0.191 C 
BRANCH  29  30
ATOM     30  O   UNL     1      65.121   0.979  -1.038  1.00  0.00    -0.394 OA
ATOM     31  H   UNL     1      65.251   1.476  -0.187  1.00  0.00     0.210 HD
ENDBRANCH  29  30
ENDBRANCH  21  29
ENDBRANCH   1  17
TORSDOF 13
ENDMDL
MODEL 9
REMARK VINA RESULT:    -4.433      2.031      5.849
REMARK INTER + INTRA:          -7.903
REMARK INTER:                  -6.604
REMARK INTRA:                  -1.299
REMARK UNBOUND:                -1.137
REMARK SMILES OC[C@@H]1O[C@H](O[C@@]2(CO)O[C@@H](CO)[C@H](O)[C@H]2O)[C@H](O)[C@@H](O)[C@@H]1O
REMARK SMILES IDX 6 1 5 2 3 3 22 4 4 5 20 6 18 7 2 8 1 9 23 11 21 13 19 15
REMARK SMILES IDX 7 17 16 18 10 19 14 20 11 21 8 22 9 23 17 25 15 27 12 29
REMARK SMILES IDX 13 30
REMARK H PARENT 1 10 23 12 21 14 19 16 9 24 17 26 15 28 13 31
REMARK Flexibility Score: inf
ROOT
ATOM      1  O   UNL     1      57.634  -4.499   1.675  1.00  0.00    -0.313 OA
ENDROOT
BRANCH   1   2
ATOM      2  C   UNL     1      56.946  -3.618   2.557  1.00  0.00     0.285 C 
ATOM      3  C   UNL     1      56.760  -1.480   1.488  1.00  0.00     0.178 C 
ATOM      4  C   UNL     1      55.254  -1.297   1.856  1.00  0.00     0.177 C 
ATOM      5  O   UNL     1      57.455  -2.292   2.426  1.00  0.00    -0.341 OA
ATOM      6  C   UNL     1      54.756  -2.403   2.816  1.00  0.00     0.179 C 
ATOM      7  C   UNL     1      55.390  -3.741   2.429  1.00  0.00     0.202 C 
BRANCH   3   8
ATOM      8  C   UNL     1      57.034  -1.904   0.029  1.00  0.00     0.191 C 
BRANCH   8   9
ATOM      9  O   UNL     1      57.088  -0.775  -0.804  1.00  0.00    -0.394 OA
ATOM     10  H   UNL     1      56.250  -0.795  -1.335  1.00  0.00     0.210 HD
ENDBRANCH   8   9
ENDBRANCH   3   8
BRANCH   4  11
ATOM     11  O   UNL     1      54.456  -1.273   0.701  1.00  0.00    -0.387 OA
ATOM     12  H   UNL     1      54.522  -2.169   0.280  1.00  0.00     0.211 HD
ENDBRANCH   4  11
BRANCH   6  13
ATOM     13  O   UNL     1      55.110  -2.097   4.142  1.00  0.00    -0.387 OA
ATOM     14  H   UNL     1      54.295  -2.215   4.689  1.00  0.00     0.211 HD
ENDBRANCH   6  13
BRANCH   7  15
ATOM     15  O   UNL     1      54.950  -4.103   1.146  1.00  0.00    -0.385 OA
ATOM     16  H   UNL     1      55.030  -3.309   0.547  1.00  0.00     0.211 HD
ENDBRANCH   7  15
ENDBRANCH   1   2
BRANCH   1  17
ATOM     17  C   UNL     1      58.697  -5.234   2.296  1.00  0.00     0.224 C 
ATOM     18  C   UNL     1      60.079  -4.589   1.993  1.00  0.00     0.208 C 
ATOM     19  O   UNL     1      58.735  -6.591   1.863  1.00  0.00    -0.337 OA
ATOM     20  C   UNL     1      60.764  -5.609   1.108  1.00  0.00     0.180 C 
ATOM     21  C   UNL     1      60.076  -6.895   1.550  1.00  0.00     0.179 C 
BRANCH  17  22
ATOM     22  C   UNL     1      58.426  -5.226   3.813  1.00  0.00     0.225 C 
BRANCH  22  23
ATOM     23  O   UNL     1      59.559  -4.789   4.514  1.00  0.00    -0.391 OA
ATOM     24  H   UNL     1      60.336  -4.938   3.914  1.00  0.00     0.210 HD
ENDBRANCH  22  23
ENDBRANCH  17  22
BRANCH  18  25
ATOM     25  O   UNL     1      59.993  -3.314   1.400  1.00  0.00    -0.385 OA
ATOM     26  H   UNL     1      59.558  -3.406   0.507  1.00  0.00     0.211 HD
ENDBRANCH  18  25
BRANCH  20  27
ATOM     27  O   UNL     1      62.148  -5.671   1.353  1.00  0.00    -0.387 OA
ATOM     28  H   UNL     1      62.570  -5.927   0.496  1.00  0.00     0.211 HD
ENDBRANCH  20  27
BRANCH  21  29
ATOM     29  C   UNL     1      60.142  -8.006   0.493  1.00  0.00     0.191 C 
BRANCH  29  30
ATOM     30  O   UNL     1      61.208  -7.797  -0.401  1.00  0.00    -0.394 OA
ATOM     31  H   UNL     1      61.313  -8.633  -0.927  1.00  0.00     0.210 HD
ENDBRANCH  29  30
ENDBRANCH  21  29
ENDBRANCH   1  17
TORSDOF 13
ENDMDL
