MODEL 1
REMARK VINA RESULT:    -5.730      0.000      0.000
REMARK INTER + INTRA:         -10.253
REMARK INTER:                  -8.745
REMARK INTRA:                  -1.508
REMARK UNBOUND:                -1.508
REMARK SMILES CC(=O)CCC=C(C)CCC=C(C)CCC=C(C)C
REMARK SMILES IDX 10 1 11 2 12 3 13 4 14 5 15 6 16 7 18 8 17 9 19 10 9 11 7 12
REMARK SMILES IDX 6 13 8 14 5 15 4 16 2 17 3 18 1 19
REMARK H PARENT
REMARK Flexibility Score: inf
ROOT
ATOM      1  C   UNL     1      10.039 -32.737 -30.471  1.00  0.00     0.032 C 
ENDROOT
BRANCH   1   2
ATOM      2  C   UNL     1      10.606 -33.681 -29.436  1.00  0.00    -0.028 C 
ATOM      3  C   UNL     1      11.805 -33.490 -28.843  1.00  0.00    -0.077 C 
ATOM      4  C   UNL     1      12.670 -32.299 -29.178  1.00  0.00     0.039 C 
BRANCH   3   5
ATOM      5  C   UNL     1      12.290 -34.492 -27.817  1.00  0.00     0.034 C 
BRANCH   5   6
ATOM      6  C   UNL     1      13.450 -35.323 -28.376  1.00  0.00     0.032 C 
BRANCH   6   7
ATOM      7  C   UNL     1      12.939 -36.426 -29.268  1.00  0.00    -0.028 C 
ATOM      8  C   UNL     1      13.626 -35.262 -31.377  1.00  0.00     0.039 C 
ATOM      9  C   UNL     1      13.029 -36.423 -30.618  1.00  0.00    -0.080 C 
ATOM     10  C   UNL     1      12.496 -37.611 -31.375  1.00  0.00     0.039 C 
ENDBRANCH   6   7
ENDBRANCH   5   6
ENDBRANCH   3   5
ENDBRANCH   1   2
BRANCH   1  11
ATOM     11  C   UNL     1       9.875 -33.407 -31.843  1.00  0.00     0.034 C 
BRANCH  11  12
ATOM     12  C   UNL     1      10.621 -32.660 -32.928  1.00  0.00    -0.077 C 
ATOM     13  C   UNL     1       9.927 -32.032 -33.905  1.00  0.00    -0.028 C 
ATOM     14  C   UNL     1      12.129 -32.593 -32.853  1.00  0.00     0.039 C 
BRANCH  13  15
ATOM     15  C   UNL     1      10.555 -31.266 -35.045  1.00  0.00     0.035 C 
BRANCH  15  16
ATOM     16  C   UNL     1      10.079 -29.808 -35.083  1.00  0.00     0.079 C 
BRANCH  16  17
ATOM     17  C   UNL     1      10.787 -29.022 -36.156  1.00  0.00     0.130 C 
ATOM     18  O   UNL     1      10.140 -28.306 -36.907  1.00  0.00    -0.300 OA
ATOM     19  C   UNL     1      12.280 -29.070 -36.292  1.00  0.00     0.087 C 
ENDBRANCH  16  17
ENDBRANCH  15  16
ENDBRANCH  13  15
ENDBRANCH  11  12
ENDBRANCH   1  11
TORSDOF 9
ENDMDL
MODEL 2
REMARK VINA RESULT:    -5.588      2.689      3.387
REMARK INTER + INTRA:         -10.037
REMARK INTER:                  -8.720
REMARK INTRA:                  -1.317
REMARK UNBOUND:                -1.508
REMARK SMILES CC(=O)CCC=C(C)CCC=C(C)CCC=C(C)C
REMARK SMILES IDX 10 1 11 2 12 3 13 4 14 5 15 6 16 7 18 8 17 9 19 10 9 11 7 12
REMARK SMILES IDX 6 13 8 14 5 15 4 16 2 17 3 18 1 19
REMARK H PARENT
REMARK Flexibility Score: inf
ROOT
ATOM      1  C   UNL     1      10.032 -31.984 -30.710  1.00  0.00     0.032 C 
ENDROOT
BRANCH   1   2
ATOM      2  C   UNL     1      10.217 -32.897 -29.520  1.00  0.00    -0.028 C 
ATOM      3  C   UNL     1      11.315 -32.871 -28.734  1.00  0.00    -0.077 C 
ATOM      4  C   UNL     1      12.449 -31.908 -28.995  1.00  0.00     0.039 C 
BRANCH   3   5
ATOM      5  C   UNL     1      11.410 -33.826 -27.564  1.00  0.00     0.034 C 
BRANCH   5   6
ATOM      6  C   UNL     1      12.631 -34.742 -27.708  1.00  0.00     0.032 C 
BRANCH   6   7
ATOM      7  C   UNL     1      12.581 -35.502 -29.010  1.00  0.00    -0.028 C 
ATOM      8  C   UNL     1      14.409 -37.082 -28.347  1.00  0.00     0.039 C 
ATOM      9  C   UNL     1      13.359 -36.568 -29.304  1.00  0.00    -0.080 C 
ATOM     10  C   UNL     1      13.176 -37.243 -30.639  1.00  0.00     0.039 C 
ENDBRANCH   6   7
ENDBRANCH   5   6
ENDBRANCH   3   5
ENDBRANCH   1   2
BRANCH   1  11
ATOM     11  C   UNL     1      10.112 -32.741 -32.043  1.00  0.00     0.034 C 
BRANCH  11  12
ATOM     12  C   UNL     1      11.319 -33.654 -32.101  1.00  0.00    -0.077 C 
ATOM     13  C   UNL     1      12.562 -33.122 -32.056  1.00  0.00    -0.028 C 
ATOM     14  C   UNL     1      11.093 -35.148 -32.154  1.00  0.00     0.039 C 
BRANCH  13  15
ATOM     15  C   UNL     1      13.840 -33.925 -32.117  1.00  0.00     0.035 C 
BRANCH  15  16
ATOM     16  C   UNL     1      14.962 -33.159 -32.830  1.00  0.00     0.079 C 
BRANCH  16  17
ATOM     17  C   UNL     1      14.794 -31.668 -32.685  1.00  0.00     0.130 C 
ATOM     18  O   UNL     1      14.397 -31.009 -33.634  1.00  0.00    -0.300 OA
ATOM     19  C   UNL     1      15.069 -30.984 -31.379  1.00  0.00     0.087 C 
ENDBRANCH  16  17
ENDBRANCH  15  16
ENDBRANCH  13  15
ENDBRANCH  11  12
ENDBRANCH   1  11
TORSDOF 9
ENDMDL
MODEL 3
REMARK VINA RESULT:    -5.228      1.059      2.735
REMARK INTER + INTRA:          -9.487
REMARK INTER:                  -8.280
REMARK INTRA:                  -1.207
REMARK UNBOUND:                -1.508
REMARK SMILES CC(=O)CCC=C(C)CCC=C(C)CCC=C(C)C
REMARK SMILES IDX 10 1 11 2 12 3 13 4 14 5 15 6 16 7 18 8 17 9 19 10 9 11 7 12
REMARK SMILES IDX 6 13 8 14 5 15 4 16 2 17 3 18 1 19
REMARK H PARENT
REMARK Flexibility Score: inf
ROOT
ATOM      1  C   UNL     1      10.787 -35.406 -32.178  1.00  0.00     0.032 C 
ENDROOT
BRANCH   1   2
ATOM      2  C   UNL     1      11.228 -35.729 -30.769  1.00  0.00    -0.028 C 
ATOM      3  C   UNL     1      12.524 -35.861 -30.415  1.00  0.00    -0.077 C 
ATOM      4  C   UNL     1      13.638 -35.688 -31.420  1.00  0.00     0.039 C 
BRANCH   3   5
ATOM      5  C   UNL     1      12.869 -36.187 -28.978  1.00  0.00     0.034 C 
BRANCH   5   6
ATOM      6  C   UNL     1      12.814 -34.927 -28.107  1.00  0.00     0.032 C 
BRANCH   6   7
ATOM      7  C   UNL     1      11.591 -34.105 -28.428  1.00  0.00    -0.028 C 
ATOM      8  C   UNL     1      12.916 -32.063 -29.020  1.00  0.00     0.039 C 
ATOM      9  C   UNL     1      11.622 -32.824 -28.859  1.00  0.00    -0.080 C 
ATOM     10  C   UNL     1      10.315 -32.139 -29.166  1.00  0.00     0.039 C 
ENDBRANCH   6   7
ENDBRANCH   5   6
ENDBRANCH   3   5
ENDBRANCH   1   2
BRANCH   1  11
ATOM     11  C   UNL     1       9.928 -34.135 -32.243  1.00  0.00     0.034 C 
BRANCH  11  12
ATOM     12  C   UNL     1      10.630 -33.018 -32.987  1.00  0.00    -0.077 C 
ATOM     13  C   UNL     1       9.942 -32.283 -33.891  1.00  0.00    -0.028 C 
ATOM     14  C   UNL     1      12.074 -32.723 -32.652  1.00  0.00     0.039 C 
BRANCH  13  15
ATOM     15  C   UNL     1      10.532 -31.153 -34.703  1.00  0.00     0.035 C 
BRANCH  15  16
ATOM     16  C   UNL     1       9.974 -31.126 -36.131  1.00  0.00     0.079 C 
BRANCH  16  17
ATOM     17  C   UNL     1      10.281 -29.821 -36.821  1.00  0.00     0.130 C 
ATOM     18  O   UNL     1      10.289 -29.770 -38.042  1.00  0.00    -0.300 OA
ATOM     19  C   UNL     1      10.536 -28.572 -36.032  1.00  0.00     0.087 C 
ENDBRANCH  16  17
ENDBRANCH  15  16
ENDBRANCH  13  15
ENDBRANCH  11  12
ENDBRANCH   1  11
TORSDOF 9
ENDMDL
MODEL 4
REMARK VINA RESULT:    -5.126      3.050      4.501
REMARK INTER + INTRA:          -9.330
REMARK INTER:                  -8.923
REMARK INTRA:                  -0.408
REMARK UNBOUND:                -1.508
REMARK SMILES CC(=O)CCC=C(C)CCC=C(C)CCC=C(C)C
REMARK SMILES IDX 10 1 11 2 12 3 13 4 14 5 15 6 16 7 18 8 17 9 19 10 9 11 7 12
REMARK SMILES IDX 6 13 8 14 5 15 4 16 2 17 3 18 1 19
REMARK H PARENT
REMARK Flexibility Score: inf
ROOT
ATOM      1  C   UNL     1      12.460 -36.986 -30.556  1.00  0.00     0.032 C 
ENDROOT
BRANCH   1   2
ATOM      2  C   UNL     1      12.499 -35.792 -29.630  1.00  0.00    -0.028 C 
ATOM      3  C   UNL     1      13.361 -35.690 -28.595  1.00  0.00    -0.077 C 
ATOM      4  C   UNL     1      14.363 -36.779 -28.294  1.00  0.00     0.039 C 
BRANCH   3   5
ATOM      5  C   UNL     1      13.325 -34.456 -27.721  1.00  0.00     0.034 C 
BRANCH   5   6
ATOM      6  C   UNL     1      11.952 -34.301 -27.057  1.00  0.00     0.032 C 
BRANCH   6   7
ATOM      7  C   UNL     1      10.965 -33.667 -28.006  1.00  0.00    -0.028 C 
ATOM      8  C   UNL     1      12.617 -31.991 -28.865  1.00  0.00     0.039 C 
ATOM      9  C   UNL     1      11.255 -32.642 -28.839  1.00  0.00    -0.080 C 
ATOM     10  C   UNL     1      10.169 -32.131 -29.751  1.00  0.00     0.039 C 
ENDBRANCH   6   7
ENDBRANCH   5   6
ENDBRANCH   3   5
ENDBRANCH   1   2
BRANCH   1  11
ATOM     11  C   UNL     1      12.145 -36.589 -32.005  1.00  0.00     0.034 C 
BRANCH  11  12
ATOM     12  C   UNL     1      11.858 -35.107 -32.134  1.00  0.00    -0.077 C 
ATOM     13  C   UNL     1      12.885 -34.226 -32.143  1.00  0.00    -0.028 C 
ATOM     14  C   UNL     1      10.424 -34.661 -32.305  1.00  0.00     0.039 C 
BRANCH  13  15
ATOM     15  C   UNL     1      12.727 -32.728 -32.255  1.00  0.00     0.035 C 
BRANCH  15  16
ATOM     16  C   UNL     1      13.730 -32.121 -33.244  1.00  0.00     0.079 C 
BRANCH  16  17
ATOM     17  C   UNL     1      15.066 -31.868 -32.594  1.00  0.00     0.130 C 
ATOM     18  O   UNL     1      16.072 -32.384 -33.057  1.00  0.00    -0.300 OA
ATOM     19  C   UNL     1      15.187 -30.956 -31.409  1.00  0.00     0.087 C 
ENDBRANCH  16  17
ENDBRANCH  15  16
ENDBRANCH  13  15
ENDBRANCH  11  12
ENDBRANCH   1  11
TORSDOF 9
ENDMDL
MODEL 5
REMARK VINA RESULT:    -5.094      3.140      7.731
REMARK INTER + INTRA:          -9.282
REMARK INTER:                  -8.212
REMARK INTRA:                  -1.070
REMARK UNBOUND:                -1.508
REMARK SMILES CC(=O)CCC=C(C)CCC=C(C)CCC=C(C)C
REMARK SMILES IDX 10 1 11 2 12 3 13 4 14 5 15 6 16 7 18 8 17 9 19 10 9 11 7 12
REMARK SMILES IDX 6 13 8 14 5 15 4 16 2 17 3 18 1 19
REMARK H PARENT
REMARK Flexibility Score: inf
ROOT
ATOM      1  C   UNL     1      13.137 -32.521 -32.106  1.00  0.00     0.032 C 
ENDROOT
BRANCH   1   2
ATOM      2  C   UNL     1      12.145 -32.409 -33.240  1.00  0.00    -0.028 C 
ATOM      3  C   UNL     1      10.809 -32.485 -33.061  1.00  0.00    -0.077 C 
ATOM      4  C   UNL     1      10.207 -32.684 -31.690  1.00  0.00     0.039 C 
BRANCH   3   5
ATOM      5  C   UNL     1       9.893 -32.362 -34.260  1.00  0.00     0.034 C 
BRANCH   5   6
ATOM      6  C   UNL     1       9.876 -30.923 -34.785  1.00  0.00     0.032 C 
BRANCH   6   7
ATOM      7  C   UNL     1      10.544 -30.836 -36.135  1.00  0.00    -0.028 C 
ATOM      8  C   UNL     1      10.898 -28.360 -35.983  1.00  0.00     0.039 C 
ATOM      9  C   UNL     1      11.027 -29.695 -36.678  1.00  0.00    -0.080 C 
ATOM     10  C   UNL     1      11.695 -29.770 -38.026  1.00  0.00     0.039 C 
ENDBRANCH   6   7
ENDBRANCH   5   6
ENDBRANCH   3   5
ENDBRANCH   1   2
BRANCH   1  11
ATOM     11  C   UNL     1      13.857 -33.878 -32.092  1.00  0.00     0.034 C 
BRANCH  11  12
ATOM     12  C   UNL     1      13.296 -34.802 -31.032  1.00  0.00    -0.077 C 
ATOM     13  C   UNL     1      12.731 -34.278 -29.920  1.00  0.00    -0.028 C 
ATOM     14  C   UNL     1      13.338 -36.293 -31.278  1.00  0.00     0.039 C 
BRANCH  13  15
ATOM     15  C   UNL     1      12.149 -35.094 -28.790  1.00  0.00     0.035 C 
BRANCH  15  16
ATOM     16  C   UNL     1      11.239 -34.251 -27.887  1.00  0.00     0.079 C 
BRANCH  16  17
ATOM     17  C   UNL     1      11.955 -33.807 -26.638  1.00  0.00     0.130 C 
ATOM     18  O   UNL     1      11.389 -33.881 -25.557  1.00  0.00    -0.300 OA
ATOM     19  C   UNL     1      13.370 -33.312 -26.693  1.00  0.00     0.087 C 
ENDBRANCH  16  17
ENDBRANCH  15  16
ENDBRANCH  13  15
ENDBRANCH  11  12
ENDBRANCH   1  11
TORSDOF 9
ENDMDL
MODEL 6
REMARK VINA RESULT:    -5.084      4.463      6.095
REMARK INTER + INTRA:          -9.266
REMARK INTER:                  -8.127
REMARK INTRA:                  -1.140
REMARK UNBOUND:                -1.508
REMARK SMILES CC(=O)CCC=C(C)CCC=C(C)CCC=C(C)C
REMARK SMILES IDX 10 1 11 2 12 3 13 4 14 5 15 6 16 7 18 8 17 9 19 10 9 11 7 12
REMARK SMILES IDX 6 13 8 14 5 15 4 16 2 17 3 18 1 19
REMARK H PARENT
REMARK Flexibility Score: inf
ROOT
ATOM      1  C   UNL     1      12.727 -32.684 -32.321  1.00  0.00     0.032 C 
ENDROOT
BRANCH   1   2
ATOM      2  C   UNL     1      13.370 -33.854 -31.612  1.00  0.00    -0.028 C 
ATOM      3  C   UNL     1      12.774 -35.061 -31.491  1.00  0.00    -0.077 C 
ATOM      4  C   UNL     1      11.405 -35.326 -32.071  1.00  0.00     0.039 C 
BRANCH   3   5
ATOM      5  C   UNL     1      13.497 -36.173 -30.762  1.00  0.00     0.034 C 
BRANCH   5   6
ATOM      6  C   UNL     1      12.878 -36.407 -29.380  1.00  0.00     0.032 C 
BRANCH   6   7
ATOM      7  C   UNL     1      13.383 -35.391 -28.386  1.00  0.00    -0.028 C 
ATOM      8  C   UNL     1      11.265 -34.053 -28.431  1.00  0.00     0.039 C 
ATOM      9  C   UNL     1      12.662 -34.340 -27.934  1.00  0.00    -0.080 C 
ATOM     10  C   UNL     1      13.293 -33.423 -26.918  1.00  0.00     0.039 C 
ENDBRANCH   6   7
ENDBRANCH   5   6
ENDBRANCH   3   5
ENDBRANCH   1   2
BRANCH   1  11
ATOM     11  C   UNL     1      13.644 -32.077 -33.391  1.00  0.00     0.034 C 
BRANCH  11  12
ATOM     12  C   UNL     1      15.096 -32.085 -32.961  1.00  0.00    -0.077 C 
ATOM     13  C   UNL     1      15.983 -32.868 -33.618  1.00  0.00    -0.028 C 
ATOM     14  C   UNL     1      15.521 -31.169 -31.836  1.00  0.00     0.039 C 
BRANCH  13  15
ATOM     15  C   UNL     1      17.451 -32.971 -33.276  1.00  0.00     0.035 C 
BRANCH  15  16
ATOM     16  C   UNL     1      18.272 -33.524 -34.448  1.00  0.00     0.079 C 
BRANCH  16  17
ATOM     17  C   UNL     1      19.729 -33.661 -34.089  1.00  0.00     0.130 C 
ATOM     18  O   UNL     1      20.067 -34.457 -33.225  1.00  0.00    -0.300 OA
ATOM     19  C   UNL     1      20.779 -32.864 -34.805  1.00  0.00     0.087 C 
ENDBRANCH  16  17
ENDBRANCH  15  16
ENDBRANCH  13  15
ENDBRANCH  11  12
ENDBRANCH   1  11
TORSDOF 9
ENDMDL
MODEL 7
REMARK VINA RESULT:    -5.020      2.463      7.233
REMARK INTER + INTRA:          -9.170
REMARK INTER:                  -8.604
REMARK INTRA:                  -0.566
REMARK UNBOUND:                -1.508
REMARK SMILES CC(=O)CCC=C(C)CCC=C(C)CCC=C(C)C
REMARK SMILES IDX 10 1 11 2 12 3 13 4 14 5 15 6 16 7 18 8 17 9 19 10 9 11 7 12
REMARK SMILES IDX 6 13 8 14 5 15 4 16 2 17 3 18 1 19
REMARK H PARENT
REMARK Flexibility Score: inf
ROOT
ATOM      1  C   UNL     1      10.820 -32.345 -29.887  1.00  0.00     0.032 C 
ENDROOT
BRANCH   1   2
ATOM      2  C   UNL     1      10.122 -32.448 -31.224  1.00  0.00    -0.028 C 
ATOM      3  C   UNL     1      10.776 -32.694 -32.380  1.00  0.00    -0.077 C 
ATOM      4  C   UNL     1      12.273 -32.890 -32.412  1.00  0.00     0.039 C 
BRANCH   3   5
ATOM      5  C   UNL     1       9.990 -32.779 -33.670  1.00  0.00     0.034 C 
BRANCH   5   6
ATOM      6  C   UNL     1       9.875 -31.399 -34.328  1.00  0.00     0.032 C 
BRANCH   6   7
ATOM      7  C   UNL     1       9.952 -31.512 -35.830  1.00  0.00    -0.028 C 
ATOM      8  C   UNL     1      11.190 -29.350 -36.093  1.00  0.00     0.039 C 
ATOM      9  C   UNL     1      10.558 -30.610 -36.635  1.00  0.00    -0.080 C 
ATOM     10  C   UNL     1      10.577 -30.873 -38.118  1.00  0.00     0.039 C 
ENDBRANCH   6   7
ENDBRANCH   5   6
ENDBRANCH   3   5
ENDBRANCH   1   2
BRANCH   1  11
ATOM     11  C   UNL     1      10.306 -33.384 -28.880  1.00  0.00     0.034 C 
BRANCH  11  12
ATOM     12  C   UNL     1      11.440 -34.165 -28.248  1.00  0.00    -0.077 C 
ATOM     13  C   UNL     1      12.199 -34.980 -29.017  1.00  0.00    -0.028 C 
ATOM     14  C   UNL     1      11.723 -33.965 -26.777  1.00  0.00     0.039 C 
BRANCH  13  15
ATOM     15  C   UNL     1      13.347 -35.817 -28.504  1.00  0.00     0.035 C 
BRANCH  15  16
ATOM     16  C   UNL     1      13.905 -36.746 -29.589  1.00  0.00     0.079 C 
BRANCH  16  17
ATOM     17  C   UNL     1      13.318 -36.435 -30.941  1.00  0.00     0.130 C 
ATOM     18  O   UNL     1      13.792 -35.530 -31.612  1.00  0.00    -0.300 OA
ATOM     19  C   UNL     1      12.185 -37.245 -31.497  1.00  0.00     0.087 C 
ENDBRANCH  16  17
ENDBRANCH  15  16
ENDBRANCH  13  15
ENDBRANCH  11  12
ENDBRANCH   1  11
TORSDOF 9
ENDMDL
MODEL 8
REMARK VINA RESULT:    -4.949      3.158      6.238
REMARK INTER + INTRA:          -9.060
REMARK INTER:                  -8.203
REMARK INTRA:                  -0.857
REMARK UNBOUND:                -1.508
REMARK SMILES CC(=O)CCC=C(C)CCC=C(C)CCC=C(C)C
REMARK SMILES IDX 10 1 11 2 12 3 13 4 14 5 15 6 16 7 18 8 17 9 19 10 9 11 7 12
REMARK SMILES IDX 6 13 8 14 5 15 4 16 2 17 3 18 1 19
REMARK H PARENT
REMARK Flexibility Score: inf
ROOT
ATOM      1  C   UNL     1      12.130 -36.811 -31.449  1.00  0.00     0.032 C 
ENDROOT
BRANCH   1   2
ATOM      2  C   UNL     1      12.032 -35.475 -32.150  1.00  0.00    -0.028 C 
ATOM      3  C   UNL     1      11.008 -34.615 -31.957  1.00  0.00    -0.077 C 
ATOM      4  C   UNL     1       9.878 -34.934 -31.008  1.00  0.00     0.039 C 
BRANCH   3   5
ATOM      5  C   UNL     1      10.997 -33.300 -32.705  1.00  0.00     0.034 C 
BRANCH   5   6
ATOM      6  C   UNL     1      12.122 -32.383 -32.211  1.00  0.00     0.032 C 
BRANCH   6   7
ATOM      7  C   UNL     1      13.436 -32.753 -32.851  1.00  0.00    -0.028 C 
ATOM      8  C   UNL     1      14.773 -31.247 -31.360  1.00  0.00     0.039 C 
ATOM      9  C   UNL     1      14.638 -32.267 -32.467  1.00  0.00    -0.080 C 
ATOM     10  C   UNL     1      15.870 -32.751 -33.186  1.00  0.00     0.039 C 
ENDBRANCH   6   7
ENDBRANCH   5   6
ENDBRANCH   3   5
ENDBRANCH   1   2
BRANCH   1  11
ATOM     11  C   UNL     1      13.502 -37.026 -30.796  1.00  0.00     0.034 C 
BRANCH  11  12
ATOM     12  C   UNL     1      13.556 -36.454 -29.395  1.00  0.00    -0.077 C 
ATOM     13  C   UNL     1      12.911 -35.297 -29.121  1.00  0.00    -0.028 C 
ATOM     14  C   UNL     1      14.291 -37.230 -28.325  1.00  0.00     0.039 C 
BRANCH  13  15
ATOM     15  C   UNL     1      12.899 -34.622 -27.769  1.00  0.00     0.035 C 
BRANCH  15  16
ATOM     16  C   UNL     1      11.639 -33.772 -27.567  1.00  0.00     0.079 C 
BRANCH  16  17
ATOM     17  C   UNL     1      11.585 -32.621 -28.537  1.00  0.00     0.130 C 
ATOM     18  O   UNL     1      12.613 -32.028 -28.830  1.00  0.00    -0.300 OA
ATOM     19  C   UNL     1      10.294 -32.214 -29.183  1.00  0.00     0.087 C 
ENDBRANCH  16  17
ENDBRANCH  15  16
ENDBRANCH  13  15
ENDBRANCH  11  12
ENDBRANCH   1  11
TORSDOF 9
ENDMDL
