MODEL 1
REMARK VINA RESULT:    -5.784      0.000      0.000
REMARK INTER + INTRA:          -5.784
REMARK INTER:                  -5.784
REMARK INTRA:                   0.000
REMARK UNBOUND:                 0.000
REMARK SMILES O=c1ccc2ccccc2o1
REMARK SMILES IDX 7 1 8 2 9 3 10 4 5 5 6 6 4 7 3 8 2 9 1 10 11 11
REMARK H PARENT
REMARK Flexibility Score: inf
ROOT
ATOM      1  C   UNL     1      35.960  31.052  24.097  1.00  0.00     0.001 A 
ATOM      2  C   UNL     1      34.997  30.835  23.105  1.00  0.00     0.004 A 
ATOM      3  C   UNL     1      34.201  29.686  23.138  1.00  0.00     0.048 A 
ATOM      4  C   UNL     1      34.366  28.749  24.163  1.00  0.00     0.138 A 
ATOM      5  C   UNL     1      35.339  28.967  25.164  1.00  0.00     0.018 A 
ATOM      6  C   UNL     1      36.134  30.121  25.126  1.00  0.00     0.012 A 
ATOM      7  C   UNL     1      35.480  28.012  26.176  1.00  0.00     0.019 A 
ATOM      8  C   UNL     1      34.664  26.882  26.169  1.00  0.00     0.094 A 
ATOM      9  C   UNL     1      33.722  26.731  25.145  1.00  0.00     0.336 A 
ATOM     10  O   UNL     1      32.977  25.717  25.121  1.00  0.00    -0.246 OA
ATOM     11  O   UNL     1      33.608  27.655  24.194  1.00  0.00    -0.423 OA
ENDROOT
TORSDOF 0
ENDMDL
MODEL 2
REMARK VINA RESULT:    -5.556      2.337      5.080
REMARK INTER + INTRA:          -5.556
REMARK INTER:                  -5.556
REMARK INTRA:                   0.000
REMARK UNBOUND:                 0.000
REMARK SMILES O=c1ccc2ccccc2o1
REMARK SMILES IDX 7 1 8 2 9 3 10 4 5 5 6 6 4 7 3 8 2 9 1 10 11 11
REMARK H PARENT
REMARK Flexibility Score: inf
ROOT
ATOM      1  C   UNL     1      34.801  23.266  27.846  1.00  0.00     0.001 A 
ATOM      2  C   UNL     1      33.731  22.908  27.019  1.00  0.00     0.004 A 
ATOM      3  C   UNL     1      33.199  23.834  26.116  1.00  0.00     0.048 A 
ATOM      4  C   UNL     1      33.737  25.124  26.037  1.00  0.00     0.138 A 
ATOM      5  C   UNL     1      34.817  25.486  26.873  1.00  0.00     0.018 A 
ATOM      6  C   UNL     1      35.345  24.553  27.777  1.00  0.00     0.012 A 
ATOM      7  C   UNL     1      35.333  26.782  26.772  1.00  0.00     0.019 A 
ATOM      8  C   UNL     1      34.772  27.672  25.857  1.00  0.00     0.094 A 
ATOM      9  C   UNL     1      33.703  27.244  25.062  1.00  0.00     0.336 A 
ATOM     10  O   UNL     1      33.183  28.033  24.231  1.00  0.00    -0.246 OA
ATOM     11  O   UNL     1      33.231  26.005  25.178  1.00  0.00    -0.423 OA
ENDROOT
TORSDOF 0
ENDMDL
MODEL 3
REMARK VINA RESULT:    -5.283     10.471     12.286
REMARK INTER + INTRA:          -5.283
REMARK INTER:                  -5.283
REMARK INTRA:                   0.000
REMARK UNBOUND:                 0.000
REMARK SMILES O=c1ccc2ccccc2o1
REMARK SMILES IDX 7 1 8 2 9 3 10 4 5 5 6 6 4 7 3 8 2 9 1 10 11 11
REMARK H PARENT
REMARK Flexibility Score: inf
ROOT
ATOM      1  C   UNL     1      32.949  20.330  35.453  1.00  0.00     0.001 A 
ATOM      2  C   UNL     1      33.852  21.292  35.918  1.00  0.00     0.004 A 
ATOM      3  C   UNL     1      33.681  22.638  35.581  1.00  0.00     0.048 A 
ATOM      4  C   UNL     1      32.605  23.027  34.776  1.00  0.00     0.138 A 
ATOM      5  C   UNL     1      31.693  22.056  34.305  1.00  0.00     0.018 A 
ATOM      6  C   UNL     1      31.870  20.708  34.647  1.00  0.00     0.012 A 
ATOM      7  C   UNL     1      30.628  22.475  33.502  1.00  0.00     0.019 A 
ATOM      8  C   UNL     1      30.496  23.828  33.191  1.00  0.00     0.094 A 
ATOM      9  C   UNL     1      31.438  24.734  33.692  1.00  0.00     0.336 A 
ATOM     10  O   UNL     1      31.336  25.959  33.422  1.00  0.00    -0.246 OA
ATOM     11  O   UNL     1      32.442  24.309  34.455  1.00  0.00    -0.423 OA
ENDROOT
TORSDOF 0
ENDMDL
MODEL 4
REMARK VINA RESULT:    -4.983      1.515      2.272
REMARK INTER + INTRA:          -4.983
REMARK INTER:                  -4.983
REMARK INTRA:                   0.000
REMARK UNBOUND:                 0.000
REMARK SMILES O=c1ccc2ccccc2o1
REMARK SMILES IDX 7 1 8 2 9 3 10 4 5 5 6 6 4 7 3 8 2 9 1 10 11 11
REMARK H PARENT
REMARK Flexibility Score: inf
ROOT
ATOM      1  C   UNL     1      34.972  30.819  23.149  1.00  0.00     0.001 A 
ATOM      2  C   UNL     1      36.030  31.127  24.011  1.00  0.00     0.004 A 
ATOM      3  C   UNL     1      36.350  30.269  25.067  1.00  0.00     0.048 A 
ATOM      4  C   UNL     1      35.611  29.097  25.266  1.00  0.00     0.138 A 
ATOM      5  C   UNL     1      34.542  28.786  24.396  1.00  0.00     0.018 A 
ATOM      6  C   UNL     1      34.226  29.650  23.339  1.00  0.00     0.012 A 
ATOM      7  C   UNL     1      33.822  27.608  24.621  1.00  0.00     0.019 A 
ATOM      8  C   UNL     1      34.176  26.782  25.687  1.00  0.00     0.094 A 
ATOM      9  C   UNL     1      35.247  27.155  26.507  1.00  0.00     0.336 A 
ATOM     10  O   UNL     1      35.581  26.422  27.475  1.00  0.00    -0.246 OA
ATOM     11  O   UNL     1      35.916  28.280  26.272  1.00  0.00    -0.423 OA
ENDROOT
TORSDOF 0
ENDMDL
MODEL 5
REMARK VINA RESULT:    -4.885     12.862     14.000
REMARK INTER + INTRA:          -4.885
REMARK INTER:                  -4.885
REMARK INTRA:                   0.000
REMARK UNBOUND:                 0.000
REMARK SMILES O=c1ccc2ccccc2o1
REMARK SMILES IDX 7 1 8 2 9 3 10 4 5 5 6 6 4 7 3 8 2 9 1 10 11 11
REMARK H PARENT
REMARK Flexibility Score: inf
ROOT
ATOM      1  C   UNL     1      22.996  19.347  24.599  1.00  0.00     0.001 A 
ATOM      2  C   UNL     1      22.620  20.689  24.723  1.00  0.00     0.004 A 
ATOM      3  C   UNL     1      22.981  21.614  23.739  1.00  0.00     0.048 A 
ATOM      4  C   UNL     1      23.720  21.200  22.625  1.00  0.00     0.138 A 
ATOM      5  C   UNL     1      24.101  19.845  22.500  1.00  0.00     0.018 A 
ATOM      6  C   UNL     1      23.736  18.922  23.491  1.00  0.00     0.012 A 
ATOM      7  C   UNL     1      24.839  19.461  21.377  1.00  0.00     0.019 A 
ATOM      8  C   UNL     1      25.176  20.418  20.420  1.00  0.00     0.094 A 
ATOM      9  C   UNL     1      24.766  21.742  20.611  1.00  0.00     0.336 A 
ATOM     10  O   UNL     1      25.061  22.620  19.758  1.00  0.00    -0.246 OA
ATOM     11  O   UNL     1      24.064  22.081  21.688  1.00  0.00    -0.423 OA
ENDROOT
TORSDOF 0
ENDMDL
MODEL 6
REMARK VINA RESULT:    -4.856      1.242      2.581
REMARK INTER + INTRA:          -4.856
REMARK INTER:                  -4.856
REMARK INTRA:                   0.000
REMARK UNBOUND:                 0.000
REMARK SMILES O=c1ccc2ccccc2o1
REMARK SMILES IDX 7 1 8 2 9 3 10 4 5 5 6 6 4 7 3 8 2 9 1 10 11 11
REMARK H PARENT
REMARK Flexibility Score: inf
ROOT
ATOM      1  C   UNL     1      37.070  30.876  26.089  1.00  0.00     0.001 A 
ATOM      2  C   UNL     1      37.128  29.958  27.143  1.00  0.00     0.004 A 
ATOM      3  C   UNL     1      36.331  28.810  27.120  1.00  0.00     0.048 A 
ATOM      4  C   UNL     1      35.472  28.575  26.041  1.00  0.00     0.138 A 
ATOM      5  C   UNL     1      35.413  29.502  24.976  1.00  0.00     0.018 A 
ATOM      6  C   UNL     1      36.214  30.652  25.005  1.00  0.00     0.012 A 
ATOM      7  C   UNL     1      34.544  29.240  23.912  1.00  0.00     0.019 A 
ATOM      8  C   UNL     1      33.769  28.081  23.931  1.00  0.00     0.094 A 
ATOM      9  C   UNL     1      33.879  27.209  25.019  1.00  0.00     0.336 A 
ATOM     10  O   UNL     1      33.187  26.158  25.054  1.00  0.00    -0.246 OA
ATOM     11  O   UNL     1      34.713  27.481  26.019  1.00  0.00    -0.423 OA
ENDROOT
TORSDOF 0
ENDMDL
MODEL 7
REMARK VINA RESULT:    -4.788      1.921      4.317
REMARK INTER + INTRA:          -4.788
REMARK INTER:                  -4.788
REMARK INTRA:                   0.000
REMARK UNBOUND:                 0.000
REMARK SMILES O=c1ccc2ccccc2o1
REMARK SMILES IDX 7 1 8 2 9 3 10 4 5 5 6 6 4 7 3 8 2 9 1 10 11 11
REMARK H PARENT
REMARK Flexibility Score: inf
ROOT
ATOM      1  C   UNL     1      34.605  25.805  26.546  1.00  0.00     0.001 A 
ATOM      2  C   UNL     1      35.635  26.463  27.227  1.00  0.00     0.004 A 
ATOM      3  C   UNL     1      36.064  27.725  26.804  1.00  0.00     0.048 A 
ATOM      4  C   UNL     1      35.463  28.334  25.697  1.00  0.00     0.138 A 
ATOM      5  C   UNL     1      34.423  27.670  25.008  1.00  0.00     0.018 A 
ATOM      6  C   UNL     1      33.998  26.405  25.437  1.00  0.00     0.012 A 
ATOM      7  C   UNL     1      33.843  28.304  23.905  1.00  0.00     0.019 A 
ATOM      8  C   UNL     1      34.302  29.563  23.519  1.00  0.00     0.094 A 
ATOM      9  C   UNL     1      35.336  30.160  24.248  1.00  0.00     0.336 A 
ATOM     10  O   UNL     1      35.764  31.296  23.915  1.00  0.00    -0.246 OA
ATOM     11  O   UNL     1      35.871  29.536  25.294  1.00  0.00    -0.423 OA
ENDROOT
TORSDOF 0
ENDMDL
MODEL 8
REMARK VINA RESULT:    -4.708     14.086     15.524
REMARK INTER + INTRA:          -4.708
REMARK INTER:                  -4.708
REMARK INTRA:                   0.000
REMARK UNBOUND:                 0.000
REMARK SMILES O=c1ccc2ccccc2o1
REMARK SMILES IDX 7 1 8 2 9 3 10 4 5 5 6 6 4 7 3 8 2 9 1 10 11 11
REMARK H PARENT
REMARK Flexibility Score: inf
ROOT
ATOM      1  C   UNL     1      21.808  19.075  23.593  1.00  0.00     0.001 A 
ATOM      2  C   UNL     1      22.999  19.809  23.598  1.00  0.00     0.004 A 
ATOM      3  C   UNL     1      23.366  20.548  24.726  1.00  0.00     0.048 A 
ATOM      4  C   UNL     1      22.540  20.557  25.856  1.00  0.00     0.138 A 
ATOM      5  C   UNL     1      21.336  19.817  25.852  1.00  0.00     0.018 A 
ATOM      6  C   UNL     1      20.975  19.078  24.717  1.00  0.00     0.012 A 
ATOM      7  C   UNL     1      20.532  19.846  26.995  1.00  0.00     0.019 A 
ATOM      8  C   UNL     1      20.937  20.598  28.098  1.00  0.00     0.094 A 
ATOM      9  C   UNL     1      22.142  21.306  28.030  1.00  0.00     0.336 A 
ATOM     10  O   UNL     1      22.524  21.990  29.016  1.00  0.00    -0.246 OA
ATOM     11  O   UNL     1      22.889  21.262  26.931  1.00  0.00    -0.423 OA
ENDROOT
TORSDOF 0
ENDMDL
MODEL 9
REMARK VINA RESULT:    -4.699     10.812     12.277
REMARK INTER + INTRA:          -4.699
REMARK INTER:                  -4.699
REMARK INTRA:                   0.000
REMARK UNBOUND:                 0.000
REMARK SMILES O=c1ccc2ccccc2o1
REMARK SMILES IDX 7 1 8 2 9 3 10 4 5 5 6 6 4 7 3 8 2 9 1 10 11 11
REMARK H PARENT
REMARK Flexibility Score: inf
ROOT
ATOM      1  C   UNL     1      32.708  19.377  34.432  1.00  0.00     0.001 A 
ATOM      2  C   UNL     1      31.519  19.292  33.701  1.00  0.00     0.004 A 
ATOM      3  C   UNL     1      30.837  20.455  33.329  1.00  0.00     0.048 A 
ATOM      4  C   UNL     1      31.344  21.709  33.688  1.00  0.00     0.138 A 
ATOM      5  C   UNL     1      32.545  21.795  34.427  1.00  0.00     0.018 A 
ATOM      6  C   UNL     1      33.224  20.625  34.797  1.00  0.00     0.012 A 
ATOM      7  C   UNL     1      33.027  23.062  34.772  1.00  0.00     0.019 A 
ATOM      8  C   UNL     1      32.314  24.195  34.379  1.00  0.00     0.094 A 
ATOM      9  C   UNL     1      31.132  24.033  33.650  1.00  0.00     0.336 A 
ATOM     10  O   UNL     1      30.475  25.044  33.287  1.00  0.00    -0.246 OA
ATOM     11  O   UNL     1      30.695  22.816  33.335  1.00  0.00    -0.423 OA
ENDROOT
TORSDOF 0
ENDMDL
