MODEL 1
REMARK VINA RESULT:    -3.176      0.000      0.000
REMARK INTER + INTRA:          -5.115
REMARK INTER:                  -4.847
REMARK INTRA:                  -0.268
REMARK UNBOUND:                -0.268
REMARK SMILES CC1=CCC[C@@H](C)C(=O)C[C@H](C(C)C)C(=O)C1
REMARK SMILES IDX 8 1 9 2 6 3 7 4 5 5 4 6 3 7 2 8 1 9 10 11 11 12 15 13 16 14
REMARK SMILES IDX 17 15 12 17 13 18 14 19
REMARK H PARENT
REMARK Flexibility Score: 70.00
ROOT
ATOM      1  C   UNL     1      67.932  66.934  29.558  1.00  0.00     0.136 C 
ATOM      2  O   UNL     1      67.995  65.764  29.908  1.00  0.00    -0.299 OA
ENDROOT
BRANCH   1   3
ATOM      3  C   UNL     1      67.772  67.279  28.091  1.00  0.00     0.053 C 
ATOM      4  C   UNL     1      66.472  66.666  27.565  1.00  0.00     0.016 C 
BRANCH   3   5
ATOM      5  C   UNL     1      68.974  66.789  27.251  1.00  0.00     0.015 C 
BRANCH   5   6
ATOM      6  C   UNL     1      70.275  67.549  27.552  1.00  0.00     0.028 C 
BRANCH   6   7
ATOM      7  C   UNL     1      70.037  69.038  27.618  1.00  0.00    -0.028 C 
ATOM      8  C   UNL     1      70.358  69.843  28.658  1.00  0.00    -0.070 CG0
ATOM      9  C   UNL     1      70.090  71.323  28.545  1.00  0.00     0.039 C 
ATOM     10  G   UNL     1      71.037  69.346  29.918  1.00  0.00     0.000 G0
ENDBRANCH   6   7
ENDBRANCH   5   6
ENDBRANCH   3   5
ENDBRANCH   1   3
BRANCH   1  11
ATOM     11  C   UNL     1      67.979  68.013  30.609  1.00  0.00     0.087 C 
BRANCH  11  12
ATOM     12  C   UNL     1      69.315  67.993  31.398  1.00  0.00     0.066 C 
BRANCH  12  13
ATOM     13  C   UNL     1      70.091  69.268  31.102  1.00  0.00     0.140 C 
ATOM     14  O   UNL     1      70.004  70.215  31.871  1.00  0.00    -0.299 OA
BRANCH  13  15
ATOM     15  C   UNL     1      71.044  69.357  29.936  1.00  0.00     0.106 CG0
ATOM     16  G   UNL     1      70.343  69.851  28.688  1.00  0.00     0.000 G0
ENDBRANCH  13  15
ENDBRANCH  12  13
BRANCH  12  17
ATOM     17  C   UNL     1      69.094  67.834  32.939  1.00  0.00    -0.006 C 
ATOM     18  C   UNL     1      70.177  66.937  33.572  1.00  0.00     0.008 C 
ATOM     19  C   UNL     1      67.711  67.240  33.271  1.00  0.00     0.008 C 
ENDBRANCH  12  17
ENDBRANCH  11  12
ENDBRANCH   1  11
TORSDOF 1
ENDMDL
MODEL 2
REMARK VINA RESULT:    -3.093      8.086     10.701
REMARK INTER + INTRA:          -4.988
REMARK INTER:                  -4.674
REMARK INTRA:                  -0.314
REMARK UNBOUND:                -0.268
REMARK SMILES CC1=CCC[C@@H](C)C(=O)C[C@H](C(C)C)C(=O)C1
REMARK SMILES IDX 8 1 9 2 6 3 7 4 5 5 4 6 3 7 2 8 1 9 10 11 11 12 15 13 16 14
REMARK SMILES IDX 17 15 12 17 13 18 14 19
REMARK H PARENT
REMARK Flexibility Score: 70.00
ROOT
ATOM      1  C   UNL     1      66.845  67.572  41.153  1.00  0.00     0.136 C 
ATOM      2  O   UNL     1      66.485  67.089  42.217  1.00  0.00    -0.299 OA
ENDROOT
BRANCH   1   3
ATOM      3  C   UNL     1      66.140  67.184  39.869  1.00  0.00     0.053 C 
ATOM      4  C   UNL     1      64.690  67.673  39.918  1.00  0.00     0.016 C 
BRANCH   3   5
ATOM      5  C   UNL     1      66.184  65.658  39.627  1.00  0.00     0.015 C 
BRANCH   5   6
ATOM      6  C   UNL     1      67.598  65.129  39.343  1.00  0.00     0.028 C 
BRANCH   6   7
ATOM      7  C   UNL     1      68.219  65.830  38.160  1.00  0.00    -0.028 C 
ATOM      8  C   UNL     1      69.414  66.468  38.159  1.00  0.00    -0.070 CG0
ATOM      9  C   UNL     1      69.911  67.083  36.874  1.00  0.00     0.039 C 
ATOM     10  G   UNL     1      70.318  66.546  39.371  1.00  0.00     0.000 G0
ENDBRANCH   6   7
ENDBRANCH   5   6
ENDBRANCH   3   5
ENDBRANCH   1   3
BRANCH   1  11
ATOM     11  C   UNL     1      67.968  68.577  41.152  1.00  0.00     0.087 C 
BRANCH  11  12
ATOM     12  C   UNL     1      69.342  67.908  41.417  1.00  0.00     0.066 C 
BRANCH  12  13
ATOM     13  C   UNL     1      70.132  67.853  40.118  1.00  0.00     0.140 C 
ATOM     14  O   UNL     1      70.684  68.865  39.708  1.00  0.00    -0.299 OA
BRANCH  13  15
ATOM     15  C   UNL     1      70.337  66.557  39.375  1.00  0.00     0.106 CG0
ATOM     16  G   UNL     1      69.419  66.459  38.175  1.00  0.00     0.000 G0
ENDBRANCH  13  15
ENDBRANCH  12  13
BRANCH  12  17
ATOM     17  C   UNL     1      70.162  68.651  42.523  1.00  0.00    -0.006 C 
ATOM     18  C   UNL     1      71.313  67.774  43.055  1.00  0.00     0.008 C 
ATOM     19  C   UNL     1      69.281  69.076  43.715  1.00  0.00     0.008 C 
ENDBRANCH  12  17
ENDBRANCH  11  12
ENDBRANCH   1  11
TORSDOF 1
ENDMDL
MODEL 3
REMARK VINA RESULT:    -2.736     10.058     12.210
REMARK INTER + INTRA:          -4.443
REMARK INTER:                  -4.616
REMARK INTRA:                   0.173
REMARK UNBOUND:                -0.268
REMARK SMILES CC1=CCC[C@@H](C)C(=O)C[C@H](C(C)C)C(=O)C1
REMARK SMILES IDX 8 1 9 2 6 3 7 4 5 5 4 6 3 7 2 8 1 9 10 11 11 12 15 13 16 14
REMARK SMILES IDX 17 15 12 17 13 18 14 19
REMARK H PARENT
REMARK Flexibility Score: 70.00
ROOT
ATOM      1  C   UNL     1      69.382  68.395  39.865  1.00  0.00     0.136 C 
ATOM      2  O   UNL     1      69.679  69.411  40.478  1.00  0.00    -0.299 OA
ENDROOT
BRANCH   1   3
ATOM      3  C   UNL     1      70.470  67.528  39.264  1.00  0.00     0.053 C 
ATOM      4  C   UNL     1      69.830  66.352  38.522  1.00  0.00     0.016 C 
BRANCH   3   5
ATOM      5  C   UNL     1      71.454  67.013  40.340  1.00  0.00     0.015 C 
BRANCH   5   6
ATOM      6  C   UNL     1      70.780  66.146  41.414  1.00  0.00     0.028 C 
BRANCH   6   7
ATOM      7  C   UNL     1      70.789  66.833  42.758  1.00  0.00    -0.028 C 
ATOM      8  C   UNL     1      69.710  67.025  43.553  1.00  0.00    -0.070 CG0
ATOM      9  C   UNL     1      69.901  67.694  44.892  1.00  0.00     0.039 C 
ATOM     10  G   UNL     1      68.318  66.545  43.199  1.00  0.00     0.000 G0
ENDBRANCH   6   7
ENDBRANCH   5   6
ENDBRANCH   3   5
ENDBRANCH   1   3
BRANCH   1  11
ATOM     11  C   UNL     1      67.930  68.010  39.752  1.00  0.00     0.087 C 
BRANCH  11  12
ATOM     12  C   UNL     1      67.564  66.850  40.714  1.00  0.00     0.066 C 
BRANCH  12  13
ATOM     13  C   UNL     1      67.646  67.344  42.150  1.00  0.00     0.140 C 
ATOM     14  O   UNL     1      67.091  68.390  42.458  1.00  0.00    -0.299 OA
BRANCH  13  15
ATOM     15  C   UNL     1      68.310  66.525  43.228  1.00  0.00     0.106 CG0
ATOM     16  G   UNL     1      69.694  67.052  43.546  1.00  0.00     0.000 G0
ENDBRANCH  13  15
ENDBRANCH  12  13
BRANCH  12  17
ATOM     17  C   UNL     1      66.144  66.260  40.421  1.00  0.00    -0.006 C 
ATOM     18  C   UNL     1      66.219  65.085  39.424  1.00  0.00     0.008 C 
ATOM     19  C   UNL     1      65.178  67.319  39.856  1.00  0.00     0.008 C 
ENDBRANCH  12  17
ENDBRANCH  11  12
ENDBRANCH   1  11
TORSDOF 1
ENDMDL
MODEL 4
REMARK VINA RESULT:    -2.615      9.067     10.707
REMARK INTER + INTRA:          -4.258
REMARK INTER:                  -4.412
REMARK INTRA:                   0.154
REMARK UNBOUND:                -0.268
REMARK SMILES CC1=CCC[C@@H](C)C(=O)C[C@H](C(C)C)C(=O)C1
REMARK SMILES IDX 8 1 9 2 6 3 7 4 5 5 4 6 3 7 2 8 1 9 10 11 11 12 15 13 16 14
REMARK SMILES IDX 17 15 12 17 13 18 14 19
REMARK H PARENT
REMARK Flexibility Score: 70.00
ROOT
ATOM      1  C   UNL     1      68.344  66.280  38.185  1.00  0.00     0.136 C 
ATOM      2  O   UNL     1      69.087  66.629  37.278  1.00  0.00    -0.299 OA
ENDROOT
BRANCH   1   3
ATOM      3  C   UNL     1      68.286  64.823  38.598  1.00  0.00     0.053 C 
ATOM      4  C   UNL     1      66.868  64.484  39.065  1.00  0.00     0.016 C 
BRANCH   3   5
ATOM      5  C   UNL     1      69.309  64.500  39.711  1.00  0.00     0.015 C 
BRANCH   5   6
ATOM      6  C   UNL     1      70.676  65.168  39.492  1.00  0.00     0.028 C 
BRANCH   6   7
ATOM      7  C   UNL     1      71.175  65.822  40.756  1.00  0.00    -0.028 C 
ATOM      8  C   UNL     1      71.089  67.142  41.048  1.00  0.00    -0.070 CG0
ATOM      9  C   UNL     1      71.601  67.628  42.382  1.00  0.00     0.039 C 
ATOM     10  G   UNL     1      70.445  68.158  40.130  1.00  0.00     0.000 G0
ENDBRANCH   6   7
ENDBRANCH   5   6
ENDBRANCH   3   5
ENDBRANCH   1   3
BRANCH   1  11
ATOM     11  C   UNL     1      67.525  67.323  38.899  1.00  0.00     0.087 C 
BRANCH  11  12
ATOM     12  C   UNL     1      67.933  67.459  40.389  1.00  0.00     0.066 C 
BRANCH  12  13
ATOM     13  C   UNL     1      69.040  68.496  40.512  1.00  0.00     0.140 C 
ATOM     14  O   UNL     1      68.791  69.582  41.017  1.00  0.00    -0.299 OA
BRANCH  13  15
ATOM     15  C   UNL     1      70.461  68.181  40.120  1.00  0.00     0.106 CG0
ATOM     16  G   UNL     1      71.071  67.147  41.042  1.00  0.00     0.000 G0
ENDBRANCH  13  15
ENDBRANCH  12  13
BRANCH  12  17
ATOM     17  C   UNL     1      66.723  67.841  41.305  1.00  0.00    -0.006 C 
ATOM     18  C   UNL     1      66.863  67.218  42.709  1.00  0.00     0.008 C 
ATOM     19  C   UNL     1      65.375  67.397  40.705  1.00  0.00     0.008 C 
ENDBRANCH  12  17
ENDBRANCH  11  12
ENDBRANCH   1  11
TORSDOF 1
ENDMDL
MODEL 5
REMARK VINA RESULT:    -2.604      8.484     11.331
REMARK INTER + INTRA:          -4.242
REMARK INTER:                  -4.863
REMARK INTRA:                   0.620
REMARK UNBOUND:                -0.268
REMARK SMILES CC1=CCC[C@@H](C)C(=O)C[C@H](C(C)C)C(=O)C1
REMARK SMILES IDX 8 1 9 2 6 3 7 4 5 5 4 6 3 7 2 8 1 9 10 11 11 12 15 13 16 14
REMARK SMILES IDX 17 15 12 17 13 18 14 19
REMARK H PARENT
REMARK Flexibility Score: 70.00
ROOT
ATOM      1  C   UNL     1      66.674  65.962  39.815  1.00  0.00     0.136 C 
ATOM      2  O   UNL     1      66.649  64.755  40.012  1.00  0.00    -0.299 OA
ENDROOT
BRANCH   1   3
ATOM      3  C   UNL     1      65.832  66.886  40.671  1.00  0.00     0.053 C 
ATOM      4  C   UNL     1      64.703  67.477  39.821  1.00  0.00     0.016 C 
BRANCH   3   5
ATOM      5  C   UNL     1      66.677  68.017  41.300  1.00  0.00     0.015 C 
BRANCH   5   6
ATOM      6  C   UNL     1      67.437  67.577  42.561  1.00  0.00     0.028 C 
BRANCH   6   7
ATOM      7  C   UNL     1      68.882  68.008  42.509  1.00  0.00    -0.028 C 
ATOM      8  C   UNL     1      69.918  67.249  42.080  1.00  0.00    -0.070 CG0
ATOM      9  C   UNL     1      71.301  67.850  42.051  1.00  0.00     0.039 C 
ATOM     10  G   UNL     1      69.755  65.835  41.562  1.00  0.00     0.000 G0
ENDBRANCH   6   7
ENDBRANCH   5   6
ENDBRANCH   3   5
ENDBRANCH   1   3
BRANCH   1  11
ATOM     11  C   UNL     1      67.578  66.507  38.740  1.00  0.00     0.087 C 
BRANCH  11  12
ATOM     12  C   UNL     1      68.950  66.952  39.310  1.00  0.00     0.066 C 
BRANCH  12  13
ATOM     13  C   UNL     1      69.582  65.791  40.062  1.00  0.00     0.140 C 
ATOM     14  O   UNL     1      70.028  64.840  39.434  1.00  0.00    -0.299 OA
BRANCH  13  15
ATOM     15  C   UNL     1      69.763  65.827  41.559  1.00  0.00     0.106 CG0
ATOM     16  G   UNL     1      69.926  67.247  42.060  1.00  0.00     0.000 G0
ENDBRANCH  13  15
ENDBRANCH  12  13
BRANCH  12  17
ATOM     17  C   UNL     1      69.918  67.470  38.195  1.00  0.00    -0.006 C 
ATOM     18  C   UNL     1      70.146  68.991  38.310  1.00  0.00     0.008 C 
ATOM     19  C   UNL     1      69.394  67.160  36.779  1.00  0.00     0.008 C 
ENDBRANCH  12  17
ENDBRANCH  11  12
ENDBRANCH   1  11
TORSDOF 1
ENDMDL
MODEL 6
REMARK VINA RESULT:    -2.591     10.728     12.137
REMARK INTER + INTRA:          -4.222
REMARK INTER:                  -4.316
REMARK INTRA:                   0.094
REMARK UNBOUND:                -0.268
REMARK SMILES CC1=CCC[C@@H](C)C(=O)C[C@H](C(C)C)C(=O)C1
REMARK SMILES IDX 8 1 9 2 6 3 7 4 5 5 4 6 3 7 2 8 1 9 10 11 11 12 15 13 16 14
REMARK SMILES IDX 17 15 12 17 13 18 14 19
REMARK H PARENT
REMARK Flexibility Score: 70.00
ROOT
ATOM      1  C   UNL     1      67.979  68.320  40.665  1.00  0.00     0.136 C 
ATOM      2  O   UNL     1      68.343  68.417  39.501  1.00  0.00    -0.299 OA
ENDROOT
BRANCH   1   3
ATOM      3  C   UNL     1      66.800  67.436  41.018  1.00  0.00     0.053 C 
ATOM      4  C   UNL     1      66.691  67.320  42.541  1.00  0.00     0.016 C 
BRANCH   3   5
ATOM      5  C   UNL     1      66.922  66.033  40.380  1.00  0.00     0.015 C 
BRANCH   5   6
ATOM      6  C   UNL     1      67.980  65.149  41.057  1.00  0.00     0.028 C 
BRANCH   6   7
ATOM      7  C   UNL     1      69.190  64.967  40.173  1.00  0.00    -0.028 C 
ATOM      8  C   UNL     1      70.458  65.323  40.489  1.00  0.00    -0.070 CG0
ATOM      9  C   UNL     1      71.564  65.031  39.505  1.00  0.00     0.039 C 
ATOM     10  G   UNL     1      70.843  65.947  41.814  1.00  0.00     0.000 G0
ENDBRANCH   6   7
ENDBRANCH   5   6
ENDBRANCH   3   5
ENDBRANCH   1   3
BRANCH   1  11
ATOM     11  C   UNL     1      68.742  69.062  41.731  1.00  0.00     0.087 C 
BRANCH  11  12
ATOM     12  C   UNL     1      69.565  68.099  42.627  1.00  0.00     0.066 C 
BRANCH  12  13
ATOM     13  C   UNL     1      70.657  67.447  41.792  1.00  0.00     0.140 C 
ATOM     14  O   UNL     1      71.432  68.153  41.161  1.00  0.00    -0.299 OA
BRANCH  13  15
ATOM     15  C   UNL     1      70.870  65.955  41.803  1.00  0.00     0.106 CG0
ATOM     16  G   UNL     1      70.454  65.329  40.488  1.00  0.00     0.000 G0
ENDBRANCH  13  15
ENDBRANCH  12  13
BRANCH  12  17
ATOM     17  C   UNL     1      70.187  68.826  43.866  1.00  0.00    -0.006 C 
ATOM     18  C   UNL     1      70.007  67.995  45.153  1.00  0.00     0.008 C 
ATOM     19  C   UNL     1      69.570  70.220  44.094  1.00  0.00     0.008 C 
ENDBRANCH  12  17
ENDBRANCH  11  12
ENDBRANCH   1  11
TORSDOF 1
ENDMDL
MODEL 7
REMARK VINA RESULT:    -2.547      9.763     12.118
REMARK INTER + INTRA:          -4.155
REMARK INTER:                  -4.458
REMARK INTRA:                   0.303
REMARK UNBOUND:                -0.268
REMARK SMILES CC1=CCC[C@@H](C)C(=O)C[C@H](C(C)C)C(=O)C1
REMARK SMILES IDX 8 1 9 2 6 3 7 4 5 5 4 6 3 7 2 8 1 9 10 11 11 12 15 13 16 14
REMARK SMILES IDX 17 15 12 17 13 18 14 19
REMARK H PARENT
REMARK Flexibility Score: 70.00
ROOT
ATOM      1  C   UNL     1      68.488  67.313  43.187  1.00  0.00     0.136 C 
ATOM      2  O   UNL     1      68.746  66.527  44.088  1.00  0.00    -0.299 OA
ENDROOT
BRANCH   1   3
ATOM      3  C   UNL     1      69.289  68.591  43.045  1.00  0.00     0.053 C 
ATOM      4  C   UNL     1      68.333  69.786  43.000  1.00  0.00     0.016 C 
BRANCH   3   5
ATOM      5  C   UNL     1      70.185  68.572  41.786  1.00  0.00     0.015 C 
BRANCH   5   6
ATOM      6  C   UNL     1      71.207  67.425  41.785  1.00  0.00     0.028 C 
BRANCH   6   7
ATOM      7  C   UNL     1      71.306  66.780  40.424  1.00  0.00    -0.028 C 
ATOM      8  C   UNL     1      70.752  65.597  40.070  1.00  0.00    -0.070 CG0
ATOM      9  C   UNL     1      70.911  65.113  38.650  1.00  0.00     0.039 C 
ATOM     10  G   UNL     1      69.919  64.751  41.011  1.00  0.00     0.000 G0
ENDBRANCH   6   7
ENDBRANCH   5   6
ENDBRANCH   3   5
ENDBRANCH   1   3
BRANCH   1  11
ATOM     11  C   UNL     1      67.395  66.968  42.209  1.00  0.00     0.087 C 
BRANCH  11  12
ATOM     12  C   UNL     1      67.966  66.537  40.833  1.00  0.00     0.066 C 
BRANCH  12  13
ATOM     13  C   UNL     1      68.439  65.093  40.916  1.00  0.00     0.140 C 
ATOM     14  O   UNL     1      67.625  64.187  40.806  1.00  0.00    -0.299 OA
BRANCH  13  15
ATOM     15  C   UNL     1      69.903  64.750  41.031  1.00  0.00     0.106 CG0
ATOM     16  G   UNL     1      70.739  65.579  40.078  1.00  0.00     0.000 G0
ENDBRANCH  13  15
ENDBRANCH  12  13
BRANCH  12  17
ATOM     17  C   UNL     1      66.923  66.702  39.678  1.00  0.00    -0.006 C 
ATOM     18  C   UNL     1      67.459  67.624  38.563  1.00  0.00     0.008 C 
ATOM     19  C   UNL     1      65.582  67.273  40.181  1.00  0.00     0.008 C 
ENDBRANCH  12  17
ENDBRANCH  11  12
ENDBRANCH   1  11
TORSDOF 1
ENDMDL
MODEL 8
REMARK VINA RESULT:    -2.507      8.214     10.925
REMARK INTER + INTRA:          -4.094
REMARK INTER:                  -4.244
REMARK INTRA:                   0.150
REMARK UNBOUND:                -0.268
REMARK SMILES CC1=CCC[C@@H](C)C(=O)C[C@H](C(C)C)C(=O)C1
REMARK SMILES IDX 8 1 9 2 6 3 7 4 5 5 4 6 3 7 2 8 1 9 10 11 11 12 15 13 16 14
REMARK SMILES IDX 17 15 12 17 13 18 14 19
REMARK H PARENT
REMARK Flexibility Score: 70.00
ROOT
ATOM      1  C   UNL     1      67.058  67.381  41.564  1.00  0.00     0.136 C 
ATOM      2  O   UNL     1      65.910  67.388  41.143  1.00  0.00    -0.299 OA
ENDROOT
BRANCH   1   3
ATOM      3  C   UNL     1      67.598  66.154  42.270  1.00  0.00     0.053 C 
ATOM      4  C   UNL     1      68.232  66.572  43.600  1.00  0.00     0.016 C 
BRANCH   3   5
ATOM      5  C   UNL     1      68.626  65.396  41.400  1.00  0.00     0.015 C 
BRANCH   5   6
ATOM      6  C   UNL     1      68.012  64.777  40.135  1.00  0.00     0.028 C 
BRANCH   6   7
ATOM      7  C   UNL     1      68.929  64.936  38.947  1.00  0.00    -0.028 C 
ATOM      8  C   UNL     1      68.985  66.016  38.132  1.00  0.00    -0.070 CG0
ATOM      9  C   UNL     1      69.993  66.031  37.010  1.00  0.00     0.039 C 
ATOM     10  G   UNL     1      68.126  67.248  38.322  1.00  0.00     0.000 G0
ENDBRANCH   6   7
ENDBRANCH   5   6
ENDBRANCH   3   5
ENDBRANCH   1   3
BRANCH   1  11
ATOM     11  C   UNL     1      67.926  68.592  41.335  1.00  0.00     0.087 C 
BRANCH  11  12
ATOM     12  C   UNL     1      69.207  68.241  40.532  1.00  0.00     0.066 C 
BRANCH  12  13
ATOM     13  C   UNL     1      68.908  68.338  39.044  1.00  0.00     0.140 C 
ATOM     14  O   UNL     1      69.372  69.267  38.398  1.00  0.00    -0.299 OA
BRANCH  13  15
ATOM     15  C   UNL     1      68.135  67.261  38.324  1.00  0.00     0.106 CG0
ATOM     16  G   UNL     1      68.981  66.024  38.113  1.00  0.00     0.000 G0
ENDBRANCH  13  15
ENDBRANCH  12  13
BRANCH  12  17
ATOM     17  C   UNL     1      70.415  69.162  40.907  1.00  0.00    -0.006 C 
ATOM     18  C   UNL     1      71.715  68.347  41.065  1.00  0.00     0.008 C 
ATOM     19  C   UNL     1      70.168  69.945  42.211  1.00  0.00     0.008 C 
ENDBRANCH  12  17
ENDBRANCH  11  12
ENDBRANCH   1  11
TORSDOF 1
ENDMDL
MODEL 9
REMARK VINA RESULT:    -2.491      9.897     12.061
REMARK INTER + INTRA:          -4.069
REMARK INTER:                  -4.293
REMARK INTRA:                   0.223
REMARK UNBOUND:                -0.268
REMARK SMILES CC1=CCC[C@@H](C)C(=O)C[C@H](C(C)C)C(=O)C1
REMARK SMILES IDX 8 1 9 2 6 3 7 4 5 5 4 6 3 7 2 8 1 9 10 11 11 12 15 13 16 14
REMARK SMILES IDX 17 15 12 17 13 18 14 19
REMARK H PARENT
REMARK Flexibility Score: 70.00
ROOT
ATOM      1  C   UNL     1      67.548  66.354  42.295  1.00  0.00     0.136 C 
ATOM      2  O   UNL     1      67.702  66.153  43.492  1.00  0.00    -0.299 OA
ENDROOT
BRANCH   1   3
ATOM      3  C   UNL     1      66.608  67.446  41.825  1.00  0.00     0.053 C 
ATOM      4  C   UNL     1      65.818  66.948  40.612  1.00  0.00     0.016 C 
BRANCH   3   5
ATOM      5  C   UNL     1      67.367  68.746  41.474  1.00  0.00     0.015 C 
BRANCH   5   6
ATOM      6  C   UNL     1      68.339  69.198  42.575  1.00  0.00     0.028 C 
BRANCH   6   7
ATOM      7  C   UNL     1      69.679  69.586  41.999  1.00  0.00    -0.028 C 
ATOM      8  C   UNL     1      70.798  68.825  42.024  1.00  0.00    -0.070 CG0
ATOM      9  C   UNL     1      72.049  69.346  41.361  1.00  0.00     0.039 C 
ATOM     10  G   UNL     1      70.850  67.439  42.632  1.00  0.00     0.000 G0
ENDBRANCH   6   7
ENDBRANCH   5   6
ENDBRANCH   3   5
ENDBRANCH   1   3
BRANCH   1  11
ATOM     11  C   UNL     1      68.333  65.527  41.310  1.00  0.00     0.087 C 
BRANCH  11  12
ATOM     12  C   UNL     1      69.493  66.335  40.671  1.00  0.00     0.066 C 
BRANCH  12  13
ATOM     13  C   UNL     1      70.677  66.352  41.626  1.00  0.00     0.140 C 
ATOM     14  O   UNL     1      71.549  65.502  41.516  1.00  0.00    -0.299 OA
BRANCH  13  15
ATOM     15  C   UNL     1      70.854  67.453  42.641  1.00  0.00     0.106 CG0
ATOM     16  G   UNL     1      70.793  68.819  41.989  1.00  0.00     0.000 G0
ENDBRANCH  13  15
ENDBRANCH  12  13
BRANCH  12  17
ATOM     17  C   UNL     1      69.922  65.760  39.280  1.00  0.00    -0.006 C 
ATOM     18  C   UNL     1      70.960  66.671  38.592  1.00  0.00     0.008 C 
ATOM     19  C   UNL     1      68.723  65.581  38.329  1.00  0.00     0.008 C 
ENDBRANCH  12  17
ENDBRANCH  11  12
ENDBRANCH   1  11
TORSDOF 1
ENDMDL
