MODEL 1
REMARK VINA RESULT:    -4.269      0.000      0.000
REMARK INTER + INTRA:          -4.869
REMARK INTER:                  -4.643
REMARK INTRA:                  -0.226
REMARK UNBOUND:                -0.226
REMARK SMILES O=C([O-])c1ccccc1O
REMARK SMILES IDX 4 1 9 2 5 3 8 4 6 5 7 6 2 7 1 8 3 9 10 10
REMARK H PARENT 10 11
REMARK Flexibility Score: inf
ROOT
ATOM      1  C   UNL     1      -7.706  24.036 -12.577  1.00  0.00     0.039 A 
ATOM      2  C   UNL     1      -8.849  23.532 -13.250  1.00  0.00     0.124 A 
ATOM      3  C   UNL     1      -7.804  24.343 -11.206  1.00  0.00     0.014 A 
ATOM      4  C   UNL     1     -10.027  23.293 -12.530  1.00  0.00     0.047 A 
ATOM      5  C   UNL     1      -8.993  24.118 -10.509  1.00  0.00     0.001 A 
ATOM      6  C   UNL     1     -10.100  23.584 -11.167  1.00  0.00     0.004 A 
ENDROOT
BRANCH   1   7
ATOM      7  C   UNL     1      -6.402  24.215 -13.251  1.00  0.00     0.075 C 
ATOM      8  O   UNL     1      -5.486  24.875 -12.692  1.00  0.00    -0.545 OA
ATOM      9  O   UNL     1      -6.144  23.605 -14.473  1.00  0.00    -0.545 OA
ENDBRANCH   1   7
BRANCH   2  10
ATOM     10  O   UNL     1      -8.867  23.295 -14.625  1.00  0.00    -0.507 OA
ATOM     11  H   UNL     1      -9.110  22.402 -15.032  1.00  0.00     0.293 HD
ENDBRANCH   2  10
TORSDOF 2
ENDMDL
MODEL 2
REMARK VINA RESULT:    -4.213     14.455     15.262
REMARK INTER + INTRA:          -4.808
REMARK INTER:                  -4.558
REMARK INTRA:                  -0.250
REMARK UNBOUND:                -0.226
REMARK SMILES O=C([O-])c1ccccc1O
REMARK SMILES IDX 4 1 9 2 5 3 8 4 6 5 7 6 2 7 1 8 3 9 10 10
REMARK H PARENT 10 11
REMARK Flexibility Score: inf
ROOT
ATOM      1  C   UNL     1     -17.698  34.707 -16.083  1.00  0.00     0.039 A 
ATOM      2  C   UNL     1     -16.367  34.996 -16.479  1.00  0.00     0.124 A 
ATOM      3  C   UNL     1     -18.619  34.276 -17.058  1.00  0.00     0.014 A 
ATOM      4  C   UNL     1     -15.979  34.788 -17.809  1.00  0.00     0.047 A 
ATOM      5  C   UNL     1     -18.221  34.094 -18.383  1.00  0.00     0.001 A 
ATOM      6  C   UNL     1     -16.900  34.341 -18.757  1.00  0.00     0.004 A 
ENDROOT
BRANCH   1   7
ATOM      7  C   UNL     1     -18.148  34.805 -14.678  1.00  0.00     0.075 C 
ATOM      8  O   UNL     1     -17.415  34.374 -13.748  1.00  0.00    -0.545 OA
ATOM      9  O   UNL     1     -19.346  35.431 -14.356  1.00  0.00    -0.545 OA
ENDBRANCH   1   7
BRANCH   2  10
ATOM     10  O   UNL     1     -15.419  35.520 -15.599  1.00  0.00    -0.507 OA
ATOM     11  H   UNL     1     -15.220  35.120 -14.692  1.00  0.00     0.293 HD
ENDBRANCH   2  10
TORSDOF 2
ENDMDL
MODEL 3
REMARK VINA RESULT:    -4.177      2.980      4.326
REMARK INTER + INTRA:          -4.770
REMARK INTER:                  -4.527
REMARK INTRA:                  -0.243
REMARK UNBOUND:                -0.226
REMARK SMILES O=C([O-])c1ccccc1O
REMARK SMILES IDX 4 1 9 2 5 3 8 4 6 5 7 6 2 7 1 8 3 9 10 10
REMARK H PARENT 10 11
REMARK Flexibility Score: inf
ROOT
ATOM      1  C   UNL     1      -8.965  23.461 -10.562  1.00  0.00     0.039 A 
ATOM      2  C   UNL     1      -8.053  24.471 -10.163  1.00  0.00     0.124 A 
ATOM      3  C   UNL     1      -8.481  22.157 -10.786  1.00  0.00     0.014 A 
ATOM      4  C   UNL     1      -6.709  24.142  -9.939  1.00  0.00     0.047 A 
ATOM      5  C   UNL     1      -7.134  21.852 -10.578  1.00  0.00     0.001 A 
ATOM      6  C   UNL     1      -6.251  22.841 -10.147  1.00  0.00     0.004 A 
ENDROOT
BRANCH   1   7
ATOM      7  C   UNL     1     -10.414  23.715 -10.716  1.00  0.00     0.075 C 
ATOM      8  O   UNL     1     -11.055  24.295  -9.800  1.00  0.00    -0.545 OA
ATOM      9  O   UNL     1     -11.073  23.381 -11.892  1.00  0.00    -0.545 OA
ENDBRANCH   1   7
BRANCH   2  10
ATOM     10  O   UNL     1      -8.429  25.807 -10.015  1.00  0.00    -0.507 OA
ATOM     11  H   UNL     1      -8.401  26.479 -10.769  1.00  0.00     0.293 HD
ENDBRANCH   2  10
TORSDOF 2
ENDMDL
MODEL 4
REMARK VINA RESULT:    -4.175      2.634      3.588
REMARK INTER + INTRA:          -4.767
REMARK INTER:                  -4.520
REMARK INTRA:                  -0.248
REMARK UNBOUND:                -0.226
REMARK SMILES O=C([O-])c1ccccc1O
REMARK SMILES IDX 4 1 9 2 5 3 8 4 6 5 7 6 2 7 1 8 3 9 10 10
REMARK H PARENT 10 11
REMARK Flexibility Score: inf
ROOT
ATOM      1  C   UNL     1      -7.391  25.012 -13.435  1.00  0.00     0.039 A 
ATOM      2  C   UNL     1      -8.218  25.043 -14.587  1.00  0.00     0.124 A 
ATOM      3  C   UNL     1      -6.240  24.201 -13.447  1.00  0.00     0.014 A 
ATOM      4  C   UNL     1      -7.844  24.321 -15.729  1.00  0.00     0.047 A 
ATOM      5  C   UNL     1      -5.893  23.472 -14.586  1.00  0.00     0.001 A 
ATOM      6  C   UNL     1      -6.689  23.539 -15.728  1.00  0.00     0.004 A 
ENDROOT
BRANCH   1   7
ATOM      7  C   UNL     1      -7.670  25.829 -12.235  1.00  0.00     0.075 C 
ATOM      8  O   UNL     1      -7.968  27.047 -12.354  1.00  0.00    -0.545 OA
ATOM      9  O   UNL     1      -7.676  25.254 -10.970  1.00  0.00    -0.545 OA
ENDBRANCH   1   7
BRANCH   2  10
ATOM     10  O   UNL     1      -9.426  25.741 -14.626  1.00  0.00    -0.507 OA
ATOM     11  H   UNL     1     -10.089  25.664 -15.385  1.00  0.00     0.293 HD
ENDBRANCH   2  10
TORSDOF 2
ENDMDL
MODEL 5
REMARK VINA RESULT:    -4.165     13.531     14.081
REMARK INTER + INTRA:          -4.757
REMARK INTER:                  -4.515
REMARK INTRA:                  -0.242
REMARK UNBOUND:                -0.226
REMARK SMILES O=C([O-])c1ccccc1O
REMARK SMILES IDX 4 1 9 2 5 3 8 4 6 5 7 6 2 7 1 8 3 9 10 10
REMARK H PARENT 10 11
REMARK Flexibility Score: inf
ROOT
ATOM      1  C   UNL     1     -16.483  33.565 -18.355  1.00  0.00     0.039 A 
ATOM      2  C   UNL     1     -17.293  32.485 -18.792  1.00  0.00     0.124 A 
ATOM      3  C   UNL     1     -16.958  34.398 -17.324  1.00  0.00     0.014 A 
ATOM      4  C   UNL     1     -18.513  32.231 -18.151  1.00  0.00     0.047 A 
ATOM      5  C   UNL     1     -18.186  34.142 -16.710  1.00  0.00     0.001 A 
ATOM      6  C   UNL     1     -18.958  33.055 -17.116  1.00  0.00     0.004 A 
ENDROOT
BRANCH   1   7
ATOM      7  C   UNL     1     -15.141  33.828 -18.917  1.00  0.00     0.075 C 
ATOM      8  O   UNL     1     -14.795  35.005 -19.206  1.00  0.00    -0.545 OA
ATOM      9  O   UNL     1     -14.220  32.799 -19.070  1.00  0.00    -0.545 OA
ENDBRANCH   1   7
BRANCH   2  10
ATOM     10  O   UNL     1     -16.944  31.672 -19.872  1.00  0.00    -0.507 OA
ATOM     11  H   UNL     1     -17.471  30.855 -20.145  1.00  0.00     0.293 HD
ENDBRANCH   2  10
TORSDOF 2
ENDMDL
MODEL 6
REMARK VINA RESULT:    -4.130      1.819      2.431
REMARK INTER + INTRA:          -4.719
REMARK INTER:                  -4.468
REMARK INTRA:                  -0.251
REMARK UNBOUND:                -0.226
REMARK SMILES O=C([O-])c1ccccc1O
REMARK SMILES IDX 4 1 9 2 5 3 8 4 6 5 7 6 2 7 1 8 3 9 10 10
REMARK H PARENT 10 11
REMARK Flexibility Score: inf
ROOT
ATOM      1  C   UNL     1      -9.189  24.338 -13.037  1.00  0.00     0.039 A 
ATOM      2  C   UNL     1     -10.359  25.045 -12.659  1.00  0.00     0.124 A 
ATOM      3  C   UNL     1      -8.680  23.352 -12.171  1.00  0.00     0.014 A 
ATOM      4  C   UNL     1     -11.018  24.707 -11.468  1.00  0.00     0.047 A 
ATOM      5  C   UNL     1      -9.337  23.042 -10.979  1.00  0.00     0.001 A 
ATOM      6  C   UNL     1     -10.510  23.712 -10.632  1.00  0.00     0.004 A 
ENDROOT
BRANCH   1   7
ATOM      7  C   UNL     1      -8.503  24.572 -14.326  1.00  0.00     0.075 C 
ATOM      8  O   UNL     1      -8.065  23.598 -14.995  1.00  0.00    -0.545 OA
ATOM      9  O   UNL     1      -8.391  25.854 -14.850  1.00  0.00    -0.545 OA
ENDBRANCH   1   7
BRANCH   2  10
ATOM     10  O   UNL     1     -10.874  26.103 -13.409  1.00  0.00    -0.507 OA
ATOM     11  H   UNL     1     -10.947  27.049 -13.060  1.00  0.00     0.293 HD
ENDBRANCH   2  10
TORSDOF 2
ENDMDL
MODEL 7
REMARK VINA RESULT:    -4.129      2.430      2.873
REMARK INTER + INTRA:          -4.717
REMARK INTER:                  -4.509
REMARK INTRA:                  -0.209
REMARK UNBOUND:                -0.226
REMARK SMILES O=C([O-])c1ccccc1O
REMARK SMILES IDX 4 1 9 2 5 3 8 4 6 5 7 6 2 7 1 8 3 9 10 10
REMARK H PARENT 10 11
REMARK Flexibility Score: inf
ROOT
ATOM      1  C   UNL     1      -8.020  23.702  -9.975  1.00  0.00     0.039 A 
ATOM      2  C   UNL     1      -9.114  23.237 -10.750  1.00  0.00     0.124 A 
ATOM      3  C   UNL     1      -8.267  24.608  -8.926  1.00  0.00     0.014 A 
ATOM      4  C   UNL     1     -10.416  23.636 -10.419  1.00  0.00     0.047 A 
ATOM      5  C   UNL     1      -9.569  25.011  -8.624  1.00  0.00     0.001 A 
ATOM      6  C   UNL     1     -10.643  24.518  -9.363  1.00  0.00     0.004 A 
ENDROOT
BRANCH   1   7
ATOM      7  C   UNL     1      -6.634  23.241 -10.203  1.00  0.00     0.075 C 
ATOM      8  O   UNL     1      -6.349  22.018 -10.102  1.00  0.00    -0.545 OA
ATOM      9  O   UNL     1      -5.644  24.133 -10.596  1.00  0.00    -0.545 OA
ENDBRANCH   1   7
BRANCH   2  10
ATOM     10  O   UNL     1      -8.949  22.416 -11.867  1.00  0.00    -0.507 OA
ATOM     11  H   UNL     1      -9.537  21.618 -12.062  1.00  0.00     0.293 HD
ENDBRANCH   2  10
TORSDOF 2
ENDMDL
MODEL 8
REMARK VINA RESULT:    -4.110     13.797     14.476
REMARK INTER + INTRA:          -4.696
REMARK INTER:                  -4.466
REMARK INTRA:                  -0.230
REMARK UNBOUND:                -0.226
REMARK SMILES O=C([O-])c1ccccc1O
REMARK SMILES IDX 4 1 9 2 5 3 8 4 6 5 7 6 2 7 1 8 3 9 10 10
REMARK H PARENT 10 11
REMARK Flexibility Score: inf
ROOT
ATOM      1  C   UNL     1     -16.535  33.984 -17.918  1.00  0.00     0.039 A 
ATOM      2  C   UNL     1     -16.670  34.762 -16.740  1.00  0.00     0.124 A 
ATOM      3  C   UNL     1     -17.620  33.190 -18.336  1.00  0.00     0.014 A 
ATOM      4  C   UNL     1     -17.893  34.776 -16.055  1.00  0.00     0.047 A 
ATOM      5  C   UNL     1     -18.825  33.200 -17.630  1.00  0.00     0.001 A 
ATOM      6  C   UNL     1     -18.964  33.999 -16.496  1.00  0.00     0.004 A 
ENDROOT
BRANCH   1   7
ATOM      7  C   UNL     1     -15.310  34.003 -18.745  1.00  0.00     0.075 C 
ATOM      8  O   UNL     1     -14.854  35.095 -19.176  1.00  0.00    -0.545 OA
ATOM      9  O   UNL     1     -14.608  32.831 -19.003  1.00  0.00    -0.545 OA
ENDBRANCH   1   7
BRANCH   2  10
ATOM     10  O   UNL     1     -15.615  35.499 -16.200  1.00  0.00    -0.507 OA
ATOM     11  H   UNL     1     -14.999  36.077 -16.756  1.00  0.00     0.293 HD
ENDBRANCH   2  10
TORSDOF 2
ENDMDL
MODEL 9
REMARK VINA RESULT:    -4.098      1.356      2.817
REMARK INTER + INTRA:          -4.683
REMARK INTER:                  -4.434
REMARK INTRA:                  -0.249
REMARK UNBOUND:                -0.226
REMARK SMILES O=C([O-])c1ccccc1O
REMARK SMILES IDX 4 1 9 2 5 3 8 4 6 5 7 6 2 7 1 8 3 9 10 10
REMARK H PARENT 10 11
REMARK Flexibility Score: inf
ROOT
ATOM      1  C   UNL     1      -8.063  24.049 -12.375  1.00  0.00     0.039 A 
ATOM      2  C   UNL     1      -6.753  23.539 -12.184  1.00  0.00     0.124 A 
ATOM      3  C   UNL     1      -8.883  24.254 -11.249  1.00  0.00     0.014 A 
ATOM      4  C   UNL     1      -6.281  23.310 -10.885  1.00  0.00     0.047 A 
ATOM      5  C   UNL     1      -8.404  24.002  -9.962  1.00  0.00     0.001 A 
ATOM      6  C   UNL     1      -7.101  23.539  -9.780  1.00  0.00     0.004 A 
ENDROOT
BRANCH   1   7
ATOM      7  C   UNL     1      -8.588  24.409 -13.709  1.00  0.00     0.075 C 
ATOM      8  O   UNL     1      -8.449  23.617 -14.679  1.00  0.00    -0.545 OA
ATOM      9  O   UNL     1      -9.298  25.589 -13.899  1.00  0.00    -0.545 OA
ENDBRANCH   1   7
BRANCH   2  10
ATOM     10  O   UNL     1      -5.910  23.214 -13.249  1.00  0.00    -0.507 OA
ATOM     11  H   UNL     1      -5.471  23.905 -13.841  1.00  0.00     0.293 HD
ENDBRANCH   2  10
TORSDOF 2
ENDMDL
