MODEL 1
REMARK VINA RESULT:    -4.000      0.000      0.000
REMARK INTER + INTRA:          -4.250
REMARK INTER:                  -4.234
REMARK INTRA:                  -0.016
REMARK UNBOUND:                -0.016
REMARK SMILES O=C([O-])c1cccnc1
REMARK SMILES IDX 4 1 5 2 9 3 6 4 8 5 7 6 2 7 1 8 3 9
REMARK H PARENT
REMARK Flexibility Score: inf
ROOT
ATOM      1  C   UNL     1      -3.466 -30.024  -5.293  1.00  0.00     0.016 A 
ATOM      2  C   UNL     1      -3.196 -29.592  -3.984  1.00  0.00     0.013 A 
ATOM      3  C   UNL     1      -4.730 -30.577  -5.567  1.00  0.00     0.120 A 
ATOM      4  C   UNL     1      -4.169 -29.714  -2.991  1.00  0.00     0.021 A 
ATOM      5  N   UNL     1      -5.660 -30.684  -4.580  1.00  0.00    -0.264 NA
ATOM      6  C   UNL     1      -5.409 -30.269  -3.312  1.00  0.00     0.111 A 
ENDROOT
BRANCH   1   7
ATOM      7  C   UNL     1      -2.442 -29.900  -6.353  1.00  0.00     0.073 C 
ATOM      8  O   UNL     1      -2.502 -28.964  -7.195  1.00  0.00    -0.545 OA
ATOM      9  O   UNL     1      -1.401 -30.816  -6.437  1.00  0.00    -0.545 OA
ENDBRANCH   1   7
TORSDOF 1
ENDMDL
MODEL 2
REMARK VINA RESULT:    -3.790      0.910      1.600
REMARK INTER + INTRA:          -4.028
REMARK INTER:                  -4.012
REMARK INTRA:                  -0.016
REMARK UNBOUND:                -0.016
REMARK SMILES O=C([O-])c1cccnc1
REMARK SMILES IDX 4 1 5 2 9 3 6 4 8 5 7 6 2 7 1 8 3 9
REMARK H PARENT
REMARK Flexibility Score: inf
ROOT
ATOM      1  C   UNL     1      -3.469 -29.986  -5.337  1.00  0.00     0.016 A 
ATOM      2  C   UNL     1      -4.736 -30.518  -5.623  1.00  0.00     0.013 A 
ATOM      3  C   UNL     1      -3.196 -29.585  -4.017  1.00  0.00     0.120 A 
ATOM      4  C   UNL     1      -5.690 -30.642  -4.612  1.00  0.00     0.021 A 
ATOM      5  N   UNL     1      -4.144 -29.716  -3.050  1.00  0.00    -0.264 NA
ATOM      6  C   UNL     1      -5.372 -30.231  -3.317  1.00  0.00     0.111 A 
ENDROOT
BRANCH   1   7
ATOM      7  C   UNL     1      -2.450 -29.850  -6.401  1.00  0.00     0.073 C 
ATOM      8  O   UNL     1      -2.508 -28.899  -7.226  1.00  0.00    -0.545 OA
ATOM      9  O   UNL     1      -1.415 -30.771  -6.506  1.00  0.00    -0.545 OA
ENDBRANCH   1   7
TORSDOF 1
ENDMDL
MODEL 3
REMARK VINA RESULT:    -3.790      1.199      1.255
REMARK INTER + INTRA:          -4.028
REMARK INTER:                  -4.008
REMARK INTRA:                  -0.020
REMARK UNBOUND:                -0.016
REMARK SMILES O=C([O-])c1cccnc1
REMARK SMILES IDX 4 1 5 2 9 3 6 4 8 5 7 6 2 7 1 8 3 9
REMARK H PARENT
REMARK Flexibility Score: inf
ROOT
ATOM      1  C   UNL     1      -3.774 -29.973  -4.637  1.00  0.00     0.016 A 
ATOM      2  C   UNL     1      -2.985 -29.381  -3.638  1.00  0.00     0.013 A 
ATOM      3  C   UNL     1      -5.045 -30.460  -4.283  1.00  0.00     0.120 A 
ATOM      4  C   UNL     1      -3.464 -29.285  -2.331  1.00  0.00     0.021 A 
ATOM      5  N   UNL     1      -5.488 -30.355  -3.001  1.00  0.00    -0.264 NA
ATOM      6  C   UNL     1      -4.732 -29.783  -2.028  1.00  0.00     0.111 A 
ENDROOT
BRANCH   1   7
ATOM      7  C   UNL     1      -3.277 -30.079  -6.026  1.00  0.00     0.073 C 
ATOM      8  O   UNL     1      -2.732 -29.093  -6.589  1.00  0.00    -0.545 OA
ATOM      9  O   UNL     1      -3.406 -31.271  -6.731  1.00  0.00    -0.545 OA
ENDBRANCH   1   7
TORSDOF 1
ENDMDL
MODEL 4
REMARK VINA RESULT:    -3.571      9.417     10.242
REMARK INTER + INTRA:          -3.796
REMARK INTER:                  -3.775
REMARK INTRA:                  -0.021
REMARK UNBOUND:                -0.016
REMARK SMILES O=C([O-])c1cccnc1
REMARK SMILES IDX 4 1 5 2 9 3 6 4 8 5 7 6 2 7 1 8 3 9
REMARK H PARENT
REMARK Flexibility Score: inf
ROOT
ATOM      1  C   UNL     1       2.500 -24.277  -0.580  1.00  0.00     0.016 A 
ATOM      2  C   UNL     1       3.568 -23.741  -1.317  1.00  0.00     0.013 A 
ATOM      3  C   UNL     1       2.744 -25.404   0.226  1.00  0.00     0.120 A 
ATOM      4  C   UNL     1       4.835 -24.321  -1.239  1.00  0.00     0.021 A 
ATOM      5  N   UNL     1       3.988 -25.950   0.283  1.00  0.00    -0.264 NA
ATOM      6  C   UNL     1       5.028 -25.437  -0.425  1.00  0.00     0.111 A 
ENDROOT
BRANCH   1   7
ATOM      7  C   UNL     1       1.153 -23.671  -0.654  1.00  0.00     0.073 C 
ATOM      8  O   UNL     1       1.017 -22.423  -0.767  1.00  0.00    -0.545 OA
ATOM      9  O   UNL     1       0.017 -24.470  -0.598  1.00  0.00    -0.545 OA
ENDBRANCH   1   7
TORSDOF 1
ENDMDL
MODEL 5
REMARK VINA RESULT:    -3.479      2.741      3.464
REMARK INTER + INTRA:          -3.699
REMARK INTER:                  -3.676
REMARK INTRA:                  -0.023
REMARK UNBOUND:                -0.016
REMARK SMILES O=C([O-])c1cccnc1
REMARK SMILES IDX 4 1 5 2 9 3 6 4 8 5 7 6 2 7 1 8 3 9
REMARK H PARENT
REMARK Flexibility Score: inf
ROOT
ATOM      1  C   UNL     1      -3.759 -30.164  -3.994  1.00  0.00     0.016 A 
ATOM      2  C   UNL     1      -3.111 -29.623  -5.115  1.00  0.00     0.013 A 
ATOM      3  C   UNL     1      -4.455 -31.377  -4.145  1.00  0.00     0.120 A 
ATOM      4  C   UNL     1      -3.164 -30.284  -6.343  1.00  0.00     0.021 A 
ATOM      5  N   UNL     1      -4.491 -32.001  -5.353  1.00  0.00    -0.264 NA
ATOM      6  C   UNL     1      -3.867 -31.485  -6.444  1.00  0.00     0.111 A 
ENDROOT
BRANCH   1   7
ATOM      7  C   UNL     1      -3.709 -29.473  -2.687  1.00  0.00     0.073 C 
ATOM      8  O   UNL     1      -2.789 -28.651  -2.432  1.00  0.00    -0.545 OA
ATOM      9  O   UNL     1      -4.677 -29.722  -1.721  1.00  0.00    -0.545 OA
ENDBRANCH   1   7
TORSDOF 1
ENDMDL
MODEL 6
REMARK VINA RESULT:    -3.472      2.258      2.776
REMARK INTER + INTRA:          -3.691
REMARK INTER:                  -3.668
REMARK INTRA:                  -0.023
REMARK UNBOUND:                -0.016
REMARK SMILES O=C([O-])c1cccnc1
REMARK SMILES IDX 4 1 5 2 9 3 6 4 8 5 7 6 2 7 1 8 3 9
REMARK H PARENT
REMARK Flexibility Score: inf
ROOT
ATOM      1  C   UNL     1      -3.723 -29.640  -3.309  1.00  0.00     0.016 A 
ATOM      2  C   UNL     1      -2.608 -28.933  -2.830  1.00  0.00     0.013 A 
ATOM      3  C   UNL     1      -4.717 -30.021  -2.390  1.00  0.00     0.120 A 
ATOM      4  C   UNL     1      -2.504 -28.622  -1.474  1.00  0.00     0.021 A 
ATOM      5  N   UNL     1      -4.591 -29.706  -1.073  1.00  0.00    -0.264 NA
ATOM      6  C   UNL     1      -3.517 -29.022  -0.600  1.00  0.00     0.111 A 
ENDROOT
BRANCH   1   7
ATOM      7  C   UNL     1      -3.844 -29.975  -4.744  1.00  0.00     0.073 C 
ATOM      8  O   UNL     1      -4.957 -30.304  -5.234  1.00  0.00    -0.545 OA
ATOM      9  O   UNL     1      -2.729 -29.934  -5.573  1.00  0.00    -0.545 OA
ENDBRANCH   1   7
TORSDOF 1
ENDMDL
MODEL 7
REMARK VINA RESULT:    -3.340      9.024      9.672
REMARK INTER + INTRA:          -3.551
REMARK INTER:                  -3.528
REMARK INTRA:                  -0.023
REMARK UNBOUND:                -0.016
REMARK SMILES O=C([O-])c1cccnc1
REMARK SMILES IDX 4 1 5 2 9 3 6 4 8 5 7 6 2 7 1 8 3 9
REMARK H PARENT
REMARK Flexibility Score: inf
ROOT
ATOM      1  C   UNL     1       3.105 -24.639  -0.730  1.00  0.00     0.016 A 
ATOM      2  C   UNL     1       2.122 -23.636  -0.724  1.00  0.00     0.013 A 
ATOM      3  C   UNL     1       2.717 -25.955  -0.420  1.00  0.00     0.120 A 
ATOM      4  C   UNL     1       0.798 -23.953  -0.418  1.00  0.00     0.021 A 
ATOM      5  N   UNL     1       1.420 -26.237  -0.125  1.00  0.00    -0.264 NA
ATOM      6  C   UNL     1       0.462 -25.274  -0.117  1.00  0.00     0.111 A 
ENDROOT
BRANCH   1   7
ATOM      7  C   UNL     1       4.511 -24.314  -1.053  1.00  0.00     0.073 C 
ATOM      8  O   UNL     1       5.443 -25.087  -0.704  1.00  0.00    -0.545 OA
ATOM      9  O   UNL     1       4.824 -23.151  -1.746  1.00  0.00    -0.545 OA
ENDBRANCH   1   7
TORSDOF 1
ENDMDL
MODEL 8
REMARK VINA RESULT:    -3.325      2.987      3.720
REMARK INTER + INTRA:          -3.535
REMARK INTER:                  -3.511
REMARK INTRA:                  -0.024
REMARK UNBOUND:                -0.016
REMARK SMILES O=C([O-])c1cccnc1
REMARK SMILES IDX 4 1 5 2 9 3 6 4 8 5 7 6 2 7 1 8 3 9
REMARK H PARENT
REMARK Flexibility Score: inf
ROOT
ATOM      1  C   UNL     1      -3.712 -29.454  -2.883  1.00  0.00     0.016 A 
ATOM      2  C   UNL     1      -5.007 -29.983  -2.768  1.00  0.00     0.013 A 
ATOM      3  C   UNL     1      -3.084 -29.495  -4.141  1.00  0.00     0.120 A 
ATOM      4  C   UNL     1      -5.642 -30.532  -3.882  1.00  0.00     0.021 A 
ATOM      5  N   UNL     1      -3.725 -30.036  -5.211  1.00  0.00    -0.264 NA
ATOM      6  C   UNL     1      -4.978 -30.550  -5.109  1.00  0.00     0.111 A 
ENDROOT
BRANCH   1   7
ATOM      7  C   UNL     1      -3.028 -28.870  -1.709  1.00  0.00     0.073 C 
ATOM      8  O   UNL     1      -3.554 -28.931  -0.565  1.00  0.00    -0.545 OA
ATOM      9  O   UNL     1      -1.796 -28.243  -1.851  1.00  0.00    -0.545 OA
ENDBRANCH   1   7
TORSDOF 1
ENDMDL
MODEL 9
REMARK VINA RESULT:    -3.208      3.544      4.248
REMARK INTER + INTRA:          -3.412
REMARK INTER:                  -3.395
REMARK INTRA:                  -0.017
REMARK UNBOUND:                -0.016
REMARK SMILES O=C([O-])c1cccnc1
REMARK SMILES IDX 4 1 5 2 9 3 6 4 8 5 7 6 2 7 1 8 3 9
REMARK H PARENT
REMARK Flexibility Score: inf
ROOT
ATOM      1  C   UNL     1      -2.760 -29.088  -1.669  1.00  0.00     0.016 A 
ATOM      2  C   UNL     1      -2.854 -29.250  -3.061  1.00  0.00     0.013 A 
ATOM      3  C   UNL     1      -3.877 -29.423  -0.882  1.00  0.00     0.120 A 
ATOM      4  C   UNL     1      -4.031 -29.733  -3.634  1.00  0.00     0.021 A 
ATOM      5  N   UNL     1      -5.012 -29.892  -1.466  1.00  0.00    -0.264 NA
ATOM      6  C   UNL     1      -5.112 -30.052  -2.811  1.00  0.00     0.111 A 
ENDROOT
BRANCH   1   7
ATOM      7  C   UNL     1      -1.518 -28.577  -1.051  1.00  0.00     0.073 C 
ATOM      8  O   UNL     1      -1.129 -27.399  -1.273  1.00  0.00    -0.545 OA
ATOM      9  O   UNL     1      -0.761 -29.390  -0.215  1.00  0.00    -0.545 OA
ENDBRANCH   1   7
TORSDOF 1
ENDMDL
