MODEL 1
REMARK VINA RESULT:    -5.067      0.000      0.000
REMARK INTER + INTRA:          -7.886
REMARK INTER:                  -6.844
REMARK INTRA:                  -1.042
REMARK UNBOUND:                -1.042
REMARK SMILES CC(=O)CCC=C(C)CCC=C(C)C
REMARK SMILES IDX 7 1 6 2 8 3 9 4 10 5 11 6 13 7 12 8 14 9 5 10 4 11 2 12 3 13
REMARK SMILES IDX 1 14
REMARK H PARENT
REMARK Flexibility Score: inf
ROOT
ATOM      1  C   UNL     1      15.750 -32.762  22.374  1.00  0.00    -0.077 C 
ATOM      2  C   UNL     1      14.982 -33.625  21.669  1.00  0.00    -0.028 C 
ATOM      3  C   UNL     1      16.863 -31.973  21.726  1.00  0.00     0.039 C 
ENDROOT
BRANCH   1   4
ATOM      4  C   UNL     1      15.469 -32.566  23.849  1.00  0.00     0.034 C 
BRANCH   4   5
ATOM      5  C   UNL     1      13.970 -32.361  24.095  1.00  0.00     0.032 C 
BRANCH   5   6
ATOM      6  C   UNL     1      13.626 -30.894  24.195  1.00  0.00    -0.028 C 
ATOM      7  C   UNL     1      12.647 -28.764  23.394  1.00  0.00     0.039 C 
ATOM      8  C   UNL     1      12.957 -30.229  23.228  1.00  0.00    -0.080 C 
ATOM      9  C   UNL     1      12.500 -30.917  21.966  1.00  0.00     0.039 C 
ENDBRANCH   5   6
ENDBRANCH   4   5
ENDBRANCH   1   4
BRANCH   2  10
ATOM     10  C   UNL     1      15.185 -33.949  20.211  1.00  0.00     0.035 C 
BRANCH  10  11
ATOM     11  C   UNL     1      15.653 -35.398  20.039  1.00  0.00     0.079 C 
BRANCH  11  12
ATOM     12  C   UNL     1      17.056 -35.442  19.495  1.00  0.00     0.130 C 
ATOM     13  O   UNL     1      17.675 -36.496  19.511  1.00  0.00    -0.300 OA
ATOM     14  C   UNL     1      17.720 -34.216  18.942  1.00  0.00     0.087 C 
ENDBRANCH  11  12
ENDBRANCH  10  11
ENDBRANCH   2  10
TORSDOF 6
ENDMDL
MODEL 2
REMARK VINA RESULT:    -5.039      1.101      1.709
REMARK INTER + INTRA:          -7.849
REMARK INTER:                  -6.976
REMARK INTRA:                  -0.873
REMARK UNBOUND:                -1.042
REMARK SMILES CC(=O)CCC=C(C)CCC=C(C)C
REMARK SMILES IDX 7 1 6 2 8 3 9 4 10 5 11 6 13 7 12 8 14 9 5 10 4 11 2 12 3 13
REMARK SMILES IDX 1 14
REMARK H PARENT
REMARK Flexibility Score: inf
ROOT
ATOM      1  C   UNL     1      15.352 -32.261  23.240  1.00  0.00    -0.077 C 
ATOM      2  C   UNL     1      15.714 -32.848  22.076  1.00  0.00    -0.028 C 
ATOM      3  C   UNL     1      14.468 -32.961  24.245  1.00  0.00     0.039 C 
ENDROOT
BRANCH   1   4
ATOM      4  C   UNL     1      15.868 -30.873  23.553  1.00  0.00     0.034 C 
BRANCH   4   5
ATOM      5  C   UNL     1      15.227 -29.832  22.628  1.00  0.00     0.032 C 
BRANCH   5   6
ATOM      6  C   UNL     1      14.101 -29.102  23.320  1.00  0.00    -0.028 C 
ATOM      7  C   UNL     1      11.726 -28.645  23.857  1.00  0.00     0.039 C 
ATOM      8  C   UNL     1      12.800 -29.415  23.133  1.00  0.00    -0.080 C 
ATOM      9  C   UNL     1      12.379 -30.529  22.207  1.00  0.00     0.039 C 
ENDBRANCH   5   6
ENDBRANCH   4   5
ENDBRANCH   1   4
BRANCH   2  10
ATOM     10  C   UNL     1      15.233 -34.202  21.619  1.00  0.00     0.035 C 
BRANCH  10  11
ATOM     11  C   UNL     1      15.191 -34.275  20.090  1.00  0.00     0.079 C 
BRANCH  11  12
ATOM     12  C   UNL     1      16.373 -35.043  19.561  1.00  0.00     0.130 C 
ATOM     13  O   UNL     1      16.387 -36.262  19.649  1.00  0.00    -0.300 OA
ATOM     14  C   UNL     1      17.544 -34.344  18.937  1.00  0.00     0.087 C 
ENDBRANCH  11  12
ENDBRANCH  10  11
ENDBRANCH   2  10
TORSDOF 6
ENDMDL
MODEL 3
REMARK VINA RESULT:    -4.970      1.157      1.624
REMARK INTER + INTRA:          -7.756
REMARK INTER:                  -7.102
REMARK INTRA:                  -0.653
REMARK UNBOUND:                -1.042
REMARK SMILES CC(=O)CCC=C(C)CCC=C(C)C
REMARK SMILES IDX 7 1 6 2 8 3 9 4 10 5 11 6 13 7 12 8 14 9 5 10 4 11 2 12 3 13
REMARK SMILES IDX 1 14
REMARK H PARENT
REMARK Flexibility Score: inf
ROOT
ATOM      1  C   UNL     1      14.885 -33.073  21.572  1.00  0.00    -0.077 C 
ATOM      2  C   UNL     1      15.543 -34.240  21.383  1.00  0.00    -0.028 C 
ATOM      3  C   UNL     1      13.898 -32.540  20.560  1.00  0.00     0.039 C 
ENDROOT
BRANCH   1   4
ATOM      4  C   UNL     1      15.128 -32.292  22.847  1.00  0.00     0.034 C 
BRANCH   4   5
ATOM      5  C   UNL     1      13.815 -32.061  23.603  1.00  0.00     0.032 C 
BRANCH   5   6
ATOM      6  C   UNL     1      13.689 -30.628  24.058  1.00  0.00    -0.028 C 
ATOM      7  C   UNL     1      12.752 -28.335  24.002  1.00  0.00     0.039 C 
ATOM      8  C   UNL     1      12.825 -29.753  23.498  1.00  0.00    -0.080 C 
ATOM      9  C   UNL     1      11.916 -30.155  22.363  1.00  0.00     0.039 C 
ENDBRANCH   5   6
ENDBRANCH   4   5
ENDBRANCH   1   4
BRANCH   2  10
ATOM     10  C   UNL     1      15.430 -35.089  20.141  1.00  0.00     0.035 C 
BRANCH  10  11
ATOM     11  C   UNL     1      16.769 -35.140  19.398  1.00  0.00     0.079 C 
BRANCH  11  12
ATOM     12  C   UNL     1      17.815 -35.829  20.233  1.00  0.00     0.130 C 
ATOM     13  O   UNL     1      18.748 -35.181  20.683  1.00  0.00    -0.300 OA
ATOM     14  C   UNL     1      17.744 -37.300  20.517  1.00  0.00     0.087 C 
ENDBRANCH  11  12
ENDBRANCH  10  11
ENDBRANCH   2  10
TORSDOF 6
ENDMDL
MODEL 4
REMARK VINA RESULT:    -4.944      3.144      6.983
REMARK INTER + INTRA:          -7.720
REMARK INTER:                  -7.272
REMARK INTRA:                  -0.448
REMARK UNBOUND:                -1.042
REMARK SMILES CC(=O)CCC=C(C)CCC=C(C)C
REMARK SMILES IDX 7 1 6 2 8 3 9 4 10 5 11 6 13 7 12 8 14 9 5 10 4 11 2 12 3 13
REMARK SMILES IDX 1 14
REMARK H PARENT
REMARK Flexibility Score: inf
ROOT
ATOM      1  C   UNL     1      14.367 -32.615  22.033  1.00  0.00    -0.077 C 
ATOM      2  C   UNL     1      14.285 -32.047  23.259  1.00  0.00    -0.028 C 
ATOM      3  C   UNL     1      13.574 -32.095  20.858  1.00  0.00     0.039 C 
ENDROOT
BRANCH   1   4
ATOM      4  C   UNL     1      15.299 -33.792  21.832  1.00  0.00     0.034 C 
BRANCH   4   5
ATOM      5  C   UNL     1      15.464 -34.107  20.341  1.00  0.00     0.032 C 
BRANCH   5   6
ATOM      6  C   UNL     1      15.981 -35.510  20.130  1.00  0.00    -0.028 C 
ATOM      7  C   UNL     1      17.631 -37.197  19.379  1.00  0.00     0.039 C 
ATOM      8  C   UNL     1      17.176 -35.772  19.558  1.00  0.00    -0.080 C 
ATOM      9  C   UNL     1      18.087 -34.667  19.083  1.00  0.00     0.039 C 
ENDBRANCH   5   6
ENDBRANCH   4   5
ENDBRANCH   1   4
BRANCH   2  10
ATOM     10  C   UNL     1      13.363 -30.906  23.607  1.00  0.00     0.035 C 
BRANCH  10  11
ATOM     11  C   UNL     1      14.098 -29.565  23.502  1.00  0.00     0.079 C 
BRANCH  11  12
ATOM     12  C   UNL     1      13.165 -28.422  23.801  1.00  0.00     0.130 C 
ATOM     13  O   UNL     1      13.616 -27.380  24.253  1.00  0.00    -0.300 OA
ATOM     14  C   UNL     1      11.688 -28.537  23.566  1.00  0.00     0.087 C 
ENDBRANCH  11  12
ENDBRANCH  10  11
ENDBRANCH   2  10
TORSDOF 6
ENDMDL
MODEL 5
REMARK VINA RESULT:    -4.892      1.399      1.890
REMARK INTER + INTRA:          -7.651
REMARK INTER:                  -6.850
REMARK INTRA:                  -0.801
REMARK UNBOUND:                -1.042
REMARK SMILES CC(=O)CCC=C(C)CCC=C(C)C
REMARK SMILES IDX 7 1 6 2 8 3 9 4 10 5 11 6 13 7 12 8 14 9 5 10 4 11 2 12 3 13
REMARK SMILES IDX 1 14
REMARK H PARENT
REMARK Flexibility Score: inf
ROOT
ATOM      1  C   UNL     1      15.047 -33.302  23.748  1.00  0.00    -0.077 C 
ATOM      2  C   UNL     1      15.040 -33.643  22.439  1.00  0.00    -0.028 C 
ATOM      3  C   UNL     1      16.149 -33.744  24.682  1.00  0.00     0.039 C 
ENDROOT
BRANCH   1   4
ATOM      4  C   UNL     1      13.929 -32.433  24.286  1.00  0.00     0.034 C 
BRANCH   4   5
ATOM      5  C   UNL     1      13.453 -31.438  23.221  1.00  0.00     0.032 C 
BRANCH   5   6
ATOM      6  C   UNL     1      13.993 -30.053  23.486  1.00  0.00    -0.028 C 
ATOM      7  C   UNL     1      15.480 -28.114  23.076  1.00  0.00     0.039 C 
ATOM      8  C   UNL     1      14.989 -29.502  22.757  1.00  0.00    -0.080 C 
ATOM      9  C   UNL     1      15.639 -30.244  21.616  1.00  0.00     0.039 C 
ENDBRANCH   5   6
ENDBRANCH   4   5
ENDBRANCH   1   4
BRANCH   2  10
ATOM     10  C   UNL     1      16.062 -34.540  21.788  1.00  0.00     0.035 C 
BRANCH  10  11
ATOM     11  C   UNL     1      15.592 -34.974  20.395  1.00  0.00     0.079 C 
BRANCH  11  12
ATOM     12  C   UNL     1      16.762 -35.391  19.545  1.00  0.00     0.130 C 
ATOM     13  O   UNL     1      16.916 -36.572  19.271  1.00  0.00    -0.300 OA
ATOM     14  C   UNL     1      17.754 -34.389  19.034  1.00  0.00     0.087 C 
ENDBRANCH  11  12
ENDBRANCH  10  11
ENDBRANCH   2  10
TORSDOF 6
ENDMDL
MODEL 6
REMARK VINA RESULT:    -4.861      1.869      2.434
REMARK INTER + INTRA:          -7.608
REMARK INTER:                  -6.523
REMARK INTRA:                  -1.085
REMARK UNBOUND:                -1.042
REMARK SMILES CC(=O)CCC=C(C)CCC=C(C)C
REMARK SMILES IDX 7 1 6 2 8 3 9 4 10 5 11 6 13 7 12 8 14 9 5 10 4 11 2 12 3 13
REMARK SMILES IDX 1 14
REMARK H PARENT
REMARK Flexibility Score: inf
ROOT
ATOM      1  C   UNL     1      17.086 -32.392  22.092  1.00  0.00    -0.077 C 
ATOM      2  C   UNL     1      17.660 -32.372  20.867  1.00  0.00    -0.028 C 
ATOM      3  C   UNL     1      16.994 -33.658  22.910  1.00  0.00     0.039 C 
ENDROOT
BRANCH   1   4
ATOM      4  C   UNL     1      16.541 -31.101  22.668  1.00  0.00     0.034 C 
BRANCH   4   5
ATOM      5  C   UNL     1      15.775 -30.310  21.601  1.00  0.00     0.032 C 
BRANCH   5   6
ATOM      6  C   UNL     1      14.324 -30.137  21.983  1.00  0.00    -0.028 C 
ATOM      7  C   UNL     1      11.921 -30.738  21.978  1.00  0.00     0.039 C 
ATOM      8  C   UNL     1      13.349 -30.970  21.558  1.00  0.00    -0.080 C 
ATOM      9  C   UNL     1      13.648 -32.145  20.661  1.00  0.00     0.039 C 
ENDBRANCH   5   6
ENDBRANCH   4   5
ENDBRANCH   1   4
BRANCH   2  10
ATOM     10  C   UNL     1      18.197 -33.590  20.159  1.00  0.00     0.035 C 
BRANCH  10  11
ATOM     11  C   UNL     1      17.181 -34.115  19.139  1.00  0.00     0.079 C 
BRANCH  11  12
ATOM     12  C   UNL     1      16.491 -35.346  19.661  1.00  0.00     0.130 C 
ATOM     13  O   UNL     1      15.360 -35.256  20.116  1.00  0.00    -0.300 OA
ATOM     14  C   UNL     1      17.165 -36.686  19.645  1.00  0.00     0.087 C 
ENDBRANCH  11  12
ENDBRANCH  10  11
ENDBRANCH   2  10
TORSDOF 6
ENDMDL
MODEL 7
REMARK VINA RESULT:    -4.774      1.143      1.936
REMARK INTER + INTRA:          -7.491
REMARK INTER:                  -6.375
REMARK INTRA:                  -1.117
REMARK UNBOUND:                -1.042
REMARK SMILES CC(=O)CCC=C(C)CCC=C(C)C
REMARK SMILES IDX 7 1 6 2 8 3 9 4 10 5 11 6 13 7 12 8 14 9 5 10 4 11 2 12 3 13
REMARK SMILES IDX 1 14
REMARK H PARENT
REMARK Flexibility Score: inf
ROOT
ATOM      1  C   UNL     1      15.692 -32.843  22.552  1.00  0.00    -0.077 C 
ATOM      2  C   UNL     1      16.857 -32.172  22.399  1.00  0.00    -0.028 C 
ATOM      3  C   UNL     1      14.904 -33.355  21.370  1.00  0.00     0.039 C 
ENDROOT
BRANCH   1   4
ATOM      4  C   UNL     1      15.177 -33.107  23.952  1.00  0.00     0.034 C 
BRANCH   4   5
ATOM      5  C   UNL     1      13.782 -32.501  24.143  1.00  0.00     0.032 C 
BRANCH   5   6
ATOM      6  C   UNL     1      13.842 -30.994  24.198  1.00  0.00    -0.028 C 
ATOM      7  C   UNL     1      13.302 -28.702  23.426  1.00  0.00     0.039 C 
ATOM      8  C   UNL     1      13.199 -30.201  23.312  1.00  0.00    -0.080 C 
ATOM      9  C   UNL     1      12.367 -30.777  22.193  1.00  0.00     0.039 C 
ENDBRANCH   5   6
ENDBRANCH   4   5
ENDBRANCH   1   4
BRANCH   2  10
ATOM     10  C   UNL     1      17.455 -31.800  21.065  1.00  0.00     0.035 C 
BRANCH  10  11
ATOM     11  C   UNL     1      18.742 -32.591  20.810  1.00  0.00     0.079 C 
BRANCH  11  12
ATOM     12  C   UNL     1      18.425 -33.995  20.368  1.00  0.00     0.130 C 
ATOM     13  O   UNL     1      18.667 -34.930  21.117  1.00  0.00    -0.300 OA
ATOM     14  C   UNL     1      17.827 -34.274  19.021  1.00  0.00     0.087 C 
ENDBRANCH  11  12
ENDBRANCH  10  11
ENDBRANCH   2  10
TORSDOF 6
ENDMDL
MODEL 8
REMARK VINA RESULT:    -4.773      2.855      5.616
REMARK INTER + INTRA:          -7.490
REMARK INTER:                  -6.047
REMARK INTRA:                  -1.442
REMARK UNBOUND:                -1.042
REMARK SMILES CC(=O)CCC=C(C)CCC=C(C)C
REMARK SMILES IDX 7 1 6 2 8 3 9 4 10 5 11 6 13 7 12 8 14 9 5 10 4 11 2 12 3 13
REMARK SMILES IDX 1 14
REMARK H PARENT
REMARK Flexibility Score: inf
ROOT
ATOM      1  C   UNL     1      16.631 -35.209  19.521  1.00  0.00    -0.077 C 
ATOM      2  C   UNL     1      15.447 -35.033  20.153  1.00  0.00    -0.028 C 
ATOM      3  C   UNL     1      17.326 -34.078  18.802  1.00  0.00     0.039 C 
ENDROOT
BRANCH   1   4
ATOM      4  C   UNL     1      17.287 -36.573  19.558  1.00  0.00     0.034 C 
BRANCH   4   5
ATOM      5  C   UNL     1      17.734 -36.924  20.982  1.00  0.00     0.032 C 
BRANCH   5   6
ATOM      6  C   UNL     1      18.796 -35.970  21.474  1.00  0.00    -0.028 C 
ATOM      7  C   UNL     1      19.712 -34.217  22.965  1.00  0.00     0.039 C 
ATOM      8  C   UNL     1      18.609 -35.145  22.528  1.00  0.00    -0.080 C 
ATOM      9  C   UNL     1      17.310 -35.121  23.294  1.00  0.00     0.039 C 
ENDBRANCH   5   6
ENDBRANCH   4   5
ENDBRANCH   1   4
BRANCH   2  10
ATOM     10  C   UNL     1      14.665 -33.744  20.153  1.00  0.00     0.035 C 
BRANCH  10  11
ATOM     11  C   UNL     1      14.675 -33.106  21.546  1.00  0.00     0.079 C 
BRANCH  11  12
ATOM     12  C   UNL     1      15.423 -31.800  21.527  1.00  0.00     0.130 C 
ATOM     13  O   UNL     1      14.802 -30.752  21.433  1.00  0.00    -0.300 OA
ATOM     14  C   UNL     1      16.920 -31.755  21.611  1.00  0.00     0.087 C 
ENDBRANCH  11  12
ENDBRANCH  10  11
ENDBRANCH   2  10
TORSDOF 6
ENDMDL
MODEL 9
REMARK VINA RESULT:    -4.757      2.839      5.765
REMARK INTER + INTRA:          -7.467
REMARK INTER:                  -6.275
REMARK INTRA:                  -1.192
REMARK UNBOUND:                -1.042
REMARK SMILES CC(=O)CCC=C(C)CCC=C(C)C
REMARK SMILES IDX 7 1 6 2 8 3 9 4 10 5 11 6 13 7 12 8 14 9 5 10 4 11 2 12 3 13
REMARK SMILES IDX 1 14
REMARK H PARENT
REMARK Flexibility Score: inf
ROOT
ATOM      1  C   UNL     1      15.120 -33.694  21.644  1.00  0.00    -0.077 C 
ATOM      2  C   UNL     1      14.367 -32.862  20.888  1.00  0.00    -0.028 C 
ATOM      3  C   UNL     1      15.097 -33.641  23.153  1.00  0.00     0.039 C 
ENDROOT
BRANCH   1   4
ATOM      4  C   UNL     1      15.991 -34.724  20.955  1.00  0.00     0.034 C 
BRANCH   4   5
ATOM      5  C   UNL     1      16.917 -34.056  19.931  1.00  0.00     0.032 C 
BRANCH   5   6
ATOM      6  C   UNL     1      18.281 -33.785  20.519  1.00  0.00    -0.028 C 
ATOM      7  C   UNL     1      20.051 -32.358  21.501  1.00  0.00     0.039 C 
ATOM      8  C   UNL     1      18.674 -32.557  20.923  1.00  0.00    -0.080 C 
ATOM      9  C   UNL     1      17.766 -31.358  20.812  1.00  0.00     0.039 C 
ENDBRANCH   5   6
ENDBRANCH   4   5
ENDBRANCH   1   4
BRANCH   2  10
ATOM     10  C   UNL     1      13.496 -31.763  21.442  1.00  0.00     0.035 C 
BRANCH  10  11
ATOM     11  C   UNL     1      14.220 -30.415  21.380  1.00  0.00     0.079 C 
BRANCH  11  12
ATOM     12  C   UNL     1      14.269 -29.774  22.741  1.00  0.00     0.130 C 
ATOM     13  O   UNL     1      14.948 -28.772  22.911  1.00  0.00    -0.300 OA
ATOM     14  C   UNL     1      13.508 -30.344  23.901  1.00  0.00     0.087 C 
ENDBRANCH  11  12
ENDBRANCH  10  11
ENDBRANCH   2  10
TORSDOF 6
ENDMDL
