MODEL 1
REMARK VINA RESULT:    -3.890      0.000      0.000
REMARK INTER + INTRA:          -4.832
REMARK INTER:                  -4.572
REMARK INTRA:                  -0.260
REMARK UNBOUND:                -0.260
REMARK SMILES O=c1c(O)c(-c2ccc(O)c(O)c2)oc2cc(O)ccc12
REMARK SMILES IDX 5 1 3 2 2 3 1 4 21 5 15 6 14 7 16 8 17 9 19 10 20 11 6 12
REMARK SMILES IDX 7 13 8 14 9 15 13 16 11 17 10 18 12 20 4 22 18 24
REMARK H PARENT 10 19 12 21 4 23 18 25
REMARK Flexibility Score: inf
ROOT
ATOM      1  C   UNL     1       1.078  32.120   6.186  1.00  0.00     0.180 A 
ATOM      2  C   UNL     1       0.259  31.320   7.010  1.00  0.00     0.208 A 
ATOM      3  C   UNL     1       0.858  30.574   8.037  1.00  0.00     0.235 A 
ATOM      4  O   UNL     1       0.147  29.842   8.780  1.00  0.00    -0.285 OA
ATOM      5  C   UNL     1       2.245  30.656   8.233  1.00  0.00     0.069 A 
ATOM      6  C   UNL     1       2.992  31.498   7.382  1.00  0.00     0.142 A 
ATOM      7  O   UNL     1       2.389  32.182   6.415  1.00  0.00    -0.452 OA
ATOM      8  C   UNL     1       4.376  31.616   7.551  1.00  0.00     0.094 A 
ATOM      9  C   UNL     1       5.026  30.897   8.564  1.00  0.00     0.119 A 
ATOM     10  C   UNL     1       4.287  30.061   9.407  1.00  0.00     0.047 A 
ATOM     11  C   UNL     1       2.904  29.938   9.248  1.00  0.00     0.020 A 
ENDROOT
BRANCH   1  12
ATOM     12  C   UNL     1       0.527  32.922   5.071  1.00  0.00     0.025 A 
ATOM     13  C   UNL     1       0.327  34.309   5.194  1.00  0.00     0.016 A 
ATOM     14  C   UNL     1      -0.218  35.041   4.136  1.00  0.00     0.051 A 
ATOM     15  C   UNL     1      -0.583  34.398   2.946  1.00  0.00     0.157 A 
ATOM     16  C   UNL     1       0.139  32.280   3.882  1.00  0.00     0.062 A 
ATOM     17  C   UNL     1      -0.407  33.015   2.820  1.00  0.00     0.158 A 
BRANCH  15  18
ATOM     18  O   UNL     1      -1.125  35.125   1.887  1.00  0.00    -0.504 OA
ATOM     19  H   UNL     1      -2.094  35.423   1.891  1.00  0.00     0.293 HD
ENDBRANCH  15  18
BRANCH  17  20
ATOM     20  O   UNL     1      -0.778  32.376   1.638  1.00  0.00    -0.504 OA
ATOM     21  H   UNL     1      -0.184  31.680   1.203  1.00  0.00     0.293 HD
ENDBRANCH  17  20
ENDBRANCH   1  12
BRANCH   2  22
ATOM     22  O   UNL     1      -1.125  31.296   6.822  1.00  0.00    -0.502 OA
ATOM     23  H   UNL     1      -1.583  31.835   6.098  1.00  0.00     0.293 HD
ENDBRANCH   2  22
BRANCH   9  24
ATOM     24  O   UNL     1       6.403  31.008   8.739  1.00  0.00    -0.508 OA
ATOM     25  H   UNL     1       6.965  30.217   9.031  1.00  0.00     0.293 HD
ENDBRANCH   9  24
TORSDOF 5
ENDMDL
MODEL 2
REMARK VINA RESULT:    -3.516     18.170     19.865
REMARK INTER + INTRA:          -4.392
REMARK INTER:                  -4.159
REMARK INTRA:                  -0.233
REMARK UNBOUND:                -0.260
REMARK SMILES O=c1c(O)c(-c2ccc(O)c(O)c2)oc2cc(O)ccc12
REMARK SMILES IDX 5 1 3 2 2 3 1 4 21 5 15 6 14 7 16 8 17 9 19 10 20 11 6 12
REMARK SMILES IDX 7 13 8 14 9 15 13 16 11 17 10 18 12 20 4 22 18 24
REMARK H PARENT 10 19 12 21 4 23 18 25
REMARK Flexibility Score: inf
ROOT
ATOM      1  C   UNL     1      16.750  21.232   1.616  1.00  0.00     0.180 A 
ATOM      2  C   UNL     1      17.633  20.147   1.436  1.00  0.00     0.208 A 
ATOM      3  C   UNL     1      17.097  18.869   1.215  1.00  0.00     0.235 A 
ATOM      4  O   UNL     1      17.866  17.881   1.061  1.00  0.00    -0.285 OA
ATOM      5  C   UNL     1      15.704  18.704   1.157  1.00  0.00     0.069 A 
ATOM      6  C   UNL     1      14.888  19.844   1.322  1.00  0.00     0.142 A 
ATOM      7  O   UNL     1      15.435  21.036   1.539  1.00  0.00    -0.452 OA
ATOM      8  C   UNL     1      13.496  19.723   1.261  1.00  0.00     0.094 A 
ATOM      9  C   UNL     1      12.905  18.472   1.038  1.00  0.00     0.119 A 
ATOM     10  C   UNL     1      13.712  17.341   0.875  1.00  0.00     0.047 A 
ATOM     11  C   UNL     1      15.104  17.451   0.932  1.00  0.00     0.020 A 
ENDROOT
BRANCH   1  12
ATOM     12  C   UNL     1      17.235  22.607   1.872  1.00  0.00     0.025 A 
ATOM     13  C   UNL     1      17.190  23.598   0.875  1.00  0.00     0.016 A 
ATOM     14  C   UNL     1      17.676  24.882   1.133  1.00  0.00     0.051 A 
ATOM     15  C   UNL     1      18.227  25.191   2.384  1.00  0.00     0.157 A 
ATOM     16  C   UNL     1      17.809  22.917   3.117  1.00  0.00     0.062 A 
ATOM     17  C   UNL     1      18.296  24.206   3.376  1.00  0.00     0.158 A 
BRANCH  15  18
ATOM     18  O   UNL     1      18.712  26.471   2.645  1.00  0.00    -0.504 OA
ATOM     19  H   UNL     1      19.597  26.790   2.267  1.00  0.00     0.293 HD
ENDBRANCH  15  18
BRANCH  17  20
ATOM     20  O   UNL     1      18.852  24.513   4.617  1.00  0.00    -0.504 OA
ATOM     21  H   UNL     1      18.963  25.472   4.925  1.00  0.00     0.293 HD
ENDBRANCH  17  20
ENDBRANCH   1  12
BRANCH   2  22
ATOM     22  O   UNL     1      19.015  20.349   1.450  1.00  0.00    -0.502 OA
ATOM     23  H   UNL     1      19.531  20.509   2.306  1.00  0.00     0.293 HD
ENDBRANCH   2  22
BRANCH   9  24
ATOM     24  O   UNL     1      11.520  18.342   0.976  1.00  0.00    -0.508 OA
ATOM     25  H   UNL     1      11.032  17.621   1.493  1.00  0.00     0.293 HD
ENDBRANCH   9  24
TORSDOF 5
ENDMDL
MODEL 3
REMARK VINA RESULT:    -3.068     19.028     20.836
REMARK INTER + INTRA:          -3.866
REMARK INTER:                  -3.554
REMARK INTRA:                  -0.312
REMARK UNBOUND:                -0.260
REMARK SMILES O=c1c(O)c(-c2ccc(O)c(O)c2)oc2cc(O)ccc12
REMARK SMILES IDX 5 1 3 2 2 3 1 4 21 5 15 6 14 7 16 8 17 9 19 10 20 11 6 12
REMARK SMILES IDX 7 13 8 14 9 15 13 16 11 17 10 18 12 20 4 22 18 24
REMARK H PARENT 10 19 12 21 4 23 18 25
REMARK Flexibility Score: inf
ROOT
ATOM      1  C   UNL     1      17.029  19.355   2.400  1.00  0.00     0.180 A 
ATOM      2  C   UNL     1      17.726  18.407   3.178  1.00  0.00     0.208 A 
ATOM      3  C   UNL     1      17.143  17.148   3.392  1.00  0.00     0.235 A 
ATOM      4  O   UNL     1      17.742  16.287   4.093  1.00  0.00    -0.285 OA
ATOM      5  C   UNL     1      15.898  16.856   2.813  1.00  0.00     0.069 A 
ATOM      6  C   UNL     1      15.276  17.850   2.027  1.00  0.00     0.142 A 
ATOM      7  O   UNL     1      15.857  19.032   1.856  1.00  0.00    -0.452 OA
ATOM      8  C   UNL     1      14.039  17.594   1.425  1.00  0.00     0.094 A 
ATOM      9  C   UNL     1      13.412  16.352   1.600  1.00  0.00     0.119 A 
ATOM     10  C   UNL     1      14.027  15.367   2.380  1.00  0.00     0.047 A 
ATOM     11  C   UNL     1      15.263  15.612   2.985  1.00  0.00     0.020 A 
ENDROOT
BRANCH   1  12
ATOM     12  C   UNL     1      17.568  20.710   2.143  1.00  0.00     0.025 A 
ATOM     13  C   UNL     1      18.458  20.956   1.083  1.00  0.00     0.016 A 
ATOM     14  C   UNL     1      18.972  22.238   0.875  1.00  0.00     0.051 A 
ATOM     15  C   UNL     1      18.616  23.289   1.730  1.00  0.00     0.157 A 
ATOM     16  C   UNL     1      17.231  21.763   3.010  1.00  0.00     0.062 A 
ATOM     17  C   UNL     1      17.746  23.051   2.801  1.00  0.00     0.158 A 
BRANCH  15  18
ATOM     18  O   UNL     1      19.125  24.570   1.525  1.00  0.00    -0.504 OA
ATOM     19  H   UNL     1      20.052  24.717   1.141  1.00  0.00     0.293 HD
ENDBRANCH  15  18
BRANCH  17  20
ATOM     20  O   UNL     1      17.399  24.096   3.655  1.00  0.00    -0.504 OA
ATOM     21  H   UNL     1      17.707  25.046   3.483  1.00  0.00     0.293 HD
ENDBRANCH  17  20
ENDBRANCH   1  12
BRANCH   2  22
ATOM     22  O   UNL     1      18.986  18.708   3.700  1.00  0.00    -0.502 OA
ATOM     23  H   UNL     1      19.839  18.564   3.175  1.00  0.00     0.293 HD
ENDBRANCH   2  22
BRANCH   9  24
ATOM     24  O   UNL     1      12.181  16.090   1.005  1.00  0.00    -0.508 OA
ATOM     25  H   UNL     1      11.665  15.242   1.207  1.00  0.00     0.293 HD
ENDBRANCH   9  24
TORSDOF 5
ENDMDL
MODEL 4
REMARK VINA RESULT:    -1.028      1.798      2.792
REMARK INTER + INTRA:          -1.468
REMARK INTER:                  -1.427
REMARK INTRA:                  -0.042
REMARK UNBOUND:                -0.260
REMARK SMILES O=c1c(O)c(-c2ccc(O)c(O)c2)oc2cc(O)ccc12
REMARK SMILES IDX 5 1 3 2 2 3 1 4 21 5 15 6 14 7 16 8 17 9 19 10 20 11 6 12
REMARK SMILES IDX 7 13 8 14 9 15 13 16 11 17 10 18 12 20 4 22 18 24
REMARK H PARENT 10 19 12 21 4 23 18 25
REMARK Flexibility Score: inf
ROOT
ATOM      1  C   UNL     1       1.505  32.956   6.515  1.00  0.00     0.180 A 
ATOM      2  C   UNL     1       2.349  33.908   7.125  1.00  0.00     0.208 A 
ATOM      3  C   UNL     1       2.938  33.596   8.360  1.00  0.00     0.235 A 
ATOM      4  O   UNL     1       3.689  34.434   8.930  1.00  0.00    -0.285 OA
ATOM      5  C   UNL     1       2.692  32.345   8.946  1.00  0.00     0.069 A 
ATOM      6  C   UNL     1       1.855  31.438   8.262  1.00  0.00     0.142 A 
ATOM      7  O   UNL     1       1.309  31.775   7.098  1.00  0.00    -0.452 OA
ATOM      8  C   UNL     1       1.593  30.177   8.808  1.00  0.00     0.094 A 
ATOM      9  C   UNL     1       2.158  29.809  10.038  1.00  0.00     0.119 A 
ATOM     10  C   UNL     1       2.987  30.707  10.718  1.00  0.00     0.047 A 
ATOM     11  C   UNL     1       3.257  31.969  10.179  1.00  0.00     0.020 A 
ENDROOT
BRANCH   1  12
ATOM     12  C   UNL     1       0.832  33.216   5.223  1.00  0.00     0.025 A 
ATOM     13  C   UNL     1       0.064  34.377   5.016  1.00  0.00     0.016 A 
ATOM     14  C   UNL     1      -0.582  34.589   3.796  1.00  0.00     0.051 A 
ATOM     15  C   UNL     1      -0.483  33.640   2.770  1.00  0.00     0.157 A 
ATOM     16  C   UNL     1       0.909  32.258   4.197  1.00  0.00     0.062 A 
ATOM     17  C   UNL     1       0.262  32.472   2.972  1.00  0.00     0.158 A 
BRANCH  15  18
ATOM     18  O   UNL     1      -1.125  33.849   1.551  1.00  0.00    -0.504 OA
ATOM     19  H   UNL     1      -1.695  34.671   1.386  1.00  0.00     0.293 HD
ENDBRANCH  15  18
BRANCH  17  20
ATOM     20  O   UNL     1       0.352  31.525   1.952  1.00  0.00    -0.504 OA
ATOM     21  H   UNL     1      -0.029  30.593   2.059  1.00  0.00     0.293 HD
ENDBRANCH  17  20
ENDBRANCH   1  12
BRANCH   2  22
ATOM     22  O   UNL     1       2.615  35.125   6.493  1.00  0.00    -0.502 OA
ATOM     23  H   UNL     1       2.651  35.216   5.486  1.00  0.00     0.293 HD
ENDBRANCH   2  22
BRANCH   9  24
ATOM     24  O   UNL     1       1.903  28.557  10.589  1.00  0.00    -0.508 OA
ATOM     25  H   UNL     1       0.963  28.265  10.830  1.00  0.00     0.293 HD
ENDBRANCH   9  24
TORSDOF 5
ENDMDL
MODEL 5
REMARK VINA RESULT:    -0.968      1.569      6.763
REMARK INTER + INTRA:          -1.397
REMARK INTER:                  -1.420
REMARK INTRA:                   0.022
REMARK UNBOUND:                -0.260
REMARK SMILES O=c1c(O)c(-c2ccc(O)c(O)c2)oc2cc(O)ccc12
REMARK SMILES IDX 5 1 3 2 2 3 1 4 21 5 15 6 14 7 16 8 17 9 19 10 20 11 6 12
REMARK SMILES IDX 7 13 8 14 9 15 13 16 11 17 10 18 12 20 4 22 18 24
REMARK H PARENT 10 19 12 21 4 23 18 25
REMARK Flexibility Score: inf
ROOT
ATOM      1  C   UNL     1       1.795  32.603   7.273  1.00  0.00     0.180 A 
ATOM      2  C   UNL     1       0.888  33.472   7.915  1.00  0.00     0.208 A 
ATOM      3  C   UNL     1      -0.084  34.125   7.142  1.00  0.00     0.235 A 
ATOM      4  O   UNL     1      -0.900  34.916   7.692  1.00  0.00    -0.285 OA
ATOM      5  C   UNL     1      -0.146  33.884   5.761  1.00  0.00     0.069 A 
ATOM      6  C   UNL     1       0.781  32.982   5.197  1.00  0.00     0.142 A 
ATOM      7  O   UNL     1       1.693  32.390   5.962  1.00  0.00    -0.452 OA
ATOM      8  C   UNL     1       0.747  32.707   3.826  1.00  0.00     0.094 A 
ATOM      9  C   UNL     1      -0.206  33.327   3.006  1.00  0.00     0.119 A 
ATOM     10  C   UNL     1      -1.125  34.223   3.562  1.00  0.00     0.047 A 
ATOM     11  C   UNL     1      -1.100  34.503   4.932  1.00  0.00     0.020 A 
ENDROOT
BRANCH   1  12
ATOM     12  C   UNL     1       2.860  31.891   8.014  1.00  0.00     0.025 A 
ATOM     13  C   UNL     1       2.581  31.172   9.190  1.00  0.00     0.016 A 
ATOM     14  C   UNL     1       3.607  30.529   9.886  1.00  0.00     0.051 A 
ATOM     15  C   UNL     1       4.928  30.604   9.426  1.00  0.00     0.157 A 
ATOM     16  C   UNL     1       4.191  31.981   7.569  1.00  0.00     0.062 A 
ATOM     17  C   UNL     1       5.221  31.334   8.267  1.00  0.00     0.158 A 
BRANCH  15  18
ATOM     18  O   UNL     1       5.954  29.962  10.116  1.00  0.00    -0.504 OA
ATOM     19  H   UNL     1       6.928  30.106   9.872  1.00  0.00     0.293 HD
ENDBRANCH  15  18
BRANCH  17  20
ATOM     20  O   UNL     1       6.537  31.414   7.816  1.00  0.00    -0.504 OA
ATOM     21  H   UNL     1       6.860  32.197   7.260  1.00  0.00     0.293 HD
ENDBRANCH  17  20
ENDBRANCH   1  12
BRANCH   2  22
ATOM     22  O   UNL     1       0.942  33.655   9.299  1.00  0.00    -0.502 OA
ATOM     23  H   UNL     1       1.766  34.012   9.766  1.00  0.00     0.293 HD
ENDBRANCH   2  22
BRANCH   9  24
ATOM     24  O   UNL     1      -0.248  33.059   1.640  1.00  0.00    -0.508 OA
ATOM     25  H   UNL     1      -0.754  33.657   0.998  1.00  0.00     0.293 HD
ENDBRANCH   9  24
TORSDOF 5
ENDMDL
