MODEL 1
REMARK VINA RESULT:    -3.968      0.000      0.000
REMARK INTER + INTRA:          -6.492
REMARK INTER:                  -6.056
REMARK INTRA:                  -0.436
REMARK UNBOUND:                -0.436
REMARK SMILES O=C([O-])CCCCCCCCC(=O)[O-]
REMARK SMILES IDX 7 1 6 2 5 3 4 4 2 5 1 6 3 7 8 8 9 9 10 10 11 11 12 12 13 13
REMARK SMILES IDX 14 14
REMARK H PARENT
REMARK Flexibility Score: inf
ROOT
ATOM      1  C   UNL     1     112.405  54.519 230.786  1.00  0.00     0.000 C 
ENDROOT
BRANCH   1   2
ATOM      2  C   UNL     1     113.070  53.621 231.835  1.00  0.00     0.000 C 
BRANCH   2   3
ATOM      3  C   UNL     1     112.060  52.639 232.441  1.00  0.00     0.006 C 
BRANCH   3   4
ATOM      4  C   UNL     1     110.656  53.251 232.484  1.00  0.00     0.053 C 
BRANCH   4   5
ATOM      5  C   UNL     1     109.663  52.246 232.975  1.00  0.00     0.041 C 
ATOM      6  O   UNL     1     109.684  51.067 232.534  1.00  0.00    -0.550 OA
ATOM      7  O   UNL     1     108.743  52.598 233.954  1.00  0.00    -0.550 OA
ENDBRANCH   4   5
ENDBRANCH   3   4
ENDBRANCH   2   3
ENDBRANCH   1   2
BRANCH   1   8
ATOM      8  C   UNL     1     113.450  55.368 230.046  1.00  0.00     0.000 C 
BRANCH   8   9
ATOM      9  C   UNL     1     113.523  55.042 228.545  1.00  0.00     0.000 C 
BRANCH   9  10
ATOM     10  C   UNL     1     112.972  53.643 228.216  1.00  0.00     0.006 C 
BRANCH  10  11
ATOM     11  C   UNL     1     113.402  53.165 226.824  1.00  0.00     0.053 C 
BRANCH  11  12
ATOM     12  C   UNL     1     112.329  53.394 225.802  1.00  0.00     0.041 C 
ATOM     13  O   UNL     1     111.158  52.979 226.010  1.00  0.00    -0.550 OA
ATOM     14  O   UNL     1     112.615  54.096 224.638  1.00  0.00    -0.550 OA
ENDBRANCH  11  12
ENDBRANCH  10  11
ENDBRANCH   9  10
ENDBRANCH   8   9
ENDBRANCH   1   8
TORSDOF 9
ENDMDL
MODEL 2
REMARK VINA RESULT:    -3.858      0.769      6.408
REMARK INTER + INTRA:          -6.324
REMARK INTER:                  -5.860
REMARK INTRA:                  -0.464
REMARK UNBOUND:                -0.436
REMARK SMILES O=C([O-])CCCCCCCCC(=O)[O-]
REMARK SMILES IDX 7 1 6 2 5 3 4 4 2 5 1 6 3 7 8 8 9 9 10 10 11 11 12 12 13 13
REMARK SMILES IDX 14 14
REMARK H PARENT
REMARK Flexibility Score: inf
ROOT
ATOM      1  C   UNL     1     113.421  54.860 230.018  1.00  0.00     0.000 C 
ENDROOT
BRANCH   1   2
ATOM      2  C   UNL     1     112.807  53.716 229.204  1.00  0.00     0.000 C 
BRANCH   2   3
ATOM      3  C   UNL     1     113.118  53.873 227.711  1.00  0.00     0.006 C 
BRANCH   3   4
ATOM      4  C   UNL     1     111.899  54.397 226.946  1.00  0.00     0.053 C 
BRANCH   4   5
ATOM      5  C   UNL     1     111.613  53.532 225.760  1.00  0.00     0.041 C 
ATOM      6  O   UNL     1     110.616  52.762 225.764  1.00  0.00    -0.550 OA
ATOM      7  O   UNL     1     112.418  53.609 224.632  1.00  0.00    -0.550 OA
ENDBRANCH   4   5
ENDBRANCH   3   4
ENDBRANCH   2   3
ENDBRANCH   1   2
BRANCH   1   8
ATOM      8  C   UNL     1     113.428  54.526 231.518  1.00  0.00     0.000 C 
BRANCH   8   9
ATOM      9  C   UNL     1     112.788  53.162 231.823  1.00  0.00     0.000 C 
BRANCH   9  10
ATOM     10  C   UNL     1     111.813  53.220 233.012  1.00  0.00     0.006 C 
BRANCH  10  11
ATOM     11  C   UNL     1     110.360  53.419 232.560  1.00  0.00     0.053 C 
BRANCH  11  12
ATOM     12  C   UNL     1     109.485  52.279 232.985  1.00  0.00     0.041 C 
ATOM     13  O   UNL     1     109.740  51.108 232.601  1.00  0.00    -0.550 OA
ATOM     14  O   UNL     1     108.410  52.507 233.835  1.00  0.00    -0.550 OA
ENDBRANCH  11  12
ENDBRANCH  10  11
ENDBRANCH   9  10
ENDBRANCH   8   9
ENDBRANCH   1   8
TORSDOF 9
ENDMDL
MODEL 3
REMARK VINA RESULT:    -3.798      1.183      1.758
REMARK INTER + INTRA:          -6.233
REMARK INTER:                  -5.835
REMARK INTRA:                  -0.398
REMARK UNBOUND:                -0.436
REMARK SMILES O=C([O-])CCCCCCCCC(=O)[O-]
REMARK SMILES IDX 7 1 6 2 5 3 4 4 2 5 1 6 3 7 8 8 9 9 10 10 11 11 12 12 13 13
REMARK SMILES IDX 14 14
REMARK H PARENT
REMARK Flexibility Score: inf
ROOT
ATOM      1  C   UNL     1     112.227  54.417 229.867  1.00  0.00     0.000 C 
ENDROOT
BRANCH   1   2
ATOM      2  C   UNL     1     113.088  54.041 231.078  1.00  0.00     0.000 C 
BRANCH   2   3
ATOM      3  C   UNL     1     112.364  53.032 231.978  1.00  0.00     0.006 C 
BRANCH   3   4
ATOM      4  C   UNL     1     110.922  53.473 232.247  1.00  0.00     0.053 C 
BRANCH   4   5
ATOM      5  C   UNL     1     110.226  52.478 233.122  1.00  0.00     0.041 C 
ATOM      6  O   UNL     1     110.042  52.728 234.343  1.00  0.00    -0.550 OA
ATOM      7  O   UNL     1     109.738  51.296 232.581  1.00  0.00    -0.550 OA
ENDBRANCH   4   5
ENDBRANCH   3   4
ENDBRANCH   2   3
ENDBRANCH   1   2
BRANCH   1   8
ATOM      8  C   UNL     1     113.082  54.521 228.595  1.00  0.00     0.000 C 
BRANCH   8   9
ATOM      9  C   UNL     1     113.071  53.227 227.767  1.00  0.00     0.000 C 
BRANCH   9  10
ATOM     10  C   UNL     1     112.692  53.469 226.295  1.00  0.00     0.006 C 
BRANCH  10  11
ATOM     11  C   UNL     1     111.311  54.120 226.153  1.00  0.00     0.053 C 
BRANCH  11  12
ATOM     12  C   UNL     1     110.412  53.325 225.255  1.00  0.00     0.041 C 
ATOM     13  O   UNL     1     109.977  52.203 225.627  1.00  0.00    -0.550 OA
ATOM     14  O   UNL     1     110.026  53.839 224.023  1.00  0.00    -0.550 OA
ENDBRANCH  11  12
ENDBRANCH  10  11
ENDBRANCH   9  10
ENDBRANCH   8   9
ENDBRANCH   1   8
TORSDOF 9
ENDMDL
MODEL 4
REMARK VINA RESULT:    -3.541      2.337      6.448
REMARK INTER + INTRA:          -5.841
REMARK INTER:                  -5.374
REMARK INTRA:                  -0.466
REMARK UNBOUND:                -0.436
REMARK SMILES O=C([O-])CCCCCCCCC(=O)[O-]
REMARK SMILES IDX 7 1 6 2 5 3 4 4 2 5 1 6 3 7 8 8 9 9 10 10 11 11 12 12 13 13
REMARK SMILES IDX 14 14
REMARK H PARENT
REMARK Flexibility Score: inf
ROOT
ATOM      1  C   UNL     1     112.971  53.386 227.397  1.00  0.00     0.000 C 
ENDROOT
BRANCH   1   2
ATOM      2  C   UNL     1     112.999  53.313 225.867  1.00  0.00     0.000 C 
BRANCH   2   3
ATOM      3  C   UNL     1     111.896  54.183 225.252  1.00  0.00     0.006 C 
BRANCH   3   4
ATOM      4  C   UNL     1     110.527  53.831 225.841  1.00  0.00     0.053 C 
BRANCH   4   5
ATOM      5  C   UNL     1     109.852  52.787 225.007  1.00  0.00     0.041 C 
ATOM      6  O   UNL     1     109.713  52.959 223.767  1.00  0.00    -0.550 OA
ATOM      7  O   UNL     1     109.419  51.604 225.591  1.00  0.00    -0.550 OA
ENDBRANCH   4   5
ENDBRANCH   3   4
ENDBRANCH   2   3
ENDBRANCH   1   2
BRANCH   1   8
ATOM      8  C   UNL     1     113.475  54.750 227.893  1.00  0.00     0.000 C 
BRANCH   8   9
ATOM      9  C   UNL     1     112.840  55.165 229.229  1.00  0.00     0.000 C 
BRANCH   9  10
ATOM     10  C   UNL     1     112.891  54.045 230.283  1.00  0.00     0.006 C 
BRANCH  10  11
ATOM     11  C   UNL     1     113.472  54.531 231.617  1.00  0.00     0.053 C 
BRANCH  11  12
ATOM     12  C   UNL     1     113.170  53.579 232.734  1.00  0.00     0.041 C 
ATOM     13  O   UNL     1     113.286  52.338 232.557  1.00  0.00    -0.550 OA
ATOM     14  O   UNL     1     112.796  54.065 233.981  1.00  0.00    -0.550 OA
ENDBRANCH  11  12
ENDBRANCH  10  11
ENDBRANCH   9  10
ENDBRANCH   8   9
ENDBRANCH   1   8
TORSDOF 9
ENDMDL
MODEL 5
REMARK VINA RESULT:    -3.497      1.096      1.683
REMARK INTER + INTRA:          -5.773
REMARK INTER:                  -5.112
REMARK INTRA:                  -0.660
REMARK UNBOUND:                -0.436
REMARK SMILES O=C([O-])CCCCCCCCC(=O)[O-]
REMARK SMILES IDX 7 1 6 2 5 3 4 4 2 5 1 6 3 7 8 8 9 9 10 10 11 11 12 12 13 13
REMARK SMILES IDX 14 14
REMARK H PARENT
REMARK Flexibility Score: inf
ROOT
ATOM      1  C   UNL     1     112.932  55.514 230.992  1.00  0.00     0.000 C 
ENDROOT
BRANCH   1   2
ATOM      2  C   UNL     1     113.640  54.355 231.702  1.00  0.00     0.000 C 
BRANCH   2   3
ATOM      3  C   UNL     1     112.790  53.816 232.859  1.00  0.00     0.006 C 
BRANCH   3   4
ATOM      4  C   UNL     1     112.096  52.508 232.467  1.00  0.00     0.053 C 
BRANCH   4   5
ATOM      5  C   UNL     1     110.609  52.662 232.543  1.00  0.00     0.041 C 
ATOM      6  O   UNL     1     110.076  53.781 232.317  1.00  0.00    -0.550 OA
ATOM      7  O   UNL     1     109.808  51.561 232.815  1.00  0.00    -0.550 OA
ENDBRANCH   4   5
ENDBRANCH   3   4
ENDBRANCH   2   3
ENDBRANCH   1   2
BRANCH   1   8
ATOM      8  C   UNL     1     112.260  55.036 229.696  1.00  0.00     0.000 C 
BRANCH   8   9
ATOM      9  C   UNL     1     112.945  53.798 229.095  1.00  0.00     0.000 C 
BRANCH   9  10
ATOM     10  C   UNL     1     113.115  53.898 227.569  1.00  0.00     0.006 C 
BRANCH  10  11
ATOM     11  C   UNL     1     111.839  54.389 226.875  1.00  0.00     0.053 C 
BRANCH  11  12
ATOM     12  C   UNL     1     111.495  53.546 225.684  1.00  0.00     0.041 C 
ATOM     13  O   UNL     1     112.205  53.598 224.646  1.00  0.00    -0.550 OA
ATOM     14  O   UNL     1     110.412  52.678 225.735  1.00  0.00    -0.550 OA
ENDBRANCH  11  12
ENDBRANCH  10  11
ENDBRANCH   9  10
ENDBRANCH   8   9
ENDBRANCH   1   8
TORSDOF 9
ENDMDL
MODEL 6
REMARK VINA RESULT:    -3.391     18.845     20.180
REMARK INTER + INTRA:          -5.611
REMARK INTER:                  -4.834
REMARK INTRA:                  -0.778
REMARK UNBOUND:                -0.436
REMARK SMILES O=C([O-])CCCCCCCCC(=O)[O-]
REMARK SMILES IDX 7 1 6 2 5 3 4 4 2 5 1 6 3 7 8 8 9 9 10 10 11 11 12 12 13 13
REMARK SMILES IDX 14 14
REMARK H PARENT
REMARK Flexibility Score: inf
ROOT
ATOM      1  C   UNL     1      96.920  64.155 224.114  1.00  0.00     0.000 C 
ENDROOT
BRANCH   1   2
ATOM      2  C   UNL     1      97.677  63.518 225.285  1.00  0.00     0.000 C 
BRANCH   2   3
ATOM      3  C   UNL     1      99.061  64.154 225.459  1.00  0.00     0.006 C 
BRANCH   3   4
ATOM      4  C   UNL     1      99.162  65.471 224.683  1.00  0.00     0.053 C 
BRANCH   4   5
ATOM      5  C   UNL     1     100.353  65.455 223.778  1.00  0.00     0.041 C 
ATOM      6  O   UNL     1     100.672  64.399 223.169  1.00  0.00    -0.550 OA
ATOM      7  O   UNL     1     101.084  66.617 223.568  1.00  0.00    -0.550 OA
ENDBRANCH   4   5
ENDBRANCH   3   4
ENDBRANCH   2   3
ENDBRANCH   1   2
BRANCH   1   8
ATOM      8  C   UNL     1      95.549  64.681 224.566  1.00  0.00     0.000 C 
BRANCH   8   9
ATOM      9  C   UNL     1      95.427  64.776 226.095  1.00  0.00     0.000 C 
BRANCH   9  10
ATOM     10  C   UNL     1      95.606  66.213 226.615  1.00  0.00     0.006 C 
BRANCH  10  11
ATOM     11  C   UNL     1      96.332  66.255 227.966  1.00  0.00     0.053 C 
BRANCH  11  12
ATOM     12  C   UNL     1      95.368  66.298 229.113  1.00  0.00     0.041 C 
ATOM     13  O   UNL     1      94.699  65.276 229.417  1.00  0.00    -0.550 OA
ATOM     14  O   UNL     1      95.237  67.457 229.868  1.00  0.00    -0.550 OA
ENDBRANCH  11  12
ENDBRANCH  10  11
ENDBRANCH   9  10
ENDBRANCH   8   9
ENDBRANCH   1   8
TORSDOF 9
ENDMDL
MODEL 7
REMARK VINA RESULT:    -3.343      2.354      3.321
REMARK INTER + INTRA:          -5.538
REMARK INTER:                  -5.178
REMARK INTRA:                  -0.361
REMARK UNBOUND:                -0.436
REMARK SMILES O=C([O-])CCCCCCCCC(=O)[O-]
REMARK SMILES IDX 7 1 6 2 5 3 4 4 2 5 1 6 3 7 8 8 9 9 10 10 11 11 12 12 13 13
REMARK SMILES IDX 14 14
REMARK H PARENT
REMARK Flexibility Score: inf
ROOT
ATOM      1  C   UNL     1     112.984  53.704 228.418  1.00  0.00     0.000 C 
ENDROOT
BRANCH   1   2
ATOM      2  C   UNL     1     113.484  54.915 229.214  1.00  0.00     0.000 C 
BRANCH   2   3
ATOM      3  C   UNL     1     113.412  54.652 230.722  1.00  0.00     0.006 C 
BRANCH   3   4
ATOM      4  C   UNL     1     112.461  53.492 231.033  1.00  0.00     0.053 C 
BRANCH   4   5
ATOM      5  C   UNL     1     112.712  52.964 232.411  1.00  0.00     0.041 C 
ATOM      6  O   UNL     1     113.863  52.571 232.738  1.00  0.00    -0.550 OA
ATOM      7  O   UNL     1     111.688  52.951 233.348  1.00  0.00    -0.550 OA
ENDBRANCH   4   5
ENDBRANCH   3   4
ENDBRANCH   2   3
ENDBRANCH   1   2
BRANCH   1   8
ATOM      8  C   UNL     1     113.114  53.946 226.907  1.00  0.00     0.000 C 
BRANCH   8   9
ATOM      9  C   UNL     1     111.939  53.359 226.110  1.00  0.00     0.000 C 
BRANCH   9  10
ATOM     10  C   UNL     1     110.866  54.410 225.776  1.00  0.00     0.006 C 
BRANCH  10  11
ATOM     11  C   UNL     1     109.507  53.771 225.466  1.00  0.00     0.053 C 
BRANCH  11  12
ATOM     12  C   UNL     1     109.426  53.297 224.046  1.00  0.00     0.041 C 
ATOM     13  O   UNL     1     109.513  52.069 223.783  1.00  0.00    -0.550 OA
ATOM     14  O   UNL     1     109.219  54.208 223.018  1.00  0.00    -0.550 OA
ENDBRANCH  11  12
ENDBRANCH  10  11
ENDBRANCH   9  10
ENDBRANCH   8   9
ENDBRANCH   1   8
TORSDOF 9
ENDMDL
MODEL 8
REMARK VINA RESULT:    -3.262     15.669     17.798
REMARK INTER + INTRA:          -5.414
REMARK INTER:                  -4.361
REMARK INTRA:                  -1.053
REMARK UNBOUND:                -0.436
REMARK SMILES O=C([O-])CCCCCCCCC(=O)[O-]
REMARK SMILES IDX 7 1 6 2 5 3 4 4 2 5 1 6 3 7 8 8 9 9 10 10 11 11 12 12 13 13
REMARK SMILES IDX 14 14
REMARK H PARENT
REMARK Flexibility Score: inf
ROOT
ATOM      1  C   UNL     1     112.778  62.656 216.934  1.00  0.00     0.000 C 
ENDROOT
BRANCH   1   2
ATOM      2  C   UNL     1     111.372  62.975 216.415  1.00  0.00     0.000 C 
BRANCH   2   3
ATOM      3  C   UNL     1     111.404  64.132 215.410  1.00  0.00     0.006 C 
BRANCH   3   4
ATOM      4  C   UNL     1     111.392  65.485 216.129  1.00  0.00     0.053 C 
BRANCH   4   5
ATOM      5  C   UNL     1     112.629  66.261 215.805  1.00  0.00     0.041 C 
ATOM      6  O   UNL     1     112.687  67.494 216.055  1.00  0.00    -0.550 OA
ATOM      7  O   UNL     1     113.736  65.615 215.271  1.00  0.00    -0.550 OA
ENDBRANCH   4   5
ENDBRANCH   3   4
ENDBRANCH   2   3
ENDBRANCH   1   2
BRANCH   1   8
ATOM      8  C   UNL     1     112.842  62.779 218.464  1.00  0.00     0.000 C 
BRANCH   8   9
ATOM      9  C   UNL     1     111.495  63.188 219.082  1.00  0.00     0.000 C 
BRANCH   9  10
ATOM     10  C   UNL     1     111.634  64.338 220.094  1.00  0.00     0.006 C 
BRANCH  10  11
ATOM     11  C   UNL     1     112.547  65.457 219.578  1.00  0.00     0.053 C 
BRANCH  11  12
ATOM     12  C   UNL     1     111.823  66.765 219.481  1.00  0.00     0.041 C 
ATOM     13  O   UNL     1     112.469  67.845 219.439  1.00  0.00    -0.550 OA
ATOM     14  O   UNL     1     110.436  66.789 219.401  1.00  0.00    -0.550 OA
ENDBRANCH  11  12
ENDBRANCH  10  11
ENDBRANCH   9  10
ENDBRANCH   8   9
ENDBRANCH   1   8
TORSDOF 9
ENDMDL
MODEL 9
REMARK VINA RESULT:    -3.216     18.551     19.588
REMARK INTER + INTRA:          -5.344
REMARK INTER:                  -4.392
REMARK INTRA:                  -0.952
REMARK UNBOUND:                -0.436
REMARK SMILES O=C([O-])CCCCCCCCC(=O)[O-]
REMARK SMILES IDX 7 1 6 2 5 3 4 4 2 5 1 6 3 7 8 8 9 9 10 10 11 11 12 12 13 13
REMARK SMILES IDX 14 14
REMARK H PARENT
REMARK Flexibility Score: inf
ROOT
ATOM      1  C   UNL     1      97.044  63.493 225.028  1.00  0.00     0.000 C 
ENDROOT
BRANCH   1   2
ATOM      2  C   UNL     1      98.210  63.594 226.018  1.00  0.00     0.000 C 
BRANCH   2   3
ATOM      3  C   UNL     1      99.075  64.826 225.727  1.00  0.00     0.006 C 
BRANCH   3   4
ATOM      4  C   UNL     1     100.550  64.439 225.580  1.00  0.00     0.053 C 
BRANCH   4   5
ATOM      5  C   UNL     1     100.803  63.845 224.230  1.00  0.00     0.041 C 
ATOM      6  O   UNL     1     101.096  62.625 224.120  1.00  0.00    -0.550 OA
ATOM      7  O   UNL     1     100.667  64.626 223.090  1.00  0.00    -0.550 OA
ENDBRANCH   4   5
ENDBRANCH   3   4
ENDBRANCH   2   3
ENDBRANCH   1   2
BRANCH   1   8
ATOM      8  C   UNL     1      97.084  64.644 224.011  1.00  0.00     0.000 C 
BRANCH   8   9
ATOM      9  C   UNL     1      95.683  65.143 223.625  1.00  0.00     0.000 C 
BRANCH   9  10
ATOM     10  C   UNL     1      94.780  65.376 224.849  1.00  0.00     0.006 C 
BRANCH  10  11
ATOM     11  C   UNL     1      95.158  66.650 225.614  1.00  0.00     0.053 C 
BRANCH  11  12
ATOM     12  C   UNL     1      95.648  66.345 226.996  1.00  0.00     0.041 C 
ATOM     13  O   UNL     1      96.610  66.994 227.485  1.00  0.00    -0.550 OA
ATOM     14  O   UNL     1      95.019  65.367 227.758  1.00  0.00    -0.550 OA
ENDBRANCH  11  12
ENDBRANCH  10  11
ENDBRANCH   9  10
ENDBRANCH   8   9
ENDBRANCH   1   8
TORSDOF 9
ENDMDL
