MODEL 1
REMARK VINA RESULT:    21.397      0.000      0.000
REMARK INTER + INTRA:          39.551
REMARK INTER:                  40.160
REMARK INTRA:                  -0.609
REMARK UNBOUND:                -0.609
REMARK SMILES CCCCCCCCC=CCCCCCCCC(=O)[O-]
REMARK SMILES IDX 10 1 9 2 11 3 12 4 13 5 14 6 15 7 16 8 17 9 18 10 19 11
REMARK SMILES IDX 20 12 8 13 7 14 6 15 5 16 4 17 3 18 2 19 1 20
REMARK H PARENT
REMARK Flexibility Score: inf
ROOT
ATOM      1  C   UNL     1     -37.921  25.701 -21.336  1.00  0.00    -0.031 C 
ATOM      2  C   UNL     1     -37.530  24.829 -20.397  1.00  0.00    -0.031 C 
ENDROOT
BRANCH   1   3
ATOM      3  C   UNL     1     -37.349  27.094 -21.376  1.00  0.00     0.027 C 
BRANCH   3   4
ATOM      4  C   UNL     1     -38.221  28.057 -22.194  1.00  0.00     0.004 C 
BRANCH   4   5
ATOM      5  C   UNL     1     -38.131  29.502 -21.674  1.00  0.00     0.000 C 
BRANCH   5   6
ATOM      6  C   UNL     1     -39.158  29.799 -20.570  1.00  0.00     0.000 C 
BRANCH   6   7
ATOM      7  C   UNL     1     -40.600  29.498 -21.003  1.00  0.00     0.000 C 
BRANCH   7   8
ATOM      8  C   UNL     1     -41.073  30.495 -22.069  1.00  0.00     0.006 C 
BRANCH   8   9
ATOM      9  C   UNL     1     -42.549  30.277 -22.409  1.00  0.00     0.053 C 
BRANCH   9  10
ATOM     10  C   UNL     1     -43.376  31.425 -21.921  1.00  0.00     0.041 C 
ATOM     11  O   UNL     1     -43.900  32.223 -22.742  1.00  0.00    -0.550 OA
ATOM     12  O   UNL     1     -43.607  31.587 -20.561  1.00  0.00    -0.550 OA
ENDBRANCH   9  10
ENDBRANCH   8   9
ENDBRANCH   7   8
ENDBRANCH   6   7
ENDBRANCH   5   6
ENDBRANCH   4   5
ENDBRANCH   3   4
ENDBRANCH   1   3
BRANCH   2  13
ATOM     13  C   UNL     1     -38.088  23.432 -20.333  1.00  0.00     0.027 C 
BRANCH  13  14
ATOM     14  C   UNL     1     -37.985  22.824 -18.927  1.00  0.00     0.004 C 
BRANCH  14  15
ATOM     15  C   UNL     1     -38.505  21.380 -18.879  1.00  0.00     0.000 C 
BRANCH  15  16
ATOM     16  C   UNL     1     -40.009  21.348 -18.576  1.00  0.00     0.000 C 
BRANCH  16  17
ATOM     17  C   UNL     1     -40.551  22.763 -18.324  1.00  0.00    -0.000 C 
BRANCH  17  18
ATOM     18  C   UNL     1     -41.885  22.765 -17.555  1.00  0.00    -0.000 C 
BRANCH  18  19
ATOM     19  C   UNL     1     -41.977  23.804 -16.424  1.00  0.00    -0.003 C 
ATOM     20  C   UNL     1     -42.857  23.346 -15.261  1.00  0.00     0.004 C 
ENDBRANCH  18  19
ENDBRANCH  17  18
ENDBRANCH  16  17
ENDBRANCH  15  16
ENDBRANCH  14  15
ENDBRANCH  13  14
ENDBRANCH   2  13
TORSDOF 15
ENDMDL
MODEL 2
REMARK VINA RESULT:    21.644      3.130      7.932
REMARK INTER + INTRA:          40.015
REMARK INTER:                  40.664
REMARK INTRA:                  -0.648
REMARK UNBOUND:                -0.609
REMARK SMILES CCCCCCCCC=CCCCCCCCC(=O)[O-]
REMARK SMILES IDX 10 1 9 2 11 3 12 4 13 5 14 6 15 7 16 8 17 9 18 10 19 11
REMARK SMILES IDX 20 12 8 13 7 14 6 15 5 16 4 17 3 18 2 19 1 20
REMARK H PARENT
REMARK Flexibility Score: inf
ROOT
ATOM      1  C   UNL     1     -37.815  25.467 -21.188  1.00  0.00    -0.031 C 
ATOM      2  C   UNL     1     -38.497  26.326 -21.958  1.00  0.00    -0.031 C 
ENDROOT
BRANCH   1   3
ATOM      3  C   UNL     1     -38.452  24.187 -20.715  1.00  0.00     0.027 C 
BRANCH   3   4
ATOM      4  C   UNL     1     -37.469  23.302 -19.935  1.00  0.00     0.004 C 
BRANCH   4   5
ATOM      5  C   UNL     1     -38.118  22.677 -18.689  1.00  0.00     0.000 C 
BRANCH   5   6
ATOM      6  C   UNL     1     -38.836  21.353 -18.996  1.00  0.00     0.000 C 
BRANCH   6   7
ATOM      7  C   UNL     1     -40.330  21.392 -18.645  1.00  0.00     0.000 C 
BRANCH   7   8
ATOM      8  C   UNL     1     -40.745  22.787 -18.163  1.00  0.00     0.006 C 
BRANCH   8   9
ATOM      9  C   UNL     1     -42.140  22.760 -17.533  1.00  0.00     0.053 C 
BRANCH   9  10
ATOM     10  C   UNL     1     -42.145  23.500 -16.233  1.00  0.00     0.041 C 
ATOM     11  O   UNL     1     -41.376  24.482 -16.059  1.00  0.00    -0.550 OA
ATOM     12  O   UNL     1     -43.033  23.135 -15.229  1.00  0.00    -0.550 OA
ENDBRANCH   9  10
ENDBRANCH   8   9
ENDBRANCH   7   8
ENDBRANCH   6   7
ENDBRANCH   5   6
ENDBRANCH   4   5
ENDBRANCH   3   4
ENDBRANCH   1   3
BRANCH   2  13
ATOM     13  C   UNL     1     -37.884  27.613 -22.442  1.00  0.00     0.027 C 
BRANCH  13  14
ATOM     14  C   UNL     1     -37.600  28.594 -21.295  1.00  0.00     0.004 C 
BRANCH  14  15
ATOM     15  C   UNL     1     -38.687  29.671 -21.170  1.00  0.00     0.000 C 
BRANCH  15  16
ATOM     16  C   UNL     1     -40.051  29.130 -21.617  1.00  0.00     0.000 C 
BRANCH  16  17
ATOM     17  C   UNL     1     -41.154  30.178 -21.412  1.00  0.00    -0.000 C 
BRANCH  17  18
ATOM     18  C   UNL     1     -41.974  30.442 -22.689  1.00  0.00    -0.000 C 
BRANCH  18  19
ATOM     19  C   UNL     1     -43.161  31.405 -22.506  1.00  0.00    -0.003 C 
ATOM     20  C   UNL     1     -43.733  31.388 -21.089  1.00  0.00     0.004 C 
ENDBRANCH  18  19
ENDBRANCH  17  18
ENDBRANCH  16  17
ENDBRANCH  15  16
ENDBRANCH  14  15
ENDBRANCH  13  14
ENDBRANCH   2  13
TORSDOF 15
ENDMDL
MODEL 3
REMARK VINA RESULT:    21.834      0.637      1.386
REMARK INTER + INTRA:          40.372
REMARK INTER:                  40.636
REMARK INTRA:                  -0.264
REMARK UNBOUND:                -0.609
REMARK SMILES CCCCCCCCC=CCCCCCCCC(=O)[O-]
REMARK SMILES IDX 10 1 9 2 11 3 12 4 13 5 14 6 15 7 16 8 17 9 18 10 19 11
REMARK SMILES IDX 20 12 8 13 7 14 6 15 5 16 4 17 3 18 2 19 1 20
REMARK H PARENT
REMARK Flexibility Score: inf
ROOT
ATOM      1  C   UNL     1     -37.433  26.700 -21.256  1.00  0.00    -0.031 C 
ATOM      2  C   UNL     1     -37.816  25.417 -21.234  1.00  0.00    -0.031 C 
ENDROOT
BRANCH   1   3
ATOM      3  C   UNL     1     -37.870  27.613 -22.371  1.00  0.00     0.027 C 
BRANCH   3   4
ATOM      4  C   UNL     1     -37.776  29.095 -21.980  1.00  0.00     0.004 C 
BRANCH   4   5
ATOM      5  C   UNL     1     -38.522  29.396 -20.670  1.00  0.00     0.000 C 
BRANCH   5   6
ATOM      6  C   UNL     1     -39.922  29.984 -20.907  1.00  0.00     0.000 C 
BRANCH   6   7
ATOM      7  C   UNL     1     -40.631  29.360 -22.118  1.00  0.00     0.000 C 
BRANCH   7   8
ATOM      8  C   UNL     1     -41.917  30.125 -22.455  1.00  0.00     0.006 C 
BRANCH   8   9
ATOM      9  C   UNL     1     -42.658  30.542 -21.182  1.00  0.00     0.053 C 
BRANCH   9  10
ATOM     10  C   UNL     1     -43.695  31.576 -21.493  1.00  0.00     0.041 C 
ATOM     11  O   UNL     1     -44.478  31.979 -20.593  1.00  0.00    -0.550 OA
ATOM     12  O   UNL     1     -43.765  32.128 -22.766  1.00  0.00    -0.550 OA
ENDBRANCH   9  10
ENDBRANCH   8   9
ENDBRANCH   7   8
ENDBRANCH   6   7
ENDBRANCH   5   6
ENDBRANCH   4   5
ENDBRANCH   3   4
ENDBRANCH   1   3
BRANCH   2  13
ATOM     13  C   UNL     1     -37.391  24.483 -20.133  1.00  0.00     0.027 C 
BRANCH  13  14
ATOM     14  C   UNL     1     -38.143  23.145 -20.176  1.00  0.00     0.004 C 
BRANCH  14  15
ATOM     15  C   UNL     1     -37.879  22.290 -18.928  1.00  0.00     0.000 C 
BRANCH  15  16
ATOM     16  C   UNL     1     -38.649  20.965 -18.997  1.00  0.00     0.000 C 
BRANCH  16  17
ATOM     17  C   UNL     1     -40.127  21.166 -18.630  1.00  0.00    -0.000 C 
BRANCH  17  18
ATOM     18  C   UNL     1     -40.452  22.615 -18.221  1.00  0.00    -0.000 C 
BRANCH  18  19
ATOM     19  C   UNL     1     -41.914  22.857 -17.806  1.00  0.00    -0.003 C 
ATOM     20  C   UNL     1     -42.045  23.518 -16.435  1.00  0.00     0.004 C 
ENDBRANCH  18  19
ENDBRANCH  17  18
ENDBRANCH  16  17
ENDBRANCH  15  16
ENDBRANCH  14  15
ENDBRANCH  13  14
ENDBRANCH   2  13
TORSDOF 15
ENDMDL
MODEL 4
REMARK VINA RESULT:    22.154      1.049      2.045
REMARK INTER + INTRA:          40.971
REMARK INTER:                  41.711
REMARK INTRA:                  -0.740
REMARK UNBOUND:                -0.609
REMARK SMILES CCCCCCCCC=CCCCCCCCC(=O)[O-]
REMARK SMILES IDX 10 1 9 2 11 3 12 4 13 5 14 6 15 7 16 8 17 9 18 10 19 11
REMARK SMILES IDX 20 12 8 13 7 14 6 15 5 16 4 17 3 18 2 19 1 20
REMARK H PARENT
REMARK Flexibility Score: inf
ROOT
ATOM      1  C   UNL     1     -38.166  24.288 -20.054  1.00  0.00    -0.031 C 
ATOM      2  C   UNL     1     -37.721  23.037 -19.875  1.00  0.00    -0.031 C 
ENDROOT
BRANCH   1   3
ATOM      3  C   UNL     1     -37.769  25.077 -21.274  1.00  0.00     0.027 C 
BRANCH   3   4
ATOM      4  C   UNL     1     -38.968  25.778 -21.929  1.00  0.00     0.004 C 
BRANCH   4   5
ATOM      5  C   UNL     1     -38.561  27.084 -22.631  1.00  0.00     0.000 C 
BRANCH   5   6
ATOM      6  C   UNL     1     -37.957  28.114 -21.663  1.00  0.00     0.000 C 
BRANCH   6   7
ATOM      7  C   UNL     1     -38.849  29.351 -21.480  1.00  0.00     0.000 C 
BRANCH   7   8
ATOM      8  C   UNL     1     -40.266  29.088 -22.002  1.00  0.00     0.006 C 
BRANCH   8   9
ATOM      9  C   UNL     1     -41.279  30.025 -21.338  1.00  0.00     0.053 C 
BRANCH   9  10
ATOM     10  C   UNL     1     -42.149  30.674 -22.369  1.00  0.00     0.041 C 
ATOM     11  O   UNL     1     -43.170  31.322 -22.019  1.00  0.00    -0.550 OA
ATOM     12  O   UNL     1     -41.806  30.602 -23.713  1.00  0.00    -0.550 OA
ENDBRANCH   9  10
ENDBRANCH   8   9
ENDBRANCH   7   8
ENDBRANCH   6   7
ENDBRANCH   5   6
ENDBRANCH   4   5
ENDBRANCH   3   4
ENDBRANCH   1   3
BRANCH   2  13
ATOM     13  C   UNL     1     -38.101  22.228 -18.664  1.00  0.00     0.027 C 
BRANCH  13  14
ATOM     14  C   UNL     1     -39.006  21.037 -19.015  1.00  0.00     0.004 C 
BRANCH  14  15
ATOM     15  C   UNL     1     -40.490  21.341 -18.759  1.00  0.00     0.000 C 
BRANCH  15  16
ATOM     16  C   UNL     1     -40.661  22.698 -18.067  1.00  0.00     0.000 C 
BRANCH  16  17
ATOM     17  C   UNL     1     -42.033  22.802 -17.386  1.00  0.00    -0.000 C 
BRANCH  17  18
ATOM     18  C   UNL     1     -42.073  23.866 -16.274  1.00  0.00    -0.000 C 
BRANCH  18  19
ATOM     19  C   UNL     1     -42.882  23.468 -15.027  1.00  0.00    -0.003 C 
ATOM     20  C   UNL     1     -42.190  23.847 -13.719  1.00  0.00     0.004 C 
ENDBRANCH  18  19
ENDBRANCH  17  18
ENDBRANCH  16  17
ENDBRANCH  15  16
ENDBRANCH  14  15
ENDBRANCH  13  14
ENDBRANCH   2  13
TORSDOF 15
ENDMDL
MODEL 5
REMARK VINA RESULT:    22.692      5.628      7.877
REMARK INTER + INTRA:          41.981
REMARK INTER:                  42.615
REMARK INTRA:                  -0.634
REMARK UNBOUND:                -0.609
REMARK SMILES CCCCCCCCC=CCCCCCCCC(=O)[O-]
REMARK SMILES IDX 10 1 9 2 11 3 12 4 13 5 14 6 15 7 16 8 17 9 18 10 19 11
REMARK SMILES IDX 20 12 8 13 7 14 6 15 5 16 4 17 3 18 2 19 1 20
REMARK H PARENT
REMARK Flexibility Score: inf
ROOT
ATOM      1  C   UNL     1     -35.034  31.821 -18.431  1.00  0.00    -0.031 C 
ATOM      2  C   UNL     1     -34.074  30.938 -18.738  1.00  0.00    -0.031 C 
ENDROOT
BRANCH   1   3
ATOM      3  C   UNL     1     -36.372  31.772 -19.120  1.00  0.00     0.027 C 
BRANCH   3   4
ATOM      4  C   UNL     1     -36.832  30.333 -19.394  1.00  0.00     0.004 C 
BRANCH   4   5
ATOM      5  C   UNL     1     -37.709  30.236 -20.654  1.00  0.00     0.000 C 
BRANCH   5   6
ATOM      6  C   UNL     1     -39.203  30.089 -20.325  1.00  0.00     0.000 C 
BRANCH   6   7
ATOM      7  C   UNL     1     -40.010  29.486 -21.485  1.00  0.00     0.000 C 
BRANCH   7   8
ATOM      8  C   UNL     1     -41.509  29.755 -21.310  1.00  0.00     0.006 C 
BRANCH   8   9
ATOM      9  C   UNL     1     -42.083  30.479 -22.531  1.00  0.00     0.053 C 
BRANCH   9  10
ATOM     10  C   UNL     1     -43.116  31.478 -22.112  1.00  0.00     0.041 C 
ATOM     11  O   UNL     1     -43.458  32.403 -22.895  1.00  0.00    -0.550 OA
ATOM     12  O   UNL     1     -43.734  31.361 -20.873  1.00  0.00    -0.550 OA
ENDBRANCH   9  10
ENDBRANCH   8   9
ENDBRANCH   7   8
ENDBRANCH   6   7
ENDBRANCH   5   6
ENDBRANCH   4   5
ENDBRANCH   3   4
ENDBRANCH   1   3
BRANCH   2  13
ATOM     13  C   UNL     1     -32.728  30.967 -18.066  1.00  0.00     0.027 C 
BRANCH  13  14
ATOM     14  C   UNL     1     -31.704  30.060 -18.765  1.00  0.00     0.004 C 
BRANCH  14  15
ATOM     15  C   UNL     1     -30.814  29.310 -17.764  1.00  0.00     0.000 C 
BRANCH  15  16
ATOM     16  C   UNL     1     -31.593  28.962 -16.489  1.00  0.00     0.000 C 
BRANCH  16  17
ATOM     17  C   UNL     1     -30.751  28.086 -15.550  1.00  0.00    -0.000 C 
BRANCH  17  18
ATOM     18  C   UNL     1     -30.579  26.646 -16.067  1.00  0.00    -0.000 C 
BRANCH  18  19
ATOM     19  C   UNL     1     -29.671  25.753 -15.203  1.00  0.00    -0.003 C 
ATOM     20  C   UNL     1     -28.372  25.362 -15.906  1.00  0.00     0.004 C 
ENDBRANCH  18  19
ENDBRANCH  17  18
ENDBRANCH  16  17
ENDBRANCH  15  16
ENDBRANCH  14  15
ENDBRANCH  13  14
ENDBRANCH   2  13
TORSDOF 15
ENDMDL
MODEL 6
REMARK VINA RESULT:    22.984      7.532     10.576
REMARK INTER + INTRA:          42.530
REMARK INTER:                  42.858
REMARK INTRA:                  -0.328
REMARK UNBOUND:                -0.609
REMARK SMILES CCCCCCCCC=CCCCCCCCC(=O)[O-]
REMARK SMILES IDX 10 1 9 2 11 3 12 4 13 5 14 6 15 7 16 8 17 9 18 10 19 11
REMARK SMILES IDX 20 12 8 13 7 14 6 15 5 16 4 17 3 18 2 19 1 20
REMARK H PARENT
REMARK Flexibility Score: inf
ROOT
ATOM      1  C   UNL     1     -34.929  31.019 -18.606  1.00  0.00    -0.031 C 
ATOM      2  C   UNL     1     -35.954  30.263 -19.020  1.00  0.00    -0.031 C 
ENDROOT
BRANCH   1   3
ATOM      3  C   UNL     1     -33.754  30.398 -17.897  1.00  0.00     0.027 C 
BRANCH   3   4
ATOM      4  C   UNL     1     -32.419  30.746 -18.571  1.00  0.00     0.004 C 
BRANCH   4   5
ATOM      5  C   UNL     1     -31.449  29.552 -18.582  1.00  0.00     0.000 C 
BRANCH   5   6
ATOM      6  C   UNL     1     -30.659  29.418 -17.270  1.00  0.00     0.000 C 
BRANCH   6   7
ATOM      7  C   UNL     1     -31.552  29.068 -16.071  1.00  0.00     0.000 C 
BRANCH   7   8
ATOM      8  C   UNL     1     -31.049  27.807 -15.360  1.00  0.00     0.006 C 
BRANCH   8   9
ATOM      9  C   UNL     1     -30.282  26.900 -16.326  1.00  0.00     0.053 C 
BRANCH   9  10
ATOM     10  C   UNL     1     -29.402  25.953 -15.573  1.00  0.00     0.041 C 
ATOM     11  O   UNL     1     -28.154  25.974 -15.744  1.00  0.00    -0.550 OA
ATOM     12  O   UNL     1     -29.955  25.079 -14.645  1.00  0.00    -0.550 OA
ENDBRANCH   9  10
ENDBRANCH   8   9
ENDBRANCH   7   8
ENDBRANCH   6   7
ENDBRANCH   5   6
ENDBRANCH   4   5
ENDBRANCH   3   4
ENDBRANCH   1   3
BRANCH   2  13
ATOM     13  C   UNL     1     -37.141  30.859 -19.729  1.00  0.00     0.027 C 
BRANCH  13  14
ATOM     14  C   UNL     1     -37.941  29.809 -20.515  1.00  0.00     0.004 C 
BRANCH  14  15
ATOM     15  C   UNL     1     -39.438  30.148 -20.576  1.00  0.00     0.000 C 
BRANCH  15  16
ATOM     16  C   UNL     1     -40.145  29.319 -21.656  1.00  0.00     0.000 C 
BRANCH  16  17
ATOM     17  C   UNL     1     -41.648  29.628 -21.693  1.00  0.00    -0.000 C 
BRANCH  17  18
ATOM     18  C   UNL     1     -42.027  30.634 -22.796  1.00  0.00    -0.000 C 
BRANCH  18  19
ATOM     19  C   UNL     1     -43.078  31.680 -22.384  1.00  0.00    -0.003 C 
ATOM     20  C   UNL     1     -43.776  31.340 -21.068  1.00  0.00     0.004 C 
ENDBRANCH  18  19
ENDBRANCH  17  18
ENDBRANCH  16  17
ENDBRANCH  15  16
ENDBRANCH  14  15
ENDBRANCH  13  14
ENDBRANCH   2  13
TORSDOF 15
ENDMDL
MODEL 7
REMARK VINA RESULT:    23.025      2.969      7.882
REMARK INTER + INTRA:          42.606
REMARK INTER:                  43.534
REMARK INTRA:                  -0.927
REMARK UNBOUND:                -0.609
REMARK SMILES CCCCCCCCC=CCCCCCCCC(=O)[O-]
REMARK SMILES IDX 10 1 9 2 11 3 12 4 13 5 14 6 15 7 16 8 17 9 18 10 19 11
REMARK SMILES IDX 20 12 8 13 7 14 6 15 5 16 4 17 3 18 2 19 1 20
REMARK H PARENT
REMARK Flexibility Score: inf
ROOT
ATOM      1  C   UNL     1     -36.963  27.434 -20.980  1.00  0.00    -0.031 C 
ATOM      2  C   UNL     1     -37.900  27.834 -21.850  1.00  0.00    -0.031 C 
ENDROOT
BRANCH   1   3
ATOM      3  C   UNL     1     -36.573  25.982 -20.885  1.00  0.00     0.027 C 
BRANCH   3   4
ATOM      4  C   UNL     1     -37.705  25.046 -21.332  1.00  0.00     0.004 C 
BRANCH   4   5
ATOM      5  C   UNL     1     -38.244  24.196 -20.169  1.00  0.00     0.000 C 
BRANCH   5   6
ATOM      6  C   UNL     1     -37.603  22.800 -20.108  1.00  0.00     0.000 C 
BRANCH   6   7
ATOM      7  C   UNL     1     -38.154  21.944 -18.958  1.00  0.00     0.000 C 
BRANCH   7   8
ATOM      8  C   UNL     1     -39.246  22.695 -18.188  1.00  0.00     0.006 C 
BRANCH   8   9
ATOM      9  C   UNL     1     -40.606  22.013 -18.357  1.00  0.00     0.053 C 
BRANCH   9  10
ATOM     10  C   UNL     1     -41.708  22.916 -17.899  1.00  0.00     0.041 C 
ATOM     11  O   UNL     1     -42.104  23.858 -18.634  1.00  0.00    -0.550 OA
ATOM     12  O   UNL     1     -42.330  22.688 -16.678  1.00  0.00    -0.550 OA
ENDBRANCH   9  10
ENDBRANCH   8   9
ENDBRANCH   7   8
ENDBRANCH   6   7
ENDBRANCH   5   6
ENDBRANCH   4   5
ENDBRANCH   3   4
ENDBRANCH   1   3
BRANCH   2  13
ATOM     13  C   UNL     1     -38.309  29.278 -21.963  1.00  0.00     0.027 C 
BRANCH  13  14
ATOM     14  C   UNL     1     -38.913  29.819 -20.658  1.00  0.00     0.004 C 
BRANCH  14  15
ATOM     15  C   UNL     1     -40.422  30.073 -20.779  1.00  0.00     0.000 C 
BRANCH  15  16
ATOM     16  C   UNL     1     -40.982  29.455 -22.066  1.00  0.00     0.000 C 
BRANCH  16  17
ATOM     17  C   UNL     1     -41.535  30.538 -23.003  1.00  0.00    -0.000 C 
BRANCH  17  18
ATOM     18  C   UNL     1     -43.053  30.416 -23.231  1.00  0.00    -0.000 C 
BRANCH  18  19
ATOM     19  C   UNL     1     -43.920  30.749 -22.004  1.00  0.00    -0.003 C 
ATOM     20  C   UNL     1     -43.439  31.988 -21.250  1.00  0.00     0.004 C 
ENDBRANCH  18  19
ENDBRANCH  17  18
ENDBRANCH  16  17
ENDBRANCH  15  16
ENDBRANCH  14  15
ENDBRANCH  13  14
ENDBRANCH   2  13
TORSDOF 15
ENDMDL
MODEL 8
REMARK VINA RESULT:    23.246      3.948      8.258
REMARK INTER + INTRA:          43.022
REMARK INTER:                  43.730
REMARK INTRA:                  -0.708
REMARK UNBOUND:                -0.609
REMARK SMILES CCCCCCCCC=CCCCCCCCC(=O)[O-]
REMARK SMILES IDX 10 1 9 2 11 3 12 4 13 5 14 6 15 7 16 8 17 9 18 10 19 11
REMARK SMILES IDX 20 12 8 13 7 14 6 15 5 16 4 17 3 18 2 19 1 20
REMARK H PARENT
REMARK Flexibility Score: inf
ROOT
ATOM      1  C   UNL     1     -37.667  23.800 -19.801  1.00  0.00    -0.031 C 
ATOM      2  C   UNL     1     -38.139  24.572 -20.789  1.00  0.00    -0.031 C 
ENDROOT
BRANCH   1   3
ATOM      3  C   UNL     1     -38.409  22.560 -19.375  1.00  0.00     0.027 C 
BRANCH   3   4
ATOM      4  C   UNL     1     -39.300  22.809 -18.149  1.00  0.00     0.004 C 
BRANCH   4   5
ATOM      5  C   UNL     1     -40.790  22.883 -18.523  1.00  0.00     0.000 C 
BRANCH   5   6
ATOM      6  C   UNL     1     -41.715  22.704 -17.309  1.00  0.00     0.000 C 
BRANCH   6   7
ATOM      7  C   UNL     1     -42.081  24.037 -16.640  1.00  0.00     0.000 C 
BRANCH   7   8
ATOM      8  C   UNL     1     -41.392  24.176 -15.277  1.00  0.00     0.006 C 
BRANCH   8   9
ATOM      9  C   UNL     1     -42.395  24.001 -14.134  1.00  0.00     0.053 C 
BRANCH   9  10
ATOM     10  C   UNL     1     -41.733  24.242 -12.813  1.00  0.00     0.041 C 
ATOM     11  O   UNL     1     -40.480  24.340 -12.740  1.00  0.00    -0.550 OA
ATOM     12  O   UNL     1     -42.505  24.406 -11.669  1.00  0.00    -0.550 OA
ENDBRANCH   9  10
ENDBRANCH   8   9
ENDBRANCH   7   8
ENDBRANCH   6   7
ENDBRANCH   5   6
ENDBRANCH   4   5
ENDBRANCH   3   4
ENDBRANCH   1   3
BRANCH   2  13
ATOM     13  C   UNL     1     -37.418  25.817 -21.233  1.00  0.00     0.027 C 
BRANCH  13  14
ATOM     14  C   UNL     1     -38.353  26.819 -21.928  1.00  0.00     0.004 C 
BRANCH  14  15
ATOM     15  C   UNL     1     -37.715  28.209 -22.065  1.00  0.00     0.000 C 
BRANCH  15  16
ATOM     16  C   UNL     1     -38.713  29.311 -21.688  1.00  0.00     0.000 C 
BRANCH  16  17
ATOM     17  C   UNL     1     -40.156  28.787 -21.734  1.00  0.00    -0.000 C 
BRANCH  17  18
ATOM     18  C   UNL     1     -41.195  29.859 -21.355  1.00  0.00    -0.000 C 
BRANCH  18  19
ATOM     19  C   UNL     1     -41.935  30.491 -22.547  1.00  0.00    -0.003 C 
ATOM     20  C   UNL     1     -43.174  31.282 -22.129  1.00  0.00     0.004 C 
ENDBRANCH  18  19
ENDBRANCH  17  18
ENDBRANCH  16  17
ENDBRANCH  15  16
ENDBRANCH  14  15
ENDBRANCH  13  14
ENDBRANCH   2  13
TORSDOF 15
ENDMDL
MODEL 9
REMARK VINA RESULT:    23.455      3.254      4.097
REMARK INTER + INTRA:          43.413
REMARK INTER:                  42.750
REMARK INTRA:                   0.664
REMARK UNBOUND:                -0.609
REMARK SMILES CCCCCCCCC=CCCCCCCCC(=O)[O-]
REMARK SMILES IDX 10 1 9 2 11 3 12 4 13 5 14 6 15 7 16 8 17 9 18 10 19 11
REMARK SMILES IDX 20 12 8 13 7 14 6 15 5 16 4 17 3 18 2 19 1 20
REMARK H PARENT
REMARK Flexibility Score: inf
ROOT
ATOM      1  C   UNL     1     -38.584  25.314 -22.029  1.00  0.00    -0.031 C 
ATOM      2  C   UNL     1     -37.862  24.986 -20.949  1.00  0.00    -0.031 C 
ENDROOT
BRANCH   1   3
ATOM      3  C   UNL     1     -38.715  26.753 -22.457  1.00  0.00     0.027 C 
BRANCH   3   4
ATOM      4  C   UNL     1     -37.446  27.565 -22.161  1.00  0.00     0.004 C 
BRANCH   4   5
ATOM      5  C   UNL     1     -37.594  29.038 -22.577  1.00  0.00     0.000 C 
BRANCH   5   6
ATOM      6  C   UNL     1     -37.287  29.268 -24.065  1.00  0.00     0.000 C 
BRANCH   6   7
ATOM      7  C   UNL     1     -36.164  30.291 -24.290  1.00  0.00     0.000 C 
BRANCH   7   8
ATOM      8  C   UNL     1     -35.916  30.515 -25.786  1.00  0.00     0.006 C 
BRANCH   8   9
ATOM      9  C   UNL     1     -35.912  32.009 -26.125  1.00  0.00     0.053 C 
BRANCH   9  10
ATOM     10  C   UNL     1     -37.007  32.717 -25.391  1.00  0.00     0.041 C 
ATOM     11  O   UNL     1     -36.949  32.851 -24.140  1.00  0.00    -0.550 OA
ATOM     12  O   UNL     1     -38.069  33.271 -26.094  1.00  0.00    -0.550 OA
ENDBRANCH   9  10
ENDBRANCH   8   9
ENDBRANCH   7   8
ENDBRANCH   6   7
ENDBRANCH   5   6
ENDBRANCH   4   5
ENDBRANCH   3   4
ENDBRANCH   1   3
BRANCH   2  13
ATOM     13  C   UNL     1     -37.716  23.558 -20.499  1.00  0.00     0.027 C 
BRANCH  13  14
ATOM     14  C   UNL     1     -38.228  23.339 -19.068  1.00  0.00     0.004 C 
BRANCH  14  15
ATOM     15  C   UNL     1     -38.004  21.898 -18.585  1.00  0.00     0.000 C 
BRANCH  15  16
ATOM     16  C   UNL     1     -39.057  20.952 -19.176  1.00  0.00     0.000 C 
BRANCH  16  17
ATOM     17  C   UNL     1     -40.413  21.130 -18.479  1.00  0.00    -0.000 C 
BRANCH  17  18
ATOM     18  C   UNL     1     -40.828  22.606 -18.342  1.00  0.00    -0.000 C 
BRANCH  18  19
ATOM     19  C   UNL     1     -42.125  22.842 -17.549  1.00  0.00    -0.003 C 
ATOM     20  C   UNL     1     -41.929  23.757 -16.340  1.00  0.00     0.004 C 
ENDBRANCH  18  19
ENDBRANCH  17  18
ENDBRANCH  16  17
ENDBRANCH  15  16
ENDBRANCH  14  15
ENDBRANCH  13  14
ENDBRANCH   2  13
TORSDOF 15
ENDMDL
