MODEL 1
REMARK VINA RESULT:    -2.933      0.000      0.000
REMARK INTER + INTRA:          -4.890
REMARK INTER:                  -4.476
REMARK INTRA:                  -0.414
REMARK UNBOUND:                -0.414
REMARK SMILES CC1=CCC[C@@H](C)C(=O)C[C@H](C(C)C)C(=O)C1
REMARK SMILES IDX 8 1 9 2 6 3 7 4 5 5 4 6 3 7 2 8 1 9 10 11 11 12 15 13 16 14
REMARK SMILES IDX 17 15 12 17 13 18 14 19
REMARK H PARENT
REMARK Flexibility Score: 70.00
ROOT
ATOM      1  C   UNL     1     146.902 153.100 167.117  1.00  0.00     0.136 C 
ATOM      2  O   UNL     1     146.499 152.350 167.996  1.00  0.00    -0.299 OA
ENDROOT
BRANCH   1   3
ATOM      3  C   UNL     1     145.996 153.442 165.951  1.00  0.00     0.053 C 
ATOM      4  C   UNL     1     144.583 153.734 166.467  1.00  0.00     0.016 C 
BRANCH   3   5
ATOM      5  C   UNL     1     145.959 152.312 164.901  1.00  0.00     0.015 C 
BRANCH   5   6
ATOM      6  C   UNL     1     146.537 152.696 163.528  1.00  0.00     0.028 C 
BRANCH   6   7
ATOM      7  C   UNL     1     146.721 154.185 163.341  1.00  0.00    -0.028 C 
ATOM      8  C   UNL     1     147.882 154.888 163.320  1.00  0.00    -0.070 CG0
ATOM      9  C   UNL     1     147.773 156.365 163.015  1.00  0.00     0.039 C 
ATOM     10  G   UNL     1     149.262 154.337 163.664  1.00  0.00     0.000 G0
ENDBRANCH   6   7
ENDBRANCH   5   6
ENDBRANCH   3   5
ENDBRANCH   1   3
BRANCH   1  11
ATOM     11  C   UNL     1     148.282 153.694 167.239  1.00  0.00     0.087 C 
BRANCH  11  12
ATOM     12  C   UNL     1     149.228 153.242 166.094  1.00  0.00     0.066 C 
BRANCH  12  13
ATOM     13  C   UNL     1     149.629 154.350 165.118  1.00  0.00     0.140 C 
ATOM     14  O   UNL     1     150.209 155.332 165.560  1.00  0.00    -0.299 OA
BRANCH  13  15
ATOM     15  C   UNL     1     149.259 154.337 163.653  1.00  0.00     0.106 CG0
ATOM     16  G   UNL     1     147.872 154.884 163.332  1.00  0.00     0.000 G0
ENDBRANCH  13  15
ENDBRANCH  12  13
BRANCH  12  17
ATOM     17  C   UNL     1     150.462 152.467 166.651  1.00  0.00    -0.006 C 
ATOM     18  C   UNL     1     151.119 151.533 165.620  1.00  0.00     0.008 C 
ATOM     19  C   UNL     1     150.118 151.681 167.925  1.00  0.00     0.008 C 
ENDBRANCH  12  17
ENDBRANCH  11  12
ENDBRANCH   1  11
TORSDOF 1
ENDMDL
MODEL 2
REMARK VINA RESULT:    -2.895      1.532      4.016
REMARK INTER + INTRA:          -4.832
REMARK INTER:                  -4.547
REMARK INTRA:                  -0.285
REMARK UNBOUND:                -0.414
REMARK SMILES CC1=CCC[C@@H](C)C(=O)C[C@H](C(C)C)C(=O)C1
REMARK SMILES IDX 8 1 9 2 6 3 7 4 5 5 4 6 3 7 2 8 1 9 10 11 11 12 15 13 16 14
REMARK SMILES IDX 17 15 12 17 13 18 14 19
REMARK H PARENT
REMARK Flexibility Score: 70.00
ROOT
ATOM      1  C   UNL     1     148.110 152.829 167.657  1.00  0.00     0.136 C 
ATOM      2  O   UNL     1     148.313 153.919 168.173  1.00  0.00    -0.299 OA
ENDROOT
BRANCH   1   3
ATOM      3  C   UNL     1     149.196 151.771 167.692  1.00  0.00     0.053 C 
ATOM      4  C   UNL     1     149.249 151.137 169.086  1.00  0.00     0.016 C 
BRANCH   3   5
ATOM      5  C   UNL     1     150.575 152.350 167.315  1.00  0.00     0.015 C 
BRANCH   5   6
ATOM      6  C   UNL     1     150.767 152.616 165.811  1.00  0.00     0.028 C 
BRANCH   6   7
ATOM      7  C   UNL     1     150.446 154.034 165.399  1.00  0.00    -0.028 C 
ATOM      8  C   UNL     1     149.438 154.464 164.597  1.00  0.00    -0.070 CG0
ATOM      9  C   UNL     1     149.295 155.961 164.433  1.00  0.00     0.039 C 
ATOM     10  G   UNL     1     148.503 153.571 163.786  1.00  0.00     0.000 G0
ENDBRANCH   6   7
ENDBRANCH   5   6
ENDBRANCH   3   5
ENDBRANCH   1   3
BRANCH   1  11
ATOM     11  C   UNL     1     146.768 152.555 167.029  1.00  0.00     0.087 C 
BRANCH  11  12
ATOM     12  C   UNL     1     146.608 153.237 165.643  1.00  0.00     0.066 C 
BRANCH  12  13
ATOM     13  C   UNL     1     147.539 152.703 164.554  1.00  0.00     0.140 C 
ATOM     14  O   UNL     1     147.576 151.496 164.361  1.00  0.00    -0.299 OA
BRANCH  13  15
ATOM     15  C   UNL     1     148.487 153.580 163.771  1.00  0.00     0.106 CG0
ATOM     16  G   UNL     1     149.419 154.442 164.617  1.00  0.00     0.000 G0
ENDBRANCH  13  15
ENDBRANCH  12  13
BRANCH  12  17
ATOM     17  C   UNL     1     145.115 153.258 165.190  1.00  0.00    -0.006 C 
ATOM     18  C   UNL     1     144.738 154.502 164.367  1.00  0.00     0.008 C 
ATOM     19  C   UNL     1     144.153 153.104 166.378  1.00  0.00     0.008 C 
ENDBRANCH  12  17
ENDBRANCH  11  12
ENDBRANCH   1  11
TORSDOF 1
ENDMDL
MODEL 3
REMARK VINA RESULT:    -2.894      2.299      3.889
REMARK INTER + INTRA:          -4.831
REMARK INTER:                  -4.475
REMARK INTRA:                  -0.355
REMARK UNBOUND:                -0.414
REMARK SMILES CC1=CCC[C@@H](C)C(=O)C[C@H](C(C)C)C(=O)C1
REMARK SMILES IDX 8 1 9 2 6 3 7 4 5 5 4 6 3 7 2 8 1 9 10 11 11 12 15 13 16 14
REMARK SMILES IDX 17 15 12 17 13 18 14 19
REMARK H PARENT
REMARK Flexibility Score: 70.00
ROOT
ATOM      1  C   UNL     1     150.107 155.048 164.929  1.00  0.00     0.136 C 
ATOM      2  O   UNL     1     150.156 156.153 165.451  1.00  0.00    -0.299 OA
ENDROOT
BRANCH   1   3
ATOM      3  C   UNL     1     149.637 154.918 163.493  1.00  0.00     0.053 C 
ATOM      4  C   UNL     1     150.278 156.019 162.642  1.00  0.00     0.016 C 
BRANCH   3   5
ATOM      5  C   UNL     1     148.099 154.985 163.384  1.00  0.00     0.015 C 
BRANCH   5   6
ATOM      6  C   UNL     1     147.441 153.703 162.845  1.00  0.00     0.028 C 
BRANCH   6   7
ATOM      7  C   UNL     1     148.370 152.843 162.020  1.00  0.00    -0.028 C 
ATOM      8  C   UNL     1     148.921 151.647 162.356  1.00  0.00    -0.070 CG0
ATOM      9  C   UNL     1     149.742 150.958 161.289  1.00  0.00     0.039 C 
ATOM     10  G   UNL     1     148.854 150.992 163.732  1.00  0.00     0.000 G0
ENDBRANCH   6   7
ENDBRANCH   5   6
ENDBRANCH   3   5
ENDBRANCH   1   3
BRANCH   1  11
ATOM     11  C   UNL     1     150.553 153.845 165.720  1.00  0.00     0.087 C 
BRANCH  11  12
ATOM     12  C   UNL     1     149.510 152.695 165.695  1.00  0.00     0.066 C 
BRANCH  12  13
ATOM     13  C   UNL     1     149.853 151.538 164.755  1.00  0.00     0.140 C 
ATOM     14  O   UNL     1     150.994 151.098 164.767  1.00  0.00    -0.299 OA
BRANCH  13  15
ATOM     15  C   UNL     1     148.881 150.975 163.744  1.00  0.00     0.106 CG0
ATOM     16  G   UNL     1     148.915 151.643 162.373  1.00  0.00     0.000 G0
ENDBRANCH  13  15
ENDBRANCH  12  13
BRANCH  12  17
ATOM     17  C   UNL     1     149.167 152.207 167.136  1.00  0.00    -0.006 C 
ATOM     18  C   UNL     1     148.117 153.077 167.848  1.00  0.00     0.008 C 
ATOM     19  C   UNL     1     150.424 152.080 168.011  1.00  0.00     0.008 C 
ENDBRANCH  12  17
ENDBRANCH  11  12
ENDBRANCH   1  11
TORSDOF 1
ENDMDL
MODEL 4
REMARK VINA RESULT:    -2.841      3.323      4.890
REMARK INTER + INTRA:          -4.750
REMARK INTER:                  -4.227
REMARK INTRA:                  -0.522
REMARK UNBOUND:                -0.414
REMARK SMILES CC1=CCC[C@@H](C)C(=O)C[C@H](C(C)C)C(=O)C1
REMARK SMILES IDX 8 1 9 2 6 3 7 4 5 5 4 6 3 7 2 8 1 9 10 11 11 12 15 13 16 14
REMARK SMILES IDX 17 15 12 17 13 18 14 19
REMARK H PARENT
REMARK Flexibility Score: 70.00
ROOT
ATOM      1  C   UNL     1     150.120 150.951 164.847  1.00  0.00     0.136 C 
ATOM      2  O   UNL     1     150.394 151.282 165.992  1.00  0.00    -0.299 OA
ENDROOT
BRANCH   1   3
ATOM      3  C   UNL     1     150.733 149.692 164.264  1.00  0.00     0.053 C 
ATOM      4  C   UNL     1     151.957 150.061 163.419  1.00  0.00     0.016 C 
BRANCH   3   5
ATOM      5  C   UNL     1     149.717 148.898 163.416  1.00  0.00     0.015 C 
BRANCH   5   6
ATOM      6  C   UNL     1     149.988 148.928 161.902  1.00  0.00     0.028 C 
BRANCH   6   7
ATOM      7  C   UNL     1     148.915 149.634 161.106  1.00  0.00    -0.028 C 
ATOM      8  C   UNL     1     148.940 150.897 160.605  1.00  0.00    -0.070 CG0
ATOM      9  C   UNL     1     147.758 151.311 159.757  1.00  0.00     0.039 C 
ATOM     10  G   UNL     1     150.006 151.948 160.896  1.00  0.00     0.000 G0
ENDBRANCH   6   7
ENDBRANCH   5   6
ENDBRANCH   3   5
ENDBRANCH   1   3
BRANCH   1  11
ATOM     11  C   UNL     1     149.149 151.789 164.055  1.00  0.00     0.087 C 
BRANCH  11  12
ATOM     12  C   UNL     1     149.834 152.996 163.358  1.00  0.00     0.066 C 
BRANCH  12  13
ATOM     13  C   UNL     1     149.622 153.067 161.844  1.00  0.00     0.140 C 
ATOM     14  O   UNL     1     149.035 154.036 161.385  1.00  0.00    -0.299 OA
BRANCH  13  15
ATOM     15  C   UNL     1     150.015 151.956 160.899  1.00  0.00     0.106 CG0
ATOM     16  G   UNL     1     148.927 150.922 160.628  1.00  0.00     0.000 G0
ENDBRANCH  13  15
ENDBRANCH  12  13
BRANCH  12  17
ATOM     17  C   UNL     1     149.483 154.338 164.070  1.00  0.00    -0.006 C 
ATOM     18  C   UNL     1     150.628 154.898 164.931  1.00  0.00     0.008 C 
ATOM     19  C   UNL     1     148.203 154.222 164.911  1.00  0.00     0.008 C 
ENDBRANCH  12  17
ENDBRANCH  11  12
ENDBRANCH   1  11
TORSDOF 1
ENDMDL
MODEL 5
REMARK VINA RESULT:    -2.772      2.321      2.928
REMARK INTER + INTRA:          -4.645
REMARK INTER:                  -4.378
REMARK INTRA:                  -0.267
REMARK UNBOUND:                -0.414
REMARK SMILES CC1=CCC[C@@H](C)C(=O)C[C@H](C(C)C)C(=O)C1
REMARK SMILES IDX 8 1 9 2 6 3 7 4 5 5 4 6 3 7 2 8 1 9 10 11 11 12 15 13 16 14
REMARK SMILES IDX 17 15 12 17 13 18 14 19
REMARK H PARENT
REMARK Flexibility Score: 70.00
ROOT
ATOM      1  C   UNL     1     146.573 151.533 168.634  1.00  0.00     0.136 C 
ATOM      2  O   UNL     1     146.770 150.526 169.299  1.00  0.00    -0.299 OA
ENDROOT
BRANCH   1   3
ATOM      3  C   UNL     1     145.164 151.875 168.192  1.00  0.00     0.053 C 
ATOM      4  C   UNL     1     144.394 152.490 169.365  1.00  0.00     0.016 C 
BRANCH   3   5
ATOM      5  C   UNL     1     144.416 150.638 167.651  1.00  0.00     0.015 C 
BRANCH   5   6
ATOM      6  C   UNL     1     144.595 150.393 166.142  1.00  0.00     0.028 C 
BRANCH   6   7
ATOM      7  C   UNL     1     144.453 151.642 165.302  1.00  0.00    -0.028 C 
ATOM      8  C   UNL     1     145.420 152.301 164.613  1.00  0.00    -0.070 CG0
ATOM      9  C   UNL     1     144.971 153.475 163.773  1.00  0.00     0.039 C 
ATOM     10  G   UNL     1     146.917 152.014 164.686  1.00  0.00     0.000 G0
ENDBRANCH   6   7
ENDBRANCH   5   6
ENDBRANCH   3   5
ENDBRANCH   1   3
BRANCH   1  11
ATOM     11  C   UNL     1     147.739 152.430 168.301  1.00  0.00     0.087 C 
BRANCH  11  12
ATOM     12  C   UNL     1     148.375 152.095 166.925  1.00  0.00     0.066 C 
BRANCH  12  13
ATOM     13  C   UNL     1     147.704 152.768 165.727  1.00  0.00     0.140 C 
ATOM     14  O   UNL     1     147.736 153.989 165.653  1.00  0.00    -0.299 OA
BRANCH  13  15
ATOM     15  C   UNL     1     146.920 152.010 164.682  1.00  0.00     0.106 CG0
ATOM     16  G   UNL     1     145.426 152.319 164.642  1.00  0.00     0.000 G0
ENDBRANCH  13  15
ENDBRANCH  12  13
BRANCH  12  17
ATOM     17  C   UNL     1     149.919 152.318 166.944  1.00  0.00    -0.006 C 
ATOM     18  C   UNL     1     150.650 151.669 165.756  1.00  0.00     0.008 C 
ATOM     19  C   UNL     1     150.549 151.854 168.265  1.00  0.00     0.008 C 
ENDBRANCH  12  17
ENDBRANCH  11  12
ENDBRANCH   1  11
TORSDOF 1
ENDMDL
MODEL 6
REMARK VINA RESULT:    -2.702      2.660      4.172
REMARK INTER + INTRA:          -4.537
REMARK INTER:                  -4.067
REMARK INTRA:                  -0.470
REMARK UNBOUND:                -0.414
REMARK SMILES CC1=CCC[C@@H](C)C(=O)C[C@H](C(C)C)C(=O)C1
REMARK SMILES IDX 8 1 9 2 6 3 7 4 5 5 4 6 3 7 2 8 1 9 10 11 11 12 15 13 16 14
REMARK SMILES IDX 17 15 12 17 13 18 14 19
REMARK H PARENT
REMARK Flexibility Score: 70.00
ROOT
ATOM      1  C   UNL     1     149.960 153.083 165.149  1.00  0.00     0.136 C 
ATOM      2  O   UNL     1     150.801 152.758 165.975  1.00  0.00    -0.299 OA
ENDROOT
BRANCH   1   3
ATOM      3  C   UNL     1     148.933 154.142 165.502  1.00  0.00     0.053 C 
ATOM      4  C   UNL     1     149.626 155.501 165.642  1.00  0.00     0.016 C 
BRANCH   3   5
ATOM      5  C   UNL     1     148.171 153.793 166.797  1.00  0.00     0.015 C 
BRANCH   5   6
ATOM      6  C   UNL     1     147.141 152.659 166.647  1.00  0.00     0.028 C 
BRANCH   6   7
ATOM      7  C   UNL     1     146.145 152.886 165.532  1.00  0.00    -0.028 C 
ATOM      8  C   UNL     1     145.869 152.074 164.480  1.00  0.00    -0.070 CG0
ATOM      9  C   UNL     1     144.747 152.511 163.565  1.00  0.00     0.039 C 
ATOM     10  G   UNL     1     146.646 150.818 164.097  1.00  0.00     0.000 G0
ENDBRANCH   6   7
ENDBRANCH   5   6
ENDBRANCH   3   5
ENDBRANCH   1   3
BRANCH   1  11
ATOM     11  C   UNL     1     149.990 152.444 163.784  1.00  0.00     0.087 C 
BRANCH  11  12
ATOM     12  C   UNL     1     149.297 151.055 163.761  1.00  0.00     0.066 C 
BRANCH  12  13
ATOM     13  C   UNL     1     147.868 151.060 163.213  1.00  0.00     0.140 C 
ATOM     14  O   UNL     1     147.697 151.363 162.041  1.00  0.00    -0.299 OA
BRANCH  13  15
ATOM     15  C   UNL     1     146.651 150.805 164.071  1.00  0.00     0.106 CG0
ATOM     16  G   UNL     1     145.873 152.053 164.476  1.00  0.00     0.000 G0
ENDBRANCH  13  15
ENDBRANCH  12  13
BRANCH  12  17
ATOM     17  C   UNL     1     150.194 149.984 163.067  1.00  0.00    -0.006 C 
ATOM     18  C   UNL     1     149.658 148.548 163.203  1.00  0.00     0.008 C 
ATOM     19  C   UNL     1     151.648 150.049 163.559  1.00  0.00     0.008 C 
ENDBRANCH  12  17
ENDBRANCH  11  12
ENDBRANCH   1  11
TORSDOF 1
ENDMDL
MODEL 7
REMARK VINA RESULT:    -2.655      1.785      3.747
REMARK INTER + INTRA:          -4.466
REMARK INTER:                  -4.406
REMARK INTRA:                  -0.061
REMARK UNBOUND:                -0.414
REMARK SMILES CC1=CCC[C@@H](C)C(=O)C[C@H](C(C)C)C(=O)C1
REMARK SMILES IDX 8 1 9 2 6 3 7 4 5 5 4 6 3 7 2 8 1 9 10 11 11 12 15 13 16 14
REMARK SMILES IDX 17 15 12 17 13 18 14 19
REMARK H PARENT
REMARK Flexibility Score: 70.00
ROOT
ATOM      1  C   UNL     1     150.152 155.468 164.840  1.00  0.00     0.136 C 
ATOM      2  O   UNL     1     150.049 156.399 165.626  1.00  0.00    -0.299 OA
ENDROOT
BRANCH   1   3
ATOM      3  C   UNL     1     150.203 155.747 163.351  1.00  0.00     0.053 C 
ATOM      4  C   UNL     1     149.632 157.142 163.071  1.00  0.00     0.016 C 
BRANCH   3   5
ATOM      5  C   UNL     1     149.436 154.682 162.539  1.00  0.00     0.015 C 
BRANCH   5   6
ATOM      6  C   UNL     1     147.916 154.908 162.466  1.00  0.00     0.028 C 
BRANCH   6   7
ATOM      7  C   UNL     1     147.123 153.641 162.239  1.00  0.00    -0.028 C 
ATOM      8  C   UNL     1     146.557 152.830 163.170  1.00  0.00    -0.070 CG0
ATOM      9  C   UNL     1     145.733 151.675 162.648  1.00  0.00     0.039 C 
ATOM     10  G   UNL     1     146.755 152.935 164.679  1.00  0.00     0.000 G0
ENDBRANCH   6   7
ENDBRANCH   5   6
ENDBRANCH   3   5
ENDBRANCH   1   3
BRANCH   1  11
ATOM     11  C   UNL     1     150.261 154.064 165.378  1.00  0.00     0.087 C 
BRANCH  11  12
ATOM     12  C   UNL     1     148.947 153.578 166.047  1.00  0.00     0.066 C 
BRANCH  12  13
ATOM     13  C   UNL     1     148.120 152.606 165.204  1.00  0.00     0.140 C 
ATOM     14  O   UNL     1     148.632 151.549 164.866  1.00  0.00    -0.299 OA
BRANCH  13  15
ATOM     15  C   UNL     1     146.737 152.928 164.686  1.00  0.00     0.106 CG0
ATOM     16  G   UNL     1     146.576 152.833 163.172  1.00  0.00     0.000 G0
ENDBRANCH  13  15
ENDBRANCH  12  13
BRANCH  12  17
ATOM     17  C   UNL     1     149.208 153.040 167.488  1.00  0.00    -0.006 C 
ATOM     18  C   UNL     1     150.450 152.138 167.593  1.00  0.00     0.008 C 
ATOM     19  C   UNL     1     147.981 152.312 168.058  1.00  0.00     0.008 C 
ENDBRANCH  12  17
ENDBRANCH  11  12
ENDBRANCH   1  11
TORSDOF 1
ENDMDL
MODEL 8
REMARK VINA RESULT:    -2.647      2.221      4.766
REMARK INTER + INTRA:          -4.453
REMARK INTER:                  -4.164
REMARK INTRA:                  -0.289
REMARK UNBOUND:                -0.414
REMARK SMILES CC1=CCC[C@@H](C)C(=O)C[C@H](C(C)C)C(=O)C1
REMARK SMILES IDX 8 1 9 2 6 3 7 4 5 5 4 6 3 7 2 8 1 9 10 11 11 12 15 13 16 14
REMARK SMILES IDX 17 15 12 17 13 18 14 19
REMARK H PARENT
REMARK Flexibility Score: 70.00
ROOT
ATOM      1  C   UNL     1     148.055 152.543 167.870  1.00  0.00     0.136 C 
ATOM      2  O   UNL     1     148.130 153.722 168.186  1.00  0.00    -0.299 OA
ENDROOT
BRANCH   1   3
ATOM      3  C   UNL     1     149.297 151.814 167.396  1.00  0.00     0.053 C 
ATOM      4  C   UNL     1     150.171 151.454 168.602  1.00  0.00     0.016 C 
BRANCH   3   5
ATOM      5  C   UNL     1     150.103 152.653 166.382  1.00  0.00     0.015 C 
BRANCH   5   6
ATOM      6  C   UNL     1     149.362 152.950 165.067  1.00  0.00     0.028 C 
BRANCH   6   7
ATOM      7  C   UNL     1     148.837 151.714 164.372  1.00  0.00    -0.028 C 
ATOM      8  C   UNL     1     147.553 151.426 164.036  1.00  0.00    -0.070 CG0
ATOM      9  C   UNL     1     147.328 150.152 163.255  1.00  0.00     0.039 C 
ATOM     10  G   UNL     1     146.323 152.226 164.454  1.00  0.00     0.000 G0
ENDBRANCH   6   7
ENDBRANCH   5   6
ENDBRANCH   3   5
ENDBRANCH   1   3
BRANCH   1  11
ATOM     11  C   UNL     1     146.730 151.834 167.995  1.00  0.00     0.087 C 
BRANCH  11  12
ATOM     12  C   UNL     1     145.655 152.406 167.032  1.00  0.00     0.066 C 
BRANCH  12  13
ATOM     13  C   UNL     1     145.584 151.718 165.668  1.00  0.00     0.140 C 
ATOM     14  O   UNL     1     144.972 150.662 165.581  1.00  0.00    -0.299 OA
BRANCH  13  15
ATOM     15  C   UNL     1     146.312 152.224 164.445  1.00  0.00     0.106 CG0
ATOM     16  G   UNL     1     147.548 151.421 164.050  1.00  0.00     0.000 G0
ENDBRANCH  13  15
ENDBRANCH  12  13
BRANCH  12  17
ATOM     17  C   UNL     1     144.260 152.494 167.725  1.00  0.00    -0.006 C 
ATOM     18  C   UNL     1     143.475 153.769 167.372  1.00  0.00     0.008 C 
ATOM     19  C   UNL     1     144.369 152.351 169.251  1.00  0.00     0.008 C 
ENDBRANCH  12  17
ENDBRANCH  11  12
ENDBRANCH   1  11
TORSDOF 1
ENDMDL
MODEL 9
REMARK VINA RESULT:    -2.580      1.801      2.884
REMARK INTER + INTRA:          -4.351
REMARK INTER:                  -3.948
REMARK INTRA:                  -0.403
REMARK UNBOUND:                -0.414
REMARK SMILES CC1=CCC[C@@H](C)C(=O)C[C@H](C(C)C)C(=O)C1
REMARK SMILES IDX 8 1 9 2 6 3 7 4 5 5 4 6 3 7 2 8 1 9 10 11 11 12 15 13 16 14
REMARK SMILES IDX 17 15 12 17 13 18 14 19
REMARK H PARENT
REMARK Flexibility Score: 70.00
ROOT
ATOM      1  C   UNL     1     145.702 152.494 165.591  1.00  0.00     0.136 C 
ATOM      2  O   UNL     1     145.003 151.506 165.409  1.00  0.00    -0.299 OA
ENDROOT
BRANCH   1   3
ATOM      3  C   UNL     1     146.131 153.337 164.406  1.00  0.00     0.053 C 
ATOM      4  C   UNL     1     144.911 154.052 163.817  1.00  0.00     0.016 C 
BRANCH   3   5
ATOM      5  C   UNL     1     146.831 152.490 163.322  1.00  0.00     0.015 C 
BRANCH   5   6
ATOM      6  C   UNL     1     148.357 152.375 163.488  1.00  0.00     0.028 C 
BRANCH   6   7
ATOM      7  C   UNL     1     149.026 153.674 163.876  1.00  0.00    -0.028 C 
ATOM      8  C   UNL     1     149.693 153.960 165.024  1.00  0.00    -0.070 CG0
ATOM      9  C   UNL     1     150.351 155.319 165.103  1.00  0.00     0.039 C 
ATOM     10  G   UNL     1     149.759 153.069 166.261  1.00  0.00     0.000 G0
ENDBRANCH   6   7
ENDBRANCH   5   6
ENDBRANCH   3   5
ENDBRANCH   1   3
BRANCH   1  11
ATOM     11  C   UNL     1     146.088 152.867 167.000  1.00  0.00     0.087 C 
BRANCH  11  12
ATOM     12  C   UNL     1     147.470 152.291 167.411  1.00  0.00     0.066 C 
BRANCH  12  13
ATOM     13  C   UNL     1     148.641 153.265 167.262  1.00  0.00     0.140 C 
ATOM     14  O   UNL     1     148.628 154.294 167.923  1.00  0.00    -0.299 OA
BRANCH  13  15
ATOM     15  C   UNL     1     149.762 153.068 166.269  1.00  0.00     0.106 CG0
ATOM     16  G   UNL     1     149.693 153.957 165.031  1.00  0.00     0.000 G0
ENDBRANCH  13  15
ENDBRANCH  12  13
BRANCH  12  17
ATOM     17  C   UNL     1     147.416 151.641 168.828  1.00  0.00    -0.006 C 
ATOM     18  C   UNL     1     148.694 150.871 169.202  1.00  0.00     0.008 C 
ATOM     19  C   UNL     1     146.189 150.733 168.995  1.00  0.00     0.008 C 
ENDBRANCH  12  17
ENDBRANCH  11  12
ENDBRANCH   1  11
TORSDOF 1
ENDMDL
