MODEL 1
REMARK VINA RESULT:    -4.961      0.000      0.000
REMARK INTER + INTRA:          -8.514
REMARK INTER:                  -7.571
REMARK INTRA:                  -0.943
REMARK UNBOUND:                -0.943
REMARK SMILES O=C([O-])CCCCCCCCC(=O)[O-]
REMARK SMILES IDX 7 1 6 2 5 3 4 4 2 5 1 6 3 7 8 8 9 9 10 10 11 11 12 12 13 13
REMARK SMILES IDX 14 14
REMARK H PARENT
REMARK Flexibility Score: inf
ROOT
ATOM      1  C   UNL     1      44.784  58.320  49.487  1.00  0.00     0.000 C 
ENDROOT
BRANCH   1   2
ATOM      2  C   UNL     1      45.203  57.644  48.169  1.00  0.00     0.000 C 
BRANCH   2   3
ATOM      3  C   UNL     1      44.000  57.147  47.352  1.00  0.00     0.006 C 
BRANCH   3   4
ATOM      4  C   UNL     1      43.888  57.839  45.988  1.00  0.00     0.053 C 
BRANCH   4   5
ATOM      5  C   UNL     1      42.747  57.270  45.207  1.00  0.00     0.041 C 
ATOM      6  O   UNL     1      42.907  56.939  44.002  1.00  0.00    -0.550 OA
ATOM      7  O   UNL     1      41.520  57.057  45.820  1.00  0.00    -0.550 OA
ENDBRANCH   4   5
ENDBRANCH   3   4
ENDBRANCH   2   3
ENDBRANCH   1   2
BRANCH   1   8
ATOM      8  C   UNL     1      44.991  59.843  49.464  1.00  0.00     0.000 C 
BRANCH   8   9
ATOM      9  C   UNL     1      43.931  60.570  48.617  1.00  0.00     0.000 C 
BRANCH   9  10
ATOM     10  C   UNL     1      42.510  60.406  49.182  1.00  0.00     0.006 C 
BRANCH  10  11
ATOM     11  C   UNL     1      41.558  59.715  48.198  1.00  0.00     0.053 C 
BRANCH  11  12
ATOM     12  C   UNL     1      40.943  58.506  48.830  1.00  0.00     0.041 C 
ATOM     13  O   UNL     1      41.492  57.962  49.824  1.00  0.00    -0.550 OA
ATOM     14  O   UNL     1      39.736  58.008  48.351  1.00  0.00    -0.550 OA
ENDBRANCH  11  12
ENDBRANCH  10  11
ENDBRANCH   9  10
ENDBRANCH   8   9
ENDBRANCH   1   8
TORSDOF 9
ENDMDL
MODEL 2
REMARK VINA RESULT:    -4.902      1.830      3.879
REMARK INTER + INTRA:          -8.425
REMARK INTER:                  -7.621
REMARK INTRA:                  -0.804
REMARK UNBOUND:                -0.943
REMARK SMILES O=C([O-])CCCCCCCCC(=O)[O-]
REMARK SMILES IDX 7 1 6 2 5 3 4 4 2 5 1 6 3 7 8 8 9 9 10 10 11 11 12 12 13 13
REMARK SMILES IDX 14 14
REMARK H PARENT
REMARK Flexibility Score: inf
ROOT
ATOM      1  C   UNL     1      44.230  57.050  47.978  1.00  0.00     0.000 C 
ENDROOT
BRANCH   1   2
ATOM      2  C   UNL     1      45.414  57.887  48.496  1.00  0.00     0.000 C 
BRANCH   2   3
ATOM      3  C   UNL     1      45.024  58.796  49.672  1.00  0.00     0.006 C 
BRANCH   3   4
ATOM      4  C   UNL     1      44.788  60.249  49.241  1.00  0.00     0.053 C 
BRANCH   4   5
ATOM      5  C   UNL     1      43.366  60.641  49.482  1.00  0.00     0.041 C 
ATOM      6  O   UNL     1      42.450  59.779  49.407  1.00  0.00    -0.550 OA
ATOM      7  O   UNL     1      43.053  61.946  49.839  1.00  0.00    -0.550 OA
ENDBRANCH   4   5
ENDBRANCH   3   4
ENDBRANCH   2   3
ENDBRANCH   1   2
BRANCH   1   8
ATOM      8  C   UNL     1      43.932  57.301  46.491  1.00  0.00     0.000 C 
BRANCH   8   9
ATOM      9  C   UNL     1      43.411  58.724  46.225  1.00  0.00     0.000 C 
BRANCH   9  10
ATOM     10  C   UNL     1      41.875  58.792  46.185  1.00  0.00     0.006 C 
BRANCH  10  11
ATOM     11  C   UNL     1      41.231  57.440  45.850  1.00  0.00     0.053 C 
BRANCH  11  12
ATOM     12  C   UNL     1      40.379  56.973  46.989  1.00  0.00     0.041 C 
ATOM     13  O   UNL     1      39.934  55.796  47.006  1.00  0.00    -0.550 OA
ATOM     14  O   UNL     1      40.118  57.824  48.056  1.00  0.00    -0.550 OA
ENDBRANCH  11  12
ENDBRANCH  10  11
ENDBRANCH   9  10
ENDBRANCH   8   9
ENDBRANCH   1   8
TORSDOF 9
ENDMDL
MODEL 3
REMARK VINA RESULT:    -4.893      1.786      3.288
REMARK INTER + INTRA:          -8.411
REMARK INTER:                  -7.629
REMARK INTRA:                  -0.781
REMARK UNBOUND:                -0.943
REMARK SMILES O=C([O-])CCCCCCCCC(=O)[O-]
REMARK SMILES IDX 7 1 6 2 5 3 4 4 2 5 1 6 3 7 8 8 9 9 10 10 11 11 12 12 13 13
REMARK SMILES IDX 14 14
REMARK H PARENT
REMARK Flexibility Score: inf
ROOT
ATOM      1  C   UNL     1      43.895  57.303  46.438  1.00  0.00     0.000 C 
ENDROOT
BRANCH   1   2
ATOM      2  C   UNL     1      43.368  58.727  46.182  1.00  0.00     0.000 C 
BRANCH   2   3
ATOM      3  C   UNL     1      41.837  58.814  46.271  1.00  0.00     0.006 C 
BRANCH   3   4
ATOM      4  C   UNL     1      41.145  57.525  45.809  1.00  0.00     0.053 C 
BRANCH   4   5
ATOM      5  C   UNL     1      40.357  56.925  46.929  1.00  0.00     0.041 C 
ATOM      6  O   UNL     1      39.983  55.724  46.868  1.00  0.00    -0.550 OA
ATOM      7  O   UNL     1      40.078  57.675  48.064  1.00  0.00    -0.550 OA
ENDBRANCH   4   5
ENDBRANCH   3   4
ENDBRANCH   2   3
ENDBRANCH   1   2
BRANCH   1   8
ATOM      8  C   UNL     1      44.157  57.027  47.928  1.00  0.00     0.000 C 
BRANCH   8   9
ATOM      9  C   UNL     1      45.341  57.840  48.479  1.00  0.00     0.000 C 
BRANCH   9  10
ATOM     10  C   UNL     1      44.938  58.743  49.658  1.00  0.00     0.006 C 
BRANCH  10  11
ATOM     11  C   UNL     1      44.661  60.189  49.227  1.00  0.00     0.053 C 
BRANCH  11  12
ATOM     12  C   UNL     1      43.233  60.548  49.497  1.00  0.00     0.041 C 
ATOM     13  O   UNL     1      42.335  59.668  49.433  1.00  0.00    -0.550 OA
ATOM     14  O   UNL     1      42.900  61.846  49.868  1.00  0.00    -0.550 OA
ENDBRANCH  11  12
ENDBRANCH  10  11
ENDBRANCH   9  10
ENDBRANCH   8   9
ENDBRANCH   1   8
TORSDOF 9
ENDMDL
MODEL 4
REMARK VINA RESULT:    -4.891      2.025      4.546
REMARK INTER + INTRA:          -8.408
REMARK INTER:                  -7.590
REMARK INTRA:                  -0.818
REMARK UNBOUND:                -0.943
REMARK SMILES O=C([O-])CCCCCCCCC(=O)[O-]
REMARK SMILES IDX 7 1 6 2 5 3 4 4 2 5 1 6 3 7 8 8 9 9 10 10 11 11 12 12 13 13
REMARK SMILES IDX 14 14
REMARK H PARENT
REMARK Flexibility Score: inf
ROOT
ATOM      1  C   UNL     1      41.702  59.468  49.248  1.00  0.00     0.000 C 
ENDROOT
BRANCH   1   2
ATOM      2  C   UNL     1      42.265  60.229  48.034  1.00  0.00     0.000 C 
BRANCH   2   3
ATOM      3  C   UNL     1      43.784  60.053  47.880  1.00  0.00     0.006 C 
BRANCH   3   4
ATOM      4  C   UNL     1      44.534  60.222  49.207  1.00  0.00     0.053 C 
BRANCH   4   5
ATOM      5  C   UNL     1      45.236  58.955  49.576  1.00  0.00     0.041 C 
ATOM      6  O   UNL     1      45.490  58.091  48.694  1.00  0.00    -0.550 OA
ATOM      7  O   UNL     1      45.656  58.746  50.883  1.00  0.00    -0.550 OA
ENDBRANCH   4   5
ENDBRANCH   3   4
ENDBRANCH   2   3
ENDBRANCH   1   2
BRANCH   1   8
ATOM      8  C   UNL     1      41.490  57.972  48.964  1.00  0.00     0.000 C 
BRANCH   8   9
ATOM      9  C   UNL     1      40.267  57.709  48.069  1.00  0.00     0.000 C 
BRANCH   9  10
ATOM     10  C   UNL     1      40.609  56.853  46.838  1.00  0.00     0.006 C 
BRANCH  10  11
ATOM     11  C   UNL     1      41.126  57.690  45.661  1.00  0.00     0.053 C 
BRANCH  11  12
ATOM     12  C   UNL     1      42.515  57.271  45.293  1.00  0.00     0.041 C 
ATOM     13  O   UNL     1      43.405  57.182  46.179  1.00  0.00    -0.550 OA
ATOM     14  O   UNL     1      42.814  56.932  43.979  1.00  0.00    -0.550 OA
ENDBRANCH  11  12
ENDBRANCH  10  11
ENDBRANCH   9  10
ENDBRANCH   8   9
ENDBRANCH   1   8
TORSDOF 9
ENDMDL
MODEL 5
REMARK VINA RESULT:    -4.859      2.033      3.438
REMARK INTER + INTRA:          -8.359
REMARK INTER:                  -7.544
REMARK INTRA:                  -0.815
REMARK UNBOUND:                -0.943
REMARK SMILES O=C([O-])CCCCCCCCC(=O)[O-]
REMARK SMILES IDX 7 1 6 2 5 3 4 4 2 5 1 6 3 7 8 8 9 9 10 10 11 11 12 12 13 13
REMARK SMILES IDX 14 14
REMARK H PARENT
REMARK Flexibility Score: inf
ROOT
ATOM      1  C   UNL     1      41.499  58.018  48.955  1.00  0.00     0.000 C 
ENDROOT
BRANCH   1   2
ATOM      2  C   UNL     1      40.280  57.697  48.072  1.00  0.00     0.000 C 
BRANCH   2   3
ATOM      3  C   UNL     1      40.648  56.845  46.847  1.00  0.00     0.006 C 
BRANCH   3   4
ATOM      4  C   UNL     1      41.163  57.690  45.675  1.00  0.00     0.053 C 
BRANCH   4   5
ATOM      5  C   UNL     1      42.557  57.284  45.313  1.00  0.00     0.041 C 
ATOM      6  O   UNL     1      43.443  57.196  46.204  1.00  0.00    -0.550 OA
ATOM      7  O   UNL     1      42.867  56.955  44.000  1.00  0.00    -0.550 OA
ENDBRANCH   4   5
ENDBRANCH   3   4
ENDBRANCH   2   3
ENDBRANCH   1   2
BRANCH   1   8
ATOM      8  C   UNL     1      41.675  59.526  49.198  1.00  0.00     0.000 C 
BRANCH   8   9
ATOM      9  C   UNL     1      42.339  60.242  48.009  1.00  0.00     0.000 C 
BRANCH   9  10
ATOM     10  C   UNL     1      43.856  59.998  47.946  1.00  0.00     0.006 C 
BRANCH  10  11
ATOM     11  C   UNL     1      44.545  60.201  49.302  1.00  0.00     0.053 C 
BRANCH  11  12
ATOM     12  C   UNL     1      45.279  58.960  49.704  1.00  0.00     0.041 C 
ATOM     13  O   UNL     1      45.648  58.801  50.898  1.00  0.00    -0.550 OA
ATOM     14  O   UNL     1      45.512  57.957  48.771  1.00  0.00    -0.550 OA
ENDBRANCH  11  12
ENDBRANCH  10  11
ENDBRANCH   9  10
ENDBRANCH   8   9
ENDBRANCH   1   8
TORSDOF 9
ENDMDL
MODEL 6
REMARK VINA RESULT:    -4.841      0.097      3.911
REMARK INTER + INTRA:          -8.331
REMARK INTER:                  -7.450
REMARK INTRA:                  -0.881
REMARK UNBOUND:                -0.943
REMARK SMILES O=C([O-])CCCCCCCCC(=O)[O-]
REMARK SMILES IDX 7 1 6 2 5 3 4 4 2 5 1 6 3 7 8 8 9 9 10 10 11 11 12 12 13 13
REMARK SMILES IDX 14 14
REMARK H PARENT
REMARK Flexibility Score: inf
ROOT
ATOM      1  C   UNL     1      44.894  59.834  49.528  1.00  0.00     0.000 C 
ENDROOT
BRANCH   1   2
ATOM      2  C   UNL     1      43.913  60.488  48.537  1.00  0.00     0.000 C 
BRANCH   2   3
ATOM      3  C   UNL     1      42.464  60.478  49.050  1.00  0.00     0.006 C 
BRANCH   3   4
ATOM      4  C   UNL     1      41.509  59.742  48.102  1.00  0.00     0.053 C 
BRANCH   4   5
ATOM      5  C   UNL     1      40.915  58.550  48.782  1.00  0.00     0.041 C 
ATOM      6  O   UNL     1      39.846  58.041  48.350  1.00  0.00    -0.550 OA
ATOM      7  O   UNL     1      41.566  57.967  49.862  1.00  0.00    -0.550 OA
ENDBRANCH   4   5
ENDBRANCH   3   4
ENDBRANCH   2   3
ENDBRANCH   1   2
BRANCH   1   8
ATOM      8  C   UNL     1      44.822  58.299  49.508  1.00  0.00     0.000 C 
BRANCH   8   9
ATOM      9  C   UNL     1      45.227  57.707  48.146  1.00  0.00     0.000 C 
BRANCH   9  10
ATOM     10  C   UNL     1      44.023  57.174  47.353  1.00  0.00     0.006 C 
BRANCH  10  11
ATOM     11  C   UNL     1      43.875  57.843  45.980  1.00  0.00     0.053 C 
BRANCH  11  12
ATOM     12  C   UNL     1      42.716  57.256  45.237  1.00  0.00     0.041 C 
ATOM     13  O   UNL     1      41.620  57.058  45.825  1.00  0.00    -0.550 OA
ATOM     14  O   UNL     1      42.831  56.974  43.881  1.00  0.00    -0.550 OA
ENDBRANCH  11  12
ENDBRANCH  10  11
ENDBRANCH   9  10
ENDBRANCH   8   9
ENDBRANCH   1   8
TORSDOF 9
ENDMDL
MODEL 7
REMARK VINA RESULT:    -4.756      2.364      4.935
REMARK INTER + INTRA:          -8.201
REMARK INTER:                  -7.203
REMARK INTRA:                  -0.998
REMARK UNBOUND:                -0.943
REMARK SMILES O=C([O-])CCCCCCCCC(=O)[O-]
REMARK SMILES IDX 7 1 6 2 5 3 4 4 2 5 1 6 3 7 8 8 9 9 10 10 11 11 12 12 13 13
REMARK SMILES IDX 14 14
REMARK H PARENT
REMARK Flexibility Score: inf
ROOT
ATOM      1  C   UNL     1      40.778  56.919  47.595  1.00  0.00     0.000 C 
ENDROOT
BRANCH   1   2
ATOM      2  C   UNL     1      40.402  58.041  48.580  1.00  0.00     0.000 C 
BRANCH   2   3
ATOM      3  C   UNL     1      41.634  58.747  49.167  1.00  0.00     0.006 C 
BRANCH   3   4
ATOM      4  C   UNL     1      41.898  60.111  48.517  1.00  0.00     0.053 C 
BRANCH   4   5
ATOM      5  C   UNL     1      42.984  60.835  49.247  1.00  0.00     0.041 C 
ATOM      6  O   UNL     1      44.190  60.650  48.935  1.00  0.00    -0.550 OA
ATOM      7  O   UNL     1      42.664  61.754  50.238  1.00  0.00    -0.550 OA
ENDBRANCH   4   5
ENDBRANCH   3   4
ENDBRANCH   2   3
ENDBRANCH   1   2
BRANCH   1   8
ATOM      8  C   UNL     1      40.534  57.309  46.129  1.00  0.00     0.000 C 
BRANCH   8   9
ATOM      9  C   UNL     1      41.709  58.098  45.525  1.00  0.00     0.000 C 
BRANCH   9  10
ATOM     10  C   UNL     1      43.048  57.352  45.654  1.00  0.00     0.006 C 
BRANCH  10  11
ATOM     11  C   UNL     1      44.110  58.167  46.402  1.00  0.00     0.053 C 
BRANCH  11  12
ATOM     12  C   UNL     1      44.618  57.401  47.584  1.00  0.00     0.041 C 
ATOM     13  O   UNL     1      44.105  56.292  47.888  1.00  0.00    -0.550 OA
ATOM     14  O   UNL     1      45.691  57.889  48.320  1.00  0.00    -0.550 OA
ENDBRANCH  11  12
ENDBRANCH  10  11
ENDBRANCH   9  10
ENDBRANCH   8   9
ENDBRANCH   1   8
TORSDOF 9
ENDMDL
MODEL 8
REMARK VINA RESULT:    -4.694      1.694      3.526
REMARK INTER + INTRA:          -8.106
REMARK INTER:                  -7.369
REMARK INTRA:                  -0.738
REMARK UNBOUND:                -0.943
REMARK SMILES O=C([O-])CCCCCCCCC(=O)[O-]
REMARK SMILES IDX 7 1 6 2 5 3 4 4 2 5 1 6 3 7 8 8 9 9 10 10 11 11 12 12 13 13
REMARK SMILES IDX 14 14
REMARK H PARENT
REMARK Flexibility Score: inf
ROOT
ATOM      1  C   UNL     1      42.000  61.056  48.969  1.00  0.00     0.000 C 
ENDROOT
BRANCH   1   2
ATOM      2  C   UNL     1      41.702  59.868  48.035  1.00  0.00     0.000 C 
BRANCH   2   3
ATOM      3  C   UNL     1      41.198  58.633  48.797  1.00  0.00     0.006 C 
BRANCH   3   4
ATOM      4  C   UNL     1      39.968  57.996  48.139  1.00  0.00     0.053 C 
BRANCH   4   5
ATOM      5  C   UNL     1      40.383  57.067  47.043  1.00  0.00     0.041 C 
ATOM      6  O   UNL     1      40.278  55.821  47.195  1.00  0.00    -0.550 OA
ATOM      7  O   UNL     1      40.840  57.576  45.834  1.00  0.00    -0.550 OA
ENDBRANCH   4   5
ENDBRANCH   3   4
ENDBRANCH   2   3
ENDBRANCH   1   2
BRANCH   1   8
ATOM      8  C   UNL     1      43.291  60.864  49.780  1.00  0.00     0.000 C 
BRANCH   8   9
ATOM      9  C   UNL     1      44.427  60.247  48.945  1.00  0.00     0.000 C 
BRANCH   9  10
ATOM     10  C   UNL     1      44.911  58.901  49.510  1.00  0.00     0.006 C 
BRANCH  10  11
ATOM     11  C   UNL     1      45.515  57.990  48.434  1.00  0.00     0.053 C 
BRANCH  11  12
ATOM     12  C   UNL     1      44.439  57.450  47.545  1.00  0.00     0.041 C 
ATOM     13  O   UNL     1      43.718  56.492  47.932  1.00  0.00    -0.550 OA
ATOM     14  O   UNL     1      44.199  58.036  46.308  1.00  0.00    -0.550 OA
ENDBRANCH  11  12
ENDBRANCH  10  11
ENDBRANCH   9  10
ENDBRANCH   8   9
ENDBRANCH   1   8
TORSDOF 9
ENDMDL
MODEL 9
REMARK VINA RESULT:    -4.658      2.164      4.719
REMARK INTER + INTRA:          -8.052
REMARK INTER:                  -7.282
REMARK INTRA:                  -0.770
REMARK UNBOUND:                -0.943
REMARK SMILES O=C([O-])CCCCCCCCC(=O)[O-]
REMARK SMILES IDX 7 1 6 2 5 3 4 4 2 5 1 6 3 7 8 8 9 9 10 10 11 11 12 12 13 13
REMARK SMILES IDX 14 14
REMARK H PARENT
REMARK Flexibility Score: inf
ROOT
ATOM      1  C   UNL     1      41.656  58.030  49.562  1.00  0.00     0.000 C 
ENDROOT
BRANCH   1   2
ATOM      2  C   UNL     1      43.009  57.452  49.106  1.00  0.00     0.000 C 
BRANCH   2   3
ATOM      3  C   UNL     1      44.177  58.418  49.357  1.00  0.00     0.006 C 
BRANCH   3   4
ATOM      4  C   UNL     1      44.177  59.607  48.389  1.00  0.00     0.053 C 
BRANCH   4   5
ATOM      5  C   UNL     1      44.219  60.897  49.145  1.00  0.00     0.041 C 
ATOM      6  O   UNL     1      45.255  61.612  49.122  1.00  0.00    -0.550 OA
ATOM      7  O   UNL     1      43.097  61.335  49.837  1.00  0.00    -0.550 OA
ENDBRANCH   4   5
ENDBRANCH   3   4
ENDBRANCH   2   3
ENDBRANCH   1   2
BRANCH   1   8
ATOM      8  C   UNL     1      40.771  58.466  48.384  1.00  0.00     0.000 C 
BRANCH   8   9
ATOM      9  C   UNL     1      40.065  57.279  47.705  1.00  0.00     0.000 C 
BRANCH   9  10
ATOM     10  C   UNL     1      40.710  56.899  46.362  1.00  0.00     0.006 C 
BRANCH  10  11
ATOM     11  C   UNL     1      41.556  58.034  45.770  1.00  0.00     0.053 C 
BRANCH  11  12
ATOM     12  C   UNL     1      42.775  57.480  45.101  1.00  0.00     0.041 C 
ATOM     13  O   UNL     1      42.677  56.888  43.994  1.00  0.00    -0.550 OA
ATOM     14  O   UNL     1      44.027  57.661  45.676  1.00  0.00    -0.550 OA
ENDBRANCH  11  12
ENDBRANCH  10  11
ENDBRANCH   9  10
ENDBRANCH   8   9
ENDBRANCH   1   8
TORSDOF 9
ENDMDL
