MODEL 1
REMARK VINA RESULT:    -5.051      0.000      0.000
REMARK INTER + INTRA:         -16.956
REMARK INTER:                 -13.318
REMARK INTRA:                  -3.637
REMARK UNBOUND:                -3.637
REMARK SMILES CCCCCCCCCCCCCCCCCCCCCCCCCCCCCC(=O)[O-]
REMARK SMILES IDX 16 1 17 2 18 3 19 4 20 5 21 6 22 7 23 8 24 9 25 10 26 11
REMARK SMILES IDX 27 12 28 13 29 14 30 15 31 16 32 17 15 18 14 19 13 20 12 21
REMARK SMILES IDX 11 22 10 23 9 24 8 25 7 26 6 27 5 28 4 29 3 30 2 31 1 32
REMARK H PARENT
REMARK Flexibility Score: inf
ROOT
ATOM      1  C   UNL     1       7.229 -13.424  36.643  1.00  0.00     0.000 C 
ENDROOT
BRANCH   1   2
ATOM      2  C   UNL     1       7.398 -12.175  35.763  1.00  0.00     0.000 C 
BRANCH   2   3
ATOM      3  C   UNL     1       7.065 -10.870  36.508  1.00  0.00     0.000 C 
BRANCH   3   4
ATOM      4  C   UNL     1       5.737 -10.242  36.044  1.00  0.00     0.000 C 
BRANCH   4   5
ATOM      5  C   UNL     1       5.169  -9.151  36.975  1.00  0.00     0.000 C 
BRANCH   5   6
ATOM      6  C   UNL     1       4.023  -8.310  36.377  1.00  0.00     0.000 C 
BRANCH   6   7
ATOM      7  C   UNL     1       4.351  -6.819  36.183  1.00  0.00     0.000 C 
BRANCH   7   8
ATOM      8  C   UNL     1       3.430  -6.139  35.158  1.00  0.00     0.000 C 
BRANCH   8   9
ATOM      9  C   UNL     1       3.851  -4.682  34.921  1.00  0.00     0.000 C 
BRANCH   9  10
ATOM     10  C   UNL     1       4.599  -4.487  33.589  1.00  0.00     0.000 C 
BRANCH  10  11
ATOM     11  C   UNL     1       6.053  -3.988  33.721  1.00  0.00     0.000 C 
BRANCH  11  12
ATOM     12  C   UNL     1       6.336  -3.115  34.958  1.00  0.00     0.000 C 
BRANCH  12  13
ATOM     13  C   UNL     1       7.043  -3.886  36.085  1.00  0.00     0.006 C 
BRANCH  13  14
ATOM     14  C   UNL     1       6.883  -3.199  37.448  1.00  0.00     0.053 C 
BRANCH  14  15
ATOM     15  C   UNL     1       5.567  -3.525  38.088  1.00  0.00     0.041 C 
ATOM     16  O   UNL     1       5.461  -4.530  38.840  1.00  0.00    -0.550 OA
ATOM     17  O   UNL     1       4.455  -2.731  37.839  1.00  0.00    -0.550 OA
ENDBRANCH  14  15
ENDBRANCH  13  14
ENDBRANCH  12  13
ENDBRANCH  11  12
ENDBRANCH  10  11
ENDBRANCH   9  10
ENDBRANCH   8   9
ENDBRANCH   7   8
ENDBRANCH   6   7
ENDBRANCH   5   6
ENDBRANCH   4   5
ENDBRANCH   3   4
ENDBRANCH   2   3
ENDBRANCH   1   2
BRANCH   1  18
ATOM     18  C   UNL     1       7.835 -13.246  38.050  1.00  0.00     0.000 C 
BRANCH  18  19
ATOM     19  C   UNL     1       8.346 -14.563  38.668  1.00  0.00     0.000 C 
BRANCH  19  20
ATOM     20  C   UNL     1       9.853 -14.819  38.484  1.00  0.00     0.000 C 
BRANCH  20  21
ATOM     21  C   UNL     1      10.204 -15.386  37.098  1.00  0.00     0.000 C 
BRANCH  21  22
ATOM     22  C   UNL     1      11.394 -14.666  36.434  1.00  0.00     0.000 C 
BRANCH  22  23
ATOM     23  C   UNL     1      12.619 -14.436  37.343  1.00  0.00     0.000 C 
BRANCH  23  24
ATOM     24  C   UNL     1      13.498 -13.259  36.885  1.00  0.00    -0.000 C 
BRANCH  24  25
ATOM     25  C   UNL     1      13.382 -12.985  35.377  1.00  0.00    -0.000 C 
BRANCH  25  26
ATOM     26  C   UNL     1      13.121 -11.499  35.064  1.00  0.00    -0.000 C 
BRANCH  26  27
ATOM     27  C   UNL     1      11.616 -11.163  34.985  1.00  0.00    -0.000 C 
BRANCH  27  28
ATOM     28  C   UNL     1      11.082 -10.393  36.208  1.00  0.00    -0.000 C 
BRANCH  28  29
ATOM     29  C   UNL     1      10.603 -11.270  37.381  1.00  0.00    -0.000 C 
BRANCH  29  30
ATOM     30  C   UNL     1      11.219 -10.919  38.749  1.00  0.00    -0.000 C 
BRANCH  30  31
ATOM     31  C   UNL     1      12.569 -10.199  38.627  1.00  0.00    -0.003 C 
ATOM     32  C   UNL     1      13.371 -10.311  39.920  1.00  0.00     0.004 C 
ENDBRANCH  30  31
ENDBRANCH  29  30
ENDBRANCH  28  29
ENDBRANCH  27  28
ENDBRANCH  26  27
ENDBRANCH  25  26
ENDBRANCH  24  25
ENDBRANCH  23  24
ENDBRANCH  22  23
ENDBRANCH  21  22
ENDBRANCH  20  21
ENDBRANCH  19  20
ENDBRANCH  18  19
ENDBRANCH   1  18
TORSDOF 28
ENDMDL
MODEL 2
REMARK VINA RESULT:    -4.788      3.174      9.595
REMARK INTER + INTRA:         -16.262
REMARK INTER:                 -13.071
REMARK INTRA:                  -3.191
REMARK UNBOUND:                -3.637
REMARK SMILES CCCCCCCCCCCCCCCCCCCCCCCCCCCCCC(=O)[O-]
REMARK SMILES IDX 16 1 17 2 18 3 19 4 20 5 21 6 22 7 23 8 24 9 25 10 26 11
REMARK SMILES IDX 27 12 28 13 29 14 30 15 31 16 32 17 15 18 14 19 13 20 12 21
REMARK SMILES IDX 11 22 10 23 9 24 8 25 7 26 6 27 5 28 4 29 3 30 2 31 1 32
REMARK H PARENT
REMARK Flexibility Score: inf
ROOT
ATOM      1  C   UNL     1      13.013 -10.562  35.198  1.00  0.00     0.000 C 
ENDROOT
BRANCH   1   2
ATOM      2  C   UNL     1      13.939 -11.765  34.956  1.00  0.00     0.000 C 
BRANCH   2   3
ATOM      3  C   UNL     1      13.293 -13.105  35.351  1.00  0.00     0.000 C 
BRANCH   3   4
ATOM      4  C   UNL     1      13.087 -13.242  36.871  1.00  0.00     0.000 C 
BRANCH   4   5
ATOM      5  C   UNL     1      12.548 -14.611  37.337  1.00  0.00     0.000 C 
BRANCH   5   6
ATOM      6  C   UNL     1      11.363 -15.163  36.518  1.00  0.00     0.000 C 
BRANCH   6   7
ATOM      7  C   UNL     1      10.179 -15.671  37.360  1.00  0.00     0.000 C 
BRANCH   7   8
ATOM      8  C   UNL     1       9.872 -14.763  38.560  1.00  0.00     0.000 C 
BRANCH   8   9
ATOM      9  C   UNL     1       8.470 -14.150  38.443  1.00  0.00     0.000 C 
BRANCH   9  10
ATOM     10  C   UNL     1       8.489 -12.610  38.456  1.00  0.00     0.000 C 
BRANCH  10  11
ATOM     11  C   UNL     1       9.716 -11.964  37.779  1.00  0.00     0.000 C 
BRANCH  11  12
ATOM     12  C   UNL     1       9.435 -11.291  36.422  1.00  0.00     0.000 C 
BRANCH  12  13
ATOM     13  C   UNL     1       9.856 -12.161  35.225  1.00  0.00     0.006 C 
BRANCH  13  14
ATOM     14  C   UNL     1       8.850 -12.083  34.070  1.00  0.00     0.053 C 
BRANCH  14  15
ATOM     15  C   UNL     1       7.871 -13.217  34.103  1.00  0.00     0.041 C 
ATOM     16  O   UNL     1       7.312 -13.538  35.184  1.00  0.00    -0.550 OA
ATOM     17  O   UNL     1       7.590 -13.929  32.944  1.00  0.00    -0.550 OA
ENDBRANCH  14  15
ENDBRANCH  13  14
ENDBRANCH  12  13
ENDBRANCH  11  12
ENDBRANCH  10  11
ENDBRANCH   9  10
ENDBRANCH   8   9
ENDBRANCH   7   8
ENDBRANCH   6   7
ENDBRANCH   5   6
ENDBRANCH   4   5
ENDBRANCH   3   4
ENDBRANCH   2   3
ENDBRANCH   1   2
BRANCH   1  18
ATOM     18  C   UNL     1      13.259  -9.888  36.563  1.00  0.00     0.000 C 
BRANCH  18  19
ATOM     19  C   UNL     1      12.080  -9.012  37.035  1.00  0.00     0.000 C 
BRANCH  19  20
ATOM     20  C   UNL     1      11.445  -8.141  35.936  1.00  0.00     0.000 C 
BRANCH  20  21
ATOM     21  C   UNL     1      11.234  -6.680  36.368  1.00  0.00     0.000 C 
BRANCH  21  22
ATOM     22  C   UNL     1      10.982  -5.728  35.183  1.00  0.00     0.000 C 
BRANCH  22  23
ATOM     23  C   UNL     1      10.634  -4.275  35.564  1.00  0.00     0.000 C 
BRANCH  23  24
ATOM     24  C   UNL     1       9.120  -4.005  35.596  1.00  0.00    -0.000 C 
BRANCH  24  25
ATOM     25  C   UNL     1       8.716  -3.023  36.706  1.00  0.00    -0.000 C 
BRANCH  25  26
ATOM     26  C   UNL     1       7.189  -2.929  36.888  1.00  0.00    -0.000 C 
BRANCH  26  27
ATOM     27  C   UNL     1       6.438  -4.111  36.237  1.00  0.00    -0.000 C 
BRANCH  27  28
ATOM     28  C   UNL     1       5.534  -3.706  35.058  1.00  0.00    -0.000 C 
BRANCH  28  29
ATOM     29  C   UNL     1       4.093  -4.247  35.117  1.00  0.00    -0.000 C 
BRANCH  29  30
ATOM     30  C   UNL     1       3.947  -5.746  34.794  1.00  0.00    -0.000 C 
BRANCH  30  31
ATOM     31  C   UNL     1       3.116  -6.503  35.840  1.00  0.00    -0.003 C 
ATOM     32  C   UNL     1       1.847  -5.733  36.195  1.00  0.00     0.004 C 
ENDBRANCH  30  31
ENDBRANCH  29  30
ENDBRANCH  28  29
ENDBRANCH  27  28
ENDBRANCH  26  27
ENDBRANCH  25  26
ENDBRANCH  24  25
ENDBRANCH  23  24
ENDBRANCH  22  23
ENDBRANCH  21  22
ENDBRANCH  20  21
ENDBRANCH  19  20
ENDBRANCH  18  19
ENDBRANCH   1  18
TORSDOF 28
ENDMDL
MODEL 3
REMARK VINA RESULT:    -4.775      1.582      2.760
REMARK INTER + INTRA:         -16.227
REMARK INTER:                 -12.700
REMARK INTRA:                  -3.527
REMARK UNBOUND:                -3.637
REMARK SMILES CCCCCCCCCCCCCCCCCCCCCCCCCCCCCC(=O)[O-]
REMARK SMILES IDX 16 1 17 2 18 3 19 4 20 5 21 6 22 7 23 8 24 9 25 10 26 11
REMARK SMILES IDX 27 12 28 13 29 14 30 15 31 16 32 17 15 18 14 19 13 20 12 21
REMARK SMILES IDX 11 22 10 23 9 24 8 25 7 26 6 27 5 28 4 29 3 30 2 31 1 32
REMARK H PARENT
REMARK Flexibility Score: inf
ROOT
ATOM      1  C   UNL     1       7.230 -11.099  36.318  1.00  0.00     0.000 C 
ENDROOT
BRANCH   1   2
ATOM      2  C   UNL     1       5.887 -10.444  35.960  1.00  0.00     0.000 C 
BRANCH   2   3
ATOM      3  C   UNL     1       5.472  -9.347  36.958  1.00  0.00     0.000 C 
BRANCH   3   4
ATOM      4  C   UNL     1       4.134  -8.681  36.588  1.00  0.00     0.000 C 
BRANCH   4   5
ATOM      5  C   UNL     1       4.228  -7.187  36.216  1.00  0.00     0.000 C 
BRANCH   5   6
ATOM      6  C   UNL     1       3.060  -6.647  35.366  1.00  0.00     0.000 C 
BRANCH   6   7
ATOM      7  C   UNL     1       1.886  -6.069  36.177  1.00  0.00     0.000 C 
BRANCH   7   8
ATOM      8  C   UNL     1       1.535  -4.631  35.769  1.00  0.00     0.000 C 
BRANCH   8   9
ATOM      9  C   UNL     1       2.532  -3.629  36.369  1.00  0.00     0.000 C 
BRANCH   9  10
ATOM     10  C   UNL     1       2.707  -3.800  37.889  1.00  0.00     0.000 C 
BRANCH  10  11
ATOM     11  C   UNL     1       4.066  -3.330  38.450  1.00  0.00     0.000 C 
BRANCH  11  12
ATOM     12  C   UNL     1       5.247  -4.284  38.188  1.00  0.00     0.000 C 
BRANCH  12  13
ATOM     13  C   UNL     1       6.481  -3.564  37.619  1.00  0.00     0.006 C 
BRANCH  13  14
ATOM     14  C   UNL     1       6.144  -2.729  36.377  1.00  0.00     0.053 C 
BRANCH  14  15
ATOM     15  C   UNL     1       6.524  -3.432  35.109  1.00  0.00     0.041 C 
ATOM     16  O   UNL     1       7.569  -3.098  34.489  1.00  0.00    -0.550 OA
ATOM     17  O   UNL     1       5.715  -4.441  34.602  1.00  0.00    -0.550 OA
ENDBRANCH  14  15
ENDBRANCH  13  14
ENDBRANCH  12  13
ENDBRANCH  11  12
ENDBRANCH  10  11
ENDBRANCH   9  10
ENDBRANCH   8   9
ENDBRANCH   7   8
ENDBRANCH   6   7
ENDBRANCH   5   6
ENDBRANCH   4   5
ENDBRANCH   3   4
ENDBRANCH   2   3
ENDBRANCH   1   2
BRANCH   1  18
ATOM     18  C   UNL     1       7.552 -12.319  35.432  1.00  0.00     0.000 C 
BRANCH  18  19
ATOM     19  C   UNL     1       7.766 -13.619  36.234  1.00  0.00     0.000 C 
BRANCH  19  20
ATOM     20  C   UNL     1       7.859 -13.427  37.759  1.00  0.00     0.000 C 
BRANCH  20  21
ATOM     21  C   UNL     1       9.287 -13.595  38.304  1.00  0.00     0.000 C 
BRANCH  21  22
ATOM     22  C   UNL     1       9.830 -15.029  38.144  1.00  0.00     0.000 C 
BRANCH  22  23
ATOM     23  C   UNL     1      11.040 -15.175  37.199  1.00  0.00     0.000 C 
BRANCH  23  24
ATOM     24  C   UNL     1      11.900 -13.902  37.118  1.00  0.00    -0.000 C 
BRANCH  24  25
ATOM     25  C   UNL     1      12.003 -13.348  35.689  1.00  0.00    -0.000 C 
BRANCH  25  26
ATOM     26  C   UNL     1      11.099 -12.120  35.463  1.00  0.00    -0.000 C 
BRANCH  26  27
ATOM     27  C   UNL     1      11.844 -10.948  34.788  1.00  0.00    -0.000 C 
BRANCH  27  28
ATOM     28  C   UNL     1      13.375 -11.005  34.950  1.00  0.00    -0.000 C 
BRANCH  28  29
ATOM     29  C   UNL     1      13.937 -10.247  36.168  1.00  0.00    -0.000 C 
BRANCH  29  30
ATOM     30  C   UNL     1      12.876  -9.727  37.157  1.00  0.00    -0.000 C 
BRANCH  30  31
ATOM     31  C   UNL     1      12.893 -10.476  38.497  1.00  0.00    -0.003 C 
ATOM     32  C   UNL     1      11.477 -10.690  39.025  1.00  0.00     0.004 C 
ENDBRANCH  30  31
ENDBRANCH  29  30
ENDBRANCH  28  29
ENDBRANCH  27  28
ENDBRANCH  26  27
ENDBRANCH  25  26
ENDBRANCH  24  25
ENDBRANCH  23  24
ENDBRANCH  22  23
ENDBRANCH  21  22
ENDBRANCH  20  21
ENDBRANCH  19  20
ENDBRANCH  18  19
ENDBRANCH   1  18
TORSDOF 28
ENDMDL
MODEL 4
REMARK VINA RESULT:    -4.717      2.457     10.025
REMARK INTER + INTRA:         -16.076
REMARK INTER:                 -12.811
REMARK INTRA:                  -3.265
REMARK UNBOUND:                -3.637
REMARK SMILES CCCCCCCCCCCCCCCCCCCCCCCCCCCCCC(=O)[O-]
REMARK SMILES IDX 16 1 17 2 18 3 19 4 20 5 21 6 22 7 23 8 24 9 25 10 26 11
REMARK SMILES IDX 27 12 28 13 29 14 30 15 31 16 32 17 15 18 14 19 13 20 12 21
REMARK SMILES IDX 11 22 10 23 9 24 8 25 7 26 6 27 5 28 4 29 3 30 2 31 1 32
REMARK H PARENT
REMARK Flexibility Score: inf
ROOT
ATOM      1  C   UNL     1       5.763 -10.285  35.987  1.00  0.00     0.000 C 
ENDROOT
BRANCH   1   2
ATOM      2  C   UNL     1       7.074 -10.959  36.419  1.00  0.00     0.000 C 
BRANCH   2   3
ATOM      3  C   UNL     1       7.486 -12.116  35.490  1.00  0.00     0.000 C 
BRANCH   3   4
ATOM      4  C   UNL     1       7.350 -13.495  36.161  1.00  0.00     0.000 C 
BRANCH   4   5
ATOM      5  C   UNL     1       7.703 -13.530  37.663  1.00  0.00     0.000 C 
BRANCH   5   6
ATOM      6  C   UNL     1       9.205 -13.401  37.987  1.00  0.00     0.000 C 
BRANCH   6   7
ATOM      7  C   UNL     1       9.954 -14.740  38.119  1.00  0.00     0.000 C 
BRANCH   7   8
ATOM      8  C   UNL     1      10.529 -15.230  36.782  1.00  0.00     0.000 C 
BRANCH   8   9
ATOM      9  C   UNL     1      11.588 -14.256  36.249  1.00  0.00     0.000 C 
BRANCH   9  10
ATOM     10  C   UNL     1      12.786 -14.095  37.203  1.00  0.00     0.000 C 
BRANCH  10  11
ATOM     11  C   UNL     1      13.354 -12.664  37.307  1.00  0.00     0.000 C 
BRANCH  11  12
ATOM     12  C   UNL     1      12.463 -11.660  38.062  1.00  0.00     0.000 C 
BRANCH  12  13
ATOM     13  C   UNL     1      12.958 -10.208  37.934  1.00  0.00     0.006 C 
BRANCH  13  14
ATOM     14  C   UNL     1      13.230  -9.814  36.477  1.00  0.00     0.053 C 
BRANCH  14  15
ATOM     15  C   UNL     1      11.962  -9.674  35.689  1.00  0.00     0.041 C 
ATOM     16  O   UNL     1      11.158  -8.740  35.946  1.00  0.00    -0.550 OA
ATOM     17  O   UNL     1      11.662 -10.585  34.684  1.00  0.00    -0.550 OA
ENDBRANCH  14  15
ENDBRANCH  13  14
ENDBRANCH  12  13
ENDBRANCH  11  12
ENDBRANCH  10  11
ENDBRANCH   9  10
ENDBRANCH   8   9
ENDBRANCH   7   8
ENDBRANCH   6   7
ENDBRANCH   5   6
ENDBRANCH   4   5
ENDBRANCH   3   4
ENDBRANCH   2   3
ENDBRANCH   1   2
BRANCH   1  18
ATOM     18  C   UNL     1       5.286  -9.215  36.989  1.00  0.00     0.000 C 
BRANCH  18  19
ATOM     19  C   UNL     1       4.020  -8.464  36.527  1.00  0.00     0.000 C 
BRANCH  19  20
ATOM     20  C   UNL     1       4.228  -6.966  36.240  1.00  0.00     0.000 C 
BRANCH  20  21
ATOM     21  C   UNL     1       3.131  -6.363  35.348  1.00  0.00     0.000 C 
BRANCH  21  22
ATOM     22  C   UNL     1       1.816  -6.093  36.105  1.00  0.00     0.000 C 
BRANCH  22  23
ATOM     23  C   UNL     1       1.803  -4.818  36.973  1.00  0.00     0.000 C 
BRANCH  23  24
ATOM     24  C   UNL     1       2.689  -3.694  36.409  1.00  0.00    -0.000 C 
BRANCH  24  25
ATOM     25  C   UNL     1       3.380  -2.876  37.510  1.00  0.00    -0.000 C 
BRANCH  25  26
ATOM     26  C   UNL     1       3.912  -3.757  38.658  1.00  0.00    -0.000 C 
BRANCH  26  27
ATOM     27  C   UNL     1       5.363  -4.230  38.421  1.00  0.00    -0.000 C 
BRANCH  27  28
ATOM     28  C   UNL     1       6.393  -3.086  38.368  1.00  0.00    -0.000 C 
BRANCH  28  29
ATOM     29  C   UNL     1       7.294  -3.069  37.119  1.00  0.00    -0.000 C 
BRANCH  29  30
ATOM     30  C   UNL     1       6.560  -2.807  35.790  1.00  0.00    -0.000 C 
BRANCH  30  31
ATOM     31  C   UNL     1       6.166  -4.100  35.062  1.00  0.00    -0.003 C 
ATOM     32  C   UNL     1       5.430  -3.796  33.761  1.00  0.00     0.004 C 
ENDBRANCH  30  31
ENDBRANCH  29  30
ENDBRANCH  28  29
ENDBRANCH  27  28
ENDBRANCH  26  27
ENDBRANCH  25  26
ENDBRANCH  24  25
ENDBRANCH  23  24
ENDBRANCH  22  23
ENDBRANCH  21  22
ENDBRANCH  20  21
ENDBRANCH  19  20
ENDBRANCH  18  19
ENDBRANCH   1  18
TORSDOF 28
ENDMDL
MODEL 5
REMARK VINA RESULT:    -4.688      2.648      9.735
REMARK INTER + INTRA:         -15.998
REMARK INTER:                 -12.598
REMARK INTRA:                  -3.400
REMARK UNBOUND:                -3.637
REMARK SMILES CCCCCCCCCCCCCCCCCCCCCCCCCCCCCC(=O)[O-]
REMARK SMILES IDX 16 1 17 2 18 3 19 4 20 5 21 6 22 7 23 8 24 9 25 10 26 11
REMARK SMILES IDX 27 12 28 13 29 14 30 15 31 16 32 17 15 18 14 19 13 20 12 21
REMARK SMILES IDX 11 22 10 23 9 24 8 25 7 26 6 27 5 28 4 29 3 30 2 31 1 32
REMARK H PARENT
REMARK Flexibility Score: inf
ROOT
ATOM      1  C   UNL     1       7.485 -12.056  35.443  1.00  0.00     0.000 C 
ENDROOT
BRANCH   1   2
ATOM      2  C   UNL     1       7.669 -13.468  36.021  1.00  0.00     0.000 C 
BRANCH   2   3
ATOM      3  C   UNL     1       7.676 -13.487  37.560  1.00  0.00     0.000 C 
BRANCH   3   4
ATOM      4  C   UNL     1       9.099 -13.463  38.149  1.00  0.00     0.000 C 
BRANCH   4   5
ATOM      5  C   UNL     1       9.780 -14.842  38.271  1.00  0.00     0.000 C 
BRANCH   5   6
ATOM      6  C   UNL     1      10.499 -15.334  36.999  1.00  0.00     0.000 C 
BRANCH   6   7
ATOM      7  C   UNL     1      12.033 -15.213  37.037  1.00  0.00     0.000 C 
BRANCH   7   8
ATOM      8  C   UNL     1      12.513 -13.754  37.032  1.00  0.00     0.000 C 
BRANCH   8   9
ATOM      9  C   UNL     1      12.412 -13.147  35.626  1.00  0.00     0.000 C 
BRANCH   9  10
ATOM     10  C   UNL     1      11.175 -12.246  35.453  1.00  0.00     0.000 C 
BRANCH  10  11
ATOM     11  C   UNL     1      11.451 -10.868  34.815  1.00  0.00     0.000 C 
BRANCH  11  12
ATOM     12  C   UNL     1      12.773 -10.203  35.243  1.00  0.00     0.000 C 
BRANCH  12  13
ATOM     13  C   UNL     1      12.693  -9.552  36.634  1.00  0.00     0.006 C 
BRANCH  13  14
ATOM     14  C   UNL     1      13.468 -10.347  37.692  1.00  0.00     0.053 C 
BRANCH  14  15
ATOM     15  C   UNL     1      12.714 -10.443  38.985  1.00  0.00     0.041 C 
ATOM     16  O   UNL     1      13.287 -10.168  40.072  1.00  0.00    -0.550 OA
ATOM     17  O   UNL     1      11.387 -10.852  38.989  1.00  0.00    -0.550 OA
ENDBRANCH  14  15
ENDBRANCH  13  14
ENDBRANCH  12  13
ENDBRANCH  11  12
ENDBRANCH  10  11
ENDBRANCH   9  10
ENDBRANCH   8   9
ENDBRANCH   7   8
ENDBRANCH   6   7
ENDBRANCH   5   6
ENDBRANCH   4   5
ENDBRANCH   3   4
ENDBRANCH   2   3
ENDBRANCH   1   2
BRANCH   1  18
ATOM     18  C   UNL     1       6.976 -11.046  36.491  1.00  0.00     0.000 C 
BRANCH  18  19
ATOM     19  C   UNL     1       5.742 -10.248  36.024  1.00  0.00     0.000 C 
BRANCH  19  20
ATOM     20  C   UNL     1       5.255  -9.177  37.017  1.00  0.00     0.000 C 
BRANCH  20  21
ATOM     21  C   UNL     1       3.989  -8.443  36.542  1.00  0.00     0.000 C 
BRANCH  21  22
ATOM     22  C   UNL     1       4.232  -6.951  36.241  1.00  0.00     0.000 C 
BRANCH  22  23
ATOM     23  C   UNL     1       3.299  -6.331  35.181  1.00  0.00     0.000 C 
BRANCH  23  24
ATOM     24  C   UNL     1       1.877  -6.069  35.708  1.00  0.00    -0.000 C 
BRANCH  24  25
ATOM     25  C   UNL     1       1.413  -4.624  35.465  1.00  0.00    -0.000 C 
BRANCH  25  26
ATOM     26  C   UNL     1       2.233  -3.596  36.269  1.00  0.00    -0.000 C 
BRANCH  26  27
ATOM     27  C   UNL     1       2.252  -3.902  37.783  1.00  0.00    -0.000 C 
BRANCH  27  28
ATOM     28  C   UNL     1       3.657  -3.864  38.411  1.00  0.00    -0.000 C 
BRANCH  28  29
ATOM     29  C   UNL     1       4.714  -3.073  37.617  1.00  0.00    -0.000 C 
BRANCH  29  30
ATOM     30  C   UNL     1       6.068  -3.787  37.445  1.00  0.00    -0.000 C 
BRANCH  30  31
ATOM     31  C   UNL     1       6.360  -4.170  35.987  1.00  0.00    -0.003 C 
ATOM     32  C   UNL     1       5.740  -3.165  35.021  1.00  0.00     0.004 C 
ENDBRANCH  30  31
ENDBRANCH  29  30
ENDBRANCH  28  29
ENDBRANCH  27  28
ENDBRANCH  26  27
ENDBRANCH  25  26
ENDBRANCH  24  25
ENDBRANCH  23  24
ENDBRANCH  22  23
ENDBRANCH  21  22
ENDBRANCH  20  21
ENDBRANCH  19  20
ENDBRANCH  18  19
ENDBRANCH   1  18
TORSDOF 28
ENDMDL
MODEL 6
REMARK VINA RESULT:    -4.682      1.687      3.242
REMARK INTER + INTRA:         -15.983
REMARK INTER:                 -12.379
REMARK INTRA:                  -3.603
REMARK UNBOUND:                -3.637
REMARK SMILES CCCCCCCCCCCCCCCCCCCCCCCCCCCCCC(=O)[O-]
REMARK SMILES IDX 16 1 17 2 18 3 19 4 20 5 21 6 22 7 23 8 24 9 25 10 26 11
REMARK SMILES IDX 27 12 28 13 29 14 30 15 31 16 32 17 15 18 14 19 13 20 12 21
REMARK SMILES IDX 11 22 10 23 9 24 8 25 7 26 6 27 5 28 4 29 3 30 2 31 1 32
REMARK H PARENT
REMARK Flexibility Score: inf
ROOT
ATOM      1  C   UNL     1       5.805 -10.168  35.983  1.00  0.00     0.000 C 
ENDROOT
BRANCH   1   2
ATOM      2  C   UNL     1       5.180  -9.224  37.022  1.00  0.00     0.000 C 
BRANCH   2   3
ATOM      3  C   UNL     1       3.968  -8.449  36.473  1.00  0.00     0.000 C 
BRANCH   3   4
ATOM      4  C   UNL     1       4.288  -6.971  36.184  1.00  0.00     0.000 C 
BRANCH   4   5
ATOM      5  C   UNL     1       3.283  -6.254  35.258  1.00  0.00     0.000 C 
BRANCH   5   6
ATOM      6  C   UNL     1       1.862  -6.089  35.833  1.00  0.00     0.000 C 
BRANCH   6   7
ATOM      7  C   UNL     1       1.714  -4.969  36.878  1.00  0.00     0.000 C 
BRANCH   7   8
ATOM      8  C   UNL     1       2.643  -3.778  36.604  1.00  0.00     0.000 C 
BRANCH   8   9
ATOM      9  C   UNL     1       2.989  -3.038  37.904  1.00  0.00     0.000 C 
BRANCH   9  10
ATOM     10  C   UNL     1       3.915  -3.853  38.826  1.00  0.00     0.000 C 
BRANCH  10  11
ATOM     11  C   UNL     1       5.267  -4.258  38.203  1.00  0.00     0.000 C 
BRANCH  11  12
ATOM     12  C   UNL     1       6.353  -3.166  38.229  1.00  0.00     0.000 C 
BRANCH  12  13
ATOM     13  C   UNL     1       6.559  -2.496  36.860  1.00  0.00     0.006 C 
BRANCH  13  14
ATOM     14  C   UNL     1       6.250  -3.446  35.697  1.00  0.00     0.053 C 
BRANCH  14  15
ATOM     15  C   UNL     1       7.279  -3.356  34.611  1.00  0.00     0.041 C 
ATOM     16  O   UNL     1       6.991  -3.706  33.436  1.00  0.00    -0.550 OA
ATOM     17  O   UNL     1       8.560  -2.904  34.901  1.00  0.00    -0.550 OA
ENDBRANCH  14  15
ENDBRANCH  13  14
ENDBRANCH  12  13
ENDBRANCH  11  12
ENDBRANCH  10  11
ENDBRANCH   9  10
ENDBRANCH   8   9
ENDBRANCH   7   8
ENDBRANCH   6   7
ENDBRANCH   5   6
ENDBRANCH   4   5
ENDBRANCH   3   4
ENDBRANCH   2   3
ENDBRANCH   1   2
BRANCH   1  18
ATOM     18  C   UNL     1       7.051 -10.901  36.519  1.00  0.00     0.000 C 
BRANCH  18  19
ATOM     19  C   UNL     1       7.493 -12.085  35.635  1.00  0.00     0.000 C 
BRANCH  19  20
ATOM     20  C   UNL     1       7.685 -13.414  36.388  1.00  0.00     0.000 C 
BRANCH  20  21
ATOM     21  C   UNL     1       8.085 -13.222  37.860  1.00  0.00     0.000 C 
BRANCH  21  22
ATOM     22  C   UNL     1       9.612 -13.173  38.071  1.00  0.00     0.000 C 
BRANCH  22  23
ATOM     23  C   UNL     1      10.340 -14.526  37.940  1.00  0.00     0.000 C 
BRANCH  23  24
ATOM     24  C   UNL     1      11.339 -14.562  36.769  1.00  0.00    -0.000 C 
BRANCH  24  25
ATOM     25  C   UNL     1      12.531 -13.617  36.979  1.00  0.00    -0.000 C 
BRANCH  25  26
ATOM     26  C   UNL     1      13.169 -13.164  35.651  1.00  0.00    -0.000 C 
BRANCH  26  27
ATOM     27  C   UNL     1      12.858 -11.690  35.314  1.00  0.00    -0.000 C 
BRANCH  27  28
ATOM     28  C   UNL     1      11.357 -11.348  35.332  1.00  0.00    -0.000 C 
BRANCH  28  29
ATOM     29  C   UNL     1      10.975 -10.096  36.145  1.00  0.00    -0.000 C 
BRANCH  29  30
ATOM     30  C   UNL     1      12.013  -9.663  37.198  1.00  0.00    -0.000 C 
BRANCH  30  31
ATOM     31  C   UNL     1      11.783 -10.320  38.566  1.00  0.00    -0.003 C 
ATOM     32  C   UNL     1      13.083 -10.406  39.361  1.00  0.00     0.004 C 
ENDBRANCH  30  31
ENDBRANCH  29  30
ENDBRANCH  28  29
ENDBRANCH  27  28
ENDBRANCH  26  27
ENDBRANCH  25  26
ENDBRANCH  24  25
ENDBRANCH  23  24
ENDBRANCH  22  23
ENDBRANCH  21  22
ENDBRANCH  20  21
ENDBRANCH  19  20
ENDBRANCH  18  19
ENDBRANCH   1  18
TORSDOF 28
ENDMDL
MODEL 7
REMARK VINA RESULT:    -4.644      1.122      1.995
REMARK INTER + INTRA:         -15.882
REMARK INTER:                 -12.413
REMARK INTRA:                  -3.469
REMARK UNBOUND:                -3.637
REMARK SMILES CCCCCCCCCCCCCCCCCCCCCCCCCCCCCC(=O)[O-]
REMARK SMILES IDX 16 1 17 2 18 3 19 4 20 5 21 6 22 7 23 8 24 9 25 10 26 11
REMARK SMILES IDX 27 12 28 13 29 14 30 15 31 16 32 17 15 18 14 19 13 20 12 21
REMARK SMILES IDX 11 22 10 23 9 24 8 25 7 26 6 27 5 28 4 29 3 30 2 31 1 32
REMARK H PARENT
REMARK Flexibility Score: inf
ROOT
ATOM      1  C   UNL     1       7.465 -12.049  35.220  1.00  0.00     0.000 C 
ENDROOT
BRANCH   1   2
ATOM      2  C   UNL     1       7.057 -10.981  36.248  1.00  0.00     0.000 C 
BRANCH   2   3
ATOM      3  C   UNL     1       5.758 -10.249  35.864  1.00  0.00     0.000 C 
BRANCH   3   4
ATOM      4  C   UNL     1       5.235  -9.336  36.988  1.00  0.00     0.000 C 
BRANCH   4   5
ATOM      5  C   UNL     1       4.002  -8.485  36.620  1.00  0.00     0.000 C 
BRANCH   5   6
ATOM      6  C   UNL     1       4.309  -7.031  36.205  1.00  0.00     0.000 C 
BRANCH   6   7
ATOM      7  C   UNL     1       3.362  -6.451  35.139  1.00  0.00     0.000 C 
BRANCH   7   8
ATOM      8  C   UNL     1       2.004  -6.031  35.718  1.00  0.00     0.000 C 
BRANCH   8   9
ATOM      9  C   UNL     1       1.660  -4.588  35.325  1.00  0.00     0.000 C 
BRANCH   9  10
ATOM     10  C   UNL     1       2.643  -3.559  35.914  1.00  0.00     0.000 C 
BRANCH  10  11
ATOM     11  C   UNL     1       3.395  -2.701  34.875  1.00  0.00     0.000 C 
BRANCH  11  12
ATOM     12  C   UNL     1       4.701  -3.317  34.340  1.00  0.00     0.000 C 
BRANCH  12  13
ATOM     13  C   UNL     1       5.935  -2.910  35.164  1.00  0.00     0.006 C 
BRANCH  13  14
ATOM     14  C   UNL     1       6.425  -4.046  36.072  1.00  0.00     0.053 C 
BRANCH  14  15
ATOM     15  C   UNL     1       6.228  -3.727  37.524  1.00  0.00     0.041 C 
ATOM     16  O   UNL     1       5.403  -4.387  38.210  1.00  0.00    -0.550 OA
ATOM     17  O   UNL     1       6.940  -2.690  38.113  1.00  0.00    -0.550 OA
ENDBRANCH  14  15
ENDBRANCH  13  14
ENDBRANCH  12  13
ENDBRANCH  11  12
ENDBRANCH  10  11
ENDBRANCH   9  10
ENDBRANCH   8   9
ENDBRANCH   7   8
ENDBRANCH   6   7
ENDBRANCH   5   6
ENDBRANCH   4   5
ENDBRANCH   3   4
ENDBRANCH   2   3
ENDBRANCH   1   2
BRANCH   1  18
ATOM     18  C   UNL     1       7.667 -13.440  35.856  1.00  0.00     0.000 C 
BRANCH  18  19
ATOM     19  C   UNL     1       7.231 -13.507  37.334  1.00  0.00     0.000 C 
BRANCH  19  20
ATOM     20  C   UNL     1       8.391 -13.554  38.345  1.00  0.00     0.000 C 
BRANCH  20  21
ATOM     21  C   UNL     1       8.753 -14.983  38.782  1.00  0.00     0.000 C 
BRANCH  21  22
ATOM     22  C   UNL     1      10.230 -15.340  38.522  1.00  0.00     0.000 C 
BRANCH  22  23
ATOM     23  C   UNL     1      10.735 -15.060  37.093  1.00  0.00     0.000 C 
BRANCH  23  24
ATOM     24  C   UNL     1      11.780 -13.931  37.031  1.00  0.00    -0.000 C 
BRANCH  24  25
ATOM     25  C   UNL     1      11.933 -13.343  35.621  1.00  0.00    -0.000 C 
BRANCH  25  26
ATOM     26  C   UNL     1      11.033 -12.113  35.390  1.00  0.00    -0.000 C 
BRANCH  26  27
ATOM     27  C   UNL     1      11.830 -10.866  34.952  1.00  0.00    -0.000 C 
BRANCH  27  28
ATOM     28  C   UNL     1      13.285 -10.844  35.457  1.00  0.00    -0.000 C 
BRANCH  28  29
ATOM     29  C   UNL     1      13.517 -10.057  36.762  1.00  0.00    -0.000 C 
BRANCH  29  30
ATOM     30  C   UNL     1      13.364 -10.882  38.054  1.00  0.00    -0.000 C 
BRANCH  30  31
ATOM     31  C   UNL     1      12.325 -10.292  39.018  1.00  0.00    -0.003 C 
ATOM     32  C   UNL     1      10.970 -10.973  38.850  1.00  0.00     0.004 C 
ENDBRANCH  30  31
ENDBRANCH  29  30
ENDBRANCH  28  29
ENDBRANCH  27  28
ENDBRANCH  26  27
ENDBRANCH  25  26
ENDBRANCH  24  25
ENDBRANCH  23  24
ENDBRANCH  22  23
ENDBRANCH  21  22
ENDBRANCH  20  21
ENDBRANCH  19  20
ENDBRANCH  18  19
ENDBRANCH   1  18
TORSDOF 28
ENDMDL
MODEL 8
REMARK VINA RESULT:    -4.586      2.515      9.363
REMARK INTER + INTRA:         -15.730
REMARK INTER:                 -12.778
REMARK INTRA:                  -2.953
REMARK UNBOUND:                -3.637
REMARK SMILES CCCCCCCCCCCCCCCCCCCCCCCCCCCCCC(=O)[O-]
REMARK SMILES IDX 16 1 17 2 18 3 19 4 20 5 21 6 22 7 23 8 24 9 25 10 26 11
REMARK SMILES IDX 27 12 28 13 29 14 30 15 31 16 32 17 15 18 14 19 13 20 12 21
REMARK SMILES IDX 11 22 10 23 9 24 8 25 7 26 6 27 5 28 4 29 3 30 2 31 1 32
REMARK H PARENT
REMARK Flexibility Score: inf
ROOT
ATOM      1  C   UNL     1       7.596 -11.782  35.253  1.00  0.00     0.000 C 
ENDROOT
BRANCH   1   2
ATOM      2  C   UNL     1       7.955 -13.185  35.769  1.00  0.00     0.000 C 
BRANCH   2   3
ATOM      3  C   UNL     1       7.077 -13.628  36.953  1.00  0.00     0.000 C 
BRANCH   3   4
ATOM      4  C   UNL     1       7.886 -13.852  38.244  1.00  0.00     0.000 C 
BRANCH   4   5
ATOM      5  C   UNL     1       9.415 -13.712  38.090  1.00  0.00     0.000 C 
BRANCH   5   6
ATOM      6  C   UNL     1      10.204 -15.036  38.136  1.00  0.00     0.000 C 
BRANCH   6   7
ATOM      7  C   UNL     1      11.232 -15.215  37.004  1.00  0.00     0.000 C 
BRANCH   7   8
ATOM      8  C   UNL     1      11.457 -13.926  36.201  1.00  0.00     0.000 C 
BRANCH   8   9
ATOM      9  C   UNL     1      12.853 -13.346  36.470  1.00  0.00     0.000 C 
BRANCH   9  10
ATOM     10  C   UNL     1      13.454 -12.642  35.239  1.00  0.00     0.000 C 
BRANCH  10  11
ATOM     11  C   UNL     1      13.077 -11.153  35.088  1.00  0.00     0.000 C 
BRANCH  11  12
ATOM     12  C   UNL     1      11.566 -10.861  35.048  1.00  0.00     0.000 C 
BRANCH  12  13
ATOM     13  C   UNL     1      11.079 -10.062  36.270  1.00  0.00     0.006 C 
BRANCH  13  14
ATOM     14  C   UNL     1      12.241  -9.578  37.146  1.00  0.00     0.053 C 
BRANCH  14  15
ATOM     15  C   UNL     1      12.226 -10.219  38.501  1.00  0.00     0.041 C 
ATOM     16  O   UNL     1      13.263 -10.214  39.215  1.00  0.00    -0.550 OA
ATOM     17  O   UNL     1      11.073 -10.839  38.966  1.00  0.00    -0.550 OA
ENDBRANCH  14  15
ENDBRANCH  13  14
ENDBRANCH  12  13
ENDBRANCH  11  12
ENDBRANCH  10  11
ENDBRANCH   9  10
ENDBRANCH   8   9
ENDBRANCH   7   8
ENDBRANCH   6   7
ENDBRANCH   5   6
ENDBRANCH   4   5
ENDBRANCH   3   4
ENDBRANCH   2   3
ENDBRANCH   1   2
BRANCH   1  18
ATOM     18  C   UNL     1       7.020 -10.872  36.357  1.00  0.00     0.000 C 
BRANCH  18  19
ATOM     19  C   UNL     1       5.728 -10.142  35.936  1.00  0.00     0.000 C 
BRANCH  19  20
ATOM     20  C   UNL     1       5.170  -9.165  36.987  1.00  0.00     0.000 C 
BRANCH  20  21
ATOM     21  C   UNL     1       4.013  -8.302  36.456  1.00  0.00     0.000 C 
BRANCH  21  22
ATOM     22  C   UNL     1       4.422  -6.840  36.188  1.00  0.00     0.000 C 
BRANCH  22  23
ATOM     23  C   UNL     1       3.440  -6.028  35.320  1.00  0.00     0.000 C 
BRANCH  23  24
ATOM     24  C   UNL     1       3.947  -4.611  34.999  1.00  0.00    -0.000 C 
BRANCH  24  25
ATOM     25  C   UNL     1       4.589  -4.513  33.607  1.00  0.00    -0.000 C 
BRANCH  25  26
ATOM     26  C   UNL     1       5.133  -3.103  33.304  1.00  0.00    -0.000 C 
BRANCH  26  27
ATOM     27  C   UNL     1       5.212  -2.212  34.562  1.00  0.00    -0.000 C 
BRANCH  27  28
ATOM     28  C   UNL     1       6.649  -1.885  35.009  1.00  0.00    -0.000 C 
BRANCH  28  29
ATOM     29  C   UNL     1       7.472  -3.087  35.511  1.00  0.00    -0.000 C 
BRANCH  29  30
ATOM     30  C   UNL     1       7.698  -3.129  37.035  1.00  0.00    -0.000 C 
BRANCH  30  31
ATOM     31  C   UNL     1       6.455  -2.712  37.833  1.00  0.00    -0.003 C 
ATOM     32  C   UNL     1       5.649  -3.932  38.273  1.00  0.00     0.004 C 
ENDBRANCH  30  31
ENDBRANCH  29  30
ENDBRANCH  28  29
ENDBRANCH  27  28
ENDBRANCH  26  27
ENDBRANCH  25  26
ENDBRANCH  24  25
ENDBRANCH  23  24
ENDBRANCH  22  23
ENDBRANCH  21  22
ENDBRANCH  20  21
ENDBRANCH  19  20
ENDBRANCH  18  19
ENDBRANCH   1  18
TORSDOF 28
ENDMDL
MODEL 9
REMARK VINA RESULT:    -4.549      1.739      3.831
REMARK INTER + INTRA:         -15.632
REMARK INTER:                 -11.911
REMARK INTRA:                  -3.721
REMARK UNBOUND:                -3.637
REMARK SMILES CCCCCCCCCCCCCCCCCCCCCCCCCCCCCC(=O)[O-]
REMARK SMILES IDX 16 1 17 2 18 3 19 4 20 5 21 6 22 7 23 8 24 9 25 10 26 11
REMARK SMILES IDX 27 12 28 13 29 14 30 15 31 16 32 17 15 18 14 19 13 20 12 21
REMARK SMILES IDX 11 22 10 23 9 24 8 25 7 26 6 27 5 28 4 29 3 30 2 31 1 32
REMARK H PARENT
REMARK Flexibility Score: inf
ROOT
ATOM      1  C   UNL     1       5.378  -9.358  37.097  1.00  0.00     0.000 C 
ENDROOT
BRANCH   1   2
ATOM      2  C   UNL     1       4.089  -8.696  36.584  1.00  0.00     0.000 C 
BRANCH   2   3
ATOM      3  C   UNL     1       4.279  -7.207  36.239  1.00  0.00     0.000 C 
BRANCH   3   4
ATOM      4  C   UNL     1       3.157  -6.656  35.341  1.00  0.00     0.000 C 
BRANCH   4   5
ATOM      5  C   UNL     1       2.818  -5.166  35.556  1.00  0.00     0.000 C 
BRANCH   5   6
ATOM      6  C   UNL     1       2.345  -4.799  36.977  1.00  0.00     0.000 C 
BRANCH   6   7
ATOM      7  C   UNL     1       2.825  -3.427  37.483  1.00  0.00     0.000 C 
BRANCH   7   8
ATOM      8  C   UNL     1       3.687  -3.532  38.750  1.00  0.00     0.000 C 
BRANCH   8   9
ATOM      9  C   UNL     1       5.043  -4.180  38.442  1.00  0.00     0.000 C 
BRANCH   9  10
ATOM     10  C   UNL     1       6.178  -3.148  38.297  1.00  0.00     0.000 C 
BRANCH  10  11
ATOM     11  C   UNL     1       7.101  -3.355  37.079  1.00  0.00     0.000 C 
BRANCH  11  12
ATOM     12  C   UNL     1       6.504  -4.206  35.943  1.00  0.00     0.000 C 
BRANCH  12  13
ATOM     13  C   UNL     1       6.508  -3.480  34.586  1.00  0.00     0.006 C 
BRANCH  13  14
ATOM     14  C   UNL     1       5.194  -2.732  34.325  1.00  0.00     0.053 C 
BRANCH  14  15
ATOM     15  C   UNL     1       4.537  -3.180  33.054  1.00  0.00     0.041 C 
ATOM     16  O   UNL     1       4.990  -4.172  32.424  1.00  0.00    -0.550 OA
ATOM     17  O   UNL     1       3.438  -2.492  32.557  1.00  0.00    -0.550 OA
ENDBRANCH  14  15
ENDBRANCH  13  14
ENDBRANCH  12  13
ENDBRANCH  11  12
ENDBRANCH  10  11
ENDBRANCH   9  10
ENDBRANCH   8   9
ENDBRANCH   7   8
ENDBRANCH   6   7
ENDBRANCH   5   6
ENDBRANCH   4   5
ENDBRANCH   3   4
ENDBRANCH   2   3
ENDBRANCH   1   2
BRANCH   1  18
ATOM     18  C   UNL     1       5.996 -10.329  36.071  1.00  0.00     0.000 C 
BRANCH  18  19
ATOM     19  C   UNL     1       7.305 -10.984  36.559  1.00  0.00     0.000 C 
BRANCH  19  20
ATOM     20  C   UNL     1       7.621 -12.347  35.916  1.00  0.00     0.000 C 
BRANCH  20  21
ATOM     21  C   UNL     1       7.256 -13.539  36.817  1.00  0.00     0.000 C 
BRANCH  21  22
ATOM     22  C   UNL     1       7.966 -13.505  38.184  1.00  0.00     0.000 C 
BRANCH  22  23
ATOM     23  C   UNL     1       9.478 -13.206  38.135  1.00  0.00     0.000 C 
BRANCH  23  24
ATOM     24  C   UNL     1      10.339 -14.472  37.980  1.00  0.00    -0.000 C 
BRANCH  24  25
ATOM     25  C   UNL     1      11.086 -14.519  36.638  1.00  0.00    -0.000 C 
BRANCH  25  26
ATOM     26  C   UNL     1      12.460 -13.823  36.700  1.00  0.00    -0.000 C 
BRANCH  26  27
ATOM     27  C   UNL     1      12.637 -12.757  35.597  1.00  0.00    -0.000 C 
BRANCH  27  28
ATOM     28  C   UNL     1      11.331 -12.047  35.198  1.00  0.00    -0.000 C 
BRANCH  28  29
ATOM     29  C   UNL     1      11.113 -10.660  35.833  1.00  0.00    -0.000 C 
BRANCH  29  30
ATOM     30  C   UNL     1      12.343 -10.074  36.553  1.00  0.00    -0.000 C 
BRANCH  30  31
ATOM     31  C   UNL     1      12.085  -9.791  38.039  1.00  0.00    -0.003 C 
ATOM     32  C   UNL     1      12.981 -10.650  38.927  1.00  0.00     0.004 C 
ENDBRANCH  30  31
ENDBRANCH  29  30
ENDBRANCH  28  29
ENDBRANCH  27  28
ENDBRANCH  26  27
ENDBRANCH  25  26
ENDBRANCH  24  25
ENDBRANCH  23  24
ENDBRANCH  22  23
ENDBRANCH  21  22
ENDBRANCH  20  21
ENDBRANCH  19  20
ENDBRANCH  18  19
ENDBRANCH   1  18
TORSDOF 28
ENDMDL
