MODEL 1
REMARK VINA RESULT:    -1.850      0.000      0.000
REMARK INTER + INTRA:          -2.239
REMARK INTER:                  -2.174
REMARK INTRA:                  -0.065
REMARK UNBOUND:                -0.065
REMARK SMILES O=c1c(O)c(-c2ccc(O)c(O)c2)oc2cc(O)ccc12
REMARK SMILES IDX 5 1 3 2 2 3 1 4 21 5 15 6 14 7 16 8 17 9 19 10 20 11 6 12
REMARK SMILES IDX 7 13 8 14 9 15 13 16 11 17 10 18 12 20 4 22 18 24
REMARK H PARENT 10 19 12 21 4 23 18 25
REMARK Flexibility Score: inf
ROOT
ATOM      1  C   UNL     1     -12.235 -15.823  31.389  1.00  0.00     0.180 A 
ATOM      2  C   UNL     1     -13.578 -15.464  31.629  1.00  0.00     0.208 A 
ATOM      3  C   UNL     1     -13.928 -14.963  32.893  1.00  0.00     0.235 A 
ATOM      4  O   UNL     1     -15.124 -14.645  33.136  1.00  0.00    -0.285 OA
ATOM      5  C   UNL     1     -12.936 -14.813  33.875  1.00  0.00     0.069 A 
ATOM      6  C   UNL     1     -11.611 -15.173  33.548  1.00  0.00     0.142 A 
ATOM      7  O   UNL     1     -11.323 -15.651  32.343  1.00  0.00    -0.452 OA
ATOM      8  C   UNL     1     -10.592 -15.028  34.496  1.00  0.00     0.094 A 
ATOM      9  C   UNL     1     -10.883 -14.528  35.773  1.00  0.00     0.119 A 
ATOM     10  C   UNL     1     -12.196 -14.173  36.100  1.00  0.00     0.047 A 
ATOM     11  C   UNL     1     -13.220 -14.312  35.158  1.00  0.00     0.020 A 
ENDROOT
BRANCH   1  12
ATOM     12  C   UNL     1     -11.791 -16.377  30.090  1.00  0.00     0.025 A 
ATOM     13  C   UNL     1     -10.807 -15.735  29.317  1.00  0.00     0.016 A 
ATOM     14  C   UNL     1     -10.421 -16.263  28.082  1.00  0.00     0.051 A 
ATOM     15  C   UNL     1     -11.021 -17.433  27.596  1.00  0.00     0.157 A 
ATOM     16  C   UNL     1     -12.403 -17.537  29.588  1.00  0.00     0.062 A 
ATOM     17  C   UNL     1     -12.016 -18.069  28.349  1.00  0.00     0.158 A 
BRANCH  15  18
ATOM     18  O   UNL     1     -10.638 -17.964  26.367  1.00  0.00    -0.504 OA
ATOM     19  H   UNL     1      -9.812 -17.634  25.881  1.00  0.00     0.293 HD
ENDBRANCH  15  18
BRANCH  17  20
ATOM     20  O   UNL     1     -12.616 -19.228  27.860  1.00  0.00    -0.504 OA
ATOM     21  H   UNL     1     -13.304 -19.738  28.402  1.00  0.00     0.293 HD
ENDBRANCH  17  20
ENDBRANCH   1  12
BRANCH   2  22
ATOM     22  O   UNL     1     -14.534 -15.579  30.617  1.00  0.00    -0.502 OA
ATOM     23  H   UNL     1     -14.484 -15.040  29.761  1.00  0.00     0.293 HD
ENDBRANCH   2  22
BRANCH   9  24
ATOM     24  O   UNL     1      -9.876 -14.381  36.724  1.00  0.00    -0.508 OA
ATOM     25  H   UNL     1      -9.855 -14.949  37.565  1.00  0.00     0.293 HD
ENDBRANCH   9  24
TORSDOF 5
ENDMDL
MODEL 2
REMARK VINA RESULT:    -0.871      2.017      7.152
REMARK INTER + INTRA:          -1.089
REMARK INTER:                  -1.295
REMARK INTRA:                   0.206
REMARK UNBOUND:                -0.065
REMARK SMILES O=c1c(O)c(-c2ccc(O)c(O)c2)oc2cc(O)ccc12
REMARK SMILES IDX 5 1 3 2 2 3 1 4 21 5 15 6 14 7 16 8 17 9 19 10 20 11 6 12
REMARK SMILES IDX 7 13 8 14 9 15 13 16 11 17 10 18 12 20 4 22 18 24
REMARK H PARENT 10 19 12 21 4 23 18 25
REMARK Flexibility Score: inf
ROOT
ATOM      1  C   UNL     1     -11.858 -16.112  30.997  1.00  0.00     0.180 A 
ATOM      2  C   UNL     1     -10.846 -17.017  30.617  1.00  0.00     0.208 A 
ATOM      3  C   UNL     1     -10.765 -17.416  29.273  1.00  0.00     0.235 A 
ATOM      4  O   UNL     1      -9.875 -18.233  28.911  1.00  0.00    -0.285 OA
ATOM      5  C   UNL     1     -11.675 -16.892  28.342  1.00  0.00     0.069 A 
ATOM      6  C   UNL     1     -12.644 -15.972  28.798  1.00  0.00     0.142 A 
ATOM      7  O   UNL     1     -12.692 -15.628  30.079  1.00  0.00    -0.452 OA
ATOM      8  C   UNL     1     -13.563 -15.420  27.898  1.00  0.00     0.094 A 
ATOM      9  C   UNL     1     -13.527 -15.778  26.544  1.00  0.00     0.119 A 
ATOM     10  C   UNL     1     -12.568 -16.691  26.090  1.00  0.00     0.047 A 
ATOM     11  C   UNL     1     -11.645 -17.247  26.981  1.00  0.00     0.020 A 
ENDROOT
BRANCH   1  12
ATOM     12  C   UNL     1     -12.021 -15.658  32.397  1.00  0.00     0.025 A 
ATOM     13  C   UNL     1     -13.293 -15.442  32.955  1.00  0.00     0.016 A 
ATOM     14  C   UNL     1     -13.421 -14.990  34.271  1.00  0.00     0.051 A 
ATOM     15  C   UNL     1     -12.280 -14.736  35.044  1.00  0.00     0.157 A 
ATOM     16  C   UNL     1     -10.881 -15.381  33.170  1.00  0.00     0.062 A 
ATOM     17  C   UNL     1     -11.007 -14.929  34.492  1.00  0.00     0.158 A 
BRANCH  15  18
ATOM     18  O   UNL     1     -12.403 -14.287  36.357  1.00  0.00    -0.504 OA
ATOM     19  H   UNL     1     -11.646 -14.385  37.024  1.00  0.00     0.293 HD
ENDBRANCH  15  18
BRANCH  17  20
ATOM     20  O   UNL     1      -9.875 -14.668  35.260  1.00  0.00    -0.504 OA
ATOM     21  H   UNL     1      -9.909 -14.674  36.274  1.00  0.00     0.293 HD
ENDBRANCH  17  20
ENDBRANCH   1  12
BRANCH   2  22
ATOM     22  O   UNL     1      -9.923 -17.484  31.557  1.00  0.00    -0.502 OA
ATOM     23  H   UNL     1      -9.940 -18.434  31.907  1.00  0.00     0.293 HD
ENDBRANCH   2  22
BRANCH   9  24
ATOM     24  O   UNL     1     -14.437 -15.235  25.641  1.00  0.00    -0.508 OA
ATOM     25  H   UNL     1     -15.373 -14.969  25.928  1.00  0.00     0.293 HD
ENDBRANCH   9  24
TORSDOF 5
ENDMDL
MODEL 3
REMARK VINA RESULT:    -0.703      2.049      6.981
REMARK INTER + INTRA:          -0.891
REMARK INTER:                  -0.892
REMARK INTRA:                   0.001
REMARK UNBOUND:                -0.065
REMARK SMILES O=c1c(O)c(-c2ccc(O)c(O)c2)oc2cc(O)ccc12
REMARK SMILES IDX 5 1 3 2 2 3 1 4 21 5 15 6 14 7 16 8 17 9 19 10 20 11 6 12
REMARK SMILES IDX 7 13 8 14 9 15 13 16 11 17 10 18 12 20 4 22 18 24
REMARK H PARENT 10 19 12 21 4 23 18 25
REMARK Flexibility Score: inf
ROOT
ATOM      1  C   UNL     1     -11.428 -16.192  31.141  1.00  0.00     0.180 A 
ATOM      2  C   UNL     1     -10.759 -17.370  30.748  1.00  0.00     0.208 A 
ATOM      3  C   UNL     1     -10.973 -17.869  29.453  1.00  0.00     0.235 A 
ATOM      4  O   UNL     1     -10.394 -18.927  29.082  1.00  0.00    -0.285 OA
ATOM      5  C   UNL     1     -11.827 -17.177  28.579  1.00  0.00     0.069 A 
ATOM      6  C   UNL     1     -12.440 -15.993  29.041  1.00  0.00     0.142 A 
ATOM      7  O   UNL     1     -12.218 -15.559  30.277  1.00  0.00    -0.452 OA
ATOM      8  C   UNL     1     -13.289 -15.270  28.197  1.00  0.00     0.094 A 
ATOM      9  C   UNL     1     -13.536 -15.718  26.892  1.00  0.00     0.119 A 
ATOM     10  C   UNL     1     -12.931 -16.893  26.433  1.00  0.00     0.047 A 
ATOM     11  C   UNL     1     -12.079 -17.621  27.269  1.00  0.00     0.020 A 
ENDROOT
BRANCH   1  12
ATOM     12  C   UNL     1     -11.270 -15.614  32.495  1.00  0.00     0.025 A 
ATOM     13  C   UNL     1      -9.999 -15.373  33.046  1.00  0.00     0.016 A 
ATOM     14  C   UNL     1      -9.875 -14.850  34.336  1.00  0.00     0.051 A 
ATOM     15  C   UNL     1     -11.018 -14.571  35.098  1.00  0.00     0.157 A 
ATOM     16  C   UNL     1     -12.411 -15.352  33.271  1.00  0.00     0.062 A 
ATOM     17  C   UNL     1     -12.288 -14.825  34.566  1.00  0.00     0.158 A 
BRANCH  15  18
ATOM     18  O   UNL     1     -10.898 -14.046  36.383  1.00  0.00    -0.504 OA
ATOM     19  H   UNL     1     -11.539 -13.342  36.730  1.00  0.00     0.293 HD
ENDBRANCH  15  18
BRANCH  17  20
ATOM     20  O   UNL     1     -13.422 -14.554  35.328  1.00  0.00    -0.504 OA
ATOM     21  H   UNL     1     -14.351 -14.802  35.006  1.00  0.00     0.293 HD
ENDBRANCH  17  20
ENDBRANCH   1  12
BRANCH   2  22
ATOM     22  O   UNL     1      -9.878 -18.010  31.623  1.00  0.00    -0.502 OA
ATOM     23  H   UNL     1      -9.788 -19.018  31.661  1.00  0.00     0.293 HD
ENDBRANCH   2  22
BRANCH   9  24
ATOM     24  O   UNL     1     -14.381 -15.005  26.044  1.00  0.00    -0.508 OA
ATOM     25  H   UNL     1     -14.387 -13.991  26.033  1.00  0.00     0.293 HD
ENDBRANCH   9  24
TORSDOF 5
ENDMDL
MODEL 4
REMARK VINA RESULT:    -0.626      1.649      6.705
REMARK INTER + INTRA:          -0.801
REMARK INTER:                  -0.967
REMARK INTRA:                   0.166
REMARK UNBOUND:                -0.065
REMARK SMILES O=c1c(O)c(-c2ccc(O)c(O)c2)oc2cc(O)ccc12
REMARK SMILES IDX 5 1 3 2 2 3 1 4 21 5 15 6 14 7 16 8 17 9 19 10 20 11 6 12
REMARK SMILES IDX 7 13 8 14 9 15 13 16 11 17 10 18 12 20 4 22 18 24
REMARK H PARENT 10 19 12 21 4 23 18 25
REMARK Flexibility Score: inf
ROOT
ATOM      1  C   UNL     1     -12.727 -15.493  30.877  1.00  0.00     0.180 A 
ATOM      2  C   UNL     1     -13.749 -14.858  30.141  1.00  0.00     0.208 A 
ATOM      3  C   UNL     1     -13.779 -15.021  28.746  1.00  0.00     0.235 A 
ATOM      4  O   UNL     1     -14.677 -14.455  28.064  1.00  0.00    -0.285 OA
ATOM      5  C   UNL     1     -12.811 -15.825  28.125  1.00  0.00     0.069 A 
ATOM      6  C   UNL     1     -11.836 -16.445  28.935  1.00  0.00     0.142 A 
ATOM      7  O   UNL     1     -11.837 -16.258  30.249  1.00  0.00    -0.452 OA
ATOM      8  C   UNL     1     -10.859 -17.262  28.354  1.00  0.00     0.094 A 
ATOM      9  C   UNL     1     -10.843 -17.465  26.967  1.00  0.00     0.119 A 
ATOM     10  C   UNL     1     -11.808 -16.850  26.162  1.00  0.00     0.047 A 
ATOM     11  C   UNL     1     -12.789 -16.034  26.734  1.00  0.00     0.020 A 
ENDROOT
BRANCH   1  12
ATOM     12  C   UNL     1     -12.616 -15.353  32.347  1.00  0.00     0.025 A 
ATOM     13  C   UNL     1     -13.756 -15.330  33.170  1.00  0.00     0.016 A 
ATOM     14  C   UNL     1     -13.627 -15.173  34.552  1.00  0.00     0.051 A 
ATOM     15  C   UNL     1     -12.359 -15.024  35.131  1.00  0.00     0.157 A 
ATOM     16  C   UNL     1     -11.350 -15.182  32.930  1.00  0.00     0.062 A 
ATOM     17  C   UNL     1     -11.218 -15.025  34.318  1.00  0.00     0.158 A 
BRANCH  15  18
ATOM     18  O   UNL     1     -12.226 -14.869  36.509  1.00  0.00    -0.504 OA
ATOM     19  H   UNL     1     -12.763 -15.430  37.160  1.00  0.00     0.293 HD
ENDBRANCH  15  18
BRANCH  17  20
ATOM     20  O   UNL     1      -9.960 -14.869  34.895  1.00  0.00    -0.504 OA
ATOM     21  H   UNL     1      -9.433 -15.663  35.242  1.00  0.00     0.293 HD
ENDBRANCH  17  20
ENDBRANCH   1  12
BRANCH   2  22
ATOM     22  O   UNL     1     -14.729 -14.104  30.792  1.00  0.00    -0.502 OA
ATOM     23  H   UNL     1     -15.426 -13.569  30.288  1.00  0.00     0.293 HD
ENDBRANCH   2  22
BRANCH   9  24
ATOM     24  O   UNL     1      -9.875 -18.275  26.379  1.00  0.00    -0.508 OA
ATOM     25  H   UNL     1      -9.082 -18.622  26.908  1.00  0.00     0.293 HD
ENDBRANCH   9  24
TORSDOF 5
ENDMDL
MODEL 5
REMARK VINA RESULT:    -0.134      1.270      6.597
REMARK INTER + INTRA:          -0.223
REMARK INTER:                  -0.612
REMARK INTRA:                   0.389
REMARK UNBOUND:                -0.065
REMARK SMILES O=c1c(O)c(-c2ccc(O)c(O)c2)oc2cc(O)ccc12
REMARK SMILES IDX 5 1 3 2 2 3 1 4 21 5 15 6 14 7 16 8 17 9 19 10 20 11 6 12
REMARK SMILES IDX 7 13 8 14 9 15 13 16 11 17 10 18 12 20 4 22 18 24
REMARK H PARENT 10 19 12 21 4 23 18 25
REMARK Flexibility Score: inf
ROOT
ATOM      1  C   UNL     1     -12.158 -15.281  32.633  1.00  0.00     0.180 A 
ATOM      2  C   UNL     1     -13.437 -14.852  32.221  1.00  0.00     0.208 A 
ATOM      3  C   UNL     1     -13.816 -15.047  30.882  1.00  0.00     0.235 A 
ATOM      4  O   UNL     1     -14.951 -14.663  30.487  1.00  0.00    -0.285 OA
ATOM      5  C   UNL     1     -12.927 -15.679  29.998  1.00  0.00     0.069 A 
ATOM      6  C   UNL     1     -11.675 -16.100  30.495  1.00  0.00     0.142 A 
ATOM      7  O   UNL     1     -11.352 -15.888  31.766  1.00  0.00    -0.452 OA
ATOM      8  C   UNL     1     -10.766 -16.742  29.648  1.00  0.00     0.094 A 
ATOM      9  C   UNL     1     -11.092 -16.967  28.303  1.00  0.00     0.119 A 
ATOM     10  C   UNL     1     -12.332 -16.549  27.808  1.00  0.00     0.047 A 
ATOM     11  C   UNL     1     -13.249 -15.909  28.648  1.00  0.00     0.020 A 
ENDROOT
BRANCH   1  12
ATOM     12  C   UNL     1     -11.677 -15.094  34.021  1.00  0.00     0.025 A 
ATOM     13  C   UNL     1     -10.305 -15.063  34.324  1.00  0.00     0.016 A 
ATOM     14  C   UNL     1      -9.875 -14.910  35.644  1.00  0.00     0.051 A 
ATOM     15  C   UNL     1     -10.810 -14.798  36.683  1.00  0.00     0.157 A 
ATOM     16  C   UNL     1     -12.609 -15.002  35.068  1.00  0.00     0.062 A 
ATOM     17  C   UNL     1     -12.180 -14.847  36.394  1.00  0.00     0.158 A 
BRANCH  15  18
ATOM     18  O   UNL     1     -10.386 -14.643  38.000  1.00  0.00    -0.504 OA
ATOM     19  H   UNL     1     -10.093 -15.435  38.560  1.00  0.00     0.293 HD
ENDBRANCH  15  18
BRANCH  17  20
ATOM     20  O   UNL     1     -13.107 -14.743  37.429  1.00  0.00    -0.504 OA
ATOM     21  H   UNL     1     -12.991 -15.252  38.298  1.00  0.00     0.293 HD
ENDBRANCH  17  20
ENDBRANCH   1  12
BRANCH   2  22
ATOM     22  O   UNL     1     -14.319 -14.271  33.135  1.00  0.00    -0.502 OA
ATOM     23  H   UNL     1     -14.213 -13.317  33.458  1.00  0.00     0.293 HD
ENDBRANCH   2  22
BRANCH   9  24
ATOM     24  O   UNL     1     -10.194 -17.605  27.451  1.00  0.00    -0.508 OA
ATOM     25  H   UNL     1      -9.203 -17.650  27.665  1.00  0.00     0.293 HD
ENDBRANCH   9  24
TORSDOF 5
ENDMDL
MODEL 6
REMARK VINA RESULT:     0.038      1.709      6.922
REMARK INTER + INTRA:          -0.020
REMARK INTER:                   0.304
REMARK INTRA:                  -0.324
REMARK UNBOUND:                -0.065
REMARK SMILES O=c1c(O)c(-c2ccc(O)c(O)c2)oc2cc(O)ccc12
REMARK SMILES IDX 5 1 3 2 2 3 1 4 21 5 15 6 14 7 16 8 17 9 19 10 20 11 6 12
REMARK SMILES IDX 7 13 8 14 9 15 13 16 11 17 10 18 12 20 4 22 18 24
REMARK H PARENT 10 19 12 21 4 23 18 25
REMARK Flexibility Score: inf
ROOT
ATOM      1  C   UNL     1     -12.795 -16.629  31.266  1.00  0.00     0.180 A 
ATOM      2  C   UNL     1     -13.118 -18.001  31.276  1.00  0.00     0.208 A 
ATOM      3  C   UNL     1     -12.919 -18.751  30.105  1.00  0.00     0.235 A 
ATOM      4  O   UNL     1     -13.210 -19.978  30.086  1.00  0.00    -0.285 OA
ATOM      5  C   UNL     1     -12.387 -18.125  28.967  1.00  0.00     0.069 A 
ATOM      6  C   UNL     1     -12.068 -16.753  29.046  1.00  0.00     0.142 A 
ATOM      7  O   UNL     1     -12.279 -16.078  30.170  1.00  0.00    -0.452 OA
ATOM      8  C   UNL     1     -11.526 -16.096  27.936  1.00  0.00     0.094 A 
ATOM      9  C   UNL     1     -11.302 -16.795  26.742  1.00  0.00     0.119 A 
ATOM     10  C   UNL     1     -11.619 -18.155  26.661  1.00  0.00     0.047 A 
ATOM     11  C   UNL     1     -12.158 -18.821  27.766  1.00  0.00     0.020 A 
ENDROOT
BRANCH   1  12
ATOM     12  C   UNL     1     -12.994 -15.766  32.454  1.00  0.00     0.025 A 
ATOM     13  C   UNL     1     -14.206 -15.088  32.672  1.00  0.00     0.016 A 
ATOM     14  C   UNL     1     -14.362 -14.260  33.787  1.00  0.00     0.051 A 
ATOM     15  C   UNL     1     -13.306 -14.089  34.693  1.00  0.00     0.157 A 
ATOM     16  C   UNL     1     -11.932 -15.574  33.353  1.00  0.00     0.062 A 
ATOM     17  C   UNL     1     -12.087 -14.745  34.474  1.00  0.00     0.158 A 
BRANCH  15  18
ATOM     18  O   UNL     1     -13.458 -13.267  35.807  1.00  0.00    -0.504 OA
ATOM     19  H   UNL     1     -14.065 -12.456  35.788  1.00  0.00     0.293 HD
ENDBRANCH  15  18
BRANCH  17  20
ATOM     20  O   UNL     1     -11.037 -14.567  35.371  1.00  0.00    -0.504 OA
ATOM     21  H   UNL     1     -10.730 -15.314  35.984  1.00  0.00     0.293 HD
ENDBRANCH  17  20
ENDBRANCH   1  12
BRANCH   2  22
ATOM     22  O   UNL     1     -13.600 -18.608  32.439  1.00  0.00    -0.502 OA
ATOM     23  H   UNL     1     -13.117 -18.536  33.327  1.00  0.00     0.293 HD
ENDBRANCH   2  22
BRANCH   9  24
ATOM     24  O   UNL     1     -10.764 -16.149  25.631  1.00  0.00    -0.508 OA
ATOM     25  H   UNL     1     -11.350 -15.637  24.981  1.00  0.00     0.293 HD
ENDBRANCH   9  24
TORSDOF 5
ENDMDL
