MODEL 1
REMARK VINA RESULT:    -3.573      0.000      0.000
REMARK INTER + INTRA:          -3.573
REMARK INTER:                  -3.573
REMARK INTRA:                   0.000
REMARK UNBOUND:                 0.000
REMARK SMILES O=c1ccc2ccccc2o1
REMARK SMILES IDX 7 1 8 2 9 3 10 4 5 5 6 6 4 7 3 8 2 9 1 10 11 11
REMARK H PARENT
REMARK Flexibility Score: inf
ROOT
ATOM      1  C   UNL     1       8.888  17.108  37.100  1.00  0.00     0.001 A 
ATOM      2  C   UNL     1       9.130  15.840  37.639  1.00  0.00     0.004 A 
ATOM      3  C   UNL     1       8.871  15.587  38.991  1.00  0.00     0.048 A 
ATOM      4  C   UNL     1       8.369  16.605  39.810  1.00  0.00     0.138 A 
ATOM      5  C   UNL     1       8.125  17.887  39.266  1.00  0.00     0.018 A 
ATOM      6  C   UNL     1       8.387  18.133  37.910  1.00  0.00     0.012 A 
ATOM      7  C   UNL     1       7.624  18.884  40.108  1.00  0.00     0.019 A 
ATOM      8  C   UNL     1       7.380  18.588  41.449  1.00  0.00     0.094 A 
ATOM      9  C   UNL     1       7.645  17.296  41.918  1.00  0.00     0.336 A 
ATOM     10  O   UNL     1       7.432  17.011  43.125  1.00  0.00    -0.246 OA
ATOM     11  O   UNL     1       8.122  16.366  41.095  1.00  0.00    -0.423 OA
ENDROOT
TORSDOF 0
ENDMDL
MODEL 2
REMARK VINA RESULT:    -3.311      1.886      4.361
REMARK INTER + INTRA:          -3.311
REMARK INTER:                  -3.311
REMARK INTRA:                   0.000
REMARK UNBOUND:                 0.000
REMARK SMILES O=c1ccc2ccccc2o1
REMARK SMILES IDX 7 1 8 2 9 3 10 4 5 5 6 6 4 7 3 8 2 9 1 10 11 11
REMARK H PARENT
REMARK Flexibility Score: inf
ROOT
ATOM      1  C   UNL     1       7.553  17.357  42.225  1.00  0.00     0.001 A 
ATOM      2  C   UNL     1       7.347  18.628  41.677  1.00  0.00     0.004 A 
ATOM      3  C   UNL     1       7.630  18.867  40.327  1.00  0.00     0.048 A 
ATOM      4  C   UNL     1       8.121  17.834  39.521  1.00  0.00     0.138 A 
ATOM      5  C   UNL     1       8.330  16.551  40.075  1.00  0.00     0.018 A 
ATOM      6  C   UNL     1       8.043  16.318  41.428  1.00  0.00     0.012 A 
ATOM      7  C   UNL     1       8.822  15.538  39.245  1.00  0.00     0.019 A 
ATOM      8  C   UNL     1       9.090  15.822  37.906  1.00  0.00     0.094 A 
ATOM      9  C   UNL     1       8.860  17.117  37.427  1.00  0.00     0.336 A 
ATOM     10  O   UNL     1       9.096  17.391  36.222  1.00  0.00    -0.246 OA
ATOM     11  O   UNL     1       8.391  18.061  38.238  1.00  0.00    -0.423 OA
ENDROOT
TORSDOF 0
ENDMDL
MODEL 3
REMARK VINA RESULT:    -3.247      1.413      3.851
REMARK INTER + INTRA:          -3.247
REMARK INTER:                  -3.247
REMARK INTRA:                   0.000
REMARK UNBOUND:                 0.000
REMARK SMILES O=c1ccc2ccccc2o1
REMARK SMILES IDX 7 1 8 2 9 3 10 4 5 5 6 6 4 7 3 8 2 9 1 10 11 11
REMARK H PARENT
REMARK Flexibility Score: inf
ROOT
ATOM      1  C   UNL     1       6.925  18.885  42.606  1.00  0.00     0.001 A 
ATOM      2  C   UNL     1       7.235  17.579  43.001  1.00  0.00     0.004 A 
ATOM      3  C   UNL     1       7.763  16.670  42.077  1.00  0.00     0.048 A 
ATOM      4  C   UNL     1       7.984  17.065  40.753  1.00  0.00     0.138 A 
ATOM      5  C   UNL     1       7.670  18.384  40.354  1.00  0.00     0.018 A 
ATOM      6  C   UNL     1       7.141  19.291  41.285  1.00  0.00     0.012 A 
ATOM      7  C   UNL     1       7.901  18.751  39.023  1.00  0.00     0.019 A 
ATOM      8  C   UNL     1       8.429  17.812  38.138  1.00  0.00     0.094 A 
ATOM      9  C   UNL     1       8.714  16.524  38.604  1.00  0.00     0.336 A 
ATOM     10  O   UNL     1       9.191  15.663  37.819  1.00  0.00    -0.246 OA
ATOM     11  O   UNL     1       8.485  16.201  39.874  1.00  0.00    -0.423 OA
ENDROOT
TORSDOF 0
ENDMDL
MODEL 4
REMARK VINA RESULT:    -3.174      1.388      2.214
REMARK INTER + INTRA:          -3.174
REMARK INTER:                  -3.174
REMARK INTRA:                   0.000
REMARK UNBOUND:                 0.000
REMARK SMILES O=c1ccc2ccccc2o1
REMARK SMILES IDX 7 1 8 2 9 3 10 4 5 5 6 6 4 7 3 8 2 9 1 10 11 11
REMARK H PARENT
REMARK Flexibility Score: inf
ROOT
ATOM      1  C   UNL     1       9.060  15.858  37.915  1.00  0.00     0.001 A 
ATOM      2  C   UNL     1       8.831  17.088  37.288  1.00  0.00     0.004 A 
ATOM      3  C   UNL     1       8.326  18.169  38.020  1.00  0.00     0.048 A 
ATOM      4  C   UNL     1       8.047  18.022  39.384  1.00  0.00     0.138 A 
ATOM      5  C   UNL     1       8.278  16.780  40.017  1.00  0.00     0.018 A 
ATOM      6  C   UNL     1       8.785  15.701  39.277  1.00  0.00     0.012 A 
ATOM      7  C   UNL     1       7.989  16.662  41.380  1.00  0.00     0.019 A 
ATOM      8  C   UNL     1       7.487  17.766  42.070  1.00  0.00     0.094 A 
ATOM      9  C   UNL     1       7.284  18.964  41.377  1.00  0.00     0.336 A 
ATOM     10  O   UNL     1       6.831  19.970  41.983  1.00  0.00    -0.246 OA
ATOM     11  O   UNL     1       7.566  19.049  40.080  1.00  0.00    -0.423 OA
ENDROOT
TORSDOF 0
ENDMDL
MODEL 5
REMARK VINA RESULT:    -3.016      2.053      4.378
REMARK INTER + INTRA:          -3.016
REMARK INTER:                  -3.016
REMARK INTRA:                   0.000
REMARK UNBOUND:                 0.000
REMARK SMILES O=c1ccc2ccccc2o1
REMARK SMILES IDX 7 1 8 2 9 3 10 4 5 5 6 6 4 7 3 8 2 9 1 10 11 11
REMARK H PARENT
REMARK Flexibility Score: inf
ROOT
ATOM      1  C   UNL     1       7.485  17.877  41.801  1.00  0.00     0.001 A 
ATOM      2  C   UNL     1       7.242  18.995  40.995  1.00  0.00     0.004 A 
ATOM      3  C   UNL     1       7.531  18.954  39.627  1.00  0.00     0.048 A 
ATOM      4  C   UNL     1       8.065  17.793  39.058  1.00  0.00     0.138 A 
ATOM      5  C   UNL     1       8.312  16.663  39.871  1.00  0.00     0.018 A 
ATOM      6  C   UNL     1       8.020  16.711  41.243  1.00  0.00     0.012 A 
ATOM      7  C   UNL     1       8.848  15.517  39.276  1.00  0.00     0.019 A 
ATOM      8  C   UNL     1       9.120  15.521  37.908  1.00  0.00     0.094 A 
ATOM      9  C   UNL     1       8.850  16.676  37.166  1.00  0.00     0.336 A 
ATOM     10  O   UNL     1       9.090  16.698  35.930  1.00  0.00    -0.246 OA
ATOM     11  O   UNL     1       8.341  17.753  37.757  1.00  0.00    -0.423 OA
ENDROOT
TORSDOF 0
ENDMDL
MODEL 6
REMARK VINA RESULT:    -2.650     22.977     24.683
REMARK INTER + INTRA:          -2.650
REMARK INTER:                  -2.650
REMARK INTRA:                   0.000
REMARK UNBOUND:                 0.000
REMARK SMILES O=c1ccc2ccccc2o1
REMARK SMILES IDX 7 1 8 2 9 3 10 4 5 5 6 6 4 7 3 8 2 9 1 10 11 11
REMARK H PARENT
REMARK Flexibility Score: inf
ROOT
ATOM      1  C   UNL     1      25.798   4.496  30.086  1.00  0.00     0.001 A 
ATOM      2  C   UNL     1      25.088   5.701  30.102  1.00  0.00     0.004 A 
ATOM      3  C   UNL     1      24.679   6.294  28.902  1.00  0.00     0.048 A 
ATOM      4  C   UNL     1      24.981   5.681  27.680  1.00  0.00     0.138 A 
ATOM      5  C   UNL     1      25.699   4.464  27.664  1.00  0.00     0.018 A 
ATOM      6  C   UNL     1      26.105   3.875  28.871  1.00  0.00     0.012 A 
ATOM      7  C   UNL     1      25.986   3.875  26.428  1.00  0.00     0.019 A 
ATOM      8  C   UNL     1      25.560   4.501  25.258  1.00  0.00     0.094 A 
ATOM      9  C   UNL     1      24.853   5.705  25.350  1.00  0.00     0.336 A 
ATOM     10  O   UNL     1      24.461   6.285  24.304  1.00  0.00    -0.246 OA
ATOM     11  O   UNL     1      24.593   6.244  26.538  1.00  0.00    -0.423 OA
ENDROOT
TORSDOF 0
ENDMDL
MODEL 7
REMARK VINA RESULT:    -2.599     23.555     25.236
REMARK INTER + INTRA:          -2.599
REMARK INTER:                  -2.599
REMARK INTRA:                   0.000
REMARK UNBOUND:                 0.000
REMARK SMILES O=c1ccc2ccccc2o1
REMARK SMILES IDX 7 1 8 2 9 3 10 4 5 5 6 6 4 7 3 8 2 9 1 10 11 11
REMARK H PARENT
REMARK Flexibility Score: inf
ROOT
ATOM      1  C   UNL     1      25.575   4.537  23.088  1.00  0.00     0.001 A 
ATOM      2  C   UNL     1      24.801   5.700  23.159  1.00  0.00     0.004 A 
ATOM      3  C   UNL     1      24.470   6.251  24.402  1.00  0.00     0.048 A 
ATOM      4  C   UNL     1      24.914   5.640  25.580  1.00  0.00     0.138 A 
ATOM      5  C   UNL     1      25.696   4.465  25.508  1.00  0.00     0.018 A 
ATOM      6  C   UNL     1      26.024   3.917  24.259  1.00  0.00     0.012 A 
ATOM      7  C   UNL     1      26.125   3.875  26.702  1.00  0.00     0.019 A 
ATOM      8  C   UNL     1      25.772   4.460  27.918  1.00  0.00     0.094 A 
ATOM      9  C   UNL     1      24.995   5.623  27.912  1.00  0.00     0.336 A 
ATOM     10  O   UNL     1      24.667   6.165  29.000  1.00  0.00    -0.246 OA
ATOM     11  O   UNL     1      24.600   6.164  26.762  1.00  0.00    -0.423 OA
ENDROOT
TORSDOF 0
ENDMDL
MODEL 8
REMARK VINA RESULT:    -2.105      1.722      3.860
REMARK INTER + INTRA:          -2.105
REMARK INTER:                  -2.105
REMARK INTRA:                   0.000
REMARK UNBOUND:                 0.000
REMARK SMILES O=c1ccc2ccccc2o1
REMARK SMILES IDX 7 1 8 2 9 3 10 4 5 5 6 6 4 7 3 8 2 9 1 10 11 11
REMARK H PARENT
REMARK Flexibility Score: inf
ROOT
ATOM      1  C   UNL     1       7.556  18.391  41.707  1.00  0.00     0.001 A 
ATOM      2  C   UNL     1       7.858  17.053  41.984  1.00  0.00     0.004 A 
ATOM      3  C   UNL     1       8.249  16.191  40.953  1.00  0.00     0.048 A 
ATOM      4  C   UNL     1       8.339  16.666  39.640  1.00  0.00     0.138 A 
ATOM      5  C   UNL     1       8.034  18.017  39.360  1.00  0.00     0.018 A 
ATOM      6  C   UNL     1       7.643  18.876  40.398  1.00  0.00     0.012 A 
ATOM      7  C   UNL     1       8.133  18.464  38.038  1.00  0.00     0.019 A 
ATOM      8  C   UNL     1       8.527  17.570  37.043  1.00  0.00     0.094 A 
ATOM      9  C   UNL     1       8.813  16.246  37.394  1.00  0.00     0.336 A 
ATOM     10  O   UNL     1       9.170  15.425  36.509  1.00  0.00    -0.246 OA
ATOM     11  O   UNL     1       8.711  15.847  38.659  1.00  0.00    -0.423 OA
ENDROOT
TORSDOF 0
ENDMDL
MODEL 9
REMARK VINA RESULT:    -1.129      2.187      3.335
REMARK INTER + INTRA:          -1.129
REMARK INTER:                  -1.129
REMARK INTRA:                   0.000
REMARK UNBOUND:                 0.000
REMARK SMILES O=c1ccc2ccccc2o1
REMARK SMILES IDX 7 1 8 2 9 3 10 4 5 5 6 6 4 7 3 8 2 9 1 10 11 11
REMARK H PARENT
REMARK Flexibility Score: inf
ROOT
ATOM      1  C   UNL     1       8.347  15.241  41.141  1.00  0.00     0.001 A 
ATOM      2  C   UNL     1       7.680  15.048  42.355  1.00  0.00     0.004 A 
ATOM      3  C   UNL     1       7.043  16.122  42.988  1.00  0.00     0.048 A 
ATOM      4  C   UNL     1       7.072  17.395  42.406  1.00  0.00     0.138 A 
ATOM      5  C   UNL     1       7.747  17.590  41.180  1.00  0.00     0.018 A 
ATOM      6  C   UNL     1       8.383  16.509  40.551  1.00  0.00     0.012 A 
ATOM      7  C   UNL     1       7.760  18.873  40.623  1.00  0.00     0.019 A 
ATOM      8  C   UNL     1       7.112  19.913  41.288  1.00  0.00     0.094 A 
ATOM      9  C   UNL     1       6.465  19.645  42.499  1.00  0.00     0.336 A 
ATOM     10  O   UNL     1       5.875  20.572  43.114  1.00  0.00    -0.246 OA
ATOM     11  O   UNL     1       6.468  18.416  43.007  1.00  0.00    -0.423 OA
ENDROOT
TORSDOF 0
ENDMDL
