MODEL 1
REMARK VINA RESULT:    -5.551      0.000      0.000
REMARK INTER + INTRA:          -7.551
REMARK INTER:                  -7.011
REMARK INTRA:                  -0.540
REMARK UNBOUND:                -0.540
REMARK SMILES Oc1cc(O)cc(CCc2ccccc2O)c1
REMARK SMILES IDX 9 1 10 2 12 3 13 4 11 5 14 6 15 7 16 8 8 10 7 11 6 12 17 13
REMARK SMILES IDX 4 14 2 15 3 16 5 17 1 19
REMARK H PARENT 16 9 5 18 1 20
REMARK Flexibility Score: inf
ROOT
ATOM      1  C   UNL     1     164.872 176.144 152.473  1.00  0.00     0.044 C 
ENDROOT
BRANCH   1   2
ATOM      2  C   UNL     1     165.713 175.960 151.235  1.00  0.00    -0.006 A 
ATOM      3  C   UNL     1     167.425 176.797 149.726  1.00  0.00     0.001 A 
ATOM      4  C   UNL     1     167.248 175.686 148.899  1.00  0.00     0.004 A 
ATOM      5  C   UNL     1     166.659 176.938 150.885  1.00  0.00     0.007 A 
ATOM      6  C   UNL     1     166.299 174.715 149.229  1.00  0.00     0.046 A 
ATOM      7  C   UNL     1     165.524 174.847 150.391  1.00  0.00     0.118 A 
BRANCH   7   8
ATOM      8  O   UNL     1     164.570 173.880 150.705  1.00  0.00    -0.508 OA
ATOM      9  H   UNL     1     163.645 174.132 151.030  1.00  0.00     0.293 HD
ENDBRANCH   7   8
ENDBRANCH   1   2
BRANCH   1  10
ATOM     10  C   UNL     1     164.426 177.603 152.610  1.00  0.00     0.040 C 
BRANCH  10  11
ATOM     11  C   UNL     1     162.940 177.724 152.401  1.00  0.00    -0.040 A 
ATOM     12  C   UNL     1     162.081 177.882 153.500  1.00  0.00     0.050 A 
ATOM     13  C   UNL     1     162.396 177.621 151.110  1.00  0.00     0.050 A 
ATOM     14  C   UNL     1     160.695 177.961 153.310  1.00  0.00     0.119 A 
ATOM     15  C   UNL     1     161.013 177.700 150.917  1.00  0.00     0.119 A 
ATOM     16  C   UNL     1     160.164 177.873 152.019  1.00  0.00     0.092 A 
BRANCH  14  17
ATOM     17  O   UNL     1     159.838 178.125 154.396  1.00  0.00    -0.508 OA
ATOM     18  H   UNL     1     159.458 177.329 154.896  1.00  0.00     0.293 HD
ENDBRANCH  14  17
BRANCH  15  19
ATOM     19  O   UNL     1     160.493 177.603 149.629  1.00  0.00    -0.508 OA
ATOM     20  H   UNL     1     160.058 178.396 149.173  1.00  0.00     0.293 HD
ENDBRANCH  15  19
ENDBRANCH  10  11
ENDBRANCH   1  10
TORSDOF 6
ENDMDL
MODEL 2
REMARK VINA RESULT:    -5.516      0.109      2.038
REMARK INTER + INTRA:          -7.507
REMARK INTER:                  -6.950
REMARK INTRA:                  -0.557
REMARK UNBOUND:                -0.540
REMARK SMILES Oc1cc(O)cc(CCc2ccccc2O)c1
REMARK SMILES IDX 9 1 10 2 12 3 13 4 11 5 14 6 15 7 16 8 8 10 7 11 6 12 17 13
REMARK SMILES IDX 4 14 2 15 3 16 5 17 1 19
REMARK H PARENT 16 9 5 18 1 20
REMARK Flexibility Score: inf
ROOT
ATOM      1  C   UNL     1     164.923 176.167 152.549  1.00  0.00     0.044 C 
ENDROOT
BRANCH   1   2
ATOM      2  C   UNL     1     165.744 175.947 151.303  1.00  0.00    -0.006 A 
ATOM      3  C   UNL     1     167.544 176.658 149.831  1.00  0.00     0.001 A 
ATOM      4  C   UNL     1     167.249 175.612 148.955  1.00  0.00     0.004 A 
ATOM      5  C   UNL     1     166.793 176.831 150.996  1.00  0.00     0.007 A 
ATOM      6  C   UNL     1     166.198 174.736 149.242  1.00  0.00     0.046 A 
ATOM      7  C   UNL     1     165.438 174.901 150.409  1.00  0.00     0.118 A 
BRANCH   7   8
ATOM      8  O   UNL     1     164.382 174.031 150.681  1.00  0.00    -0.508 OA
ATOM      9  H   UNL     1     164.219 173.668 151.612  1.00  0.00     0.293 HD
ENDBRANCH   7   8
ENDBRANCH   1   2
BRANCH   1  10
ATOM     10  C   UNL     1     164.420 177.612 152.616  1.00  0.00     0.040 C 
BRANCH  10  11
ATOM     11  C   UNL     1     162.932 177.665 152.401  1.00  0.00    -0.040 A 
ATOM     12  C   UNL     1     162.400 177.583 151.104  1.00  0.00     0.050 A 
ATOM     13  C   UNL     1     162.065 177.854 153.490  1.00  0.00     0.050 A 
ATOM     14  C   UNL     1     161.016 177.666 150.899  1.00  0.00     0.119 A 
ATOM     15  C   UNL     1     160.684 177.937 153.289  1.00  0.00     0.119 A 
ATOM     16  C   UNL     1     160.160 177.839 151.993  1.00  0.00     0.092 A 
BRANCH  14  17
ATOM     17  O   UNL     1     160.482 177.578 149.616  1.00  0.00    -0.508 OA
ATOM     18  H   UNL     1     159.727 178.183 149.313  1.00  0.00     0.293 HD
ENDBRANCH  14  17
BRANCH  15  19
ATOM     19  O   UNL     1     159.841 178.118 154.382  1.00  0.00    -0.508 OA
ATOM     20  H   UNL     1     159.830 177.464 155.157  1.00  0.00     0.293 HD
ENDBRANCH  15  19
ENDBRANCH  10  11
ENDBRANCH   1  10
TORSDOF 6
ENDMDL
MODEL 3
REMARK VINA RESULT:    -5.478      4.795      7.285
REMARK INTER + INTRA:          -7.459
REMARK INTER:                  -7.035
REMARK INTRA:                  -0.424
REMARK UNBOUND:                -0.540
REMARK SMILES Oc1cc(O)cc(CCc2ccccc2O)c1
REMARK SMILES IDX 9 1 10 2 12 3 13 4 11 5 14 6 15 7 16 8 8 10 7 11 6 12 17 13
REMARK SMILES IDX 4 14 2 15 3 16 5 17 1 19
REMARK H PARENT 16 9 5 18 1 20
REMARK Flexibility Score: inf
ROOT
ATOM      1  C   UNL     1     159.648 173.932 152.058  1.00  0.00     0.044 C 
ENDROOT
BRANCH   1   2
ATOM      2  C   UNL     1     160.043 175.386 152.114  1.00  0.00    -0.006 A 
ATOM      3  C   UNL     1     160.748 177.408 150.963  1.00  0.00     0.001 A 
ATOM      4  C   UNL     1     160.852 178.075 152.185  1.00  0.00     0.004 A 
ATOM      5  C   UNL     1     160.352 176.069 150.925  1.00  0.00     0.007 A 
ATOM      6  C   UNL     1     160.563 177.402 153.374  1.00  0.00     0.046 A 
ATOM      7  C   UNL     1     160.164 176.057 153.348  1.00  0.00     0.118 A 
BRANCH   7   8
ATOM      8  O   UNL     1     159.890 175.388 154.541  1.00  0.00    -0.508 OA
ATOM      9  H   UNL     1     158.976 175.429 154.975  1.00  0.00     0.293 HD
ENDBRANCH   7   8
ENDBRANCH   1   2
BRANCH   1  10
ATOM     10  C   UNL     1     160.860 173.033 152.320  1.00  0.00     0.040 C 
BRANCH  10  11
ATOM     11  C   UNL     1     160.816 171.815 151.437  1.00  0.00    -0.040 A 
ATOM     12  C   UNL     1     159.633 171.471 150.763  1.00  0.00     0.050 A 
ATOM     13  C   UNL     1     161.941 170.981 151.325  1.00  0.00     0.050 A 
ATOM     14  C   UNL     1     159.581 170.318 149.967  1.00  0.00     0.119 A 
ATOM     15  C   UNL     1     161.891 169.830 150.532  1.00  0.00     0.119 A 
ATOM     16  C   UNL     1     160.711 169.502 149.851  1.00  0.00     0.092 A 
BRANCH  14  17
ATOM     17  O   UNL     1     158.413 169.975 149.291  1.00  0.00    -0.508 OA
ATOM     18  H   UNL     1     157.502 170.273 149.621  1.00  0.00     0.293 HD
ENDBRANCH  14  17
BRANCH  15  19
ATOM     19  O   UNL     1     163.019 169.019 150.428  1.00  0.00    -0.508 OA
ATOM     20  H   UNL     1     163.954 169.398 150.521  1.00  0.00     0.293 HD
ENDBRANCH  15  19
ENDBRANCH  10  11
ENDBRANCH   1  10
TORSDOF 6
ENDMDL
MODEL 4
REMARK VINA RESULT:    -5.476      5.300      7.752
REMARK INTER + INTRA:          -7.457
REMARK INTER:                  -6.944
REMARK INTRA:                  -0.513
REMARK UNBOUND:                -0.540
REMARK SMILES Oc1cc(O)cc(CCc2ccccc2O)c1
REMARK SMILES IDX 9 1 10 2 12 3 13 4 11 5 14 6 15 7 16 8 8 10 7 11 6 12 17 13
REMARK SMILES IDX 4 14 2 15 3 16 5 17 1 19
REMARK H PARENT 16 9 5 18 1 20
REMARK Flexibility Score: inf
ROOT
ATOM      1  C   UNL     1     170.840 177.602 152.323  1.00  0.00     0.044 C 
ENDROOT
BRANCH   1   2
ATOM      2  C   UNL     1     172.340 177.748 152.247  1.00  0.00    -0.006 A 
ATOM      3  C   UNL     1     174.377 177.742 150.920  1.00  0.00     0.001 A 
ATOM      4  C   UNL     1     175.136 177.943 152.074  1.00  0.00     0.004 A 
ATOM      5  C   UNL     1     172.986 177.639 151.004  1.00  0.00     0.007 A 
ATOM      6  C   UNL     1     174.505 178.037 153.317  1.00  0.00     0.046 A 
ATOM      7  C   UNL     1     173.110 177.935 153.412  1.00  0.00     0.118 A 
BRANCH   7   8
ATOM      8  O   UNL     1     172.489 178.016 154.659  1.00  0.00    -0.508 OA
ATOM      9  H   UNL     1     172.998 178.301 155.488  1.00  0.00     0.293 HD
ENDBRANCH   7   8
ENDBRANCH   1   2
BRANCH   1  10
ATOM     10  C   UNL     1     170.440 176.124 152.301  1.00  0.00     0.040 C 
BRANCH  10  11
ATOM     11  C   UNL     1     169.280 175.904 151.369  1.00  0.00    -0.040 A 
ATOM     12  C   UNL     1     168.651 176.997 150.750  1.00  0.00     0.050 A 
ATOM     13  C   UNL     1     168.779 174.610 151.154  1.00  0.00     0.050 A 
ATOM     14  C   UNL     1     167.549 176.796 149.908  1.00  0.00     0.119 A 
ATOM     15  C   UNL     1     167.679 174.406 150.314  1.00  0.00     0.119 A 
ATOM     16  C   UNL     1     167.067 175.501 149.689  1.00  0.00     0.092 A 
BRANCH  14  17
ATOM     17  O   UNL     1     166.925 177.876 149.287  1.00  0.00    -0.508 OA
ATOM     18  H   UNL     1     167.460 178.635 148.881  1.00  0.00     0.293 HD
ENDBRANCH  14  17
BRANCH  15  19
ATOM     19  O   UNL     1     167.202 173.115 150.109  1.00  0.00    -0.508 OA
ATOM     20  H   UNL     1     166.214 172.899 150.170  1.00  0.00     0.293 HD
ENDBRANCH  15  19
ENDBRANCH  10  11
ENDBRANCH   1  10
TORSDOF 6
ENDMDL
MODEL 5
REMARK VINA RESULT:    -5.475      4.816      7.216
REMARK INTER + INTRA:          -7.455
REMARK INTER:                  -7.006
REMARK INTRA:                  -0.449
REMARK UNBOUND:                -0.540
REMARK SMILES Oc1cc(O)cc(CCc2ccccc2O)c1
REMARK SMILES IDX 9 1 10 2 12 3 13 4 11 5 14 6 15 7 16 8 8 10 7 11 6 12 17 13
REMARK SMILES IDX 4 14 2 15 3 16 5 17 1 19
REMARK H PARENT 16 9 5 18 1 20
REMARK Flexibility Score: inf
ROOT
ATOM      1  C   UNL     1     159.631 174.013 151.948  1.00  0.00     0.044 C 
ENDROOT
BRANCH   1   2
ATOM      2  C   UNL     1     160.061 175.458 151.906  1.00  0.00    -0.006 A 
ATOM      3  C   UNL     1     160.838 177.373 150.624  1.00  0.00     0.001 A 
ATOM      4  C   UNL     1     160.935 178.125 151.796  1.00  0.00     0.004 A 
ATOM      5  C   UNL     1     160.409 176.044 150.676  1.00  0.00     0.007 A 
ATOM      6  C   UNL     1     160.607 177.548 153.026  1.00  0.00     0.046 A 
ATOM      7  C   UNL     1     160.176 176.214 153.089  1.00  0.00     0.118 A 
BRANCH   7   8
ATOM      8  O   UNL     1     159.863 175.642 154.322  1.00  0.00    -0.508 OA
ATOM      9  H   UNL     1     159.490 176.194 155.085  1.00  0.00     0.293 HD
ENDBRANCH   7   8
ENDBRANCH   1   2
BRANCH   1  10
ATOM     10  C   UNL     1     160.829 173.101 152.228  1.00  0.00     0.040 C 
BRANCH  10  11
ATOM     11  C   UNL     1     160.728 171.833 151.424  1.00  0.00    -0.040 A 
ATOM     12  C   UNL     1     161.848 171.000 151.273  1.00  0.00     0.050 A 
ATOM     13  C   UNL     1     159.530 171.502 150.771  1.00  0.00     0.050 A 
ATOM     14  C   UNL     1     161.766 169.836 150.496  1.00  0.00     0.119 A 
ATOM     15  C   UNL     1     159.444 170.341 149.995  1.00  0.00     0.119 A 
ATOM     16  C   UNL     1     160.563 169.507 149.862  1.00  0.00     0.092 A 
BRANCH  14  17
ATOM     17  O   UNL     1     162.872 169.002 150.347  1.00  0.00    -0.508 OA
ATOM     18  H   UNL     1     162.930 168.329 149.593  1.00  0.00     0.293 HD
ENDBRANCH  14  17
BRANCH  15  19
ATOM     19  O   UNL     1     158.245 170.026 149.362  1.00  0.00    -0.508 OA
ATOM     20  H   UNL     1     157.569 169.402 149.787  1.00  0.00     0.293 HD
ENDBRANCH  15  19
ENDBRANCH  10  11
ENDBRANCH   1  10
TORSDOF 6
ENDMDL
MODEL 6
REMARK VINA RESULT:    -5.359      1.723      2.062
REMARK INTER + INTRA:          -7.308
REMARK INTER:                  -6.683
REMARK INTRA:                  -0.625
REMARK UNBOUND:                -0.540
REMARK SMILES Oc1cc(O)cc(CCc2ccccc2O)c1
REMARK SMILES IDX 9 1 10 2 12 3 13 4 11 5 14 6 15 7 16 8 8 10 7 11 6 12 17 13
REMARK SMILES IDX 4 14 2 15 3 16 5 17 1 19
REMARK H PARENT 16 9 5 18 1 20
REMARK Flexibility Score: inf
ROOT
ATOM      1  C   UNL     1     165.005 176.398 153.047  1.00  0.00     0.044 C 
ENDROOT
BRANCH   1   2
ATOM      2  C   UNL     1     165.922 176.358 151.850  1.00  0.00    -0.006 A 
ATOM      3  C   UNL     1     166.392 175.564 149.600  1.00  0.00     0.001 A 
ATOM      4  C   UNL     1     167.634 176.200 149.629  1.00  0.00     0.004 A 
ATOM      5  C   UNL     1     165.541 175.636 150.706  1.00  0.00     0.007 A 
ATOM      6  C   UNL     1     168.030 176.907 150.767  1.00  0.00     0.046 A 
ATOM      7  C   UNL     1     167.183 176.985 151.882  1.00  0.00     0.118 A 
BRANCH   7   8
ATOM      8  O   UNL     1     167.593 177.682 153.019  1.00  0.00    -0.508 OA
ATOM      9  H   UNL     1     167.110 178.515 153.334  1.00  0.00     0.293 HD
ENDBRANCH   7   8
ENDBRANCH   1   2
BRANCH   1  10
ATOM     10  C   UNL     1     164.097 177.630 152.989  1.00  0.00     0.040 C 
BRANCH  10  11
ATOM     11  C   UNL     1     162.703 177.241 152.575  1.00  0.00    -0.040 A 
ATOM     12  C   UNL     1     161.884 176.509 153.449  1.00  0.00     0.050 A 
ATOM     13  C   UNL     1     162.232 177.557 151.291  1.00  0.00     0.050 A 
ATOM     14  C   UNL     1     160.598 176.117 153.052  1.00  0.00     0.119 A 
ATOM     15  C   UNL     1     160.949 177.167 150.892  1.00  0.00     0.119 A 
ATOM     16  C   UNL     1     160.132 176.450 151.776  1.00  0.00     0.092 A 
BRANCH  14  17
ATOM     17  O   UNL     1     159.777 175.396 153.917  1.00  0.00    -0.508 OA
ATOM     18  H   UNL     1     159.025 175.841 154.429  1.00  0.00     0.293 HD
ENDBRANCH  14  17
BRANCH  15  19
ATOM     19  O   UNL     1     160.497 177.497 149.617  1.00  0.00    -0.508 OA
ATOM     20  H   UNL     1     160.625 176.870 148.831  1.00  0.00     0.293 HD
ENDBRANCH  15  19
ENDBRANCH  10  11
ENDBRANCH   1  10
TORSDOF 6
ENDMDL
MODEL 7
REMARK VINA RESULT:    -5.346      1.718      2.793
REMARK INTER + INTRA:          -7.292
REMARK INTER:                  -6.676
REMARK INTRA:                  -0.616
REMARK UNBOUND:                -0.540
REMARK SMILES Oc1cc(O)cc(CCc2ccccc2O)c1
REMARK SMILES IDX 9 1 10 2 12 3 13 4 11 5 14 6 15 7 16 8 8 10 7 11 6 12 17 13
REMARK SMILES IDX 4 14 2 15 3 16 5 17 1 19
REMARK H PARENT 16 9 5 18 1 20
REMARK Flexibility Score: inf
ROOT
ATOM      1  C   UNL     1     165.035 176.362 153.076  1.00  0.00     0.044 C 
ENDROOT
BRANCH   1   2
ATOM      2  C   UNL     1     165.938 176.331 151.868  1.00  0.00    -0.006 A 
ATOM      3  C   UNL     1     166.398 175.528 149.620  1.00  0.00     0.001 A 
ATOM      4  C   UNL     1     167.626 176.191 149.627  1.00  0.00     0.004 A 
ATOM      5  C   UNL     1     165.559 175.591 150.735  1.00  0.00     0.007 A 
ATOM      6  C   UNL     1     168.021 176.917 150.754  1.00  0.00     0.046 A 
ATOM      7  C   UNL     1     167.186 176.986 151.879  1.00  0.00     0.118 A 
BRANCH   7   8
ATOM      8  O   UNL     1     167.594 177.702 153.005  1.00  0.00    -0.508 OA
ATOM      9  H   UNL     1     167.915 178.660 152.938  1.00  0.00     0.293 HD
ENDBRANCH   7   8
ENDBRANCH   1   2
BRANCH   1  10
ATOM     10  C   UNL     1     164.104 177.576 153.022  1.00  0.00     0.040 C 
BRANCH  10  11
ATOM     11  C   UNL     1     162.720 177.163 152.601  1.00  0.00    -0.040 A 
ATOM     12  C   UNL     1     162.238 177.499 151.326  1.00  0.00     0.050 A 
ATOM     13  C   UNL     1     161.878 176.489 153.500  1.00  0.00     0.050 A 
ATOM     14  C   UNL     1     160.936 177.144 150.944  1.00  0.00     0.119 A 
ATOM     15  C   UNL     1     160.579 176.133 153.122  1.00  0.00     0.119 A 
ATOM     16  C   UNL     1     160.111 176.459 151.842  1.00  0.00     0.092 A 
BRANCH  14  17
ATOM     17  O   UNL     1     160.455 177.469 149.678  1.00  0.00    -0.508 OA
ATOM     18  H   UNL     1     159.694 178.126 149.552  1.00  0.00     0.293 HD
ENDBRANCH  14  17
BRANCH  15  19
ATOM     19  O   UNL     1     159.761 175.458 154.025  1.00  0.00    -0.508 OA
ATOM     20  H   UNL     1     160.125 175.094 154.898  1.00  0.00     0.293 HD
ENDBRANCH  15  19
ENDBRANCH  10  11
ENDBRANCH   1  10
TORSDOF 6
ENDMDL
MODEL 8
REMARK VINA RESULT:    -5.329      5.378      6.975
REMARK INTER + INTRA:          -7.271
REMARK INTER:                  -6.798
REMARK INTRA:                  -0.472
REMARK UNBOUND:                -0.540
REMARK SMILES Oc1cc(O)cc(CCc2ccccc2O)c1
REMARK SMILES IDX 9 1 10 2 12 3 13 4 11 5 14 6 15 7 16 8 8 10 7 11 6 12 17 13
REMARK SMILES IDX 4 14 2 15 3 16 5 17 1 19
REMARK H PARENT 16 9 5 18 1 20
REMARK Flexibility Score: inf
ROOT
ATOM      1  C   UNL     1     160.669 174.201 152.935  1.00  0.00     0.044 C 
ENDROOT
BRANCH   1   2
ATOM      2  C   UNL     1     160.585 175.574 152.317  1.00  0.00    -0.006 A 
ATOM      3  C   UNL     1     160.786 177.003 150.360  1.00  0.00     0.001 A 
ATOM      4  C   UNL     1     160.509 178.125 151.143  1.00  0.00     0.004 A 
ATOM      5  C   UNL     1     160.830 175.734 150.942  1.00  0.00     0.007 A 
ATOM      6  C   UNL     1     160.279 177.980 152.514  1.00  0.00     0.046 A 
ATOM      7  C   UNL     1     160.322 176.710 153.108  1.00  0.00     0.118 A 
BRANCH   7   8
ATOM      8  O   UNL     1     160.104 176.576 154.480  1.00  0.00    -0.508 OA
ATOM      9  H   UNL     1     159.464 175.884 154.851  1.00  0.00     0.293 HD
ENDBRANCH   7   8
ENDBRANCH   1   2
BRANCH   1  10
ATOM     10  C   UNL     1     161.012 173.151 151.873  1.00  0.00     0.040 C 
BRANCH  10  11
ATOM     11  C   UNL     1     160.146 171.932 152.036  1.00  0.00    -0.040 A 
ATOM     12  C   UNL     1     159.747 171.512 153.316  1.00  0.00     0.050 A 
ATOM     13  C   UNL     1     159.777 171.170 150.916  1.00  0.00     0.050 A 
ATOM     14  C   UNL     1     158.968 170.357 153.472  1.00  0.00     0.119 A 
ATOM     15  C   UNL     1     159.000 170.017 151.068  1.00  0.00     0.119 A 
ATOM     16  C   UNL     1     158.593 169.614 152.347  1.00  0.00     0.092 A 
BRANCH  14  17
ATOM     17  O   UNL     1     158.563 169.940 154.738  1.00  0.00    -0.508 OA
ATOM     18  H   UNL     1     157.661 170.199 155.118  1.00  0.00     0.293 HD
ENDBRANCH  14  17
BRANCH  15  19
ATOM     19  O   UNL     1     158.638 169.279 149.944  1.00  0.00    -0.508 OA
ATOM     20  H   UNL     1     158.154 169.707 149.163  1.00  0.00     0.293 HD
ENDBRANCH  15  19
ENDBRANCH  10  11
ENDBRANCH   1  10
TORSDOF 6
ENDMDL
MODEL 9
REMARK VINA RESULT:    -5.276      2.507      6.437
REMARK INTER + INTRA:          -7.204
REMARK INTER:                  -6.733
REMARK INTRA:                  -0.471
REMARK UNBOUND:                -0.540
REMARK SMILES Oc1cc(O)cc(CCc2ccccc2O)c1
REMARK SMILES IDX 9 1 10 2 12 3 13 4 11 5 14 6 15 7 16 8 8 10 7 11 6 12 17 13
REMARK SMILES IDX 4 14 2 15 3 16 5 17 1 19
REMARK H PARENT 16 9 5 18 1 20
REMARK Flexibility Score: inf
ROOT
ATOM      1  C   UNL     1     164.362 177.632 151.146  1.00  0.00     0.044 C 
ENDROOT
BRANCH   1   2
ATOM      2  C   UNL     1     162.926 177.558 151.603  1.00  0.00    -0.006 A 
ATOM      3  C   UNL     1     160.572 177.276 151.065  1.00  0.00     0.001 A 
ATOM      4  C   UNL     1     160.235 177.484 152.404  1.00  0.00     0.004 A 
ATOM      5  C   UNL     1     161.909 177.318 150.663  1.00  0.00     0.007 A 
ATOM      6  C   UNL     1     161.237 177.739 153.344  1.00  0.00     0.046 A 
ATOM      7  C   UNL     1     162.583 177.783 152.950  1.00  0.00     0.118 A 
BRANCH   7   8
ATOM      8  O   UNL     1     163.575 178.052 153.893  1.00  0.00    -0.508 OA
ATOM      9  H   UNL     1     163.894 177.345 154.545  1.00  0.00     0.293 HD
ENDBRANCH   7   8
ENDBRANCH   1   2
BRANCH   1  10
ATOM     10  C   UNL     1     164.890 176.238 150.795  1.00  0.00     0.040 C 
BRANCH  10  11
ATOM     11  C   UNL     1     166.297 176.063 151.297  1.00  0.00    -0.040 A 
ATOM     12  C   UNL     1     166.866 177.017 152.157  1.00  0.00     0.050 A 
ATOM     13  C   UNL     1     167.074 174.975 150.865  1.00  0.00     0.050 A 
ATOM     14  C   UNL     1     168.188 176.873 152.599  1.00  0.00     0.119 A 
ATOM     15  C   UNL     1     168.394 174.829 151.304  1.00  0.00     0.119 A 
ATOM     16  C   UNL     1     168.948 175.778 152.174  1.00  0.00     0.092 A 
BRANCH  14  17
ATOM     17  O   UNL     1     168.756 177.812 153.457  1.00  0.00    -0.508 OA
ATOM     18  H   UNL     1     169.732 178.073 153.387  1.00  0.00     0.293 HD
ENDBRANCH  14  17
BRANCH  15  19
ATOM     19  O   UNL     1     169.145 173.740 150.870  1.00  0.00    -0.508 OA
ATOM     20  H   UNL     1     169.252 173.530 149.885  1.00  0.00     0.293 HD
ENDBRANCH  15  19
ENDBRANCH  10  11
ENDBRANCH   1  10
TORSDOF 6
ENDMDL
