MODEL 1
REMARK VINA RESULT:    -4.427      0.000      0.000
REMARK INTER + INTRA:          -5.922
REMARK INTER:                  -5.463
REMARK INTRA:                  -0.460
REMARK UNBOUND:                -0.460
REMARK SMILES CCCCCc1ccccc1
REMARK SMILES IDX 4 1 3 2 2 3 1 4 5 5 6 6 7 7 11 8 8 9 10 10 9 11
REMARK H PARENT
REMARK Flexibility Score: inf
ROOT
ATOM      1  C   UNL     1      -1.389   1.197   8.697  1.00  0.00     0.005 C 
ENDROOT
BRANCH   1   2
ATOM      2  C   UNL     1      -2.566   0.439   9.344  1.00  0.00     0.000 C 
BRANCH   2   3
ATOM      3  C   UNL     1      -3.716   0.088   8.384  1.00  0.00    -0.003 C 
ATOM      4  C   UNL     1      -4.407  -1.229   8.735  1.00  0.00     0.004 C 
ENDBRANCH   2   3
ENDBRANCH   1   2
BRANCH   1   5
ATOM      5  C   UNL     1      -0.636   0.400   7.617  1.00  0.00     0.035 C 
BRANCH   5   6
ATOM      6  C   UNL     1       0.350  -0.574   8.212  1.00  0.00    -0.048 A 
ATOM      7  C   UNL     1       0.115  -1.957   8.126  1.00  0.00     0.004 A 
ATOM      8  C   UNL     1       1.524  -0.113   8.832  1.00  0.00     0.004 A 
ATOM      9  C   UNL     1       1.038  -2.863   8.656  1.00  0.00     0.000 A 
ATOM     10  C   UNL     1       2.445  -1.023   9.361  1.00  0.00     0.000 A 
ATOM     11  C   UNL     1       2.201  -2.397   9.274  1.00  0.00     0.000 A 
ENDBRANCH   5   6
ENDBRANCH   1   5
TORSDOF 4
ENDMDL
MODEL 2
REMARK VINA RESULT:    -4.427      0.097      1.464
REMARK INTER + INTRA:          -5.922
REMARK INTER:                  -5.475
REMARK INTRA:                  -0.448
REMARK UNBOUND:                -0.460
REMARK SMILES CCCCCc1ccccc1
REMARK SMILES IDX 4 1 3 2 2 3 1 4 5 5 6 6 7 7 11 8 8 9 10 10 9 11
REMARK H PARENT
REMARK Flexibility Score: inf
ROOT
ATOM      1  C   UNL     1      -1.327   1.134   8.783  1.00  0.00     0.005 C 
ENDROOT
BRANCH   1   2
ATOM      2  C   UNL     1      -2.488   0.317   9.387  1.00  0.00     0.000 C 
BRANCH   2   3
ATOM      3  C   UNL     1      -3.673   0.077   8.436  1.00  0.00    -0.003 C 
ATOM      4  C   UNL     1      -4.434  -1.213   8.741  1.00  0.00     0.004 C 
ENDBRANCH   2   3
ENDBRANCH   1   2
BRANCH   1   5
ATOM      5  C   UNL     1      -0.546   0.408   7.675  1.00  0.00     0.035 C 
BRANCH   5   6
ATOM      6  C   UNL     1       0.422  -0.607   8.231  1.00  0.00    -0.048 A 
ATOM      7  C   UNL     1       1.585  -0.182   8.895  1.00  0.00     0.004 A 
ATOM      8  C   UNL     1       0.158  -1.982   8.115  1.00  0.00     0.004 A 
ATOM      9  C   UNL     1       2.472  -1.121   9.431  1.00  0.00     0.000 A 
ATOM     10  C   UNL     1       1.048  -2.917   8.653  1.00  0.00     0.000 A 
ATOM     11  C   UNL     1       2.205  -2.487   9.310  1.00  0.00     0.000 A 
ENDBRANCH   5   6
ENDBRANCH   1   5
TORSDOF 4
ENDMDL
MODEL 3
REMARK VINA RESULT:    -4.177      2.062      3.957
REMARK INTER + INTRA:          -5.614
REMARK INTER:                  -5.127
REMARK INTRA:                  -0.487
REMARK UNBOUND:                -0.460
REMARK SMILES CCCCCc1ccccc1
REMARK SMILES IDX 4 1 3 2 2 3 1 4 5 5 6 6 7 7 11 8 8 9 10 10 9 11
REMARK H PARENT
REMARK Flexibility Score: inf
ROOT
ATOM      1  C   UNL     1       0.455   2.193   8.577  1.00  0.00     0.005 C 
ENDROOT
BRANCH   1   2
ATOM      2  C   UNL     1       0.569   3.415   7.643  1.00  0.00     0.000 C 
BRANCH   2   3
ATOM      3  C   UNL     1       1.978   3.665   7.076  1.00  0.00    -0.003 C 
ATOM      4  C   UNL     1       3.086   3.064   7.940  1.00  0.00     0.004 C 
ENDBRANCH   2   3
ENDBRANCH   1   2
BRANCH   1   5
ATOM      5  C   UNL     1      -0.163   0.946   7.920  1.00  0.00     0.035 C 
BRANCH   5   6
ATOM      6  C   UNL     1       0.550  -0.321   8.322  1.00  0.00    -0.048 A 
ATOM      7  C   UNL     1       1.791  -0.256   8.978  1.00  0.00     0.004 A 
ATOM      8  C   UNL     1      -0.030  -1.577   8.069  1.00  0.00     0.004 A 
ATOM      9  C   UNL     1       2.442  -1.429   9.371  1.00  0.00     0.000 A 
ATOM     10  C   UNL     1       0.625  -2.747   8.465  1.00  0.00     0.000 A 
ATOM     11  C   UNL     1       1.861  -2.673   9.114  1.00  0.00     0.000 A 
ENDBRANCH   5   6
ENDBRANCH   1   5
TORSDOF 4
ENDMDL
MODEL 4
REMARK VINA RESULT:    -4.071      2.588      5.050
REMARK INTER + INTRA:          -5.483
REMARK INTER:                  -4.906
REMARK INTRA:                  -0.577
REMARK UNBOUND:                -0.460
REMARK SMILES CCCCCc1ccccc1
REMARK SMILES IDX 4 1 3 2 2 3 1 4 5 5 6 6 7 7 11 8 8 9 10 10 9 11
REMARK H PARENT
REMARK Flexibility Score: inf
ROOT
ATOM      1  C   UNL     1       4.288   1.358   8.914  1.00  0.00     0.005 C 
ENDROOT
BRANCH   1   2
ATOM      2  C   UNL     1       4.423   2.434   7.817  1.00  0.00     0.000 C 
BRANCH   2   3
ATOM      3  C   UNL     1       3.523   3.668   8.006  1.00  0.00    -0.003 C 
ATOM      4  C   UNL     1       2.576   3.903   6.830  1.00  0.00     0.004 C 
ENDBRANCH   2   3
ENDBRANCH   1   2
BRANCH   1   5
ATOM      5  C   UNL     1       2.940   1.371   9.654  1.00  0.00     0.035 C 
BRANCH   5   6
ATOM      6  C   UNL     1       1.981   0.341   9.111  1.00  0.00    -0.048 A 
ATOM      7  C   UNL     1       0.855   0.744   8.375  1.00  0.00     0.004 A 
ATOM      8  C   UNL     1       2.218  -1.030   9.311  1.00  0.00     0.004 A 
ATOM      9  C   UNL     1      -0.023  -0.210   7.851  1.00  0.00     0.000 A 
ATOM     10  C   UNL     1       1.338  -1.981   8.785  1.00  0.00     0.000 A 
ATOM     11  C   UNL     1       0.218  -1.571   8.056  1.00  0.00     0.000 A 
ENDBRANCH   5   6
ENDBRANCH   1   5
TORSDOF 4
ENDMDL
MODEL 5
REMARK VINA RESULT:    -4.058      2.662      4.442
REMARK INTER + INTRA:          -5.466
REMARK INTER:                  -4.977
REMARK INTRA:                  -0.489
REMARK UNBOUND:                -0.460
REMARK SMILES CCCCCc1ccccc1
REMARK SMILES IDX 4 1 3 2 2 3 1 4 5 5 6 6 7 7 11 8 8 9 10 10 9 11
REMARK H PARENT
REMARK Flexibility Score: inf
ROOT
ATOM      1  C   UNL     1      -0.286   0.384   7.692  1.00  0.00     0.005 C 
ENDROOT
BRANCH   1   2
ATOM      2  C   UNL     1      -0.495  -0.849   8.596  1.00  0.00     0.000 C 
BRANCH   2   3
ATOM      3  C   UNL     1       0.421  -2.045   8.280  1.00  0.00    -0.003 C 
ATOM      4  C   UNL     1       1.801  -1.927   8.925  1.00  0.00     0.004 C 
ENDBRANCH   2   3
ENDBRANCH   1   2
BRANCH   1   5
ATOM      5  C   UNL     1      -0.024   1.694   8.455  1.00  0.00     0.035 C 
BRANCH   5   6
ATOM      6  C   UNL     1       1.335   2.271   8.148  1.00  0.00    -0.048 A 
ATOM      7  C   UNL     1       2.490   1.680   8.686  1.00  0.00     0.004 A 
ATOM      8  C   UNL     1       1.463   3.385   7.301  1.00  0.00     0.004 A 
ATOM      9  C   UNL     1       3.753   2.199   8.385  1.00  0.00     0.000 A 
ATOM     10  C   UNL     1       2.727   3.901   7.001  1.00  0.00     0.000 A 
ATOM     11  C   UNL     1       3.872   3.309   7.544  1.00  0.00     0.000 A 
ENDBRANCH   5   6
ENDBRANCH   1   5
TORSDOF 4
ENDMDL
MODEL 6
REMARK VINA RESULT:    -4.025      2.567      5.733
REMARK INTER + INTRA:          -5.426
REMARK INTER:                  -4.916
REMARK INTRA:                  -0.510
REMARK UNBOUND:                -0.460
REMARK SMILES CCCCCc1ccccc1
REMARK SMILES IDX 4 1 3 2 2 3 1 4 5 5 6 6 7 7 11 8 8 9 10 10 9 11
REMARK H PARENT
REMARK Flexibility Score: inf
ROOT
ATOM      1  C   UNL     1       4.141   1.250   9.677  1.00  0.00     0.005 C 
ENDROOT
BRANCH   1   2
ATOM      2  C   UNL     1       5.469   1.226   8.894  1.00  0.00     0.000 C 
BRANCH   2   3
ATOM      3  C   UNL     1       5.498   2.118   7.641  1.00  0.00    -0.003 C 
ATOM      4  C   UNL     1       4.365   3.144   7.612  1.00  0.00     0.004 C 
ENDBRANCH   2   3
ENDBRANCH   1   2
BRANCH   1   5
ATOM      5  C   UNL     1       3.417  -0.106   9.744  1.00  0.00     0.035 C 
BRANCH   5   6
ATOM      6  C   UNL     1       2.072  -0.068   9.063  1.00  0.00    -0.048 A 
ATOM      7  C   UNL     1       1.495   1.162   8.707  1.00  0.00     0.004 A 
ATOM      8  C   UNL     1       1.395  -1.261   8.754  1.00  0.00     0.004 A 
ATOM      9  C   UNL     1       0.259   1.199   8.055  1.00  0.00     0.000 A 
ATOM     10  C   UNL     1       0.159  -1.220   8.101  1.00  0.00     0.000 A 
ATOM     11  C   UNL     1      -0.409   0.009   7.753  1.00  0.00     0.000 A 
ENDBRANCH   5   6
ENDBRANCH   1   5
TORSDOF 4
ENDMDL
MODEL 7
REMARK VINA RESULT:    -3.988      1.428      3.040
REMARK INTER + INTRA:          -5.380
REMARK INTER:                  -4.820
REMARK INTRA:                  -0.560
REMARK UNBOUND:                -0.460
REMARK SMILES CCCCCc1ccccc1
REMARK SMILES IDX 4 1 3 2 2 3 1 4 5 5 6 6 7 7 11 8 8 9 10 10 9 11
REMARK H PARENT
REMARK Flexibility Score: inf
ROOT
ATOM      1  C   UNL     1      -1.370   0.635   8.708  1.00  0.00     0.005 C 
ENDROOT
BRANCH   1   2
ATOM      2  C   UNL     1      -1.177   2.128   9.042  1.00  0.00     0.000 C 
BRANCH   2   3
ATOM      3  C   UNL     1       0.050   2.784   8.385  1.00  0.00    -0.003 C 
ATOM      4  C   UNL     1       1.189   3.045   9.371  1.00  0.00     0.004 C 
ENDBRANCH   2   3
ENDBRANCH   1   2
BRANCH   1   5
ATOM      5  C   UNL     1      -0.385   0.084   7.663  1.00  0.00     0.035 C 
BRANCH   5   6
ATOM      6  C   UNL     1       0.522  -0.976   8.237  1.00  0.00    -0.048 A 
ATOM      7  C   UNL     1       1.710  -0.609   8.891  1.00  0.00     0.004 A 
ATOM      8  C   UNL     1       0.177  -2.335   8.148  1.00  0.00     0.004 A 
ATOM      9  C   UNL     1       2.541  -1.589   9.444  1.00  0.00     0.000 A 
ATOM     10  C   UNL     1       1.010  -3.311   8.702  1.00  0.00     0.000 A 
ATOM     11  C   UNL     1       2.192  -2.938   9.349  1.00  0.00     0.000 A 
ENDBRANCH   5   6
ENDBRANCH   1   5
TORSDOF 4
ENDMDL
MODEL 8
REMARK VINA RESULT:    -3.874      2.781      4.434
REMARK INTER + INTRA:          -5.239
REMARK INTER:                  -4.784
REMARK INTRA:                  -0.455
REMARK UNBOUND:                -0.460
REMARK SMILES CCCCCc1ccccc1
REMARK SMILES IDX 4 1 3 2 2 3 1 4 5 5 6 6 7 7 11 8 8 9 10 10 9 11
REMARK H PARENT
REMARK Flexibility Score: inf
ROOT
ATOM      1  C   UNL     1       1.813  -0.684   9.031  1.00  0.00     0.005 C 
ENDROOT
BRANCH   1   2
ATOM      2  C   UNL     1       0.440  -1.056   8.437  1.00  0.00     0.000 C 
BRANCH   2   3
ATOM      3  C   UNL     1      -0.243   0.065   7.634  1.00  0.00    -0.003 C 
ATOM      4  C   UNL     1      -1.557   0.533   8.259  1.00  0.00     0.004 C 
ENDBRANCH   2   3
ENDBRANCH   1   2
BRANCH   1   5
ATOM      5  C   UNL     1       1.884   0.729   9.636  1.00  0.00     0.035 C 
BRANCH   5   6
ATOM      6  C   UNL     1       2.734   1.661   8.811  1.00  0.00    -0.048 A 
ATOM      7  C   UNL     1       2.148   2.755   8.152  1.00  0.00     0.004 A 
ATOM      8  C   UNL     1       4.123   1.463   8.714  1.00  0.00     0.004 A 
ATOM      9  C   UNL     1       2.939   3.633   7.404  1.00  0.00     0.000 A 
ATOM     10  C   UNL     1       4.909   2.344   7.966  1.00  0.00     0.000 A 
ATOM     11  C   UNL     1       4.318   3.428   7.311  1.00  0.00     0.000 A 
ENDBRANCH   5   6
ENDBRANCH   1   5
TORSDOF 4
ENDMDL
MODEL 9
REMARK VINA RESULT:    -3.861     12.231     13.501
REMARK INTER + INTRA:          -5.223
REMARK INTER:                  -4.711
REMARK INTRA:                  -0.513
REMARK UNBOUND:                -0.460
REMARK SMILES CCCCCc1ccccc1
REMARK SMILES IDX 4 1 3 2 2 3 1 4 5 5 6 6 7 7 11 8 8 9 10 10 9 11
REMARK H PARENT
REMARK Flexibility Score: inf
ROOT
ATOM      1  C   UNL     1       5.284  -0.385  -3.327  1.00  0.00     0.005 C 
ENDROOT
BRANCH   1   2
ATOM      2  C   UNL     1       5.889   0.103  -4.659  1.00  0.00     0.000 C 
BRANCH   2   3
ATOM      3  C   UNL     1       5.077   1.195  -5.377  1.00  0.00    -0.003 C 
ATOM      4  C   UNL     1       3.709   0.707  -5.852  1.00  0.00     0.004 C 
ENDBRANCH   2   3
ENDBRANCH   1   2
BRANCH   1   5
ATOM      5  C   UNL     1       5.036  -1.902  -3.259  1.00  0.00     0.035 C 
BRANCH   5   6
ATOM      6  C   UNL     1       3.591  -2.231  -2.981  1.00  0.00    -0.048 A 
ATOM      7  C   UNL     1       2.633  -1.205  -2.913  1.00  0.00     0.004 A 
ATOM      8  C   UNL     1       3.182  -3.565  -2.814  1.00  0.00     0.004 A 
ATOM      9  C   UNL     1       1.289  -1.509  -2.678  1.00  0.00     0.000 A 
ATOM     10  C   UNL     1       1.837  -3.866  -2.579  1.00  0.00     0.000 A 
ATOM     11  C   UNL     1       0.891  -2.838  -2.510  1.00  0.00     0.000 A 
ENDBRANCH   5   6
ENDBRANCH   1   5
TORSDOF 4
ENDMDL
