MODEL 1
REMARK VINA RESULT:    -4.524      0.000      0.000
REMARK INTER + INTRA:          -9.179
REMARK INTER:                  -8.226
REMARK INTRA:                  -0.953
REMARK UNBOUND:                -0.953
REMARK SMILES CCCCCCCCCCCCCCCC(=O)[O-]
REMARK SMILES IDX 9 1 10 2 11 3 12 4 13 5 14 6 15 7 16 8 17 9 18 10 8 11 7 12
REMARK SMILES IDX 6 13 5 14 4 15 3 16 2 17 1 18
REMARK H PARENT
REMARK Flexibility Score: inf
ROOT
ATOM      1  C   UNL     1       1.294  -0.234   5.815  1.00  0.00     0.000 C 
ENDROOT
BRANCH   1   2
ATOM      2  C   UNL     1       1.684  -0.216   7.304  1.00  0.00     0.000 C 
BRANCH   2   3
ATOM      3  C   UNL     1       2.182   1.162   7.770  1.00  0.00     0.000 C 
BRANCH   3   4
ATOM      4  C   UNL     1       1.028   2.131   8.081  1.00  0.00     0.000 C 
BRANCH   4   5
ATOM      5  C   UNL     1       1.446   3.605   7.953  1.00  0.00     0.000 C 
BRANCH   5   6
ATOM      6  C   UNL     1       0.692   4.340   6.831  1.00  0.00     0.006 C 
BRANCH   6   7
ATOM      7  C   UNL     1       1.307   4.072   5.450  1.00  0.00     0.053 C 
BRANCH   7   8
ATOM      8  C   UNL     1       0.790   5.022   4.415  1.00  0.00     0.041 C 
ATOM      9  O   UNL     1       1.525   5.368   3.451  1.00  0.00    -0.550 OA
ATOM     10  O   UNL     1      -0.509   5.504   4.497  1.00  0.00    -0.550 OA
ENDBRANCH   7   8
ENDBRANCH   6   7
ENDBRANCH   5   6
ENDBRANCH   4   5
ENDBRANCH   3   4
ENDBRANCH   2   3
ENDBRANCH   1   2
BRANCH   1  11
ATOM     11  C   UNL     1       1.157  -1.659   5.256  1.00  0.00     0.000 C 
BRANCH  11  12
ATOM     12  C   UNL     1       0.368  -2.589   6.195  1.00  0.00    -0.000 C 
BRANCH  12  13
ATOM     13  C   UNL     1      -1.144  -2.553   5.926  1.00  0.00    -0.000 C 
BRANCH  13  14
ATOM     14  C   UNL     1      -1.484  -2.030   4.519  1.00  0.00    -0.000 C 
BRANCH  14  15
ATOM     15  C   UNL     1      -2.349  -3.013   3.713  1.00  0.00    -0.000 C 
BRANCH  15  16
ATOM     16  C   UNL     1      -3.811  -2.550   3.594  1.00  0.00    -0.000 C 
BRANCH  16  17
ATOM     17  C   UNL     1      -4.015  -1.110   4.094  1.00  0.00    -0.003 C 
ATOM     18  C   UNL     1      -4.995  -1.021   5.262  1.00  0.00     0.004 C 
ENDBRANCH  16  17
ENDBRANCH  15  16
ENDBRANCH  14  15
ENDBRANCH  13  14
ENDBRANCH  12  13
ENDBRANCH  11  12
ENDBRANCH   1  11
TORSDOF 14
ENDMDL
MODEL 2
REMARK VINA RESULT:    -4.475      4.056      5.569
REMARK INTER + INTRA:          -9.091
REMARK INTER:                  -7.007
REMARK INTRA:                  -2.084
REMARK UNBOUND:                -0.953
REMARK SMILES CCCCCCCCCCCCCCCC(=O)[O-]
REMARK SMILES IDX 9 1 10 2 11 3 12 4 13 5 14 6 15 7 16 8 17 9 18 10 8 11 7 12
REMARK SMILES IDX 6 13 5 14 4 15 3 16 2 17 1 18
REMARK H PARENT
REMARK Flexibility Score: inf
ROOT
ATOM      1  C   UNL     1      -3.587  -3.845   6.842  1.00  0.00     0.000 C 
ENDROOT
BRANCH   1   2
ATOM      2  C   UNL     1      -2.090  -3.912   7.194  1.00  0.00     0.000 C 
BRANCH   2   3
ATOM      3  C   UNL     1      -1.562  -2.599   7.794  1.00  0.00     0.000 C 
BRANCH   3   4
ATOM      4  C   UNL     1      -0.046  -2.427   7.593  1.00  0.00     0.000 C 
BRANCH   4   5
ATOM      5  C   UNL     1       0.387  -2.656   6.136  1.00  0.00     0.000 C 
BRANCH   5   6
ATOM      6  C   UNL     1       0.804  -1.355   5.428  1.00  0.00     0.006 C 
BRANCH   6   7
ATOM      7  C   UNL     1       2.221  -0.914   5.819  1.00  0.00     0.053 C 
BRANCH   7   8
ATOM      8  C   UNL     1       3.234  -1.983   5.547  1.00  0.00     0.041 C 
ATOM      9  O   UNL     1       3.547  -2.272   4.362  1.00  0.00    -0.550 OA
ATOM     10  O   UNL     1       3.852  -2.641   6.602  1.00  0.00    -0.550 OA
ENDBRANCH   7   8
ENDBRANCH   6   7
ENDBRANCH   5   6
ENDBRANCH   4   5
ENDBRANCH   3   4
ENDBRANCH   2   3
ENDBRANCH   1   2
BRANCH   1  11
ATOM     11  C   UNL     1      -4.207  -2.474   7.155  1.00  0.00     0.000 C 
BRANCH  11  12
ATOM     12  C   UNL     1      -5.190  -2.007   6.067  1.00  0.00    -0.000 C 
BRANCH  12  13
ATOM     13  C   UNL     1      -4.626  -0.859   5.216  1.00  0.00    -0.000 C 
BRANCH  13  14
ATOM     14  C   UNL     1      -4.013  -1.348   3.891  1.00  0.00    -0.000 C 
BRANCH  14  15
ATOM     15  C   UNL     1      -2.517  -1.679   4.015  1.00  0.00    -0.000 C 
BRANCH  15  16
ATOM     16  C   UNL     1      -2.175  -3.074   3.466  1.00  0.00    -0.000 C 
BRANCH  16  17
ATOM     17  C   UNL     1      -3.428  -3.910   3.159  1.00  0.00    -0.003 C 
ATOM     18  C   UNL     1      -3.324  -4.674   1.840  1.00  0.00     0.004 C 
ENDBRANCH  16  17
ENDBRANCH  15  16
ENDBRANCH  14  15
ENDBRANCH  13  14
ENDBRANCH  12  13
ENDBRANCH  11  12
ENDBRANCH   1  11
TORSDOF 14
ENDMDL
MODEL 3
REMARK VINA RESULT:    -4.427      3.993      5.485
REMARK INTER + INTRA:          -9.004
REMARK INTER:                  -7.117
REMARK INTRA:                  -1.887
REMARK UNBOUND:                -0.953
REMARK SMILES CCCCCCCCCCCCCCCC(=O)[O-]
REMARK SMILES IDX 9 1 10 2 11 3 12 4 13 5 14 6 15 7 16 8 17 9 18 10 8 11 7 12
REMARK SMILES IDX 6 13 5 14 4 15 3 16 2 17 1 18
REMARK H PARENT
REMARK Flexibility Score: inf
ROOT
ATOM      1  C   UNL     1      -2.987  -4.635   6.100  1.00  0.00     0.000 C 
ENDROOT
BRANCH   1   2
ATOM      2  C   UNL     1      -1.888  -4.633   7.179  1.00  0.00     0.000 C 
BRANCH   2   3
ATOM      3  C   UNL     1      -0.579  -3.991   6.691  1.00  0.00     0.000 C 
BRANCH   3   4
ATOM      4  C   UNL     1      -0.711  -2.473   6.475  1.00  0.00     0.000 C 
BRANCH   4   5
ATOM      5  C   UNL     1      -0.060  -2.005   5.164  1.00  0.00     0.000 C 
BRANCH   5   6
ATOM      6  C   UNL     1       0.890  -0.811   5.366  1.00  0.00     0.006 C 
BRANCH   6   7
ATOM      7  C   UNL     1       2.151  -1.202   6.149  1.00  0.00     0.053 C 
BRANCH   7   8
ATOM      8  C   UNL     1       2.866  -2.356   5.517  1.00  0.00     0.041 C 
ATOM      9  O   UNL     1       3.422  -2.219   4.396  1.00  0.00    -0.550 OA
ATOM     10  O   UNL     1       2.942  -3.575   6.179  1.00  0.00    -0.550 OA
ENDBRANCH   7   8
ENDBRANCH   6   7
ENDBRANCH   5   6
ENDBRANCH   4   5
ENDBRANCH   3   4
ENDBRANCH   2   3
ENDBRANCH   1   2
BRANCH   1  11
ATOM     11  C   UNL     1      -2.503  -5.220   4.764  1.00  0.00     0.000 C 
BRANCH  11  12
ATOM     12  C   UNL     1      -2.535  -4.189   3.621  1.00  0.00    -0.000 C 
BRANCH  12  13
ATOM     13  C   UNL     1      -3.744  -3.245   3.714  1.00  0.00    -0.000 C 
BRANCH  13  14
ATOM     14  C   UNL     1      -3.341  -1.759   3.677  1.00  0.00    -0.000 C 
BRANCH  14  15
ATOM     15  C   UNL     1      -4.232  -0.880   4.569  1.00  0.00    -0.000 C 
BRANCH  15  16
ATOM     16  C   UNL     1      -4.515  -1.524   5.937  1.00  0.00    -0.000 C 
BRANCH  16  17
ATOM     17  C   UNL     1      -5.901  -1.152   6.487  1.00  0.00    -0.003 C 
ATOM     18  C   UNL     1      -6.021   0.331   6.839  1.00  0.00     0.004 C 
ENDBRANCH  16  17
ENDBRANCH  15  16
ENDBRANCH  14  15
ENDBRANCH  13  14
ENDBRANCH  12  13
ENDBRANCH  11  12
ENDBRANCH   1  11
TORSDOF 14
ENDMDL
MODEL 4
REMARK VINA RESULT:    -4.359      4.071      5.662
REMARK INTER + INTRA:          -8.879
REMARK INTER:                  -6.713
REMARK INTRA:                  -2.167
REMARK UNBOUND:                -0.953
REMARK SMILES CCCCCCCCCCCCCCCC(=O)[O-]
REMARK SMILES IDX 9 1 10 2 11 3 12 4 13 5 14 6 15 7 16 8 17 9 18 10 8 11 7 12
REMARK SMILES IDX 6 13 5 14 4 15 3 16 2 17 1 18
REMARK H PARENT
REMARK Flexibility Score: inf
ROOT
ATOM      1  C   UNL     1      -4.316  -2.763   6.272  1.00  0.00     0.000 C 
ENDROOT
BRANCH   1   2
ATOM      2  C   UNL     1      -3.304  -2.713   7.431  1.00  0.00     0.000 C 
BRANCH   2   3
ATOM      3  C   UNL     1      -1.977  -3.411   7.090  1.00  0.00     0.000 C 
BRANCH   3   4
ATOM      4  C   UNL     1      -0.756  -2.505   7.327  1.00  0.00     0.000 C 
BRANCH   4   5
ATOM      5  C   UNL     1       0.405  -2.816   6.368  1.00  0.00     0.000 C 
BRANCH   5   6
ATOM      6  C   UNL     1       0.765  -1.623   5.465  1.00  0.00     0.006 C 
BRANCH   6   7
ATOM      7  C   UNL     1       2.102  -0.981   5.861  1.00  0.00     0.053 C 
BRANCH   7   8
ATOM      8  C   UNL     1       3.267  -1.852   5.503  1.00  0.00     0.041 C 
ATOM      9  O   UNL     1       3.348  -2.360   4.353  1.00  0.00    -0.550 OA
ATOM     10  O   UNL     1       4.276  -2.081   6.428  1.00  0.00    -0.550 OA
ENDBRANCH   7   8
ENDBRANCH   6   7
ENDBRANCH   5   6
ENDBRANCH   4   5
ENDBRANCH   3   4
ENDBRANCH   2   3
ENDBRANCH   1   2
BRANCH   1  11
ATOM     11  C   UNL     1      -4.499  -1.400   5.586  1.00  0.00     0.000 C 
BRANCH  11  12
ATOM     12  C   UNL     1      -4.056  -1.417   4.112  1.00  0.00    -0.000 C 
BRANCH  12  13
ATOM     13  C   UNL     1      -2.545  -1.651   3.953  1.00  0.00    -0.000 C 
BRANCH  13  14
ATOM     14  C   UNL     1      -2.220  -3.016   3.320  1.00  0.00    -0.000 C 
BRANCH  14  15
ATOM     15  C   UNL     1      -3.458  -3.700   2.716  1.00  0.00    -0.000 C 
BRANCH  15  16
ATOM     16  C   UNL     1      -3.767  -5.052   3.382  1.00  0.00    -0.000 C 
BRANCH  16  17
ATOM     17  C   UNL     1      -2.554  -5.633   4.124  1.00  0.00    -0.003 C 
ATOM     18  C   UNL     1      -2.949  -6.491   5.326  1.00  0.00     0.004 C 
ENDBRANCH  16  17
ENDBRANCH  15  16
ENDBRANCH  14  15
ENDBRANCH  13  14
ENDBRANCH  12  13
ENDBRANCH  11  12
ENDBRANCH   1  11
TORSDOF 14
ENDMDL
MODEL 5
REMARK VINA RESULT:    -4.320      6.264      8.835
REMARK INTER + INTRA:          -8.809
REMARK INTER:                  -7.650
REMARK INTRA:                  -1.159
REMARK UNBOUND:                -0.953
REMARK SMILES CCCCCCCCCCCCCCCC(=O)[O-]
REMARK SMILES IDX 9 1 10 2 11 3 12 4 13 5 14 6 15 7 16 8 17 9 18 10 8 11 7 12
REMARK SMILES IDX 6 13 5 14 4 15 3 16 2 17 1 18
REMARK H PARENT
REMARK Flexibility Score: inf
ROOT
ATOM      1  C   UNL     1      -2.362  -3.600   2.818  1.00  0.00     0.000 C 
ENDROOT
BRANCH   1   2
ATOM      2  C   UNL     1      -3.481  -4.462   2.205  1.00  0.00     0.000 C 
BRANCH   2   3
ATOM      3  C   UNL     1      -2.938  -5.590   1.312  1.00  0.00     0.000 C 
BRANCH   3   4
ATOM      4  C   UNL     1      -3.213  -5.345  -0.182  1.00  0.00     0.000 C 
BRANCH   4   5
ATOM      5  C   UNL     1      -1.957  -5.526  -1.050  1.00  0.00     0.000 C 
BRANCH   5   6
ATOM      6  C   UNL     1      -1.169  -4.217  -1.234  1.00  0.00     0.006 C 
BRANCH   6   7
ATOM      7  C   UNL     1      -0.435  -4.169  -2.581  1.00  0.00     0.053 C 
BRANCH   7   8
ATOM      8  C   UNL     1       0.628  -5.219  -2.676  1.00  0.00     0.041 C 
ATOM      9  O   UNL     1       1.571  -5.243  -1.842  1.00  0.00    -0.550 OA
ATOM     10  O   UNL     1       0.562  -6.189  -3.668  1.00  0.00    -0.550 OA
ENDBRANCH   7   8
ENDBRANCH   6   7
ENDBRANCH   5   6
ENDBRANCH   4   5
ENDBRANCH   3   4
ENDBRANCH   2   3
ENDBRANCH   1   2
BRANCH   1  11
ATOM     11  C   UNL     1      -2.209  -3.817   4.331  1.00  0.00     0.000 C 
BRANCH  11  12
ATOM     12  C   UNL     1      -2.920  -2.731   5.159  1.00  0.00    -0.000 C 
BRANCH  12  13
ATOM     13  C   UNL     1      -3.113  -1.424   4.374  1.00  0.00    -0.000 C 
BRANCH  13  14
ATOM     14  C   UNL     1      -4.596  -1.101   4.117  1.00  0.00    -0.000 C 
BRANCH  14  15
ATOM     15  C   UNL     1      -5.547  -2.111   4.780  1.00  0.00    -0.000 C 
BRANCH  15  16
ATOM     16  C   UNL     1      -6.478  -1.453   5.813  1.00  0.00    -0.000 C 
BRANCH  16  17
ATOM     17  C   UNL     1      -5.704  -0.712   6.915  1.00  0.00    -0.003 C 
ATOM     18  C   UNL     1      -6.240   0.696   7.172  1.00  0.00     0.004 C 
ENDBRANCH  16  17
ENDBRANCH  15  16
ENDBRANCH  14  15
ENDBRANCH  13  14
ENDBRANCH  12  13
ENDBRANCH  11  12
ENDBRANCH   1  11
TORSDOF 14
ENDMDL
MODEL 6
REMARK VINA RESULT:    -4.314      5.491      8.712
REMARK INTER + INTRA:          -8.799
REMARK INTER:                  -7.163
REMARK INTRA:                  -1.636
REMARK UNBOUND:                -0.953
REMARK SMILES CCCCCCCCCCCCCCCC(=O)[O-]
REMARK SMILES IDX 9 1 10 2 11 3 12 4 13 5 14 6 15 7 16 8 17 9 18 10 8 11 7 12
REMARK SMILES IDX 6 13 5 14 4 15 3 16 2 17 1 18
REMARK H PARENT
REMARK Flexibility Score: inf
ROOT
ATOM      1  C   UNL     1      -3.824  -3.035   3.273  1.00  0.00     0.000 C 
ENDROOT
BRANCH   1   2
ATOM      2  C   UNL     1      -2.625  -3.942   2.943  1.00  0.00     0.000 C 
BRANCH   2   3
ATOM      3  C   UNL     1      -3.052  -5.349   2.492  1.00  0.00     0.000 C 
BRANCH   3   4
ATOM      4  C   UNL     1      -3.158  -5.471   0.962  1.00  0.00     0.000 C 
BRANCH   4   5
ATOM      5  C   UNL     1      -2.185  -4.536   0.226  1.00  0.00     0.000 C 
BRANCH   5   6
ATOM      6  C   UNL     1      -1.884  -5.004  -1.209  1.00  0.00     0.006 C 
BRANCH   6   7
ATOM      7  C   UNL     1      -0.688  -4.260  -1.820  1.00  0.00     0.053 C 
BRANCH   7   8
ATOM      8  C   UNL     1       0.333  -5.204  -2.375  1.00  0.00     0.041 C 
ATOM      9  O   UNL     1       0.022  -6.001  -3.299  1.00  0.00    -0.550 OA
ATOM     10  O   UNL     1       1.635  -5.184  -1.892  1.00  0.00    -0.550 OA
ENDBRANCH   7   8
ENDBRANCH   6   7
ENDBRANCH   5   6
ENDBRANCH   4   5
ENDBRANCH   3   4
ENDBRANCH   2   3
ENDBRANCH   1   2
BRANCH   1  11
ATOM     11  C   UNL     1      -3.397  -1.619   3.692  1.00  0.00     0.000 C 
BRANCH  11  12
ATOM     12  C   UNL     1      -4.223  -1.078   4.873  1.00  0.00    -0.000 C 
BRANCH  12  13
ATOM     13  C   UNL     1      -4.561  -2.168   5.903  1.00  0.00    -0.000 C 
BRANCH  13  14
ATOM     14  C   UNL     1      -3.420  -2.407   6.909  1.00  0.00    -0.000 C 
BRANCH  14  15
ATOM     15  C   UNL     1      -2.845  -3.831   6.827  1.00  0.00    -0.000 C 
BRANCH  15  16
ATOM     16  C   UNL     1      -1.409  -3.855   6.277  1.00  0.00    -0.000 C 
BRANCH  16  17
ATOM     17  C   UNL     1      -0.667  -2.529   6.510  1.00  0.00    -0.003 C 
ATOM     18  C   UNL     1      -0.089  -1.939   5.224  1.00  0.00     0.004 C 
ENDBRANCH  16  17
ENDBRANCH  15  16
ENDBRANCH  14  15
ENDBRANCH  13  14
ENDBRANCH  12  13
ENDBRANCH  11  12
ENDBRANCH   1  11
TORSDOF 14
ENDMDL
MODEL 7
REMARK VINA RESULT:    -4.310      4.536      5.863
REMARK INTER + INTRA:          -8.791
REMARK INTER:                  -7.300
REMARK INTRA:                  -1.491
REMARK UNBOUND:                -0.953
REMARK SMILES CCCCCCCCCCCCCCCC(=O)[O-]
REMARK SMILES IDX 9 1 10 2 11 3 12 4 13 5 14 6 15 7 16 8 17 9 18 10 8 11 7 12
REMARK SMILES IDX 6 13 5 14 4 15 3 16 2 17 1 18
REMARK H PARENT
REMARK Flexibility Score: inf
ROOT
ATOM      1  C   UNL     1      -2.377  -3.661   5.810  1.00  0.00     0.000 C 
ENDROOT
BRANCH   1   2
ATOM      2  C   UNL     1      -0.930  -3.736   6.330  1.00  0.00     0.000 C 
BRANCH   2   3
ATOM      3  C   UNL     1      -0.298  -2.348   6.527  1.00  0.00     0.000 C 
BRANCH   3   4
ATOM      4  C   UNL     1       0.454  -1.859   5.277  1.00  0.00     0.000 C 
BRANCH   4   5
ATOM      5  C   UNL     1       1.801  -1.201   5.618  1.00  0.00     0.000 C 
BRANCH   5   6
ATOM      6  C   UNL     1       3.005  -2.060   5.195  1.00  0.00     0.006 C 
BRANCH   6   7
ATOM      7  C   UNL     1       3.850  -2.504   6.397  1.00  0.00     0.053 C 
BRANCH   7   8
ATOM      8  C   UNL     1       3.095  -3.434   7.297  1.00  0.00     0.041 C 
ATOM      9  O   UNL     1       2.791  -3.075   8.465  1.00  0.00    -0.550 OA
ATOM     10  O   UNL     1       2.704  -4.684   6.837  1.00  0.00    -0.550 OA
ENDBRANCH   7   8
ENDBRANCH   6   7
ENDBRANCH   5   6
ENDBRANCH   4   5
ENDBRANCH   3   4
ENDBRANCH   2   3
ENDBRANCH   1   2
BRANCH   1  11
ATOM     11  C   UNL     1      -2.497  -4.072   4.334  1.00  0.00     0.000 C 
BRANCH  11  12
ATOM     12  C   UNL     1      -2.625  -2.861   3.392  1.00  0.00    -0.000 C 
BRANCH  12  13
ATOM     13  C   UNL     1      -2.967  -1.564   4.143  1.00  0.00    -0.000 C 
BRANCH  13  14
ATOM     14  C   UNL     1      -4.421  -1.113   3.916  1.00  0.00    -0.000 C 
BRANCH  14  15
ATOM     15  C   UNL     1      -5.402  -1.749   4.914  1.00  0.00    -0.000 C 
BRANCH  15  16
ATOM     16  C   UNL     1      -5.208  -1.222   6.347  1.00  0.00    -0.000 C 
BRANCH  16  17
ATOM     17  C   UNL     1      -5.616   0.254   6.491  1.00  0.00    -0.003 C 
ATOM     18  C   UNL     1      -6.787   0.454   7.452  1.00  0.00     0.004 C 
ENDBRANCH  16  17
ENDBRANCH  15  16
ENDBRANCH  14  15
ENDBRANCH  13  14
ENDBRANCH  12  13
ENDBRANCH  11  12
ENDBRANCH   1  11
TORSDOF 14
ENDMDL
MODEL 8
REMARK VINA RESULT:    -4.236      2.293      3.485
REMARK INTER + INTRA:          -8.657
REMARK INTER:                  -6.917
REMARK INTRA:                  -1.741
REMARK UNBOUND:                -0.953
REMARK SMILES CCCCCCCCCCCCCCCC(=O)[O-]
REMARK SMILES IDX 9 1 10 2 11 3 12 4 13 5 14 6 15 7 16 8 17 9 18 10 8 11 7 12
REMARK SMILES IDX 6 13 5 14 4 15 3 16 2 17 1 18
REMARK H PARENT
REMARK Flexibility Score: inf
ROOT
ATOM      1  C   UNL     1       1.616  -0.060   8.949  1.00  0.00     0.000 C 
ENDROOT
BRANCH   1   2
ATOM      2  C   UNL     1       1.196   1.356   8.517  1.00  0.00     0.000 C 
BRANCH   2   3
ATOM      3  C   UNL     1       1.665   1.706   7.095  1.00  0.00     0.000 C 
BRANCH   3   4
ATOM      4  C   UNL     1       1.597   3.216   6.806  1.00  0.00     0.000 C 
BRANCH   4   5
ATOM      5  C   UNL     1       0.580   3.943   7.701  1.00  0.00     0.000 C 
BRANCH   5   6
ATOM      6  C   UNL     1       0.013   5.214   7.043  1.00  0.00     0.006 C 
BRANCH   6   7
ATOM      7  C   UNL     1       0.099   5.159   5.512  1.00  0.00     0.053 C 
BRANCH   7   8
ATOM      8  C   UNL     1       0.011   6.523   4.899  1.00  0.00     0.041 C 
ATOM      9  O   UNL     1       0.977   6.982   4.234  1.00  0.00    -0.550 OA
ATOM     10  O   UNL     1      -1.148   7.276   5.037  1.00  0.00    -0.550 OA
ENDBRANCH   7   8
ENDBRANCH   6   7
ENDBRANCH   5   6
ENDBRANCH   4   5
ENDBRANCH   3   4
ENDBRANCH   2   3
ENDBRANCH   1   2
BRANCH   1  11
ATOM     11  C   UNL     1       3.020  -0.439   8.453  1.00  0.00     0.000 C 
BRANCH  11  12
ATOM     12  C   UNL     1       3.253  -1.960   8.442  1.00  0.00    -0.000 C 
BRANCH  12  13
ATOM     13  C   UNL     1       3.928  -2.444   7.150  1.00  0.00    -0.000 C 
BRANCH  13  14
ATOM     14  C   UNL     1       3.554  -1.586   5.928  1.00  0.00    -0.000 C 
BRANCH  14  15
ATOM     15  C   UNL     1       2.364  -2.160   5.141  1.00  0.00    -0.000 C 
BRANCH  15  16
ATOM     16  C   UNL     1       1.092  -1.308   5.292  1.00  0.00    -0.000 C 
BRANCH  16  17
ATOM     17  C   UNL     1      -0.151  -2.157   5.601  1.00  0.00    -0.003 C 
ATOM     18  C   UNL     1      -0.141  -2.731   7.017  1.00  0.00     0.004 C 
ENDBRANCH  16  17
ENDBRANCH  15  16
ENDBRANCH  14  15
ENDBRANCH  13  14
ENDBRANCH  12  13
ENDBRANCH  11  12
ENDBRANCH   1  11
TORSDOF 14
ENDMDL
MODEL 9
REMARK VINA RESULT:    -4.202      3.804      6.039
REMARK INTER + INTRA:          -8.594
REMARK INTER:                  -6.517
REMARK INTRA:                  -2.077
REMARK UNBOUND:                -0.953
REMARK SMILES CCCCCCCCCCCCCCCC(=O)[O-]
REMARK SMILES IDX 9 1 10 2 11 3 12 4 13 5 14 6 15 7 16 8 17 9 18 10 8 11 7 12
REMARK SMILES IDX 6 13 5 14 4 15 3 16 2 17 1 18
REMARK H PARENT
REMARK Flexibility Score: inf
ROOT
ATOM      1  C   UNL     1      -5.477  -2.568   6.456  1.00  0.00     0.000 C 
ENDROOT
BRANCH   1   2
ATOM      2  C   UNL     1      -4.387  -3.242   7.310  1.00  0.00     0.000 C 
BRANCH   2   3
ATOM      3  C   UNL     1      -3.746  -4.450   6.607  1.00  0.00     0.000 C 
BRANCH   3   4
ATOM      4  C   UNL     1      -2.212  -4.342   6.529  1.00  0.00     0.000 C 
BRANCH   4   5
ATOM      5  C   UNL     1      -1.712  -2.900   6.717  1.00  0.00     0.000 C 
BRANCH   5   6
ATOM      6  C   UNL     1      -0.189  -2.774   6.543  1.00  0.00     0.006 C 
BRANCH   6   7
ATOM      7  C   UNL     1       0.185  -1.902   5.336  1.00  0.00     0.053 C 
BRANCH   7   8
ATOM      8  C   UNL     1       1.568  -1.341   5.459  1.00  0.00     0.041 C 
ATOM      9  O   UNL     1       2.537  -1.918   4.897  1.00  0.00    -0.550 OA
ATOM     10  O   UNL     1       1.784  -0.168   6.170  1.00  0.00    -0.550 OA
ENDBRANCH   7   8
ENDBRANCH   6   7
ENDBRANCH   5   6
ENDBRANCH   4   5
ENDBRANCH   3   4
ENDBRANCH   2   3
ENDBRANCH   1   2
BRANCH   1  11
ATOM     11  C   UNL     1      -5.320  -1.041   6.394  1.00  0.00     0.000 C 
BRANCH  11  12
ATOM     12  C   UNL     1      -4.524  -0.579   5.160  1.00  0.00    -0.000 C 
BRANCH  12  13
ATOM     13  C   UNL     1      -4.390  -1.681   4.099  1.00  0.00    -0.000 C 
BRANCH  13  14
ATOM     14  C   UNL     1      -2.937  -1.879   3.629  1.00  0.00    -0.000 C 
BRANCH  14  15
ATOM     15  C   UNL     1      -2.705  -3.253   2.979  1.00  0.00    -0.000 C 
BRANCH  15  16
ATOM     16  C   UNL     1      -4.003  -4.067   2.845  1.00  0.00    -0.000 C 
BRANCH  16  17
ATOM     17  C   UNL     1      -4.017  -4.948   1.585  1.00  0.00    -0.003 C 
ATOM     18  C   UNL     1      -2.694  -4.909   0.820  1.00  0.00     0.004 C 
ENDBRANCH  16  17
ENDBRANCH  15  16
ENDBRANCH  14  15
ENDBRANCH  13  14
ENDBRANCH  12  13
ENDBRANCH  11  12
ENDBRANCH   1  11
TORSDOF 14
ENDMDL
