MODEL 1
REMARK VINA RESULT:    -4.583      0.000      0.000
REMARK INTER + INTRA:          -5.905
REMARK INTER:                  -5.655
REMARK INTRA:                  -0.251
REMARK UNBOUND:                -0.251
REMARK SMILES C=CC[C@@H](C)C(=O)CC
REMARK SMILES IDX 4 1 5 2 6 3 7 4 8 5 9 6 3 7 2 8 1 9
REMARK H PARENT
REMARK Flexibility Score: inf
ROOT
ATOM      1  C   UNL     1     -25.528  20.152 -33.418  1.00  0.00     0.057 C 
ATOM      2  C   UNL     1     -25.980  18.900 -32.656  1.00  0.00     0.016 C 
ENDROOT
BRANCH   1   3
ATOM      3  C   UNL     1     -24.313  19.854 -34.274  1.00  0.00     0.135 C 
ATOM      4  O   UNL     1     -24.456  19.376 -35.391  1.00  0.00    -0.299 OA
BRANCH   3   5
ATOM      5  C   UNL     1     -22.920  20.133 -33.772  1.00  0.00     0.072 C 
ATOM      6  C   UNL     1     -22.956  21.077 -32.575  1.00  0.00     0.012 C 
ENDBRANCH   3   5
ENDBRANCH   1   3
BRANCH   1   7
ATOM      7  C   UNL     1     -26.666  20.793 -34.242  1.00  0.00     0.038 C 
BRANCH   7   8
ATOM      8  C   UNL     1     -27.782  21.361 -33.402  1.00  0.00    -0.034 C 
ATOM      9  C   UNL     1     -27.689  22.563 -32.823  1.00  0.00     0.004 C 
ENDBRANCH   7   8
ENDBRANCH   1   7
TORSDOF 4
ENDMDL
MODEL 2
REMARK VINA RESULT:    -4.510      1.599      3.684
REMARK INTER + INTRA:          -5.815
REMARK INTER:                  -5.560
REMARK INTRA:                  -0.256
REMARK UNBOUND:                -0.251
REMARK SMILES C=CC[C@@H](C)C(=O)CC
REMARK SMILES IDX 4 1 5 2 6 3 7 4 8 5 9 6 3 7 2 8 1 9
REMARK H PARENT
REMARK Flexibility Score: inf
ROOT
ATOM      1  C   UNL     1     -25.451  20.103 -33.373  1.00  0.00     0.057 C 
ATOM      2  C   UNL     1     -26.612  20.717 -34.165  1.00  0.00     0.016 C 
ENDROOT
BRANCH   1   3
ATOM      3  C   UNL     1     -25.906  18.872 -32.614  1.00  0.00     0.135 C 
ATOM      4  O   UNL     1     -26.998  18.377 -32.853  1.00  0.00    -0.299 OA
BRANCH   3   5
ATOM      5  C   UNL     1     -25.034  18.243 -31.558  1.00  0.00     0.072 C 
ATOM      6  C   UNL     1     -25.872  17.419 -30.586  1.00  0.00     0.012 C 
ENDBRANCH   3   5
ENDBRANCH   1   3
BRANCH   1   7
ATOM      7  C   UNL     1     -24.217  19.810 -34.253  1.00  0.00     0.038 C 
BRANCH   7   8
ATOM      8  C   UNL     1     -22.922  20.327 -33.680  1.00  0.00    -0.034 C 
ATOM      9  C   UNL     1     -22.883  21.039 -32.549  1.00  0.00     0.004 C 
ENDBRANCH   7   8
ENDBRANCH   1   7
TORSDOF 4
ENDMDL
MODEL 3
REMARK VINA RESULT:    -4.505      1.525      3.885
REMARK INTER + INTRA:          -5.809
REMARK INTER:                  -5.634
REMARK INTRA:                  -0.175
REMARK UNBOUND:                -0.251
REMARK SMILES C=CC[C@@H](C)C(=O)CC
REMARK SMILES IDX 4 1 5 2 6 3 7 4 8 5 9 6 3 7 2 8 1 9
REMARK H PARENT
REMARK Flexibility Score: inf
ROOT
ATOM      1  C   UNL     1     -25.339  20.039 -33.481  1.00  0.00     0.057 C 
ATOM      2  C   UNL     1     -24.878  19.993 -34.943  1.00  0.00     0.016 C 
ENDROOT
BRANCH   1   3
ATOM      3  C   UNL     1     -26.792  19.623 -33.359  1.00  0.00     0.135 C 
ATOM      4  O   UNL     1     -27.074  18.468 -33.072  1.00  0.00    -0.299 OA
BRANCH   3   5
ATOM      5  C   UNL     1     -27.906  20.611 -33.591  1.00  0.00     0.072 C 
ATOM      6  C   UNL     1     -27.501  22.002 -33.117  1.00  0.00     0.012 C 
ENDBRANCH   3   5
ENDBRANCH   1   3
BRANCH   1   7
ATOM      7  C   UNL     1     -24.429  19.219 -32.541  1.00  0.00     0.038 C 
BRANCH   7   8
ATOM      8  C   UNL     1     -23.080  19.847 -32.298  1.00  0.00    -0.034 C 
ATOM      9  C   UNL     1     -22.900  21.172 -32.333  1.00  0.00     0.004 C 
ENDBRANCH   7   8
ENDBRANCH   1   7
TORSDOF 4
ENDMDL
MODEL 4
REMARK VINA RESULT:    -4.378      1.557      2.204
REMARK INTER + INTRA:          -5.653
REMARK INTER:                  -5.443
REMARK INTRA:                  -0.209
REMARK UNBOUND:                -0.251
REMARK SMILES C=CC[C@@H](C)C(=O)CC
REMARK SMILES IDX 4 1 5 2 6 3 7 4 8 5 9 6 3 7 2 8 1 9
REMARK H PARENT
REMARK Flexibility Score: inf
ROOT
ATOM      1  C   UNL     1     -26.823  20.231 -33.928  1.00  0.00     0.057 C 
ATOM      2  C   UNL     1     -27.039  21.655 -33.399  1.00  0.00     0.016 C 
ENDROOT
BRANCH   1   3
ATOM      3  C   UNL     1     -25.344  19.920 -34.054  1.00  0.00     0.135 C 
ATOM      4  O   UNL     1     -24.870  19.638 -35.145  1.00  0.00    -0.299 OA
BRANCH   3   5
ATOM      5  C   UNL     1     -24.439  19.947 -32.850  1.00  0.00     0.072 C 
ATOM      6  C   UNL     1     -23.083  20.548 -33.207  1.00  0.00     0.012 C 
ENDBRANCH   3   5
ENDBRANCH   1   3
BRANCH   1   7
ATOM      7  C   UNL     1     -27.563  19.165 -33.092  1.00  0.00     0.038 C 
BRANCH   7   8
ATOM      8  C   UNL     1     -28.935  19.591 -32.636  1.00  0.00    -0.034 C 
ATOM      9  C   UNL     1     -30.047  19.149 -33.233  1.00  0.00     0.004 C 
ENDBRANCH   7   8
ENDBRANCH   1   7
TORSDOF 4
ENDMDL
MODEL 5
REMARK VINA RESULT:    -4.320      8.298      9.412
REMARK INTER + INTRA:          -5.580
REMARK INTER:                  -5.266
REMARK INTRA:                  -0.315
REMARK UNBOUND:                -0.251
REMARK SMILES C=CC[C@@H](C)C(=O)CC
REMARK SMILES IDX 4 1 5 2 6 3 7 4 8 5 9 6 3 7 2 8 1 9
REMARK H PARENT
REMARK Flexibility Score: inf
ROOT
ATOM      1  C   UNL     1     -26.393  12.920 -29.951  1.00  0.00     0.057 C 
ATOM      2  C   UNL     1     -24.978  13.418 -29.633  1.00  0.00     0.016 C 
ENDROOT
BRANCH   1   3
ATOM      3  C   UNL     1     -26.449  12.294 -31.331  1.00  0.00     0.135 C 
ATOM      4  O   UNL     1     -26.324  12.996 -32.325  1.00  0.00    -0.299 OA
BRANCH   3   5
ATOM      5  C   UNL     1     -26.660  10.813 -31.506  1.00  0.00     0.072 C 
ATOM      6  C   UNL     1     -27.505  10.530 -32.743  1.00  0.00     0.012 C 
ENDBRANCH   3   5
ENDBRANCH   1   3
BRANCH   1   7
ATOM      7  C   UNL     1     -26.949  11.969 -28.869  1.00  0.00     0.038 C 
BRANCH   7   8
ATOM      8  C   UNL     1     -28.245  12.433 -28.255  1.00  0.00    -0.034 C 
ATOM      9  C   UNL     1     -29.353  12.599 -28.985  1.00  0.00     0.004 C 
ENDBRANCH   7   8
ENDBRANCH   1   7
TORSDOF 4
ENDMDL
MODEL 6
REMARK VINA RESULT:    -4.142      7.770      9.283
REMARK INTER + INTRA:          -5.362
REMARK INTER:                  -4.984
REMARK INTRA:                  -0.378
REMARK UNBOUND:                -0.251
REMARK SMILES C=CC[C@@H](C)C(=O)CC
REMARK SMILES IDX 4 1 5 2 6 3 7 4 8 5 9 6 3 7 2 8 1 9
REMARK H PARENT
REMARK Flexibility Score: inf
ROOT
ATOM      1  C   UNL     1     -27.483  11.072 -31.354  1.00  0.00     0.057 C 
ATOM      2  C   UNL     1     -27.492  10.378 -32.722  1.00  0.00     0.016 C 
ENDROOT
BRANCH   1   3
ATOM      3  C   UNL     1     -26.511  12.236 -31.346  1.00  0.00     0.135 C 
ATOM      4  O   UNL     1     -26.370  12.920 -32.349  1.00  0.00    -0.299 OA
BRANCH   3   5
ATOM      5  C   UNL     1     -25.704  12.567 -30.117  1.00  0.00     0.072 C 
ATOM      6  C   UNL     1     -25.841  14.044 -29.763  1.00  0.00     0.012 C 
ENDBRANCH   3   5
ENDBRANCH   1   3
BRANCH   1   7
ATOM      7  C   UNL     1     -28.892  11.500 -30.892  1.00  0.00     0.038 C 
BRANCH   7   8
ATOM      8  C   UNL     1     -29.096  11.419 -29.400  1.00  0.00    -0.034 C 
ATOM      9  C   UNL     1     -29.254  12.512 -28.647  1.00  0.00     0.004 C 
ENDBRANCH   7   8
ENDBRANCH   1   7
TORSDOF 4
ENDMDL
MODEL 7
REMARK VINA RESULT:    -4.072      1.813      4.100
REMARK INTER + INTRA:          -5.275
REMARK INTER:                  -5.123
REMARK INTRA:                  -0.152
REMARK UNBOUND:                -0.251
REMARK SMILES C=CC[C@@H](C)C(=O)CC
REMARK SMILES IDX 4 1 5 2 6 3 7 4 8 5 9 6 3 7 2 8 1 9
REMARK H PARENT
REMARK Flexibility Score: inf
ROOT
ATOM      1  C   UNL     1     -24.989  20.090 -33.594  1.00  0.00     0.057 C 
ATOM      2  C   UNL     1     -24.412  19.805 -34.986  1.00  0.00     0.016 C 
ENDROOT
BRANCH   1   3
ATOM      3  C   UNL     1     -26.504  20.154 -33.639  1.00  0.00     0.135 C 
ATOM      4  O   UNL     1     -27.058  21.081 -34.212  1.00  0.00    -0.299 OA
BRANCH   3   5
ATOM      5  C   UNL     1     -27.347  19.092 -32.984  1.00  0.00     0.072 C 
ATOM      6  C   UNL     1     -28.828  19.442 -33.080  1.00  0.00     0.012 C 
ENDBRANCH   3   5
ENDBRANCH   1   3
BRANCH   1   7
ATOM      7  C   UNL     1     -24.491  19.092 -32.525  1.00  0.00     0.038 C 
BRANCH   7   8
ATOM      8  C   UNL     1     -23.172  19.475 -31.902  1.00  0.00    -0.034 C 
ATOM      9  C   UNL     1     -22.640  20.691 -32.063  1.00  0.00     0.004 C 
ENDBRANCH   7   8
ENDBRANCH   1   7
TORSDOF 4
ENDMDL
MODEL 8
REMARK VINA RESULT:    -3.972      8.396     10.137
REMARK INTER + INTRA:          -5.151
REMARK INTER:                  -4.760
REMARK INTRA:                  -0.391
REMARK UNBOUND:                -0.251
REMARK SMILES C=CC[C@@H](C)C(=O)CC
REMARK SMILES IDX 4 1 5 2 6 3 7 4 8 5 9 6 3 7 2 8 1 9
REMARK H PARENT
REMARK Flexibility Score: inf
ROOT
ATOM      1  C   UNL     1     -28.075  11.874 -29.224  1.00  0.00     0.057 C 
ATOM      2  C   UNL     1     -29.462  12.526 -29.308  1.00  0.00     0.016 C 
ENDROOT
BRANCH   1   3
ATOM      3  C   UNL     1     -27.084  12.597 -30.115  1.00  0.00     0.135 C 
ATOM      4  O   UNL     1     -27.129  12.443 -31.328  1.00  0.00    -0.299 OA
BRANCH   3   5
ATOM      5  C   UNL     1     -26.032  13.505 -29.533  1.00  0.00     0.072 C 
ATOM      6  C   UNL     1     -24.640  12.916 -29.732  1.00  0.00     0.012 C 
ENDBRANCH   3   5
ENDBRANCH   1   3
BRANCH   1   7
ATOM      7  C   UNL     1     -27.559  11.754 -27.774  1.00  0.00     0.038 C 
BRANCH   7   8
ATOM      8  C   UNL     1     -27.009  10.392 -27.433  1.00  0.00    -0.034 C 
ATOM      9  C   UNL     1     -25.715  10.201 -27.157  1.00  0.00     0.004 C 
ENDBRANCH   7   8
ENDBRANCH   1   7
TORSDOF 4
ENDMDL
MODEL 9
REMARK VINA RESULT:    -3.967      1.750      2.437
REMARK INTER + INTRA:          -5.145
REMARK INTER:                  -4.895
REMARK INTRA:                  -0.251
REMARK UNBOUND:                -0.251
REMARK SMILES C=CC[C@@H](C)C(=O)CC
REMARK SMILES IDX 4 1 5 2 6 3 7 4 8 5 9 6 3 7 2 8 1 9
REMARK H PARENT
REMARK Flexibility Score: inf
ROOT
ATOM      1  C   UNL     1     -24.141  19.828 -32.747  1.00  0.00     0.057 C 
ATOM      2  C   UNL     1     -24.194  18.465 -32.045  1.00  0.00     0.016 C 
ENDROOT
BRANCH   1   3
ATOM      3  C   UNL     1     -22.783  20.477 -32.566  1.00  0.00     0.135 C 
ATOM      4  O   UNL     1     -21.832  20.100 -33.237  1.00  0.00    -0.299 OA
BRANCH   3   5
ATOM      5  C   UNL     1     -22.577  21.583 -31.564  1.00  0.00     0.072 C 
ATOM      6  C   UNL     1     -22.241  21.013 -30.191  1.00  0.00     0.012 C 
ENDBRANCH   3   5
ENDBRANCH   1   3
BRANCH   1   7
ATOM      7  C   UNL     1     -24.543  19.748 -34.236  1.00  0.00     0.038 C 
BRANCH   7   8
ATOM      8  C   UNL     1     -25.854  20.424 -34.551  1.00  0.00    -0.034 C 
ATOM      9  C   UNL     1     -26.717  20.775 -33.591  1.00  0.00     0.004 C 
ENDBRANCH   7   8
ENDBRANCH   1   7
TORSDOF 4
ENDMDL
