MODEL 1
REMARK VINA RESULT:    37.601      0.000      0.000
REMARK INTER + INTRA:          41.827
REMARK INTER:                  40.899
REMARK INTRA:                   0.929
REMARK UNBOUND:                 0.929
REMARK SMILES CC(=O)[C@H]1CC[C@H]2[C@@H]3CC=C4C[C@H](O)CC[C@@]4(C)[C@@H]3CC[C@@]12C
REMARK SMILES IDX 4 1 5 2 6 3 7 4 22 5 21 6 20 7 19 8 8 9 9 10 10 11 11 12
REMARK SMILES IDX 17 13 16 14 15 15 13 16 12 17 18 18 23 19 2 20 1 21 3 22
REMARK SMILES IDX 14 23
REMARK H PARENT 14 24
REMARK Flexibility Score: inf
ROOT
ATOM      1  C   UNL     1      33.886  10.818  40.469  1.00  0.00     0.062 C 
ATOM      2  C   UNL     1      34.127  11.679  39.226  1.00  0.00     0.012 C 
ATOM      3  C   UNL     1      35.034  12.823  39.674  1.00  0.00     0.005 C 
ATOM      4  C   UNL     1      35.338  12.603  41.167  1.00  0.00    -0.001 C 
ATOM      5  C   UNL     1      34.167  11.739  41.686  1.00  0.00    -0.020 C 
ATOM      6  C   UNL     1      32.941  12.634  42.021  1.00  0.00     0.008 C 
ATOM      7  C   UNL     1      33.284  13.757  42.995  1.00  0.00     0.005 C 
ATOM      8  C   UNL     1      34.365  14.714  42.438  1.00  0.00     0.003 C 
ATOM      9  C   UNL     1      35.619  13.946  41.915  1.00  0.00     0.000 C 
ATOM     10  C   UNL     1      36.677  13.831  43.022  1.00  0.00     0.031 C 
ATOM     11  C   UNL     1      37.125  15.228  43.359  1.00  0.00    -0.027 C 
ATOM     12  C   UNL     1      36.230  16.241  43.399  1.00  0.00    -0.065 C 
ATOM     13  C   UNL     1      34.719  15.912  43.448  1.00  0.00    -0.008 C 
ATOM     14  C   UNL     1      33.816  17.149  43.109  1.00  0.00     0.014 C 
ATOM     15  C   UNL     1      34.541  18.230  42.310  1.00  0.00     0.033 C 
ATOM     16  C   UNL     1      35.734  18.756  43.110  1.00  0.00     0.118 C 
ATOM     17  C   UNL     1      36.784  17.654  43.323  1.00  0.00     0.063 C 
ATOM     18  C   UNL     1      34.440  15.553  44.937  1.00  0.00     0.016 C 
ATOM     19  C   UNL     1      34.580  10.877  42.904  1.00  0.00     0.012 C 
ENDROOT
BRANCH   1  20
ATOM     20  C   UNL     1      32.532  10.127  40.476  1.00  0.00     0.133 C 
ATOM     21  C   UNL     1      31.498  10.465  41.509  1.00  0.00     0.088 C 
ATOM     22  O   UNL     1      32.266   9.278  39.638  1.00  0.00    -0.300 OA
ENDBRANCH   1  20
BRANCH  16  23
ATOM     23  O   UNL     1      35.298  19.265  44.347  1.00  0.00    -0.393 OA
ATOM     24  H   UNL     1      35.041  20.212  44.194  1.00  0.00     0.210 HD
ENDBRANCH  16  23
TORSDOF 2
ENDMDL
