MODEL 1
REMARK VINA RESULT:    -5.281      0.000      0.000
REMARK INTER + INTRA:          -5.281
REMARK INTER:                  -5.281
REMARK INTRA:                   0.000
REMARK UNBOUND:                 0.000
REMARK SMILES O=c1ccc2ccccc2o1
REMARK SMILES IDX 7 1 8 2 9 3 10 4 5 5 6 6 4 7 3 8 2 9 1 10 11 11
REMARK H PARENT
REMARK Flexibility Score: inf
ROOT
ATOM      1  C   UNL     1      21.875   0.242 -23.125  1.00  0.00     0.001 A 
ATOM      2  C   UNL     1      21.950   1.480 -22.479  1.00  0.00     0.004 A 
ATOM      3  C   UNL     1      21.494   1.616 -21.162  1.00  0.00     0.048 A 
ATOM      4  C   UNL     1      20.962   0.512 -20.488  1.00  0.00     0.138 A 
ATOM      5  C   UNL     1      20.887  -0.739 -21.141  1.00  0.00     0.018 A 
ATOM      6  C   UNL     1      21.345  -0.869 -22.460  1.00  0.00     0.012 A 
ATOM      7  C   UNL     1      20.351  -1.825 -20.441  1.00  0.00     0.019 A 
ATOM      8  C   UNL     1      19.909  -1.643 -19.131  1.00  0.00     0.094 A 
ATOM      9  C   UNL     1      20.015  -0.375 -18.549  1.00  0.00     0.336 A 
ATOM     10  O   UNL     1      19.621  -0.192 -17.367  1.00  0.00    -0.246 OA
ATOM     11  O   UNL     1      20.529   0.642 -19.237  1.00  0.00    -0.423 OA
ENDROOT
TORSDOF 0
ENDMDL
MODEL 2
REMARK VINA RESULT:    -5.205      1.620      3.833
REMARK INTER + INTRA:          -5.205
REMARK INTER:                  -5.205
REMARK INTRA:                   0.000
REMARK UNBOUND:                 0.000
REMARK SMILES O=c1ccc2ccccc2o1
REMARK SMILES IDX 7 1 8 2 9 3 10 4 5 5 6 6 4 7 3 8 2 9 1 10 11 11
REMARK H PARENT
REMARK Flexibility Score: inf
ROOT
ATOM      1  C   UNL     1      20.116  -1.760 -19.314  1.00  0.00     0.001 A 
ATOM      2  C   UNL     1      20.145  -0.563 -18.590  1.00  0.00     0.004 A 
ATOM      3  C   UNL     1      20.617   0.611 -19.188  1.00  0.00     0.048 A 
ATOM      4  C   UNL     1      21.062   0.590 -20.515  1.00  0.00     0.138 A 
ATOM      5  C   UNL     1      21.033  -0.619 -21.246  1.00  0.00     0.018 A 
ATOM      6  C   UNL     1      20.558  -1.791 -20.640  1.00  0.00     0.012 A 
ATOM      7  C   UNL     1      21.484  -0.608 -22.570  1.00  0.00     0.019 A 
ATOM      8  C   UNL     1      21.946   0.585 -23.125  1.00  0.00     0.094 A 
ATOM      9  C   UNL     1      21.946   1.743 -22.340  1.00  0.00     0.336 A 
ATOM     10  O   UNL     1      22.359   2.829 -22.824  1.00  0.00    -0.246 OA
ATOM     11  O   UNL     1      21.511   1.706 -21.083  1.00  0.00    -0.423 OA
ENDROOT
TORSDOF 0
ENDMDL
MODEL 3
REMARK VINA RESULT:    -5.076      1.518      2.287
REMARK INTER + INTRA:          -5.076
REMARK INTER:                  -5.076
REMARK INTRA:                   0.000
REMARK UNBOUND:                 0.000
REMARK SMILES O=c1ccc2ccccc2o1
REMARK SMILES IDX 7 1 8 2 9 3 10 4 5 5 6 6 4 7 3 8 2 9 1 10 11 11
REMARK H PARENT
REMARK Flexibility Score: inf
ROOT
ATOM      1  C   UNL     1      21.958   2.089 -22.236  1.00  0.00     0.001 A 
ATOM      2  C   UNL     1      21.984   1.010 -23.125  1.00  0.00     0.004 A 
ATOM      3  C   UNL     1      21.583  -0.262 -22.700  1.00  0.00     0.048 A 
ATOM      4  C   UNL     1      21.156  -0.458 -21.382  1.00  0.00     0.138 A 
ATOM      5  C   UNL     1      21.130   0.633 -20.484  1.00  0.00     0.018 A 
ATOM      6  C   UNL     1      21.532   1.905 -20.916  1.00  0.00     0.012 A 
ATOM      7  C   UNL     1      20.698   0.407 -19.173  1.00  0.00     0.019 A 
ATOM      8  C   UNL     1      20.309  -0.878 -18.794  1.00  0.00     0.094 A 
ATOM      9  C   UNL     1      20.360  -1.909 -19.737  1.00  0.00     0.336 A 
ATOM     10  O   UNL     1      20.013  -3.075 -19.413  1.00  0.00    -0.246 OA
ATOM     11  O   UNL     1      20.776  -1.667 -20.978  1.00  0.00    -0.423 OA
ENDROOT
TORSDOF 0
ENDMDL
MODEL 4
REMARK VINA RESULT:    -4.907     19.370     20.755
REMARK INTER + INTRA:          -4.907
REMARK INTER:                  -4.907
REMARK INTRA:                   0.000
REMARK UNBOUND:                 0.000
REMARK SMILES O=c1ccc2ccccc2o1
REMARK SMILES IDX 7 1 8 2 9 3 10 4 5 5 6 6 4 7 3 8 2 9 1 10 11 11
REMARK H PARENT
REMARK Flexibility Score: inf
ROOT
ATOM      1  C   UNL     1       5.681   3.165  -7.355  1.00  0.00     0.001 A 
ATOM      2  C   UNL     1       4.468   3.647  -6.852  1.00  0.00     0.004 A 
ATOM      3  C   UNL     1       3.881   4.792  -7.403  1.00  0.00     0.048 A 
ATOM      4  C   UNL     1       4.508   5.460  -8.460  1.00  0.00     0.138 A 
ATOM      5  C   UNL     1       5.734   4.974  -8.968  1.00  0.00     0.018 A 
ATOM      6  C   UNL     1       6.316   3.826  -8.412  1.00  0.00     0.012 A 
ATOM      7  C   UNL     1       6.337   5.662 -10.026  1.00  0.00     0.019 A 
ATOM      8  C   UNL     1       5.717   6.800 -10.543  1.00  0.00     0.094 A 
ATOM      9  C   UNL     1       4.504   7.222  -9.990  1.00  0.00     0.336 A 
ATOM     10  O   UNL     1       3.929   8.246 -10.443  1.00  0.00    -0.246 OA
ATOM     11  O   UNL     1       3.951   6.549  -8.983  1.00  0.00    -0.423 OA
ENDROOT
TORSDOF 0
ENDMDL
MODEL 5
REMARK VINA RESULT:    -4.819      1.828      4.391
REMARK INTER + INTRA:          -4.819
REMARK INTER:                  -4.819
REMARK INTRA:                   0.000
REMARK UNBOUND:                 0.000
REMARK SMILES O=c1ccc2ccccc2o1
REMARK SMILES IDX 7 1 8 2 9 3 10 4 5 5 6 6 4 7 3 8 2 9 1 10 11 11
REMARK H PARENT
REMARK Flexibility Score: inf
ROOT
ATOM      1  C   UNL     1      19.098  -1.191 -17.767  1.00  0.00     0.001 A 
ATOM      2  C   UNL     1      19.080  -2.368 -18.522  1.00  0.00     0.004 A 
ATOM      3  C   UNL     1      19.702  -2.411 -19.775  1.00  0.00     0.048 A 
ATOM      4  C   UNL     1      20.345  -1.274 -20.277  1.00  0.00     0.138 A 
ATOM      5  C   UNL     1      20.363  -0.085 -19.514  1.00  0.00     0.018 A 
ATOM      6  C   UNL     1      19.738  -0.048 -18.259  1.00  0.00     0.012 A 
ATOM      7  C   UNL     1      21.013   1.036 -20.042  1.00  0.00     0.019 A 
ATOM      8  C   UNL     1      21.619   0.947 -21.295  1.00  0.00     0.094 A 
ATOM      9  C   UNL     1      21.562  -0.264 -21.993  1.00  0.00     0.336 A 
ATOM     10  O   UNL     1      22.103  -0.362 -23.125  1.00  0.00    -0.246 OA
ATOM     11  O   UNL     1      20.936  -1.315 -21.468  1.00  0.00    -0.423 OA
ENDROOT
TORSDOF 0
ENDMDL
MODEL 6
REMARK VINA RESULT:    -4.795     18.573     20.280
REMARK INTER + INTRA:          -4.795
REMARK INTER:                  -4.795
REMARK INTRA:                   0.000
REMARK UNBOUND:                 0.000
REMARK SMILES O=c1ccc2ccccc2o1
REMARK SMILES IDX 7 1 8 2 9 3 10 4 5 5 6 6 4 7 3 8 2 9 1 10 11 11
REMARK H PARENT
REMARK Flexibility Score: inf
ROOT
ATOM      1  C   UNL     1       6.044   2.841  -7.277  1.00  0.00     0.001 A 
ATOM      2  C   UNL     1       7.025   2.909  -8.272  1.00  0.00     0.004 A 
ATOM      3  C   UNL     1       6.964   3.905  -9.254  1.00  0.00     0.048 A 
ATOM      4  C   UNL     1       5.920   4.836  -9.243  1.00  0.00     0.138 A 
ATOM      5  C   UNL     1       4.929   4.766  -8.239  1.00  0.00     0.018 A 
ATOM      6  C   UNL     1       4.995   3.766  -7.258  1.00  0.00     0.012 A 
ATOM      7  C   UNL     1       3.897   5.710  -8.254  1.00  0.00     0.019 A 
ATOM      8  C   UNL     1       3.876   6.685  -9.252  1.00  0.00     0.094 A 
ATOM      9  C   UNL     1       4.892   6.692 -10.214  1.00  0.00     0.336 A 
ATOM     10  O   UNL     1       4.890   7.564 -11.122  1.00  0.00    -0.246 OA
ATOM     11  O   UNL     1       5.862   5.782 -10.177  1.00  0.00    -0.423 OA
ENDROOT
TORSDOF 0
ENDMDL
MODEL 7
REMARK VINA RESULT:    -4.736     17.458     19.592
REMARK INTER + INTRA:          -4.736
REMARK INTER:                  -4.736
REMARK INTRA:                   0.000
REMARK UNBOUND:                 0.000
REMARK SMILES O=c1ccc2ccccc2o1
REMARK SMILES IDX 7 1 8 2 9 3 10 4 5 5 6 6 4 7 3 8 2 9 1 10 11 11
REMARK H PARENT
REMARK Flexibility Score: inf
ROOT
ATOM      1  C   UNL     1       3.875   4.714  -7.405  1.00  0.00     0.001 A 
ATOM      2  C   UNL     1       4.602   3.623  -6.916  1.00  0.00     0.004 A 
ATOM      3  C   UNL     1       5.837   3.288  -7.483  1.00  0.00     0.048 A 
ATOM      4  C   UNL     1       6.348   4.044  -8.544  1.00  0.00     0.138 A 
ATOM      5  C   UNL     1       5.614   5.145  -9.038  1.00  0.00     0.018 A 
ATOM      6  C   UNL     1       4.377   5.476  -8.465  1.00  0.00     0.012 A 
ATOM      7  C   UNL     1       6.150   5.882 -10.099  1.00  0.00     0.019 A 
ATOM      8  C   UNL     1       7.384   5.511 -10.634  1.00  0.00     0.094 A 
ATOM      9  C   UNL     1       8.054   4.409 -10.093  1.00  0.00     0.336 A 
ATOM     10  O   UNL     1       9.169   4.059 -10.563  1.00  0.00    -0.246 OA
ATOM     11  O   UNL     1       7.521   3.725  -9.084  1.00  0.00    -0.423 OA
ENDROOT
TORSDOF 0
ENDMDL
MODEL 8
REMARK VINA RESULT:    -4.698     16.307     18.741
REMARK INTER + INTRA:          -4.698
REMARK INTER:                  -4.698
REMARK INTRA:                   0.000
REMARK UNBOUND:                 0.000
REMARK SMILES O=c1ccc2ccccc2o1
REMARK SMILES IDX 7 1 8 2 9 3 10 4 5 5 6 6 4 7 3 8 2 9 1 10 11 11
REMARK H PARENT
REMARK Flexibility Score: inf
ROOT
ATOM      1  C   UNL     1       7.618  -7.710  -5.818  1.00  0.00     0.001 A 
ATOM      2  C   UNL     1       7.910  -6.358  -5.607  1.00  0.00     0.004 A 
ATOM      3  C   UNL     1       8.918  -5.731  -6.349  1.00  0.00     0.048 A 
ATOM      4  C   UNL     1       9.638  -6.456  -7.304  1.00  0.00     0.138 A 
ATOM      5  C   UNL     1       9.345  -7.822  -7.516  1.00  0.00     0.018 A 
ATOM      6  C   UNL     1       8.333  -8.444  -6.770  1.00  0.00     0.012 A 
ATOM      7  C   UNL     1      10.082  -8.521  -8.477  1.00  0.00     0.019 A 
ATOM      8  C   UNL     1      11.078  -7.855  -9.192  1.00  0.00     0.094 A 
ATOM      9  C   UNL     1      11.313  -6.502  -8.928  1.00  0.00     0.336 A 
ATOM     10  O   UNL     1      12.207  -5.885  -9.563  1.00  0.00    -0.246 OA
ATOM     11  O   UNL     1      10.597  -5.860  -8.008  1.00  0.00    -0.423 OA
ENDROOT
TORSDOF 0
ENDMDL
MODEL 9
REMARK VINA RESULT:    -4.604     15.621     17.609
REMARK INTER + INTRA:          -4.604
REMARK INTER:                  -4.604
REMARK INTRA:                   0.000
REMARK UNBOUND:                 0.000
REMARK SMILES O=c1ccc2ccccc2o1
REMARK SMILES IDX 7 1 8 2 9 3 10 4 5 5 6 6 4 7 3 8 2 9 1 10 11 11
REMARK H PARENT
REMARK Flexibility Score: inf
ROOT
ATOM      1  C   UNL     1      10.854  -5.488 -10.936  1.00  0.00     0.001 A 
ATOM      2  C   UNL     1      11.752  -5.971  -9.979  1.00  0.00     0.004 A 
ATOM      3  C   UNL     1      11.311  -6.268  -8.684  1.00  0.00     0.048 A 
ATOM      4  C   UNL     1       9.967  -6.080  -8.343  1.00  0.00     0.138 A 
ATOM      5  C   UNL     1       9.060  -5.591  -9.309  1.00  0.00     0.018 A 
ATOM      6  C   UNL     1       9.508  -5.296 -10.605  1.00  0.00     0.012 A 
ATOM      7  C   UNL     1       7.723  -5.413  -8.939  1.00  0.00     0.019 A 
ATOM      8  C   UNL     1       7.327  -5.721  -7.637  1.00  0.00     0.094 A 
ATOM      9  C   UNL     1       8.282  -6.201  -6.734  1.00  0.00     0.336 A 
ATOM     10  O   UNL     1       7.944  -6.485  -5.555  1.00  0.00    -0.246 OA
ATOM     11  O   UNL     1       9.548  -6.361  -7.112  1.00  0.00    -0.423 OA
ENDROOT
TORSDOF 0
ENDMDL
