MODEL 1
REMARK VINA RESULT:    -2.900      0.000      0.000
REMARK INTER + INTRA:          -3.525
REMARK INTER:                  -3.408
REMARK INTRA:                  -0.117
REMARK UNBOUND:                -0.117
REMARK SMILES O=C([O-])CCC(=O)[O-]
REMARK SMILES IDX 4 1 2 2 1 3 3 4 5 5 6 6 7 7 8 8
REMARK H PARENT
REMARK Flexibility Score: inf
ROOT
ATOM      1  C   UNL     1       9.805 -32.246  13.662  1.00  0.00     0.059 C 
ENDROOT
BRANCH   1   2
ATOM      2  C   UNL     1      11.302 -32.222  13.727  1.00  0.00     0.042 C 
ATOM      3  O   UNL     1      11.974 -33.159  13.221  1.00  0.00    -0.550 OA
ATOM      4  O   UNL     1      11.952 -31.184  14.384  1.00  0.00    -0.550 OA
ENDBRANCH   1   2
BRANCH   1   5
ATOM      5  C   UNL     1       9.205 -33.098  14.787  1.00  0.00     0.059 C 
BRANCH   5   6
ATOM      6  C   UNL     1       8.593 -32.245  15.857  1.00  0.00     0.042 C 
ATOM      7  O   UNL     1       9.327 -31.559  16.616  1.00  0.00    -0.550 OA
ATOM      8  O   UNL     1       7.212 -32.179  15.990  1.00  0.00    -0.550 OA
ENDBRANCH   5   6
ENDBRANCH   1   5
TORSDOF 3
ENDMDL
MODEL 2
REMARK VINA RESULT:    -2.897      0.070      3.838
REMARK INTER + INTRA:          -3.522
REMARK INTER:                  -3.405
REMARK INTRA:                  -0.117
REMARK UNBOUND:                -0.117
REMARK SMILES O=C([O-])CCC(=O)[O-]
REMARK SMILES IDX 4 1 2 2 1 3 3 4 5 5 6 6 7 7 8 8
REMARK H PARENT
REMARK Flexibility Score: inf
ROOT
ATOM      1  C   UNL     1       9.131 -33.074  14.741  1.00  0.00     0.059 C 
ENDROOT
BRANCH   1   2
ATOM      2  C   UNL     1       8.542 -32.252  15.848  1.00  0.00     0.042 C 
ATOM      3  O   UNL     1       7.292 -32.170  15.981  1.00  0.00    -0.550 OA
ATOM      4  O   UNL     1       9.375 -31.545  16.707  1.00  0.00    -0.550 OA
ENDBRANCH   1   2
BRANCH   1   5
ATOM      5  C   UNL     1       9.767 -32.192  13.661  1.00  0.00     0.059 C 
BRANCH   5   6
ATOM      6  C   UNL     1      11.263 -32.210  13.744  1.00  0.00     0.042 C 
ATOM      7  O   UNL     1      11.916 -33.139  13.200  1.00  0.00    -0.550 OA
ATOM      8  O   UNL     1      11.937 -31.180  14.388  1.00  0.00    -0.550 OA
ENDBRANCH   5   6
ENDBRANCH   1   5
TORSDOF 3
ENDMDL
MODEL 3
REMARK VINA RESULT:    -2.895      1.737      3.907
REMARK INTER + INTRA:          -3.520
REMARK INTER:                  -3.408
REMARK INTRA:                  -0.112
REMARK UNBOUND:                -0.117
REMARK SMILES O=C([O-])CCC(=O)[O-]
REMARK SMILES IDX 4 1 2 2 1 3 3 4 5 5 6 6 7 7 8 8
REMARK H PARENT
REMARK Flexibility Score: inf
ROOT
ATOM      1  C   UNL     1       8.053 -32.248  16.439  1.00  0.00     0.059 C 
ENDROOT
BRANCH   1   2
ATOM      2  C   UNL     1       8.791 -31.847  17.680  1.00  0.00     0.042 C 
ATOM      3  O   UNL     1       8.407 -32.255  18.807  1.00  0.00    -0.550 OA
ATOM      4  O   UNL     1       9.880 -30.988  17.593  1.00  0.00    -0.550 OA
ENDBRANCH   1   2
BRANCH   1   5
ATOM      5  C   UNL     1       8.921 -33.119  15.524  1.00  0.00     0.059 C 
BRANCH   5   6
ATOM      6  C   UNL     1       9.487 -32.328  14.384  1.00  0.00     0.042 C 
ATOM      7  O   UNL     1       8.769 -32.053  13.386  1.00  0.00    -0.550 OA
ATOM      8  O   UNL     1      10.794 -31.861  14.442  1.00  0.00    -0.550 OA
ENDBRANCH   5   6
ENDBRANCH   1   5
TORSDOF 3
ENDMDL
MODEL 4
REMARK VINA RESULT:    -2.864      1.747      2.518
REMARK INTER + INTRA:          -3.484
REMARK INTER:                  -3.370
REMARK INTRA:                  -0.113
REMARK UNBOUND:                -0.117
REMARK SMILES O=C([O-])CCC(=O)[O-]
REMARK SMILES IDX 4 1 2 2 1 3 3 4 5 5 6 6 7 7 8 8
REMARK H PARENT
REMARK Flexibility Score: inf
ROOT
ATOM      1  C   UNL     1       9.000 -33.121  15.509  1.00  0.00     0.059 C 
ENDROOT
BRANCH   1   2
ATOM      2  C   UNL     1       9.531 -32.326  14.355  1.00  0.00     0.042 C 
ATOM      3  O   UNL     1      10.707 -31.875  14.384  1.00  0.00    -0.550 OA
ATOM      4  O   UNL     1       8.713 -32.048  13.267  1.00  0.00    -0.550 OA
ENDBRANCH   1   2
BRANCH   1   5
ATOM      5  C   UNL     1       8.109 -32.269  16.419  1.00  0.00     0.059 C 
BRANCH   5   6
ATOM      6  C   UNL     1       8.833 -31.847  17.662  1.00  0.00     0.042 C 
ATOM      7  O   UNL     1       8.483 -32.301  18.783  1.00  0.00    -0.550 OA
ATOM      8  O   UNL     1       9.918 -30.985  17.577  1.00  0.00    -0.550 OA
ENDBRANCH   5   6
ENDBRANCH   1   5
TORSDOF 3
ENDMDL
MODEL 5
REMARK VINA RESULT:    -2.694     16.581     17.365
REMARK INTER + INTRA:          -3.284
REMARK INTER:                  -3.167
REMARK INTRA:                  -0.117
REMARK UNBOUND:                -0.117
REMARK SMILES O=C([O-])CCC(=O)[O-]
REMARK SMILES IDX 4 1 2 2 1 3 3 4 5 5 6 6 7 7 8 8
REMARK H PARENT
REMARK Flexibility Score: inf
ROOT
ATOM      1  C   UNL     1      16.387 -36.704  30.529  1.00  0.00     0.059 C 
ENDROOT
BRANCH   1   2
ATOM      2  C   UNL     1      17.234 -36.298  29.362  1.00  0.00     0.042 C 
ATOM      3  O   UNL     1      17.916 -35.240  29.409  1.00  0.00    -0.550 OA
ATOM      4  O   UNL     1      17.239 -37.069  28.206  1.00  0.00    -0.550 OA
ENDBRANCH   1   2
BRANCH   1   5
ATOM      5  C   UNL     1      16.446 -35.666  31.656  1.00  0.00     0.059 C 
BRANCH   5   6
ATOM      6  C   UNL     1      15.242 -34.773  31.647  1.00  0.00     0.042 C 
ATOM      7  O   UNL     1      15.256 -33.697  30.994  1.00  0.00    -0.550 OA
ATOM      8  O   UNL     1      14.091 -35.150  32.328  1.00  0.00    -0.550 OA
ENDBRANCH   5   6
ENDBRANCH   1   5
TORSDOF 3
ENDMDL
MODEL 6
REMARK VINA RESULT:    -2.684     17.391     18.093
REMARK INTER + INTRA:          -3.272
REMARK INTER:                  -3.181
REMARK INTRA:                  -0.091
REMARK UNBOUND:                -0.117
REMARK SMILES O=C([O-])CCC(=O)[O-]
REMARK SMILES IDX 4 1 2 2 1 3 3 4 5 5 6 6 7 7 8 8
REMARK H PARENT
REMARK Flexibility Score: inf
ROOT
ATOM      1  C   UNL     1      16.229 -35.266  32.209  1.00  0.00     0.059 C 
ENDROOT
BRANCH   1   2
ATOM      2  C   UNL     1      16.570 -35.877  30.884  1.00  0.00     0.042 C 
ATOM      3  O   UNL     1      16.731 -37.122  30.782  1.00  0.00    -0.550 OA
ATOM      4  O   UNL     1      16.751 -35.066  29.770  1.00  0.00    -0.550 OA
ENDBRANCH   1   2
BRANCH   1   5
ATOM      5  C   UNL     1      14.713 -35.122  32.390  1.00  0.00     0.059 C 
BRANCH   5   6
ATOM      6  C   UNL     1      14.305 -33.685  32.503  1.00  0.00     0.042 C 
ATOM      7  O   UNL     1      13.109 -33.384  32.757  1.00  0.00    -0.550 OA
ATOM      8  O   UNL     1      15.254 -32.679  32.368  1.00  0.00    -0.550 OA
ENDBRANCH   5   6
ENDBRANCH   1   5
TORSDOF 3
ENDMDL
MODEL 7
REMARK VINA RESULT:    -2.616     16.938     17.982
REMARK INTER + INTRA:          -3.192
REMARK INTER:                  -3.149
REMARK INTRA:                  -0.043
REMARK UNBOUND:                -0.117
REMARK SMILES O=C([O-])CCC(=O)[O-]
REMARK SMILES IDX 4 1 2 2 1 3 3 4 5 5 6 6 7 7 8 8
REMARK H PARENT
REMARK Flexibility Score: inf
ROOT
ATOM      1  C   UNL     1      16.217 -35.426  30.804  1.00  0.00     0.059 C 
ENDROOT
BRANCH   1   2
ATOM      2  C   UNL     1      16.294 -35.772  32.260  1.00  0.00     0.042 C 
ATOM      3  O   UNL     1      16.394 -34.862  33.124  1.00  0.00    -0.550 OA
ATOM      4  O   UNL     1      16.295 -37.103  32.659  1.00  0.00    -0.550 OA
ENDBRANCH   1   2
BRANCH   1   5
ATOM      5  C   UNL     1      16.863 -36.509  29.932  1.00  0.00     0.059 C 
BRANCH   5   6
ATOM      6  C   UNL     1      17.540 -35.919  28.732  1.00  0.00     0.042 C 
ATOM      7  O   UNL     1      18.298 -34.922  28.858  1.00  0.00    -0.550 OA
ATOM      8  O   UNL     1      17.366 -36.497  27.481  1.00  0.00    -0.550 OA
ENDBRANCH   5   6
ENDBRANCH   1   5
TORSDOF 3
ENDMDL
MODEL 8
REMARK VINA RESULT:    -2.557      2.788      3.797
REMARK INTER + INTRA:          -3.123
REMARK INTER:                  -3.093
REMARK INTRA:                  -0.030
REMARK UNBOUND:                -0.117
REMARK SMILES O=C([O-])CCC(=O)[O-]
REMARK SMILES IDX 4 1 2 2 1 3 3 4 5 5 6 6 7 7 8 8
REMARK H PARENT
REMARK Flexibility Score: inf
ROOT
ATOM      1  C   UNL     1       8.450 -32.313  15.862  1.00  0.00     0.059 C 
ENDROOT
BRANCH   1   2
ATOM      2  C   UNL     1       7.452 -33.278  15.296  1.00  0.00     0.042 C 
ATOM      3  O   UNL     1       7.732 -34.504  15.213  1.00  0.00    -0.550 OA
ATOM      4  O   UNL     1       6.230 -32.818  14.824  1.00  0.00    -0.550 OA
ENDBRANCH   1   2
BRANCH   1   5
ATOM      5  C   UNL     1       8.609 -32.489  17.376  1.00  0.00     0.059 C 
BRANCH   5   6
ATOM      6  C   UNL     1       9.340 -31.335  17.992  1.00  0.00     0.042 C 
ATOM      7  O   UNL     1      10.256 -30.753  17.353  1.00  0.00    -0.550 OA
ATOM      8  O   UNL     1       8.984 -30.878  19.254  1.00  0.00    -0.550 OA
ENDBRANCH   5   6
ENDBRANCH   1   5
TORSDOF 3
ENDMDL
