MODEL 1
REMARK VINA RESULT:    -3.423      0.000      0.000
REMARK INTER + INTRA:          -4.778
REMARK INTER:                  -4.424
REMARK INTRA:                  -0.354
REMARK UNBOUND:                -0.354
REMARK SMILES CCO[C@H]1O[C@H](CO)[C@H](O)[C@@H](O)[C@@H]1O
REMARK SMILES IDX 4 1 13 2 11 3 9 4 6 5 5 6 3 7 2 8 1 9 14 10 12 12 7 14 8 15
REMARK SMILES IDX 10 17
REMARK H PARENT 14 11 12 13 8 16 10 18
REMARK Flexibility Score: inf
ROOT
ATOM      1  C   UNL     1      19.414  -6.507   5.601  1.00  0.00     0.281 C 
ATOM      2  C   UNL     1      19.855  -7.943   5.981  1.00  0.00     0.202 C 
ATOM      3  C   UNL     1      18.753  -8.986   5.671  1.00  0.00     0.179 C 
ATOM      4  C   UNL     1      17.364  -8.324   5.625  1.00  0.00     0.177 C 
ATOM      5  C   UNL     1      17.382  -7.165   4.579  1.00  0.00     0.178 C 
ATOM      6  O   UNL     1      18.645  -6.529   4.409  1.00  0.00    -0.341 OA
ENDROOT
BRANCH   1   7
ATOM      7  O   UNL     1      20.574  -5.724   5.392  1.00  0.00    -0.350 OA
BRANCH   7   8
ATOM      8  C   UNL     1      20.654  -5.320   4.040  1.00  0.00     0.160 C 
ATOM      9  C   UNL     1      21.227  -3.913   3.971  1.00  0.00     0.035 C 
ENDBRANCH   7   8
ENDBRANCH   1   7
BRANCH   2  10
ATOM     10  O   UNL     1      20.168  -7.991   7.351  1.00  0.00    -0.385 OA
ATOM     11  H   UNL     1      19.780  -8.832   7.706  1.00  0.00     0.211 HD
ENDBRANCH   2  10
BRANCH   3  12
ATOM     12  O   UNL     1      19.028  -9.597   4.435  1.00  0.00    -0.387 OA
ATOM     13  H   UNL     1      19.661 -10.341   4.613  1.00  0.00     0.211 HD
ENDBRANCH   3  12
BRANCH   5  14
ATOM     14  C   UNL     1      16.262  -6.127   4.763  1.00  0.00     0.191 C 
BRANCH  14  15
ATOM     15  O   UNL     1      15.132  -6.702   5.359  1.00  0.00    -0.394 OA
ATOM     16  H   UNL     1      15.395  -6.926   6.290  1.00  0.00     0.210 HD
ENDBRANCH  14  15
ENDBRANCH   5  14
BRANCH   4  17
ATOM     17  O   UNL     1      17.033  -7.862   6.912  1.00  0.00    -0.387 OA
ATOM     18  H   UNL     1      16.114  -7.490   6.862  1.00  0.00     0.211 HD
ENDBRANCH   4  17
TORSDOF 7
ENDMDL
MODEL 2
REMARK VINA RESULT:    -3.278      1.825      2.466
REMARK INTER + INTRA:          -4.590
REMARK INTER:                  -4.418
REMARK INTRA:                  -0.172
REMARK UNBOUND:                -0.354
REMARK SMILES CCO[C@H]1O[C@H](CO)[C@H](O)[C@@H](O)[C@@H]1O
REMARK SMILES IDX 4 1 13 2 11 3 9 4 6 5 5 6 3 7 2 8 1 9 14 10 12 12 7 14 8 15
REMARK SMILES IDX 10 17
REMARK H PARENT 14 11 12 13 8 16 10 18
REMARK Flexibility Score: inf
ROOT
ATOM      1  C   UNL     1      20.263  -7.185   4.914  1.00  0.00     0.281 C 
ATOM      2  C   UNL     1      19.667  -8.409   4.174  1.00  0.00     0.202 C 
ATOM      3  C   UNL     1      18.470  -9.020   4.943  1.00  0.00     0.179 C 
ATOM      4  C   UNL     1      18.536  -8.666   6.439  1.00  0.00     0.177 C 
ATOM      5  C   UNL     1      18.599  -7.114   6.597  1.00  0.00     0.178 C 
ATOM      6  O   UNL     1      19.230  -6.426   5.520  1.00  0.00    -0.341 OA
ENDROOT
BRANCH   1   7
ATOM      7  O   UNL     1      20.940  -6.377   3.969  1.00  0.00    -0.350 OA
BRANCH   7   8
ATOM      8  C   UNL     1      21.558  -5.283   4.616  1.00  0.00     0.160 C 
ATOM      9  C   UNL     1      21.207  -4.002   3.875  1.00  0.00     0.035 C 
ENDBRANCH   7   8
ENDBRANCH   1   7
BRANCH   2  10
ATOM     10  O   UNL     1      20.662  -9.388   4.008  1.00  0.00    -0.385 OA
ATOM     11  H   UNL     1      20.570 -10.023   4.765  1.00  0.00     0.211 HD
ENDBRANCH   2  10
BRANCH   3  12
ATOM     12  O   UNL     1      17.270  -8.536   4.394  1.00  0.00    -0.387 OA
ATOM     13  H   UNL     1      17.457  -7.625   4.045  1.00  0.00     0.211 HD
ENDBRANCH   3  12
BRANCH   5  14
ATOM     14  C   UNL     1      19.147  -6.636   7.953  1.00  0.00     0.191 C 
BRANCH  14  15
ATOM     15  O   UNL     1      18.106  -6.278   8.820  1.00  0.00    -0.394 OA
ATOM     16  H   UNL     1      18.477  -6.350   9.739  1.00  0.00     0.210 HD
ENDBRANCH  14  15
ENDBRANCH   5  14
BRANCH   4  17
ATOM     17  O   UNL     1      19.657  -9.296   7.012  1.00  0.00    -0.387 OA
ATOM     18  H   UNL     1      20.439  -9.075   6.442  1.00  0.00     0.211 HD
ENDBRANCH   4  17
TORSDOF 7
ENDMDL
MODEL 3
REMARK VINA RESULT:    -3.196      1.499      4.282
REMARK INTER + INTRA:          -4.485
REMARK INTER:                  -4.262
REMARK INTRA:                  -0.223
REMARK UNBOUND:                -0.354
REMARK SMILES CCO[C@H]1O[C@H](CO)[C@H](O)[C@@H](O)[C@@H]1O
REMARK SMILES IDX 4 1 13 2 11 3 9 4 6 5 5 6 3 7 2 8 1 9 14 10 12 12 7 14 8 15
REMARK SMILES IDX 10 17
REMARK H PARENT 14 11 12 13 8 16 10 18
REMARK Flexibility Score: inf
ROOT
ATOM      1  C   UNL     1      17.688  -7.704   5.232  1.00  0.00     0.281 C 
ATOM      2  C   UNL     1      17.934  -9.129   5.789  1.00  0.00     0.202 C 
ATOM      3  C   UNL     1      19.358  -9.279   6.377  1.00  0.00     0.179 C 
ATOM      4  C   UNL     1      20.319  -8.242   5.769  1.00  0.00     0.177 C 
ATOM      5  C   UNL     1      19.742  -6.810   5.999  1.00  0.00     0.178 C 
ATOM      6  O   UNL     1      18.319  -6.738   6.055  1.00  0.00    -0.341 OA
ENDROOT
BRANCH   1   7
ATOM      7  O   UNL     1      16.293  -7.464   5.219  1.00  0.00    -0.350 OA
BRANCH   7   8
ATOM      8  C   UNL     1      15.841  -7.143   6.519  1.00  0.00     0.160 C 
ATOM      9  C   UNL     1      14.563  -7.917   6.808  1.00  0.00     0.035 C 
ENDBRANCH   7   8
ENDBRANCH   1   7
BRANCH   2  10
ATOM     10  O   UNL     1      17.752 -10.072   4.763  1.00  0.00    -0.385 OA
ATOM     11  H   UNL     1      18.252  -9.738   3.973  1.00  0.00     0.211 HD
ENDBRANCH   2  10
BRANCH   3  12
ATOM     12  O   UNL     1      19.304  -9.114   7.772  1.00  0.00    -0.387 OA
ATOM     13  H   UNL     1      18.485  -9.578   8.088  1.00  0.00     0.211 HD
ENDBRANCH   3  12
BRANCH   5  14
ATOM     14  C   UNL     1      20.311  -5.737   5.055  1.00  0.00     0.191 C 
BRANCH  14  15
ATOM     15  O   UNL     1      21.242  -4.925   5.716  1.00  0.00    -0.394 OA
ATOM     16  H   UNL     1      21.157  -4.023   5.311  1.00  0.00     0.210 HD
ENDBRANCH  14  15
ENDBRANCH   5  14
BRANCH   4  17
ATOM     17  O   UNL     1      20.492  -8.522   4.401  1.00  0.00    -0.387 OA
ATOM     18  H   UNL     1      19.587  -8.580   3.998  1.00  0.00     0.211 HD
ENDBRANCH   4  17
TORSDOF 7
ENDMDL
MODEL 4
REMARK VINA RESULT:    -3.192      2.132      4.063
REMARK INTER + INTRA:          -4.480
REMARK INTER:                  -4.238
REMARK INTRA:                  -0.242
REMARK UNBOUND:                -0.354
REMARK SMILES CCO[C@H]1O[C@H](CO)[C@H](O)[C@@H](O)[C@@H]1O
REMARK SMILES IDX 4 1 13 2 11 3 9 4 6 5 5 6 3 7 2 8 1 9 14 10 12 12 7 14 8 15
REMARK SMILES IDX 10 17
REMARK H PARENT 14 11 12 13 8 16 10 18
REMARK Flexibility Score: inf
ROOT
ATOM      1  C   UNL     1      17.271  -7.271   6.492  1.00  0.00     0.281 C 
ATOM      2  C   UNL     1      18.326  -6.456   7.281  1.00  0.00     0.202 C 
ATOM      3  C   UNL     1      19.748  -7.051   7.126  1.00  0.00     0.179 C 
ATOM      4  C   UNL     1      19.684  -8.542   6.748  1.00  0.00     0.177 C 
ATOM      5  C   UNL     1      18.839  -8.706   5.446  1.00  0.00     0.178 C 
ATOM      6  O   UNL     1      17.819  -7.727   5.265  1.00  0.00    -0.341 OA
ENDROOT
BRANCH   1   7
ATOM      7  O   UNL     1      16.165  -6.430   6.223  1.00  0.00    -0.350 OA
BRANCH   7   8
ATOM      8  C   UNL     1      15.087  -7.189   5.715  1.00  0.00     0.160 C 
ATOM      9  C   UNL     1      14.492  -8.025   6.838  1.00  0.00     0.035 C 
ENDBRANCH   7   8
ENDBRANCH   1   7
BRANCH   2  10
ATOM     10  O   UNL     1      17.978  -6.431   8.642  1.00  0.00    -0.385 OA
ATOM     11  H   UNL     1      17.284  -7.128   8.775  1.00  0.00     0.211 HD
ENDBRANCH   2  10
BRANCH   3  12
ATOM     12  O   UNL     1      20.443  -6.340   6.132  1.00  0.00    -0.387 OA
ATOM     13  H   UNL     1      20.311  -5.374   6.320  1.00  0.00     0.211 HD
ENDBRANCH   3  12
BRANCH   5  14
ATOM     14  C   UNL     1      18.287 -10.125   5.223  1.00  0.00     0.191 C 
BRANCH  14  15
ATOM     15  O   UNL     1      17.201 -10.111   4.339  1.00  0.00    -0.394 OA
ATOM     16  H   UNL     1      17.323  -9.310   3.765  1.00  0.00     0.210 HD
ENDBRANCH  14  15
ENDBRANCH   5  14
BRANCH   4  17
ATOM     17  O   UNL     1      19.135  -9.265   7.823  1.00  0.00    -0.387 OA
ATOM     18  H   UNL     1      19.471  -8.847   8.658  1.00  0.00     0.211 HD
ENDBRANCH   4  17
TORSDOF 7
ENDMDL
MODEL 5
REMARK VINA RESULT:    -3.077      1.590      3.959
REMARK INTER + INTRA:          -4.331
REMARK INTER:                  -4.082
REMARK INTRA:                  -0.250
REMARK UNBOUND:                -0.354
REMARK SMILES CCO[C@H]1O[C@H](CO)[C@H](O)[C@@H](O)[C@@H]1O
REMARK SMILES IDX 4 1 13 2 11 3 9 4 6 5 5 6 3 7 2 8 1 9 14 10 12 12 7 14 8 15
REMARK SMILES IDX 10 17
REMARK H PARENT 14 11 12 13 8 16 10 18
REMARK Flexibility Score: inf
ROOT
ATOM      1  C   UNL     1      19.110  -7.302   6.691  1.00  0.00     0.281 C 
ATOM      2  C   UNL     1      18.116  -8.352   6.135  1.00  0.00     0.202 C 
ATOM      3  C   UNL     1      18.216  -8.479   4.595  1.00  0.00     0.179 C 
ATOM      4  C   UNL     1      18.804  -7.201   3.971  1.00  0.00     0.177 C 
ATOM      5  C   UNL     1      20.191  -6.904   4.622  1.00  0.00     0.178 C 
ATOM      6  O   UNL     1      20.330  -7.348   5.969  1.00  0.00    -0.341 OA
ENDROOT
BRANCH   1   7
ATOM      7  O   UNL     1      19.363  -7.602   8.051  1.00  0.00    -0.350 OA
BRANCH   7   8
ATOM      8  C   UNL     1      19.861  -8.919   8.176  1.00  0.00     0.160 C 
ATOM      9  C   UNL     1      20.023  -9.254   9.651  1.00  0.00     0.035 C 
ENDBRANCH   7   8
ENDBRANCH   1   7
BRANCH   2  10
ATOM     10  O   UNL     1      16.805  -7.990   6.488  1.00  0.00    -0.385 OA
ATOM     11  H   UNL     1      16.566  -7.200   5.937  1.00  0.00     0.211 HD
ENDBRANCH   2  10
BRANCH   3  12
ATOM     12  O   UNL     1      19.028  -9.581   4.272  1.00  0.00    -0.387 OA
ATOM     13  H   UNL     1      19.966  -9.314   4.456  1.00  0.00     0.211 HD
ENDBRANCH   3  12
BRANCH   5  14
ATOM     14  C   UNL     1      20.665  -5.448   4.471  1.00  0.00     0.191 C 
BRANCH  14  15
ATOM     15  O   UNL     1      21.598  -5.115   5.461  1.00  0.00    -0.394 OA
ATOM     16  H   UNL     1      22.422  -5.624   5.245  1.00  0.00     0.210 HD
ENDBRANCH  14  15
ENDBRANCH   5  14
BRANCH   4  17
ATOM     17  O   UNL     1      17.900  -6.139   4.160  1.00  0.00    -0.387 OA
ATOM     18  H   UNL     1      17.032  -6.421   3.769  1.00  0.00     0.211 HD
ENDBRANCH   4  17
TORSDOF 7
ENDMDL
MODEL 6
REMARK VINA RESULT:    -3.041      2.310      5.094
REMARK INTER + INTRA:          -4.284
REMARK INTER:                  -3.861
REMARK INTRA:                  -0.424
REMARK UNBOUND:                -0.354
REMARK SMILES CCO[C@H]1O[C@H](CO)[C@H](O)[C@@H](O)[C@@H]1O
REMARK SMILES IDX 4 1 13 2 11 3 9 4 6 5 5 6 3 7 2 8 1 9 14 10 12 12 7 14 8 15
REMARK SMILES IDX 10 17
REMARK H PARENT 14 11 12 13 8 16 10 18
REMARK Flexibility Score: inf
ROOT
ATOM      1  C   UNL     1      16.122  -8.985   5.961  1.00  0.00     0.281 C 
ATOM      2  C   UNL     1      15.398  -7.635   5.731  1.00  0.00     0.202 C 
ATOM      3  C   UNL     1      16.395  -6.452   5.657  1.00  0.00     0.179 C 
ATOM      4  C   UNL     1      17.712  -6.793   6.377  1.00  0.00     0.177 C 
ATOM      5  C   UNL     1      18.309  -8.098   5.763  1.00  0.00     0.178 C 
ATOM      6  O   UNL     1      17.347  -9.014   5.247  1.00  0.00    -0.341 OA
ENDROOT
BRANCH   1   7
ATOM      7  O   UNL     1      15.286 -10.026   5.494  1.00  0.00    -0.350 OA
BRANCH   7   8
ATOM      8  C   UNL     1      15.002  -9.846   4.121  1.00  0.00     0.160 C 
ATOM      9  C   UNL     1      13.525 -10.114   3.876  1.00  0.00     0.035 C 
ENDBRANCH   7   8
ENDBRANCH   1   7
BRANCH   2  10
ATOM     10  O   UNL     1      14.484  -7.408   6.775  1.00  0.00    -0.385 OA
ATOM     11  H   UNL     1      14.049  -8.278   6.971  1.00  0.00     0.211 HD
ENDBRANCH   2  10
BRANCH   3  12
ATOM     12  O   UNL     1      16.656  -6.150   4.308  1.00  0.00    -0.387 OA
ATOM     13  H   UNL     1      16.476  -6.974   3.786  1.00  0.00     0.211 HD
ENDBRANCH   3  12
BRANCH   5  14
ATOM     14  C   UNL     1      19.325  -8.817   6.667  1.00  0.00     0.191 C 
BRANCH  14  15
ATOM     15  O   UNL     1      20.115  -7.899   7.371  1.00  0.00    -0.394 OA
ATOM     16  H   UNL     1      20.937  -7.772   6.830  1.00  0.00     0.210 HD
ENDBRANCH  14  15
ENDBRANCH   5  14
BRANCH   4  17
ATOM     17  O   UNL     1      17.460  -6.930   7.754  1.00  0.00    -0.387 OA
ATOM     18  H   UNL     1      17.195  -7.874   7.910  1.00  0.00     0.211 HD
ENDBRANCH   4  17
TORSDOF 7
ENDMDL
MODEL 7
REMARK VINA RESULT:    -3.007      2.359      4.034
REMARK INTER + INTRA:          -4.240
REMARK INTER:                  -3.865
REMARK INTRA:                  -0.375
REMARK UNBOUND:                -0.354
REMARK SMILES CCO[C@H]1O[C@H](CO)[C@H](O)[C@@H](O)[C@@H]1O
REMARK SMILES IDX 4 1 13 2 11 3 9 4 6 5 5 6 3 7 2 8 1 9 14 10 12 12 7 14 8 15
REMARK SMILES IDX 10 17
REMARK H PARENT 14 11 12 13 8 16 10 18
REMARK Flexibility Score: inf
ROOT
ATOM      1  C   UNL     1      17.494  -8.764   5.328  1.00  0.00     0.281 C 
ATOM      2  C   UNL     1      16.238  -8.244   4.584  1.00  0.00     0.202 C 
ATOM      3  C   UNL     1      15.849  -6.816   5.039  1.00  0.00     0.179 C 
ATOM      4  C   UNL     1      16.400  -6.515   6.444  1.00  0.00     0.177 C 
ATOM      5  C   UNL     1      17.946  -6.726   6.446  1.00  0.00     0.178 C 
ATOM      6  O   UNL     1      18.419  -7.708   5.528  1.00  0.00    -0.341 OA
ENDROOT
BRANCH   1   7
ATOM      7  O   UNL     1      18.099  -9.769   4.536  1.00  0.00    -0.350 OA
BRANCH   7   8
ATOM      8  C   UNL     1      19.386 -10.073   5.033  1.00  0.00     0.160 C 
ATOM      9  C   UNL     1      20.372 -10.111   3.875  1.00  0.00     0.035 C 
ENDBRANCH   7   8
ENDBRANCH   1   7
BRANCH   2  10
ATOM     10  O   UNL     1      15.160  -9.116   4.817  1.00  0.00    -0.385 OA
ATOM     11  H   UNL     1      15.533  -9.925   5.255  1.00  0.00     0.211 HD
ENDBRANCH   2  10
BRANCH   3  12
ATOM     12  O   UNL     1      16.359  -5.882   4.120  1.00  0.00    -0.387 OA
ATOM     13  H   UNL     1      17.195  -5.516   4.511  1.00  0.00     0.211 HD
ENDBRANCH   3  12
BRANCH   5  14
ATOM     14  C   UNL     1      18.557  -6.939   7.842  1.00  0.00     0.191 C 
BRANCH  14  15
ATOM     15  O   UNL     1      17.896  -6.165   8.805  1.00  0.00    -0.394 OA
ATOM     16  H   UNL     1      17.727  -5.284   8.381  1.00  0.00     0.210 HD
ENDBRANCH  14  15
ENDBRANCH   5  14
BRANCH   4  17
ATOM     17  O   UNL     1      15.757  -7.349   7.378  1.00  0.00    -0.387 OA
ATOM     18  H   UNL     1      15.657  -6.827   8.216  1.00  0.00     0.211 HD
ENDBRANCH   4  17
TORSDOF 7
ENDMDL
MODEL 8
REMARK VINA RESULT:    -2.978      1.770      4.596
REMARK INTER + INTRA:          -4.203
REMARK INTER:                  -3.793
REMARK INTRA:                  -0.409
REMARK UNBOUND:                -0.354
REMARK SMILES CCO[C@H]1O[C@H](CO)[C@H](O)[C@@H](O)[C@@H]1O
REMARK SMILES IDX 4 1 13 2 11 3 9 4 6 5 5 6 3 7 2 8 1 9 14 10 12 12 7 14 8 15
REMARK SMILES IDX 10 17
REMARK H PARENT 14 11 12 13 8 16 10 18
REMARK Flexibility Score: inf
ROOT
ATOM      1  C   UNL     1      17.751  -8.578   5.377  1.00  0.00     0.281 C 
ATOM      2  C   UNL     1      17.927  -7.075   5.046  1.00  0.00     0.202 C 
ATOM      3  C   UNL     1      19.113  -6.450   5.822  1.00  0.00     0.179 C 
ATOM      4  C   UNL     1      19.429  -7.258   7.093  1.00  0.00     0.177 C 
ATOM      5  C   UNL     1      19.707  -8.743   6.701  1.00  0.00     0.178 C 
ATOM      6  O   UNL     1      19.016  -9.198   5.540  1.00  0.00    -0.341 OA
ENDROOT
BRANCH   1   7
ATOM      7  O   UNL     1      17.066  -9.196   4.304  1.00  0.00    -0.350 OA
BRANCH   7   8
ATOM      8  C   UNL     1      16.122 -10.125   4.796  1.00  0.00     0.160 C 
ATOM      9  C   UNL     1      15.657  -9.681   6.175  1.00  0.00     0.035 C 
ENDBRANCH   7   8
ENDBRANCH   1   7
BRANCH   2  10
ATOM     10  O   UNL     1      16.746  -6.382   5.364  1.00  0.00    -0.385 OA
ATOM     11  H   UNL     1      16.003  -6.857   4.908  1.00  0.00     0.211 HD
ENDBRANCH   2  10
BRANCH   3  12
ATOM     12  O   UNL     1      20.245  -6.414   4.988  1.00  0.00    -0.387 OA
ATOM     13  H   UNL     1      19.916  -6.384   4.052  1.00  0.00     0.211 HD
ENDBRANCH   3  12
BRANCH   5  14
ATOM     14  C   UNL     1      19.558  -9.744   7.859  1.00  0.00     0.191 C 
BRANCH  14  15
ATOM     15  O   UNL     1      19.860  -9.144   9.088  1.00  0.00    -0.394 OA
ATOM     16  H   UNL     1      20.409  -8.345   8.876  1.00  0.00     0.210 HD
ENDBRANCH  14  15
ENDBRANCH   5  14
BRANCH   4  17
ATOM     17  O   UNL     1      18.349  -7.147   7.988  1.00  0.00    -0.387 OA
ATOM     18  H   UNL     1      17.799  -7.966   7.885  1.00  0.00     0.211 HD
ENDBRANCH   4  17
TORSDOF 7
ENDMDL
MODEL 9
REMARK VINA RESULT:    -2.842      2.251      3.986
REMARK INTER + INTRA:          -4.027
REMARK INTER:                  -3.632
REMARK INTRA:                  -0.394
REMARK UNBOUND:                -0.354
REMARK SMILES CCO[C@H]1O[C@H](CO)[C@H](O)[C@@H](O)[C@@H]1O
REMARK SMILES IDX 4 1 13 2 11 3 9 4 6 5 5 6 3 7 2 8 1 9 14 10 12 12 7 14 8 15
REMARK SMILES IDX 10 17
REMARK H PARENT 14 11 12 13 8 16 10 18
REMARK Flexibility Score: inf
ROOT
ATOM      1  C   UNL     1      17.655  -8.643   5.391  1.00  0.00     0.281 C 
ATOM      2  C   UNL     1      17.758  -7.181   5.893  1.00  0.00     0.202 C 
ATOM      3  C   UNL     1      16.365  -6.578   6.200  1.00  0.00     0.179 C 
ATOM      4  C   UNL     1      15.261  -7.312   5.420  1.00  0.00     0.177 C 
ATOM      5  C   UNL     1      15.322  -8.836   5.754  1.00  0.00     0.178 C 
ATOM      6  O   UNL     1      16.620  -9.327   6.079  1.00  0.00    -0.341 OA
ENDROOT
BRANCH   1   7
ATOM      7  O   UNL     1      18.888  -9.290   5.642  1.00  0.00    -0.350 OA
BRANCH   7   8
ATOM      8  C   UNL     1      19.402  -8.891   6.897  1.00  0.00     0.160 C 
ATOM      9  C   UNL     1      19.628 -10.123   7.760  1.00  0.00     0.035 C 
ENDBRANCH   7   8
ENDBRANCH   1   7
BRANCH   2  10
ATOM     10  O   UNL     1      18.401  -6.395   4.921  1.00  0.00    -0.385 OA
ATOM     11  H   UNL     1      17.695  -5.871   4.461  1.00  0.00     0.211 HD
ENDBRANCH   2  10
BRANCH   3  12
ATOM     12  O   UNL     1      16.113  -6.672   7.581  1.00  0.00    -0.387 OA
ATOM     13  H   UNL     1      16.625  -5.944   8.020  1.00  0.00     0.211 HD
ENDBRANCH   3  12
BRANCH   5  14
ATOM     14  C   UNL     1      14.634  -9.741   4.718  1.00  0.00     0.191 C 
BRANCH  14  15
ATOM     15  O   UNL     1      13.455  -9.156   4.240  1.00  0.00    -0.394 OA
ATOM     16  H   UNL     1      13.287  -8.365   4.815  1.00  0.00     0.210 HD
ENDBRANCH  14  15
ENDBRANCH   5  14
BRANCH   4  17
ATOM     17  O   UNL     1      15.432  -7.071   4.044  1.00  0.00    -0.387 OA
ATOM     18  H   UNL     1      15.073  -7.860   3.562  1.00  0.00     0.211 HD
ENDBRANCH   4  17
TORSDOF 7
ENDMDL
