MODEL 1
REMARK VINA RESULT:    -3.188      0.000      0.000
REMARK INTER + INTRA:          -7.937
REMARK INTER:                  -5.797
REMARK INTRA:                  -2.140
REMARK UNBOUND:                -2.140
REMARK SMILES CCCCCCCCCCCCCCC(=O)OC
REMARK SMILES IDX 9 1 8 2 7 3 6 4 5 5 4 6 3 7 2 8 1 9 10 10 11 11 12 12 13 13
REMARK SMILES IDX 14 14 15 15 16 16 17 17 18 18
REMARK H PARENT
REMARK Flexibility Score: inf
ROOT
ATOM      1  C   UNL     1     194.036 205.858 216.637  1.00  0.00     0.000 C 
ENDROOT
BRANCH   1   2
ATOM      2  C   UNL     1     194.406 206.100 218.109  1.00  0.00     0.000 C 
BRANCH   2   3
ATOM      3  C   UNL     1     195.769 206.795 218.283  1.00  0.00    -0.000 C 
BRANCH   3   4
ATOM      4  C   UNL     1     196.992 205.860 218.319  1.00  0.00    -0.000 C 
BRANCH   4   5
ATOM      5  C   UNL     1     197.721 205.768 216.967  1.00  0.00    -0.000 C 
BRANCH   5   6
ATOM      6  C   UNL     1     197.819 204.327 216.436  1.00  0.00    -0.000 C 
BRANCH   6   7
ATOM      7  C   UNL     1     196.558 203.461 216.638  1.00  0.00    -0.000 C 
BRANCH   7   8
ATOM      8  C   UNL     1     196.715 202.304 217.641  1.00  0.00    -0.003 C 
ATOM      9  C   UNL     1     195.765 202.416 218.832  1.00  0.00     0.004 C 
ENDBRANCH   7   8
ENDBRANCH   6   7
ENDBRANCH   5   6
ENDBRANCH   4   5
ENDBRANCH   3   4
ENDBRANCH   2   3
ENDBRANCH   1   2
BRANCH   1  10
ATOM     10  C   UNL     1     194.166 207.126 215.776  1.00  0.00     0.000 C 
BRANCH  10  11
ATOM     11  C   UNL     1     195.239 207.018 214.671  1.00  0.00     0.000 C 
BRANCH  11  12
ATOM     12  C   UNL     1     195.800 208.391 214.273  1.00  0.00     0.001 C 
BRANCH  12  13
ATOM     13  C   UNL     1     196.742 208.937 215.356  1.00  0.00     0.012 C 
BRANCH  13  14
ATOM     14  C   UNL     1     197.924 209.713 214.760  1.00  0.00     0.123 C 
BRANCH  14  15
ATOM     15  C   UNL     1     198.717 208.869 213.811  1.00  0.00     0.305 C 
ATOM     16  O   UNL     1     198.859 209.237 212.612  1.00  0.00    -0.252 OA
BRANCH  15  17
ATOM     17  O   UNL     1     199.319 207.695 214.272  1.00  0.00    -0.469 OA
ATOM     18  C   UNL     1     199.205 206.455 213.584  1.00  0.00     0.282 C 
ENDBRANCH  15  17
ENDBRANCH  14  15
ENDBRANCH  13  14
ENDBRANCH  12  13
ENDBRANCH  11  12
ENDBRANCH  10  11
ENDBRANCH   1  10
TORSDOF 14
ENDMDL
MODEL 2
REMARK VINA RESULT:    -3.163      1.197      1.865
REMARK INTER + INTRA:          -7.891
REMARK INTER:                  -5.948
REMARK INTRA:                  -1.943
REMARK UNBOUND:                -2.140
REMARK SMILES CCCCCCCCCCCCCCC(=O)OC
REMARK SMILES IDX 9 1 8 2 7 3 6 4 5 5 4 6 3 7 2 8 1 9 10 10 11 11 12 12 13 13
REMARK SMILES IDX 14 14 15 15 16 16 17 17 18 18
REMARK H PARENT
REMARK Flexibility Score: inf
ROOT
ATOM      1  C   UNL     1     194.908 206.969 215.591  1.00  0.00     0.000 C 
ENDROOT
BRANCH   1   2
ATOM      2  C   UNL     1     193.881 206.476 216.622  1.00  0.00     0.000 C 
BRANCH   2   3
ATOM      3  C   UNL     1     194.504 206.174 217.998  1.00  0.00    -0.000 C 
BRANCH   3   4
ATOM      4  C   UNL     1     195.874 206.824 218.263  1.00  0.00    -0.000 C 
BRANCH   4   5
ATOM      5  C   UNL     1     197.020 205.801 218.350  1.00  0.00    -0.000 C 
BRANCH   5   6
ATOM      6  C   UNL     1     197.931 205.814 217.110  1.00  0.00    -0.000 C 
BRANCH   6   7
ATOM      7  C   UNL     1     197.795 204.592 216.178  1.00  0.00    -0.000 C 
BRANCH   7   8
ATOM      8  C   UNL     1     196.758 203.545 216.623  1.00  0.00    -0.003 C 
ATOM      9  C   UNL     1     195.714 203.247 215.547  1.00  0.00     0.004 C 
ENDBRANCH   7   8
ENDBRANCH   6   7
ENDBRANCH   5   6
ENDBRANCH   4   5
ENDBRANCH   3   4
ENDBRANCH   2   3
ENDBRANCH   1   2
BRANCH   1  10
ATOM     10  C   UNL     1     194.405 208.174 214.778  1.00  0.00     0.000 C 
BRANCH  10  11
ATOM     11  C   UNL     1     195.509 209.200 214.442  1.00  0.00     0.000 C 
BRANCH  11  12
ATOM     12  C   UNL     1     196.689 209.122 215.422  1.00  0.00     0.001 C 
BRANCH  12  13
ATOM     13  C   UNL     1     197.954 209.743 214.813  1.00  0.00     0.012 C 
BRANCH  13  14
ATOM     14  C   UNL     1     198.925 208.681 214.283  1.00  0.00     0.123 C 
BRANCH  14  15
ATOM     15  C   UNL     1     199.249 208.900 212.837  1.00  0.00     0.305 C 
ATOM     16  O   UNL     1     198.318 209.108 212.010  1.00  0.00    -0.252 OA
BRANCH  15  17
ATOM     17  O   UNL     1     200.584 208.902 212.423  1.00  0.00    -0.469 OA
ATOM     18  C   UNL     1     201.396 207.735 212.452  1.00  0.00     0.282 C 
ENDBRANCH  15  17
ENDBRANCH  14  15
ENDBRANCH  13  14
ENDBRANCH  12  13
ENDBRANCH  11  12
ENDBRANCH  10  11
ENDBRANCH   1  10
TORSDOF 14
ENDMDL
MODEL 3
REMARK VINA RESULT:    -3.162      8.783     11.331
REMARK INTER + INTRA:          -7.890
REMARK INTER:                  -5.698
REMARK INTRA:                  -2.192
REMARK UNBOUND:                -2.140
REMARK SMILES CCCCCCCCCCCCCCC(=O)OC
REMARK SMILES IDX 9 1 8 2 7 3 6 4 5 5 4 6 3 7 2 8 1 9 10 10 11 11 12 12 13 13
REMARK SMILES IDX 14 14 15 15 16 16 17 17 18 18
REMARK H PARENT
REMARK Flexibility Score: inf
ROOT
ATOM      1  C   UNL     1     204.779 199.760 213.652  1.00  0.00     0.000 C 
ENDROOT
BRANCH   1   2
ATOM      2  C   UNL     1     206.115 199.063 213.953  1.00  0.00     0.000 C 
BRANCH   2   3
ATOM      3  C   UNL     1     207.218 200.041 214.400  1.00  0.00    -0.000 C 
BRANCH   3   4
ATOM      4  C   UNL     1     206.903 200.864 215.663  1.00  0.00    -0.000 C 
BRANCH   4   5
ATOM      5  C   UNL     1     207.111 200.073 216.966  1.00  0.00    -0.000 C 
BRANCH   5   6
ATOM      6  C   UNL     1     205.788 199.702 217.660  1.00  0.00    -0.000 C 
BRANCH   6   7
ATOM      7  C   UNL     1     205.410 198.208 217.608  1.00  0.00    -0.000 C 
BRANCH   7   8
ATOM      8  C   UNL     1     206.599 197.239 217.475  1.00  0.00    -0.003 C 
ATOM      9  C   UNL     1     206.408 196.211 216.360  1.00  0.00     0.004 C 
ENDBRANCH   7   8
ENDBRANCH   6   7
ENDBRANCH   5   6
ENDBRANCH   4   5
ENDBRANCH   3   4
ENDBRANCH   2   3
ENDBRANCH   1   2
BRANCH   1  10
ATOM     10  C   UNL     1     203.571 199.011 214.240  1.00  0.00     0.000 C 
BRANCH  10  11
ATOM     11  C   UNL     1     202.416 199.940 214.673  1.00  0.00     0.000 C 
BRANCH  11  12
ATOM     12  C   UNL     1     202.890 201.047 215.625  1.00  0.00     0.001 C 
BRANCH  12  13
ATOM     13  C   UNL     1     202.000 201.119 216.874  1.00  0.00     0.012 C 
BRANCH  13  14
ATOM     14  C   UNL     1     202.179 199.898 217.786  1.00  0.00     0.123 C 
BRANCH  14  15
ATOM     15  C   UNL     1     200.864 199.392 218.297  1.00  0.00     0.305 C 
ATOM     16  O   UNL     1     200.183 200.103 219.086  1.00  0.00    -0.252 OA
BRANCH  15  17
ATOM     17  O   UNL     1     200.392 198.148 217.868  1.00  0.00    -0.469 OA
ATOM     18  C   UNL     1     201.215 197.211 217.186  1.00  0.00     0.282 C 
ENDBRANCH  15  17
ENDBRANCH  14  15
ENDBRANCH  13  14
ENDBRANCH  12  13
ENDBRANCH  11  12
ENDBRANCH  10  11
ENDBRANCH   1  10
TORSDOF 14
ENDMDL
MODEL 4
REMARK VINA RESULT:    -3.153      3.011      5.374
REMARK INTER + INTRA:          -7.873
REMARK INTER:                  -6.681
REMARK INTRA:                  -1.191
REMARK UNBOUND:                -2.140
REMARK SMILES CCCCCCCCCCCCCCC(=O)OC
REMARK SMILES IDX 9 1 8 2 7 3 6 4 5 5 4 6 3 7 2 8 1 9 10 10 11 11 12 12 13 13
REMARK SMILES IDX 14 14 15 15 16 16 17 17 18 18
REMARK H PARENT
REMARK Flexibility Score: inf
ROOT
ATOM      1  C   UNL     1     196.669 201.294 218.951  1.00  0.00     0.000 C 
ENDROOT
BRANCH   1   2
ATOM      2  C   UNL     1     197.269 201.246 217.537  1.00  0.00     0.000 C 
BRANCH   2   3
ATOM      3  C   UNL     1     198.713 200.712 217.512  1.00  0.00    -0.000 C 
BRANCH   3   4
ATOM      4  C   UNL     1     199.220 200.107 218.834  1.00  0.00    -0.000 C 
BRANCH   4   5
ATOM      5  C   UNL     1     200.755 200.053 218.923  1.00  0.00    -0.000 C 
BRANCH   5   6
ATOM      6  C   UNL     1     201.429 199.866 217.552  1.00  0.00    -0.000 C 
BRANCH   6   7
ATOM      7  C   UNL     1     202.285 201.055 217.069  1.00  0.00    -0.000 C 
BRANCH   7   8
ATOM      8  C   UNL     1     201.911 201.607 215.682  1.00  0.00    -0.003 C 
ATOM      9  C   UNL     1     201.629 203.109 215.696  1.00  0.00     0.004 C 
ENDBRANCH   7   8
ENDBRANCH   6   7
ENDBRANCH   5   6
ENDBRANCH   4   5
ENDBRANCH   3   4
ENDBRANCH   2   3
ENDBRANCH   1   2
BRANCH   1  10
ATOM     10  C   UNL     1     195.766 202.519 219.174  1.00  0.00     0.000 C 
BRANCH  10  11
ATOM     11  C   UNL     1     195.834 203.554 218.031  1.00  0.00     0.000 C 
BRANCH  11  12
ATOM     12  C   UNL     1     195.864 204.997 218.557  1.00  0.00     0.001 C 
BRANCH  12  13
ATOM     13  C   UNL     1     197.163 205.706 218.150  1.00  0.00     0.012 C 
BRANCH  13  14
ATOM     14  C   UNL     1     197.635 205.294 216.750  1.00  0.00     0.123 C 
BRANCH  14  15
ATOM     15  C   UNL     1     197.860 206.485 215.870  1.00  0.00     0.305 C 
ATOM     16  O   UNL     1     198.996 206.681 215.357  1.00  0.00    -0.252 OA
BRANCH  15  17
ATOM     17  O   UNL     1     196.797 207.353 215.601  1.00  0.00    -0.469 OA
ATOM     18  C   UNL     1     196.980 208.618 214.979  1.00  0.00     0.282 C 
ENDBRANCH  15  17
ENDBRANCH  14  15
ENDBRANCH  13  14
ENDBRANCH  12  13
ENDBRANCH  11  12
ENDBRANCH  10  11
ENDBRANCH   1  10
TORSDOF 14
ENDMDL
MODEL 5
REMARK VINA RESULT:    -3.127      7.638     10.289
REMARK INTER + INTRA:          -7.826
REMARK INTER:                  -6.075
REMARK INTRA:                  -1.751
REMARK UNBOUND:                -2.140
REMARK SMILES CCCCCCCCCCCCCCC(=O)OC
REMARK SMILES IDX 9 1 8 2 7 3 6 4 5 5 4 6 3 7 2 8 1 9 10 10 11 11 12 12 13 13
REMARK SMILES IDX 14 14 15 15 16 16 17 17 18 18
REMARK H PARENT
REMARK Flexibility Score: inf
ROOT
ATOM      1  C   UNL     1     202.333 200.395 215.308  1.00  0.00     0.000 C 
ENDROOT
BRANCH   1   2
ATOM      2  C   UNL     1     203.031 200.993 214.076  1.00  0.00     0.000 C 
BRANCH   2   3
ATOM      3  C   UNL     1     204.059 202.083 214.435  1.00  0.00    -0.000 C 
BRANCH   3   4
ATOM      4  C   UNL     1     205.509 201.793 214.009  1.00  0.00    -0.000 C 
BRANCH   4   5
ATOM      5  C   UNL     1     206.431 201.457 215.194  1.00  0.00    -0.000 C 
BRANCH   5   6
ATOM      6  C   UNL     1     206.280 200.003 215.677  1.00  0.00    -0.000 C 
BRANCH   6   7
ATOM      7  C   UNL     1     206.339 199.805 217.206  1.00  0.00    -0.000 C 
BRANCH   7   8
ATOM      8  C   UNL     1     205.496 198.636 217.745  1.00  0.00    -0.003 C 
ATOM      9  C   UNL     1     204.724 197.904 216.648  1.00  0.00     0.004 C 
ENDBRANCH   7   8
ENDBRANCH   6   7
ENDBRANCH   5   6
ENDBRANCH   4   5
ENDBRANCH   3   4
ENDBRANCH   2   3
ENDBRANCH   1   2
BRANCH   1  10
ATOM     10  C   UNL     1     202.283 201.370 216.496  1.00  0.00     0.000 C 
BRANCH  10  11
ATOM     11  C   UNL     1     202.405 200.679 217.871  1.00  0.00     0.000 C 
BRANCH  11  12
ATOM     12  C   UNL     1     201.404 199.525 218.029  1.00  0.00     0.001 C 
BRANCH  12  13
ATOM     13  C   UNL     1     200.211 199.944 218.900  1.00  0.00     0.012 C 
BRANCH  13  14
ATOM     14  C   UNL     1     198.995 200.358 218.061  1.00  0.00     0.123 C 
BRANCH  14  15
ATOM     15  C   UNL     1     197.848 199.413 218.248  1.00  0.00     0.305 C 
ATOM     16  O   UNL     1     197.791 198.352 217.568  1.00  0.00    -0.252 OA
BRANCH  15  17
ATOM     17  O   UNL     1     196.865 199.705 219.198  1.00  0.00    -0.469 OA
ATOM     18  C   UNL     1     195.689 198.919 219.348  1.00  0.00     0.282 C 
ENDBRANCH  15  17
ENDBRANCH  14  15
ENDBRANCH  13  14
ENDBRANCH  12  13
ENDBRANCH  11  12
ENDBRANCH  10  11
ENDBRANCH   1  10
TORSDOF 14
ENDMDL
MODEL 6
REMARK VINA RESULT:    -3.109      8.699     11.293
REMARK INTER + INTRA:          -7.793
REMARK INTER:                  -5.633
REMARK INTRA:                  -2.160
REMARK UNBOUND:                -2.140
REMARK SMILES CCCCCCCCCCCCCCC(=O)OC
REMARK SMILES IDX 9 1 8 2 7 3 6 4 5 5 4 6 3 7 2 8 1 9 10 10 11 11 12 12 13 13
REMARK SMILES IDX 14 14 15 15 16 16 17 17 18 18
REMARK H PARENT
REMARK Flexibility Score: inf
ROOT
ATOM      1  C   UNL     1     201.756 197.669 216.049  1.00  0.00     0.000 C 
ENDROOT
BRANCH   1   2
ATOM      2  C   UNL     1     201.428 197.660 217.550  1.00  0.00     0.000 C 
BRANCH   2   3
ATOM      3  C   UNL     1     200.529 198.836 217.978  1.00  0.00    -0.000 C 
BRANCH   3   4
ATOM      4  C   UNL     1     201.217 200.212 218.032  1.00  0.00    -0.000 C 
BRANCH   4   5
ATOM      5  C   UNL     1     200.907 201.089 216.807  1.00  0.00    -0.000 C 
BRANCH   5   6
ATOM      6  C   UNL     1     202.139 201.855 216.290  1.00  0.00    -0.000 C 
BRANCH   6   7
ATOM      7  C   UNL     1     202.640 201.433 214.893  1.00  0.00    -0.000 C 
BRANCH   7   8
ATOM      8  C   UNL     1     204.026 201.979 214.506  1.00  0.00    -0.003 C 
ATOM      9  C   UNL     1     204.897 200.942 213.798  1.00  0.00     0.004 C 
ENDBRANCH   7   8
ENDBRANCH   6   7
ENDBRANCH   5   6
ENDBRANCH   4   5
ENDBRANCH   3   4
ENDBRANCH   2   3
ENDBRANCH   1   2
BRANCH   1  10
ATOM     10  C   UNL     1     203.242 197.946 215.766  1.00  0.00     0.000 C 
BRANCH  10  11
ATOM     11  C   UNL     1     204.112 198.019 217.039  1.00  0.00     0.000 C 
BRANCH  11  12
ATOM     12  C   UNL     1     204.820 199.375 217.179  1.00  0.00     0.001 C 
BRANCH  12  13
ATOM     13  C   UNL     1     205.985 199.289 218.176  1.00  0.00     0.012 C 
BRANCH  13  14
ATOM     14  C   UNL     1     206.913 198.103 217.884  1.00  0.00     0.123 C 
BRANCH  14  15
ATOM     15  C   UNL     1     207.794 198.368 216.702  1.00  0.00     0.305 C 
ATOM     16  O   UNL     1     208.617 199.324 216.735  1.00  0.00    -0.252 OA
BRANCH  15  17
ATOM     17  O   UNL     1     207.715 197.533 215.584  1.00  0.00    -0.469 OA
ATOM     18  C   UNL     1     206.967 197.874 214.424  1.00  0.00     0.282 C 
ENDBRANCH  15  17
ENDBRANCH  14  15
ENDBRANCH  13  14
ENDBRANCH  12  13
ENDBRANCH  11  12
ENDBRANCH  10  11
ENDBRANCH   1  10
TORSDOF 14
ENDMDL
MODEL 7
REMARK VINA RESULT:    -3.101      1.324      2.423
REMARK INTER + INTRA:          -7.779
REMARK INTER:                  -5.625
REMARK INTRA:                  -2.154
REMARK UNBOUND:                -2.140
REMARK SMILES CCCCCCCCCCCCCCC(=O)OC
REMARK SMILES IDX 9 1 8 2 7 3 6 4 5 5 4 6 3 7 2 8 1 9 10 10 11 11 12 12 13 13
REMARK SMILES IDX 14 14 15 15 16 16 17 17 18 18
REMARK H PARENT
REMARK Flexibility Score: inf
ROOT
ATOM      1  C   UNL     1     195.281 206.888 215.746  1.00  0.00     0.000 C 
ENDROOT
BRANCH   1   2
ATOM      2  C   UNL     1     194.789 206.531 217.158  1.00  0.00     0.000 C 
BRANCH   2   3
ATOM      3  C   UNL     1     195.867 206.730 218.240  1.00  0.00    -0.000 C 
BRANCH   3   4
ATOM      4  C   UNL     1     196.544 205.443 218.747  1.00  0.00    -0.000 C 
BRANCH   4   5
ATOM      5  C   UNL     1     195.877 204.162 218.216  1.00  0.00    -0.000 C 
BRANCH   5   6
ATOM      6  C   UNL     1     196.834 203.287 217.387  1.00  0.00    -0.000 C 
BRANCH   6   7
ATOM      7  C   UNL     1     197.109 203.783 215.952  1.00  0.00    -0.000 C 
BRANCH   7   8
ATOM      8  C   UNL     1     198.590 204.036 215.622  1.00  0.00    -0.003 C 
ATOM      9  C   UNL     1     199.092 205.385 216.137  1.00  0.00     0.004 C 
ENDBRANCH   7   8
ENDBRANCH   6   7
ENDBRANCH   5   6
ENDBRANCH   4   5
ENDBRANCH   3   4
ENDBRANCH   2   3
ENDBRANCH   1   2
BRANCH   1  10
ATOM     10  C   UNL     1     196.487 207.842 215.759  1.00  0.00     0.000 C 
BRANCH  10  11
ATOM     11  C   UNL     1     196.263 209.136 214.947  1.00  0.00     0.000 C 
BRANCH  11  12
ATOM     12  C   UNL     1     197.586 209.765 214.486  1.00  0.00     0.001 C 
BRANCH  12  13
ATOM     13  C   UNL     1     198.770 208.828 214.764  1.00  0.00     0.012 C 
BRANCH  13  14
ATOM     14  C   UNL     1     199.652 208.624 213.526  1.00  0.00     0.123 C 
BRANCH  14  15
ATOM     15  C   UNL     1     199.428 207.281 212.902  1.00  0.00     0.305 C 
ATOM     16  O   UNL     1     200.318 206.390 212.993  1.00  0.00    -0.252 OA
BRANCH  15  17
ATOM     17  O   UNL     1     198.220 207.018 212.250  1.00  0.00    -0.469 OA
ATOM     18  C   UNL     1     197.325 205.999 212.678  1.00  0.00     0.282 C 
ENDBRANCH  15  17
ENDBRANCH  14  15
ENDBRANCH  13  14
ENDBRANCH  12  13
ENDBRANCH  11  12
ENDBRANCH  10  11
ENDBRANCH   1  10
TORSDOF 14
ENDMDL
MODEL 8
REMARK VINA RESULT:    -3.095      8.212     10.959
REMARK INTER + INTRA:          -7.769
REMARK INTER:                  -5.537
REMARK INTRA:                  -2.232
REMARK UNBOUND:                -2.140
REMARK SMILES CCCCCCCCCCCCCCC(=O)OC
REMARK SMILES IDX 9 1 8 2 7 3 6 4 5 5 4 6 3 7 2 8 1 9 10 10 11 11 12 12 13 13
REMARK SMILES IDX 14 14 15 15 16 16 17 17 18 18
REMARK H PARENT
REMARK Flexibility Score: inf
ROOT
ATOM      1  C   UNL     1     204.159 201.784 214.283  1.00  0.00     0.000 C 
ENDROOT
BRANCH   1   2
ATOM      2  C   UNL     1     205.640 201.876 214.684  1.00  0.00     0.000 C 
BRANCH   2   3
ATOM      3  C   UNL     1     206.461 200.649 214.244  1.00  0.00    -0.000 C 
BRANCH   3   4
ATOM      4  C   UNL     1     207.046 199.799 215.386  1.00  0.00    -0.000 C 
BRANCH   4   5
ATOM      5  C   UNL     1     206.955 200.488 216.759  1.00  0.00    -0.000 C 
BRANCH   5   6
ATOM      6  C   UNL     1     206.054 199.731 217.751  1.00  0.00    -0.000 C 
BRANCH   6   7
ATOM      7  C   UNL     1     205.857 198.230 217.452  1.00  0.00    -0.000 C 
BRANCH   7   8
ATOM      8  C   UNL     1     204.410 197.814 217.133  1.00  0.00    -0.003 C 
ATOM      9  C   UNL     1     204.233 197.328 215.695  1.00  0.00     0.004 C 
ENDBRANCH   7   8
ENDBRANCH   6   7
ENDBRANCH   5   6
ENDBRANCH   4   5
ENDBRANCH   3   4
ENDBRANCH   2   3
ENDBRANCH   1   2
BRANCH   1  10
ATOM     10  C   UNL     1     203.355 200.838 215.191  1.00  0.00     0.000 C 
BRANCH  10  11
ATOM     11  C   UNL     1     202.513 201.570 216.259  1.00  0.00     0.000 C 
BRANCH  11  12
ATOM     12  C   UNL     1     202.445 200.788 217.578  1.00  0.00     0.001 C 
BRANCH  12  13
ATOM     13  C   UNL     1     201.031 200.241 217.823  1.00  0.00     0.012 C 
BRANCH  13  14
ATOM     14  C   UNL     1     201.001 198.707 217.865  1.00  0.00     0.123 C 
BRANCH  14  15
ATOM     15  C   UNL     1     200.557 198.127 216.557  1.00  0.00     0.305 C 
ATOM     16  O   UNL     1     200.304 198.891 215.585  1.00  0.00    -0.252 OA
BRANCH  15  17
ATOM     17  O   UNL     1     200.456 196.740 216.419  1.00  0.00    -0.469 OA
ATOM     18  C   UNL     1     200.158 195.882 217.513  1.00  0.00     0.282 C 
ENDBRANCH  15  17
ENDBRANCH  14  15
ENDBRANCH  13  14
ENDBRANCH  12  13
ENDBRANCH  11  12
ENDBRANCH  10  11
ENDBRANCH   1  10
TORSDOF 14
ENDMDL
MODEL 9
REMARK VINA RESULT:    -3.075      8.654     11.112
REMARK INTER + INTRA:          -7.731
REMARK INTER:                  -5.544
REMARK INTRA:                  -2.188
REMARK UNBOUND:                -2.140
REMARK SMILES CCCCCCCCCCCCCCC(=O)OC
REMARK SMILES IDX 9 1 8 2 7 3 6 4 5 5 4 6 3 7 2 8 1 9 10 10 11 11 12 12 13 13
REMARK SMILES IDX 14 14 15 15 16 16 17 17 18 18
REMARK H PARENT
REMARK Flexibility Score: inf
ROOT
ATOM      1  C   UNL     1     204.234 202.238 213.616  1.00  0.00     0.000 C 
ENDROOT
BRANCH   1   2
ATOM      2  C   UNL     1     202.929 202.528 214.373  1.00  0.00     0.000 C 
BRANCH   2   3
ATOM      3  C   UNL     1     201.888 201.401 214.235  1.00  0.00    -0.000 C 
BRANCH   3   4
ATOM      4  C   UNL     1     201.187 200.981 215.540  1.00  0.00    -0.000 C 
BRANCH   4   5
ATOM      5  C   UNL     1     201.933 201.449 216.802  1.00  0.00    -0.000 C 
BRANCH   5   6
ATOM      6  C   UNL     1     201.974 200.378 217.906  1.00  0.00    -0.000 C 
BRANCH   6   7
ATOM      7  C   UNL     1     201.181 199.089 217.606  1.00  0.00    -0.000 C 
BRANCH   7   8
ATOM      8  C   UNL     1     202.041 197.831 217.385  1.00  0.00    -0.003 C 
ATOM      9  C   UNL     1     202.005 197.332 215.941  1.00  0.00     0.004 C 
ENDBRANCH   7   8
ENDBRANCH   6   7
ENDBRANCH   5   6
ENDBRANCH   4   5
ENDBRANCH   3   4
ENDBRANCH   2   3
ENDBRANCH   1   2
BRANCH   1  10
ATOM     10  C   UNL     1     205.405 201.902 214.555  1.00  0.00     0.000 C 
BRANCH  10  11
ATOM     11  C   UNL     1     205.749 200.397 214.604  1.00  0.00     0.000 C 
BRANCH  11  12
ATOM     12  C   UNL     1     204.923 199.650 215.661  1.00  0.00     0.001 C 
BRANCH  12  13
ATOM     13  C   UNL     1     205.530 199.824 217.061  1.00  0.00     0.012 C 
BRANCH  13  14
ATOM     14  C   UNL     1     205.660 198.491 217.808  1.00  0.00     0.123 C 
BRANCH  14  15
ATOM     15  C   UNL     1     206.886 197.739 217.388  1.00  0.00     0.305 C 
ATOM     16  O   UNL     1     207.993 198.338 217.307  1.00  0.00    -0.252 OA
BRANCH  15  17
ATOM     17  O   UNL     1     206.794 196.370 217.119  1.00  0.00    -0.469 OA
ATOM     18  C   UNL     1     207.139 195.814 215.856  1.00  0.00     0.282 C 
ENDBRANCH  15  17
ENDBRANCH  14  15
ENDBRANCH  13  14
ENDBRANCH  12  13
ENDBRANCH  11  12
ENDBRANCH  10  11
ENDBRANCH   1  10
TORSDOF 14
ENDMDL
