MODEL 1
REMARK VINA RESULT:    -3.910      0.000      0.000
REMARK INTER + INTRA:          -4.024
REMARK INTER:                  -4.024
REMARK INTRA:                   0.000
REMARK UNBOUND:                 0.000
REMARK SMILES O=c1ccc2ccc(O)cc2o1
REMARK SMILES IDX 6 1 7 2 8 3 10 4 11 5 5 6 4 7 3 8 2 9 1 10 12 11 9 12
REMARK H PARENT 9 13
REMARK Flexibility Score: inf
ROOT
ATOM      1  C   UNL     1      -8.174  -4.444 -12.927  1.00  0.00     0.016 A 
ATOM      2  C   UNL     1      -6.989  -3.802 -13.306  1.00  0.00     0.047 A 
ATOM      3  C   UNL     1      -5.891  -4.547 -13.752  1.00  0.00     0.119 A 
ATOM      4  C   UNL     1      -5.978  -5.945 -13.820  1.00  0.00     0.094 A 
ATOM      5  C   UNL     1      -7.157  -6.596 -13.444  1.00  0.00     0.142 A 
ATOM      6  C   UNL     1      -8.262  -5.841 -12.994  1.00  0.00     0.018 A 
ATOM      7  C   UNL     1      -9.428  -6.519 -12.625  1.00  0.00     0.019 A 
ATOM      8  C   UNL     1      -9.466  -7.910 -12.710  1.00  0.00     0.094 A 
ATOM      9  C   UNL     1      -8.333  -8.593 -13.165  1.00  0.00     0.336 A 
ATOM     10  O   UNL     1      -8.347  -9.849 -13.248  1.00  0.00    -0.246 OA
ATOM     11  O   UNL     1      -7.236  -7.923 -13.510  1.00  0.00    -0.423 OA
ENDROOT
BRANCH   3  12
ATOM     12  O   UNL     1      -4.722  -3.889 -14.125  1.00  0.00    -0.508 OA
ATOM     13  H   UNL     1      -3.829  -4.116 -13.702  1.00  0.00     0.293 HD
ENDBRANCH   3  12
TORSDOF 1
ENDMDL
MODEL 2
REMARK VINA RESULT:    -3.449      2.362      4.547
REMARK INTER + INTRA:          -3.550
REMARK INTER:                  -3.550
REMARK INTRA:                   0.000
REMARK UNBOUND:                 0.000
REMARK SMILES O=c1ccc2ccc(O)cc2o1
REMARK SMILES IDX 6 1 7 2 8 3 10 4 11 5 5 6 4 7 3 8 2 9 1 10 12 11 9 12
REMARK H PARENT 9 13
REMARK Flexibility Score: inf
ROOT
ATOM      1  C   UNL     1      -8.596  -5.576 -12.670  1.00  0.00     0.016 A 
ATOM      2  C   UNL     1      -7.473  -6.336 -13.011  1.00  0.00     0.047 A 
ATOM      3  C   UNL     1      -6.408  -5.752 -13.708  1.00  0.00     0.119 A 
ATOM      4  C   UNL     1      -6.466  -4.397 -14.066  1.00  0.00     0.094 A 
ATOM      5  C   UNL     1      -7.585  -3.629 -13.729  1.00  0.00     0.142 A 
ATOM      6  C   UNL     1      -8.657  -4.222 -13.027  1.00  0.00     0.018 A 
ATOM      7  C   UNL     1      -9.763  -3.428 -12.703  1.00  0.00     0.019 A 
ATOM      8  C   UNL     1      -9.775  -2.086 -13.080  1.00  0.00     0.094 A 
ATOM      9  C   UNL     1      -8.677  -1.567 -13.775  1.00  0.00     0.336 A 
ATOM     10  O   UNL     1      -8.670  -0.357 -14.125  1.00  0.00    -0.246 OA
ATOM     11  O   UNL     1      -7.638  -2.344 -14.070  1.00  0.00    -0.423 OA
ENDROOT
BRANCH   3  12
ATOM     12  O   UNL     1      -5.298  -6.526 -14.038  1.00  0.00    -0.508 OA
ATOM     13  H   UNL     1      -5.289  -7.529 -13.890  1.00  0.00     0.293 HD
ENDBRANCH   3  12
TORSDOF 1
ENDMDL
MODEL 3
REMARK VINA RESULT:    -3.383      2.186      3.272
REMARK INTER + INTRA:          -3.481
REMARK INTER:                  -3.481
REMARK INTRA:                   0.000
REMARK UNBOUND:                 0.000
REMARK SMILES O=c1ccc2ccc(O)cc2o1
REMARK SMILES IDX 6 1 7 2 8 3 10 4 11 5 5 6 4 7 3 8 2 9 1 10 12 11 9 12
REMARK H PARENT 9 13
REMARK Flexibility Score: inf
ROOT
ATOM      1  C   UNL     1      -9.742  -3.814 -12.770  1.00  0.00     0.016 A 
ATOM      2  C   UNL     1      -9.791  -2.459 -13.118  1.00  0.00     0.047 A 
ATOM      3  C   UNL     1      -8.715  -1.860 -13.783  1.00  0.00     0.119 A 
ATOM      4  C   UNL     1      -7.581  -2.621 -14.105  1.00  0.00     0.094 A 
ATOM      5  C   UNL     1      -7.523  -3.975 -13.761  1.00  0.00     0.142 A 
ATOM      6  C   UNL     1      -8.610  -4.576 -13.090  1.00  0.00     0.018 A 
ATOM      7  C   UNL     1      -8.524  -5.933 -12.760  1.00  0.00     0.019 A 
ATOM      8  C   UNL     1      -7.376  -6.647 -13.100  1.00  0.00     0.094 A 
ATOM      9  C   UNL     1      -6.337  -5.986 -13.764  1.00  0.00     0.336 A 
ATOM     10  O   UNL     1      -5.292  -6.614 -14.079  1.00  0.00    -0.246 OA
ATOM     11  O   UNL     1      -6.445  -4.695 -14.067  1.00  0.00    -0.423 OA
ENDROOT
BRANCH   3  12
ATOM     12  O   UNL     1      -8.783  -0.511 -14.121  1.00  0.00    -0.508 OA
ATOM     13  H   UNL     1      -8.244   0.188 -13.622  1.00  0.00     0.293 HD
ENDBRANCH   3  12
TORSDOF 1
ENDMDL
MODEL 4
REMARK VINA RESULT:    -3.278     16.500     16.994
REMARK INTER + INTRA:          -3.374
REMARK INTER:                  -3.374
REMARK INTRA:                   0.000
REMARK UNBOUND:                 0.000
REMARK SMILES O=c1ccc2ccc(O)cc2o1
REMARK SMILES IDX 6 1 7 2 8 3 10 4 11 5 5 6 4 7 3 8 2 9 1 10 12 11 9 12
REMARK H PARENT 9 13
REMARK Flexibility Score: inf
ROOT
ATOM      1  C   UNL     1     -10.111  -4.676   3.127  1.00  0.00     0.016 A 
ATOM      2  C   UNL     1      -9.668  -3.900   4.203  1.00  0.00     0.047 A 
ATOM      3  C   UNL     1      -8.670  -4.380   5.059  1.00  0.00     0.119 A 
ATOM      4  C   UNL     1      -8.110  -5.647   4.838  1.00  0.00     0.094 A 
ATOM      5  C   UNL     1      -8.546  -6.431   3.765  1.00  0.00     0.142 A 
ATOM      6  C   UNL     1      -9.554  -5.943   2.904  1.00  0.00     0.018 A 
ATOM      7  C   UNL     1      -9.969  -6.749   1.840  1.00  0.00     0.019 A 
ATOM      8  C   UNL     1      -9.383  -8.001   1.661  1.00  0.00     0.094 A 
ATOM      9  C   UNL     1      -8.391  -8.420   2.554  1.00  0.00     0.336 A 
ATOM     10  O   UNL     1      -7.850  -9.548   2.409  1.00  0.00    -0.246 OA
ATOM     11  O   UNL     1      -8.013  -7.633   3.558  1.00  0.00    -0.423 OA
ENDROOT
BRANCH   3  12
ATOM     12  O   UNL     1      -8.241  -3.591   6.124  1.00  0.00    -0.508 OA
ATOM     13  H   UNL     1      -8.874  -2.961   6.603  1.00  0.00     0.293 HD
ENDBRANCH   3  12
TORSDOF 1
ENDMDL
MODEL 5
REMARK VINA RESULT:    -3.174     16.153     16.740
REMARK INTER + INTRA:          -3.266
REMARK INTER:                  -3.266
REMARK INTRA:                   0.000
REMARK UNBOUND:                 0.000
REMARK SMILES O=c1ccc2ccc(O)cc2o1
REMARK SMILES IDX 6 1 7 2 8 3 10 4 11 5 5 6 4 7 3 8 2 9 1 10 12 11 9 12
REMARK H PARENT 9 13
REMARK Flexibility Score: inf
ROOT
ATOM      1  C   UNL     1      -9.422  -6.984   1.314  1.00  0.00     0.016 A 
ATOM      2  C   UNL     1      -9.880  -5.701   1.632  1.00  0.00     0.047 A 
ATOM      3  C   UNL     1      -9.662  -5.168   2.908  1.00  0.00     0.119 A 
ATOM      4  C   UNL     1      -8.981  -5.923   3.874  1.00  0.00     0.094 A 
ATOM      5  C   UNL     1      -8.519  -7.207   3.566  1.00  0.00     0.142 A 
ATOM      6  C   UNL     1      -8.741  -7.741   2.277  1.00  0.00     0.018 A 
ATOM      7  C   UNL     1      -8.268  -9.028   1.998  1.00  0.00     0.019 A 
ATOM      8  C   UNL     1      -7.597  -9.740   2.991  1.00  0.00     0.094 A 
ATOM      9  C   UNL     1      -7.413  -9.147   4.245  1.00  0.00     0.336 A 
ATOM     10  O   UNL     1      -6.810  -9.775   5.154  1.00  0.00    -0.246 OA
ATOM     11  O   UNL     1      -7.874  -7.922   4.484  1.00  0.00    -0.423 OA
ENDROOT
BRANCH   3  12
ATOM     12  O   UNL     1     -10.125  -3.888   3.205  1.00  0.00    -0.508 OA
ATOM     13  H   UNL     1     -10.115  -3.529   4.153  1.00  0.00     0.293 HD
ENDBRANCH   3  12
TORSDOF 1
ENDMDL
MODEL 6
REMARK VINA RESULT:    -3.149     16.557     17.350
REMARK INTER + INTRA:          -3.241
REMARK INTER:                  -3.241
REMARK INTRA:                   0.000
REMARK UNBOUND:                 0.000
REMARK SMILES O=c1ccc2ccc(O)cc2o1
REMARK SMILES IDX 6 1 7 2 8 3 10 4 11 5 5 6 4 7 3 8 2 9 1 10 12 11 9 12
REMARK H PARENT 9 13
REMARK Flexibility Score: inf
ROOT
ATOM      1  C   UNL     1      -9.887  -6.362   1.685  1.00  0.00     0.016 A 
ATOM      2  C   UNL     1      -9.371  -7.661   1.611  1.00  0.00     0.047 A 
ATOM      3  C   UNL     1      -8.595  -8.174   2.657  1.00  0.00     0.119 A 
ATOM      4  C   UNL     1      -8.333  -7.384   3.785  1.00  0.00     0.094 A 
ATOM      5  C   UNL     1      -8.843  -6.085   3.868  1.00  0.00     0.142 A 
ATOM      6  C   UNL     1      -9.625  -5.570   2.811  1.00  0.00     0.018 A 
ATOM      7  C   UNL     1     -10.123  -4.268   2.922  1.00  0.00     0.019 A 
ATOM      8  C   UNL     1      -9.835  -3.521   4.063  1.00  0.00     0.094 A 
ATOM      9  C   UNL     1      -9.053  -4.096   5.071  1.00  0.00     0.336 A 
ATOM     10  O   UNL     1      -8.781  -3.437   6.109  1.00  0.00    -0.246 OA
ATOM     11  O   UNL     1      -8.592  -5.337   4.940  1.00  0.00    -0.423 OA
ENDROOT
BRANCH   3  12
ATOM     12  O   UNL     1      -8.091  -9.470   2.565  1.00  0.00    -0.508 OA
ATOM     13  H   UNL     1      -7.550  -9.771   1.763  1.00  0.00     0.293 HD
ENDBRANCH   3  12
TORSDOF 1
ENDMDL
MODEL 7
REMARK VINA RESULT:    -3.145     16.274     17.074
REMARK INTER + INTRA:          -3.237
REMARK INTER:                  -3.237
REMARK INTRA:                   0.000
REMARK UNBOUND:                 0.000
REMARK SMILES O=c1ccc2ccc(O)cc2o1
REMARK SMILES IDX 6 1 7 2 8 3 10 4 11 5 5 6 4 7 3 8 2 9 1 10 12 11 9 12
REMARK H PARENT 9 13
REMARK Flexibility Score: inf
ROOT
ATOM      1  C   UNL     1      -8.525  -8.826   2.197  1.00  0.00     0.016 A 
ATOM      2  C   UNL     1      -7.787  -9.476   3.192  1.00  0.00     0.047 A 
ATOM      3  C   UNL     1      -7.479  -8.819   4.389  1.00  0.00     0.119 A 
ATOM      4  C   UNL     1      -7.913  -7.501   4.593  1.00  0.00     0.094 A 
ATOM      5  C   UNL     1      -8.651  -6.842   3.605  1.00  0.00     0.142 A 
ATOM      6  C   UNL     1      -8.959  -7.509   2.398  1.00  0.00     0.018 A 
ATOM      7  C   UNL     1      -9.699  -6.825   1.428  1.00  0.00     0.019 A 
ATOM      8  C   UNL     1     -10.107  -5.516   1.677  1.00  0.00     0.094 A 
ATOM      9  C   UNL     1      -9.766  -4.918   2.895  1.00  0.00     0.336 A 
ATOM     10  O   UNL     1     -10.125  -3.736   3.138  1.00  0.00    -0.246 OA
ATOM     11  O   UNL     1      -9.061  -5.591   3.801  1.00  0.00    -0.423 OA
ENDROOT
BRANCH   3  12
ATOM     12  O   UNL     1      -6.744  -9.483   5.368  1.00  0.00    -0.508 OA
ATOM     13  H   UNL     1      -6.735 -10.495   5.427  1.00  0.00     0.293 HD
ENDBRANCH   3  12
TORSDOF 1
ENDMDL
MODEL 8
REMARK VINA RESULT:    -3.043     17.174     17.638
REMARK INTER + INTRA:          -3.132
REMARK INTER:                  -3.132
REMARK INTRA:                   0.000
REMARK UNBOUND:                 0.000
REMARK SMILES O=c1ccc2ccc(O)cc2o1
REMARK SMILES IDX 6 1 7 2 8 3 10 4 11 5 5 6 4 7 3 8 2 9 1 10 12 11 9 12
REMARK H PARENT 9 13
REMARK Flexibility Score: inf
ROOT
ATOM      1  C   UNL     1      -9.323  -3.347   5.782  1.00  0.00     0.016 A 
ATOM      2  C   UNL     1      -9.505  -1.962   5.716  1.00  0.00     0.047 A 
ATOM      3  C   UNL     1      -9.884  -1.353   4.514  1.00  0.00     0.119 A 
ATOM      4  C   UNL     1     -10.082  -2.136   3.367  1.00  0.00     0.094 A 
ATOM      5  C   UNL     1      -9.902  -3.522   3.422  1.00  0.00     0.142 A 
ATOM      6  C   UNL     1      -9.519  -4.131   4.637  1.00  0.00     0.018 A 
ATOM      7  C   UNL     1      -9.348  -5.520   4.661  1.00  0.00     0.019 A 
ATOM      8  C   UNL     1      -9.556  -6.255   3.496  1.00  0.00     0.094 A 
ATOM      9  C   UNL     1      -9.933  -5.583   2.328  1.00  0.00     0.336 A 
ATOM     10  O   UNL     1     -10.125  -6.230   1.265  1.00  0.00    -0.246 OA
ATOM     11  O   UNL     1     -10.090  -4.262   2.332  1.00  0.00    -0.423 OA
ENDROOT
BRANCH   3  12
ATOM     12  O   UNL     1     -10.061   0.028   4.470  1.00  0.00    -0.508 OA
ATOM     13  H   UNL     1     -10.983   0.440   4.392  1.00  0.00     0.293 HD
ENDBRANCH   3  12
TORSDOF 1
ENDMDL
MODEL 9
REMARK VINA RESULT:    -3.000      3.138      5.203
REMARK INTER + INTRA:          -3.088
REMARK INTER:                  -3.088
REMARK INTRA:                   0.000
REMARK UNBOUND:                 0.000
REMARK SMILES O=c1ccc2ccc(O)cc2o1
REMARK SMILES IDX 6 1 7 2 8 3 10 4 11 5 5 6 4 7 3 8 2 9 1 10 12 11 9 12
REMARK H PARENT 9 13
REMARK Flexibility Score: inf
ROOT
ATOM      1  C   UNL     1     -10.120  -9.387  -9.790  1.00  0.00     0.016 A 
ATOM      2  C   UNL     1      -9.447  -9.800  -8.635  1.00  0.00     0.047 A 
ATOM      3  C   UNL     1      -8.053  -9.709  -8.557  1.00  0.00     0.119 A 
ATOM      4  C   UNL     1      -7.324  -9.201  -9.642  1.00  0.00     0.094 A 
ATOM      5  C   UNL     1      -7.987  -8.786 -10.802  1.00  0.00     0.142 A 
ATOM      6  C   UNL     1      -9.394  -8.880 -10.876  1.00  0.00     0.018 A 
ATOM      7  C   UNL     1     -10.029  -8.456 -12.049  1.00  0.00     0.019 A 
ATOM      8  C   UNL     1      -9.262  -7.959 -13.101  1.00  0.00     0.094 A 
ATOM      9  C   UNL     1      -7.872  -7.895 -12.956  1.00  0.00     0.336 A 
ATOM     10  O   UNL     1      -7.162  -7.450 -13.896  1.00  0.00    -0.246 OA
ATOM     11  O   UNL     1      -7.293  -8.305 -11.830  1.00  0.00    -0.423 OA
ENDROOT
BRANCH   3  12
ATOM     12  O   UNL     1      -7.402 -10.125  -7.398  1.00  0.00    -0.508 OA
ATOM     13  H   UNL     1      -7.255 -11.107  -7.197  1.00  0.00     0.293 HD
ENDBRANCH   3  12
TORSDOF 1
ENDMDL
