MODEL 1
REMARK VINA RESULT:    -4.053      0.000      0.000
REMARK INTER + INTRA:          -4.896
REMARK INTER:                  -4.764
REMARK INTRA:                  -0.132
REMARK UNBOUND:                -0.132
REMARK SMILES O=C([O-])C=Cc1ccc(O)c(O)c1
REMARK SMILES IDX 6 1 13 2 7 3 11 4 8 5 9 6 5 7 4 8 2 9 1 10 3 11 12 12 10 14
REMARK H PARENT 12 13 10 15
REMARK Flexibility Score: inf
ROOT
ATOM      1  C   UNL     1      53.434  54.537  47.649  1.00  0.00    -0.022 A 
ATOM      2  C   UNL     1      52.710  55.588  47.060  1.00  0.00     0.058 A 
ATOM      3  C   UNL     1      54.523  53.985  46.946  1.00  0.00     0.012 A 
ATOM      4  C   UNL     1      53.079  56.099  45.807  1.00  0.00     0.157 A 
ATOM      5  C   UNL     1      54.890  54.493  45.698  1.00  0.00     0.051 A 
ATOM      6  C   UNL     1      54.175  55.549  45.125  1.00  0.00     0.157 A 
ENDROOT
BRANCH   1   7
ATOM      7  C   UNL     1      52.995  54.027  48.972  1.00  0.00     0.010 C 
ATOM      8  C   UNL     1      52.540  52.783  49.176  1.00  0.00     0.025 C 
BRANCH   8   9
ATOM      9  C   UNL     1      52.126  52.316  50.509  1.00  0.00     0.064 C 
ATOM     10  O   UNL     1      51.625  53.131  51.326  1.00  0.00    -0.545 OA
ATOM     11  O   UNL     1      52.282  50.985  50.883  1.00  0.00    -0.545 OA
ENDBRANCH   8   9
ENDBRANCH   1   7
BRANCH   4  12
ATOM     12  O   UNL     1      52.358  57.149  45.240  1.00  0.00    -0.504 OA
ATOM     13  H   UNL     1      52.803  58.021  44.981  1.00  0.00     0.293 HD
ENDBRANCH   4  12
BRANCH   6  14
ATOM     14  O   UNL     1      54.568  56.036  43.878  1.00  0.00    -0.504 OA
ATOM     15  H   UNL     1      55.410  55.716  43.416  1.00  0.00     0.293 HD
ENDBRANCH   6  14
TORSDOF 4
ENDMDL
MODEL 2
REMARK VINA RESULT:    -3.917      1.385      1.827
REMARK INTER + INTRA:          -4.736
REMARK INTER:                  -4.603
REMARK INTRA:                  -0.132
REMARK UNBOUND:                -0.132
REMARK SMILES O=C([O-])C=Cc1ccc(O)c(O)c1
REMARK SMILES IDX 6 1 13 2 7 3 11 4 8 5 9 6 5 7 4 8 2 9 1 10 3 11 12 12 10 14
REMARK H PARENT 12 13 10 15
REMARK Flexibility Score: inf
ROOT
ATOM      1  C   UNL     1      53.292  55.082  47.071  1.00  0.00    -0.022 A 
ATOM      2  C   UNL     1      52.753  56.300  47.520  1.00  0.00     0.058 A 
ATOM      3  C   UNL     1      54.061  55.073  45.891  1.00  0.00     0.012 A 
ATOM      4  C   UNL     1      52.997  57.492  46.822  1.00  0.00     0.157 A 
ATOM      5  C   UNL     1      54.303  56.260  45.195  1.00  0.00     0.051 A 
ATOM      6  C   UNL     1      53.777  57.470  45.655  1.00  0.00     0.157 A 
ENDROOT
BRANCH   1   7
ATOM      7  C   UNL     1      52.996  53.848  47.841  1.00  0.00     0.010 C 
ATOM      8  C   UNL     1      52.794  53.828  49.165  1.00  0.00     0.025 C 
BRANCH   8   9
ATOM      9  C   UNL     1      52.491  52.581  49.887  1.00  0.00     0.064 C 
ATOM     10  O   UNL     1      52.974  51.494  49.480  1.00  0.00    -0.545 OA
ATOM     11  O   UNL     1      51.676  52.585  51.014  1.00  0.00    -0.545 OA
ENDBRANCH   8   9
ENDBRANCH   1   7
BRANCH   4  12
ATOM     12  O   UNL     1      52.465  58.694  47.285  1.00  0.00    -0.504 OA
ATOM     13  H   UNL     1      53.057  59.482  47.523  1.00  0.00     0.293 HD
ENDBRANCH   4  12
BRANCH   6  14
ATOM     14  O   UNL     1      54.039  58.639  44.940  1.00  0.00    -0.504 OA
ATOM     15  H   UNL     1      53.299  59.256  44.629  1.00  0.00     0.293 HD
ENDBRANCH   6  14
TORSDOF 4
ENDMDL
MODEL 3
REMARK VINA RESULT:    -3.899      1.252      5.785
REMARK INTER + INTRA:          -4.715
REMARK INTER:                  -4.582
REMARK INTRA:                  -0.133
REMARK UNBOUND:                -0.132
REMARK SMILES O=C([O-])C=Cc1ccc(O)c(O)c1
REMARK SMILES IDX 6 1 13 2 7 3 11 4 8 5 9 6 5 7 4 8 2 9 1 10 3 11 12 12 10 14
REMARK H PARENT 12 13 10 15
REMARK Flexibility Score: inf
ROOT
ATOM      1  C   UNL     1      53.304  53.063  48.004  1.00  0.00    -0.022 A 
ATOM      2  C   UNL     1      52.389  53.337  49.036  1.00  0.00     0.058 A 
ATOM      3  C   UNL     1      54.126  51.925  48.110  1.00  0.00     0.012 A 
ATOM      4  C   UNL     1      52.274  52.478  50.139  1.00  0.00     0.157 A 
ATOM      5  C   UNL     1      54.013  51.070  49.209  1.00  0.00     0.051 A 
ATOM      6  C   UNL     1      53.090  51.339  50.223  1.00  0.00     0.157 A 
ENDROOT
BRANCH   1   7
ATOM      7  C   UNL     1      53.391  54.010  46.864  1.00  0.00     0.010 C 
ATOM      8  C   UNL     1      52.774  55.198  46.834  1.00  0.00     0.025 C 
BRANCH   8   9
ATOM      9  C   UNL     1      52.898  56.111  45.686  1.00  0.00     0.064 C 
ATOM     10  O   UNL     1      53.944  56.797  45.548  1.00  0.00    -0.545 OA
ATOM     11  O   UNL     1      51.877  56.230  44.750  1.00  0.00    -0.545 OA
ENDBRANCH   8   9
ENDBRANCH   1   7
BRANCH   4  12
ATOM     12  O   UNL     1      51.355  52.756  51.149  1.00  0.00    -0.504 OA
ATOM     13  H   UNL     1      51.464  53.555  51.763  1.00  0.00     0.293 HD
ENDBRANCH   4  12
BRANCH   6  14
ATOM     14  O   UNL     1      52.999  50.465  51.307  1.00  0.00    -0.504 OA
ATOM     15  H   UNL     1      53.474  50.643  52.183  1.00  0.00     0.293 HD
ENDBRANCH   6  14
TORSDOF 4
ENDMDL
MODEL 4
REMARK VINA RESULT:    -3.843      1.386      5.924
REMARK INTER + INTRA:          -4.650
REMARK INTER:                  -4.513
REMARK INTRA:                  -0.136
REMARK UNBOUND:                -0.132
REMARK SMILES O=C([O-])C=Cc1ccc(O)c(O)c1
REMARK SMILES IDX 6 1 13 2 7 3 11 4 8 5 9 6 5 7 4 8 2 9 1 10 3 11 12 12 10 14
REMARK H PARENT 12 13 10 15
REMARK Flexibility Score: inf
ROOT
ATOM      1  C   UNL     1      53.090  54.314  47.919  1.00  0.00    -0.022 A 
ATOM      2  C   UNL     1      53.005  52.918  48.052  1.00  0.00     0.058 A 
ATOM      3  C   UNL     1      53.127  55.106  49.084  1.00  0.00     0.012 A 
ATOM      4  C   UNL     1      52.984  52.317  49.319  1.00  0.00     0.157 A 
ATOM      5  C   UNL     1      53.105  54.508  50.346  1.00  0.00     0.051 A 
ATOM      6  C   UNL     1      53.036  53.118  50.471  1.00  0.00     0.157 A 
ENDROOT
BRANCH   1   7
ATOM      7  C   UNL     1      53.099  54.898  46.555  1.00  0.00     0.010 C 
ATOM      8  C   UNL     1      52.278  55.881  46.161  1.00  0.00     0.025 C 
BRANCH   8   9
ATOM      9  C   UNL     1      52.330  56.439  44.800  1.00  0.00     0.064 C 
ATOM     10  O   UNL     1      53.417  56.887  44.353  1.00  0.00    -0.545 OA
ATOM     11  O   UNL     1      51.194  56.482  43.998  1.00  0.00    -0.545 OA
ENDBRANCH   8   9
ENDBRANCH   1   7
BRANCH   4  12
ATOM     12  O   UNL     1      52.909  50.930  49.435  1.00  0.00    -0.504 OA
ATOM     13  H   UNL     1      52.459  50.360  48.728  1.00  0.00     0.293 HD
ENDBRANCH   4  12
BRANCH   6  14
ATOM     14  O   UNL     1      53.018  52.551  51.746  1.00  0.00    -0.504 OA
ATOM     15  H   UNL     1      52.155  52.295  52.208  1.00  0.00     0.293 HD
ENDBRANCH   6  14
TORSDOF 4
ENDMDL
MODEL 5
REMARK VINA RESULT:    -3.801      1.182      2.120
REMARK INTER + INTRA:          -4.600
REMARK INTER:                  -4.465
REMARK INTRA:                  -0.135
REMARK UNBOUND:                -0.132
REMARK SMILES O=C([O-])C=Cc1ccc(O)c(O)c1
REMARK SMILES IDX 6 1 13 2 7 3 11 4 8 5 9 6 5 7 4 8 2 9 1 10 3 11 12 12 10 14
REMARK H PARENT 12 13 10 15
REMARK Flexibility Score: inf
ROOT
ATOM      1  C   UNL     1      53.211  53.994  47.562  1.00  0.00    -0.022 A 
ATOM      2  C   UNL     1      54.374  53.363  47.089  1.00  0.00     0.058 A 
ATOM      3  C   UNL     1      52.769  55.170  46.925  1.00  0.00     0.012 A 
ATOM      4  C   UNL     1      55.070  53.876  45.985  1.00  0.00     0.157 A 
ATOM      5  C   UNL     1      53.464  55.683  45.827  1.00  0.00     0.051 A 
ATOM      6  C   UNL     1      54.611  55.041  45.351  1.00  0.00     0.157 A 
ENDROOT
BRANCH   1   7
ATOM      7  C   UNL     1      52.517  53.414  48.739  1.00  0.00     0.010 C 
ATOM      8  C   UNL     1      53.013  52.411  49.476  1.00  0.00     0.025 C 
BRANCH   8   9
ATOM      9  C   UNL     1      52.295  51.874  50.643  1.00  0.00     0.064 C 
ATOM     10  O   UNL     1      51.627  52.651  51.373  1.00  0.00    -0.545 OA
ATOM     11  O   UNL     1      52.345  50.520  50.955  1.00  0.00    -0.545 OA
ENDBRANCH   8   9
ENDBRANCH   1   7
BRANCH   4  12
ATOM     12  O   UNL     1      56.217  53.233  45.520  1.00  0.00    -0.504 OA
ATOM     13  H   UNL     1      57.042  53.134  46.099  1.00  0.00     0.293 HD
ENDBRANCH   4  12
BRANCH   6  14
ATOM     14  O   UNL     1      55.281  55.576  44.251  1.00  0.00    -0.504 OA
ATOM     15  H   UNL     1      56.237  55.903  44.310  1.00  0.00     0.293 HD
ENDBRANCH   6  14
TORSDOF 4
ENDMDL
MODEL 6
REMARK VINA RESULT:    -3.723      1.387      5.808
REMARK INTER + INTRA:          -4.508
REMARK INTER:                  -4.382
REMARK INTRA:                  -0.126
REMARK UNBOUND:                -0.132
REMARK SMILES O=C([O-])C=Cc1ccc(O)c(O)c1
REMARK SMILES IDX 6 1 13 2 7 3 11 4 8 5 9 6 5 7 4 8 2 9 1 10 3 11 12 12 10 14
REMARK H PARENT 12 13 10 15
REMARK Flexibility Score: inf
ROOT
ATOM      1  C   UNL     1      52.896  54.385  48.061  1.00  0.00    -0.022 A 
ATOM      2  C   UNL     1      53.091  55.313  49.098  1.00  0.00     0.058 A 
ATOM      3  C   UNL     1      52.522  53.068  48.389  1.00  0.00     0.012 A 
ATOM      4  C   UNL     1      52.890  54.945  50.437  1.00  0.00     0.157 A 
ATOM      5  C   UNL     1      52.324  52.700  49.722  1.00  0.00     0.051 A 
ATOM      6  C   UNL     1      52.503  53.632  50.748  1.00  0.00     0.157 A 
ENDROOT
BRANCH   1   7
ATOM      7  C   UNL     1      53.132  54.824  46.663  1.00  0.00     0.010 C 
ATOM      8  C   UNL     1      52.530  55.883  46.104  1.00  0.00     0.025 C 
BRANCH   8   9
ATOM      9  C   UNL     1      52.803  56.290  44.715  1.00  0.00     0.064 C 
ATOM     10  O   UNL     1      51.859  56.333  43.884  1.00  0.00    -0.545 OA
ATOM     11  O   UNL     1      54.088  56.627  44.306  1.00  0.00    -0.545 OA
ENDBRANCH   8   9
ENDBRANCH   1   7
BRANCH   4  12
ATOM     12  O   UNL     1      53.076  55.879  51.455  1.00  0.00    -0.504 OA
ATOM     13  H   UNL     1      52.786  55.692  52.408  1.00  0.00     0.293 HD
ENDBRANCH   4  12
BRANCH   6  14
ATOM     14  O   UNL     1      52.294  53.235  52.069  1.00  0.00    -0.504 OA
ATOM     15  H   UNL     1      52.356  52.266  52.356  1.00  0.00     0.293 HD
ENDBRANCH   6  14
TORSDOF 4
ENDMDL
MODEL 7
REMARK VINA RESULT:    -3.720      4.535      5.709
REMARK INTER + INTRA:          -4.504
REMARK INTER:                  -4.377
REMARK INTRA:                  -0.127
REMARK UNBOUND:                -0.132
REMARK SMILES O=C([O-])C=Cc1ccc(O)c(O)c1
REMARK SMILES IDX 6 1 13 2 7 3 11 4 8 5 9 6 5 7 4 8 2 9 1 10 3 11 12 12 10 14
REMARK H PARENT 12 13 10 15
REMARK Flexibility Score: inf
ROOT
ATOM      1  C   UNL     1      53.201  55.050  51.854  1.00  0.00    -0.022 A 
ATOM      2  C   UNL     1      52.154  55.876  51.412  1.00  0.00     0.058 A 
ATOM      3  C   UNL     1      54.039  55.511  52.888  1.00  0.00     0.012 A 
ATOM      4  C   UNL     1      51.926  57.126  52.006  1.00  0.00     0.157 A 
ATOM      5  C   UNL     1      53.814  56.757  53.479  1.00  0.00     0.051 A 
ATOM      6  C   UNL     1      52.760  57.566  53.046  1.00  0.00     0.157 A 
ENDROOT
BRANCH   1   7
ATOM      7  C   UNL     1      53.404  53.741  51.185  1.00  0.00     0.010 C 
ATOM      8  C   UNL     1      52.450  52.807  51.072  1.00  0.00     0.025 C 
BRANCH   8   9
ATOM      9  C   UNL     1      52.693  51.526  50.389  1.00  0.00     0.064 C 
ATOM     10  O   UNL     1      52.356  50.450  50.948  1.00  0.00    -0.545 OA
ATOM     11  O   UNL     1      53.290  51.484  49.134  1.00  0.00    -0.545 OA
ENDBRANCH   8   9
ENDBRANCH   1   7
BRANCH   4  12
ATOM     12  O   UNL     1      50.876  57.930  51.564  1.00  0.00    -0.504 OA
ATOM     13  H   UNL     1      49.913  57.618  51.606  1.00  0.00     0.293 HD
ENDBRANCH   4  12
BRANCH   6  14
ATOM     14  O   UNL     1      52.559  58.804  53.658  1.00  0.00    -0.504 OA
ATOM     15  H   UNL     1      51.635  59.201  53.776  1.00  0.00     0.293 HD
ENDBRANCH   6  14
TORSDOF 4
ENDMDL
MODEL 8
REMARK VINA RESULT:    -3.691      1.604      6.113
REMARK INTER + INTRA:          -4.471
REMARK INTER:                  -4.340
REMARK INTRA:                  -0.131
REMARK UNBOUND:                -0.132
REMARK SMILES O=C([O-])C=Cc1ccc(O)c(O)c1
REMARK SMILES IDX 6 1 13 2 7 3 11 4 8 5 9 6 5 7 4 8 2 9 1 10 3 11 12 12 10 14
REMARK H PARENT 12 13 10 15
REMARK Flexibility Score: inf
ROOT
ATOM      1  C   UNL     1      52.943  53.279  49.132  1.00  0.00    -0.022 A 
ATOM      2  C   UNL     1      53.682  52.166  48.697  1.00  0.00     0.058 A 
ATOM      3  C   UNL     1      52.167  53.165  50.301  1.00  0.00     0.012 A 
ATOM      4  C   UNL     1      53.671  50.968  49.427  1.00  0.00     0.157 A 
ATOM      5  C   UNL     1      52.154  51.972  51.029  1.00  0.00     0.051 A 
ATOM      6  C   UNL     1      52.904  50.873  50.599  1.00  0.00     0.157 A 
ENDROOT
BRANCH   1   7
ATOM      7  C   UNL     1      52.982  54.519  48.317  1.00  0.00     0.010 C 
ATOM      8  C   UNL     1      53.057  54.528  46.979  1.00  0.00     0.025 C 
BRANCH   8   9
ATOM      9  C   UNL     1      53.082  55.783  46.209  1.00  0.00     0.064 C 
ATOM     10  O   UNL     1      53.542  55.785  45.039  1.00  0.00    -0.545 OA
ATOM     11  O   UNL     1      52.604  56.969  46.756  1.00  0.00    -0.545 OA
ENDBRANCH   8   9
ENDBRANCH   1   7
BRANCH   4  12
ATOM     12  O   UNL     1      54.418  49.875  48.990  1.00  0.00    -0.504 OA
ATOM     13  H   UNL     1      55.335  49.990  48.574  1.00  0.00     0.293 HD
ENDBRANCH   4  12
BRANCH   6  14
ATOM     14  O   UNL     1      52.874  49.696  51.348  1.00  0.00    -0.504 OA
ATOM     15  H   UNL     1      52.407  49.641  52.245  1.00  0.00     0.293 HD
ENDBRANCH   6  14
TORSDOF 4
ENDMDL
MODEL 9
REMARK VINA RESULT:    -3.632     13.837     15.665
REMARK INTER + INTRA:          -4.401
REMARK INTER:                  -4.268
REMARK INTRA:                  -0.133
REMARK UNBOUND:                -0.132
REMARK SMILES O=C([O-])C=Cc1ccc(O)c(O)c1
REMARK SMILES IDX 6 1 13 2 7 3 11 4 8 5 9 6 5 7 4 8 2 9 1 10 3 11 12 12 10 14
REMARK H PARENT 12 13 10 15
REMARK Flexibility Score: inf
ROOT
ATOM      1  C   UNL     1      51.274  51.033  61.490  1.00  0.00    -0.022 A 
ATOM      2  C   UNL     1      50.326  50.656  62.456  1.00  0.00     0.058 A 
ATOM      3  C   UNL     1      52.074  50.036  60.898  1.00  0.00     0.012 A 
ATOM      4  C   UNL     1      50.157  49.309  62.808  1.00  0.00     0.157 A 
ATOM      5  C   UNL     1      51.906  48.694  61.248  1.00  0.00     0.051 A 
ATOM      6  C   UNL     1      50.950  48.325  62.199  1.00  0.00     0.157 A 
ENDROOT
BRANCH   1   7
ATOM      7  C   UNL     1      51.420  52.473  61.162  1.00  0.00     0.010 C 
ATOM      8  C   UNL     1      50.500  53.401  61.460  1.00  0.00     0.025 C 
BRANCH   8   9
ATOM      9  C   UNL     1      50.691  54.822  61.126  1.00  0.00     0.064 C 
ATOM     10  O   UNL     1      49.870  55.676  61.548  1.00  0.00    -0.545 OA
ATOM     11  O   UNL     1      51.767  55.237  60.348  1.00  0.00    -0.545 OA
ENDBRANCH   8   9
ENDBRANCH   1   7
BRANCH   4  12
ATOM     12  O   UNL     1      49.204  48.949  63.760  1.00  0.00    -0.504 OA
ATOM     13  H   UNL     1      48.730  49.642  64.327  1.00  0.00     0.293 HD
ENDBRANCH   4  12
BRANCH   6  14
ATOM     14  O   UNL     1      50.805  46.976  62.526  1.00  0.00    -0.504 OA
ATOM     15  H   UNL     1      51.146  46.237  61.924  1.00  0.00     0.293 HD
ENDBRANCH   6  14
TORSDOF 4
ENDMDL
