MODEL 1
REMARK VINA RESULT:    -4.246      0.000      0.000
REMARK INTER + INTRA:          -7.828
REMARK INTER:                  -6.480
REMARK INTRA:                  -1.348
REMARK UNBOUND:                -1.348
REMARK SMILES CCCCCCCCCCC(=O)[O-]
REMARK SMILES IDX 7 1 8 2 9 3 10 4 11 5 12 6 13 7 6 8 5 9 4 10 3 11 2 12 1 13
REMARK H PARENT
REMARK Flexibility Score: inf
ROOT
ATOM      1  C   UNL     1     159.928 161.006 147.831  1.00  0.00     0.000 C 
ENDROOT
BRANCH   1   2
ATOM      2  C   UNL     1     161.069 161.195 148.846  1.00  0.00     0.000 C 
BRANCH   2   3
ATOM      3  C   UNL     1     160.610 161.802 150.189  1.00  0.00     0.006 C 
BRANCH   3   4
ATOM      4  C   UNL     1     159.160 162.304 150.132  1.00  0.00     0.053 C 
BRANCH   4   5
ATOM      5  C   UNL     1     158.630 162.531 151.510  1.00  0.00     0.041 C 
ATOM      6  O   UNL     1     157.834 163.481 151.735  1.00  0.00    -0.550 OA
ATOM      7  O   UNL     1     158.975 161.664 152.540  1.00  0.00    -0.550 OA
ENDBRANCH   4   5
ENDBRANCH   3   4
ENDBRANCH   2   3
ENDBRANCH   1   2
BRANCH   1   8
ATOM      8  C   UNL     1     159.991 159.651 147.108  1.00  0.00     0.000 C 
BRANCH   8   9
ATOM      9  C   UNL     1     159.566 158.481 148.008  1.00  0.00    -0.000 C 
BRANCH   9  10
ATOM     10  C   UNL     1     158.363 158.828 148.904  1.00  0.00    -0.000 C 
BRANCH  10  11
ATOM     11  C   UNL     1     158.596 158.454 150.376  1.00  0.00    -0.000 C 
BRANCH  11  12
ATOM     12  C   UNL     1     160.052 158.057 150.660  1.00  0.00    -0.003 C 
ATOM     13  C   UNL     1     160.487 158.522 152.047  1.00  0.00     0.004 C 
ENDBRANCH  11  12
ENDBRANCH  10  11
ENDBRANCH   9  10
ENDBRANCH   8   9
ENDBRANCH   1   8
TORSDOF 9
ENDMDL
MODEL 2
REMARK VINA RESULT:    -4.215      1.242      3.238
REMARK INTER + INTRA:          -7.782
REMARK INTER:                  -6.534
REMARK INTRA:                  -1.247
REMARK UNBOUND:                -1.348
REMARK SMILES CCCCCCCCCCC(=O)[O-]
REMARK SMILES IDX 7 1 8 2 9 3 10 4 11 5 12 6 13 7 6 8 5 9 4 10 3 11 2 12 1 13
REMARK H PARENT
REMARK Flexibility Score: inf
ROOT
ATOM      1  C   UNL     1     158.884 157.794 149.435  1.00  0.00     0.000 C 
ENDROOT
BRANCH   1   2
ATOM      2  C   UNL     1     160.158 157.687 150.291  1.00  0.00     0.000 C 
BRANCH   2   3
ATOM      3  C   UNL     1     160.176 158.647 151.499  1.00  0.00     0.006 C 
BRANCH   3   4
ATOM      4  C   UNL     1     158.950 159.572 151.522  1.00  0.00     0.053 C 
BRANCH   4   5
ATOM      5  C   UNL     1     159.203 160.754 152.400  1.00  0.00     0.041 C 
ATOM      6  O   UNL     1     159.617 160.593 153.579  1.00  0.00    -0.550 OA
ATOM      7  O   UNL     1     159.029 162.040 151.902  1.00  0.00    -0.550 OA
ENDBRANCH   4   5
ENDBRANCH   3   4
ENDBRANCH   2   3
ENDBRANCH   1   2
BRANCH   1   8
ATOM      8  C   UNL     1     159.184 157.929 147.933  1.00  0.00     0.000 C 
BRANCH   8   9
ATOM      9  C   UNL     1     160.321 158.922 147.645  1.00  0.00    -0.000 C 
BRANCH   9  10
ATOM     10  C   UNL     1     159.804 160.309 147.221  1.00  0.00    -0.000 C 
BRANCH  10  11
ATOM     11  C   UNL     1     159.914 161.349 148.347  1.00  0.00    -0.000 C 
BRANCH  11  12
ATOM     12  C   UNL     1     161.252 161.271 149.094  1.00  0.00    -0.003 C 
ATOM     13  C   UNL     1     161.746 162.661 149.483  1.00  0.00     0.004 C 
ENDBRANCH  11  12
ENDBRANCH  10  11
ENDBRANCH   9  10
ENDBRANCH   8   9
ENDBRANCH   1   8
TORSDOF 9
ENDMDL
MODEL 3
REMARK VINA RESULT:    -4.212      2.099      3.353
REMARK INTER + INTRA:          -7.776
REMARK INTER:                  -6.395
REMARK INTRA:                  -1.381
REMARK UNBOUND:                -1.348
REMARK SMILES CCCCCCCCCCC(=O)[O-]
REMARK SMILES IDX 7 1 8 2 9 3 10 4 11 5 12 6 13 7 6 8 5 9 4 10 3 11 2 12 1 13
REMARK H PARENT
REMARK Flexibility Score: inf
ROOT
ATOM      1  C   UNL     1     160.458 162.130 149.916  1.00  0.00     0.000 C 
ENDROOT
BRANCH   1   2
ATOM      2  C   UNL     1     159.106 161.637 150.461  1.00  0.00     0.000 C 
BRANCH   2   3
ATOM      3  C   UNL     1     159.237 160.648 151.640  1.00  0.00     0.006 C 
BRANCH   3   4
ATOM      4  C   UNL     1     160.631 160.008 151.707  1.00  0.00     0.053 C 
BRANCH   4   5
ATOM      5  C   UNL     1     160.581 158.723 152.469  1.00  0.00     0.041 C 
ATOM      6  O   UNL     1     160.409 158.732 153.717  1.00  0.00    -0.550 OA
ATOM      7  O   UNL     1     160.674 157.511 151.795  1.00  0.00    -0.550 OA
ENDBRANCH   4   5
ENDBRANCH   3   4
ENDBRANCH   2   3
ENDBRANCH   1   2
BRANCH   1   8
ATOM      8  C   UNL     1     160.566 162.002 148.388  1.00  0.00     0.000 C 
BRANCH   8   9
ATOM      9  C   UNL     1     159.919 160.714 147.855  1.00  0.00    -0.000 C 
BRANCH   9  10
ATOM     10  C   UNL     1     160.791 159.468 148.098  1.00  0.00    -0.000 C 
BRANCH  10  11
ATOM     11  C   UNL     1     159.955 158.211 148.390  1.00  0.00    -0.000 C 
BRANCH  11  12
ATOM     12  C   UNL     1     158.469 158.529 148.607  1.00  0.00    -0.003 C 
ATOM     13  C   UNL     1     157.879 157.663 149.717  1.00  0.00     0.004 C 
ENDBRANCH  11  12
ENDBRANCH  10  11
ENDBRANCH   9  10
ENDBRANCH   8   9
ENDBRANCH   1   8
TORSDOF 9
ENDMDL
MODEL 4
REMARK VINA RESULT:    -4.189      1.999      3.144
REMARK INTER + INTRA:          -7.741
REMARK INTER:                  -6.391
REMARK INTRA:                  -1.349
REMARK UNBOUND:                -1.348
REMARK SMILES CCCCCCCCCCC(=O)[O-]
REMARK SMILES IDX 7 1 8 2 9 3 10 4 11 5 12 6 13 7 6 8 5 9 4 10 3 11 2 12 1 13
REMARK H PARENT
REMARK Flexibility Score: inf
ROOT
ATOM      1  C   UNL     1     159.443 158.585 147.733  1.00  0.00     0.000 C 
ENDROOT
BRANCH   1   2
ATOM      2  C   UNL     1     158.735 159.850 148.246  1.00  0.00     0.000 C 
BRANCH   2   3
ATOM      3  C   UNL     1     159.622 161.113 148.212  1.00  0.00     0.006 C 
BRANCH   3   4
ATOM      4  C   UNL     1     161.043 160.837 148.722  1.00  0.00     0.053 C 
BRANCH   4   5
ATOM      5  C   UNL     1     161.625 162.065 149.343  1.00  0.00     0.041 C 
ATOM      6  O   UNL     1     162.587 161.973 150.151  1.00  0.00    -0.550 OA
ATOM      7  O   UNL     1     161.139 163.319 148.993  1.00  0.00    -0.550 OA
ENDBRANCH   4   5
ENDBRANCH   3   4
ENDBRANCH   2   3
ENDBRANCH   1   2
BRANCH   1   8
ATOM      8  C   UNL     1     159.068 157.326 148.533  1.00  0.00     0.000 C 
BRANCH   8   9
ATOM      9  C   UNL     1     158.802 157.627 150.016  1.00  0.00    -0.000 C 
BRANCH   9  10
ATOM     10  C   UNL     1     160.086 157.600 150.866  1.00  0.00    -0.000 C 
BRANCH  10  11
ATOM     11  C   UNL     1     160.270 158.881 151.695  1.00  0.00    -0.000 C 
BRANCH  11  12
ATOM     12  C   UNL     1     158.952 159.637 151.914  1.00  0.00    -0.003 C 
ATOM     13  C   UNL     1     159.192 161.140 152.019  1.00  0.00     0.004 C 
ENDBRANCH  11  12
ENDBRANCH  10  11
ENDBRANCH   9  10
ENDBRANCH   8   9
ENDBRANCH   1   8
TORSDOF 9
ENDMDL
MODEL 5
REMARK VINA RESULT:    -4.167      2.742      4.284
REMARK INTER + INTRA:          -7.708
REMARK INTER:                  -6.443
REMARK INTRA:                  -1.265
REMARK UNBOUND:                -1.348
REMARK SMILES CCCCCCCCCCC(=O)[O-]
REMARK SMILES IDX 7 1 8 2 9 3 10 4 11 5 12 6 13 7 6 8 5 9 4 10 3 11 2 12 1 13
REMARK H PARENT
REMARK Flexibility Score: inf
ROOT
ATOM      1  C   UNL     1     160.942 159.847 148.513  1.00  0.00     0.000 C 
ENDROOT
BRANCH   1   2
ATOM      2  C   UNL     1     160.092 158.566 148.444  1.00  0.00     0.000 C 
BRANCH   2   3
ATOM      3  C   UNL     1     158.593 158.802 148.723  1.00  0.00     0.006 C 
BRANCH   3   4
ATOM      4  C   UNL     1     158.149 158.187 150.058  1.00  0.00     0.053 C 
BRANCH   4   5
ATOM      5  C   UNL     1     157.286 156.990 149.823  1.00  0.00     0.041 C 
ATOM      6  O   UNL     1     157.761 155.966 149.263  1.00  0.00    -0.550 OA
ATOM      7  O   UNL     1     155.969 156.983 150.267  1.00  0.00    -0.550 OA
ENDBRANCH   4   5
ENDBRANCH   3   4
ENDBRANCH   2   3
ENDBRANCH   1   2
BRANCH   1   8
ATOM      8  C   UNL     1     160.230 161.069 147.910  1.00  0.00     0.000 C 
BRANCH   8   9
ATOM      9  C   UNL     1     160.172 162.258 148.882  1.00  0.00    -0.000 C 
BRANCH   9  10
ATOM     10  C   UNL     1     160.468 161.849 150.337  1.00  0.00    -0.000 C 
BRANCH  10  11
ATOM     11  C   UNL     1     159.219 161.909 151.232  1.00  0.00    -0.000 C 
BRANCH  11  12
ATOM     12  C   UNL     1     159.252 160.870 152.360  1.00  0.00    -0.003 C 
ATOM     13  C   UNL     1     160.494 159.989 152.259  1.00  0.00     0.004 C 
ENDBRANCH  11  12
ENDBRANCH  10  11
ENDBRANCH   9  10
ENDBRANCH   8   9
ENDBRANCH   1   8
TORSDOF 9
ENDMDL
MODEL 6
REMARK VINA RESULT:    -4.156      1.727      2.605
REMARK INTER + INTRA:          -7.691
REMARK INTER:                  -6.379
REMARK INTRA:                  -1.311
REMARK UNBOUND:                -1.348
REMARK SMILES CCCCCCCCCCC(=O)[O-]
REMARK SMILES IDX 7 1 8 2 9 3 10 4 11 5 12 6 13 7 6 8 5 9 4 10 3 11 2 12 1 13
REMARK H PARENT
REMARK Flexibility Score: inf
ROOT
ATOM      1  C   UNL     1     160.458 162.161 149.984  1.00  0.00     0.000 C 
ENDROOT
BRANCH   1   2
ATOM      2  C   UNL     1     161.408 161.070 150.506  1.00  0.00     0.000 C 
BRANCH   2   3
ATOM      3  C   UNL     1     160.772 160.151 151.570  1.00  0.00     0.006 C 
BRANCH   3   4
ATOM      4  C   UNL     1     159.371 160.625 151.983  1.00  0.00     0.053 C 
BRANCH   4   5
ATOM      5  C   UNL     1     158.973 160.011 153.286  1.00  0.00     0.041 C 
ATOM      6  O   UNL     1     157.805 160.169 153.731  1.00  0.00    -0.550 OA
ATOM      7  O   UNL     1     159.875 159.221 153.987  1.00  0.00    -0.550 OA
ENDBRANCH   4   5
ENDBRANCH   3   4
ENDBRANCH   2   3
ENDBRANCH   1   2
BRANCH   1   8
ATOM      8  C   UNL     1     160.411 162.227 148.449  1.00  0.00     0.000 C 
BRANCH   8   9
ATOM      9  C   UNL     1     160.020 160.884 147.813  1.00  0.00    -0.000 C 
BRANCH   9  10
ATOM     10  C   UNL     1     158.596 160.439 148.193  1.00  0.00    -0.000 C 
BRANCH  10  11
ATOM     11  C   UNL     1     158.542 158.977 148.665  1.00  0.00    -0.000 C 
BRANCH  11  12
ATOM     12  C   UNL     1     159.857 158.226 148.412  1.00  0.00    -0.003 C 
ATOM     13  C   UNL     1     160.098 157.167 149.483  1.00  0.00     0.004 C 
ENDBRANCH  11  12
ENDBRANCH  10  11
ENDBRANCH   9  10
ENDBRANCH   8   9
ENDBRANCH   1   8
TORSDOF 9
ENDMDL
MODEL 7
REMARK VINA RESULT:    -4.125      1.444      3.819
REMARK INTER + INTRA:          -7.644
REMARK INTER:                  -6.379
REMARK INTRA:                  -1.265
REMARK UNBOUND:                -1.348
REMARK SMILES CCCCCCCCCCC(=O)[O-]
REMARK SMILES IDX 7 1 8 2 9 3 10 4 11 5 12 6 13 7 6 8 5 9 4 10 3 11 2 12 1 13
REMARK H PARENT
REMARK Flexibility Score: inf
ROOT
ATOM      1  C   UNL     1     159.645 158.216 147.982  1.00  0.00     0.000 C 
ENDROOT
BRANCH   1   2
ATOM      2  C   UNL     1     158.465 158.519 148.922  1.00  0.00     0.000 C 
BRANCH   2   3
ATOM      3  C   UNL     1     158.708 158.080 150.381  1.00  0.00     0.006 C 
BRANCH   3   4
ATOM      4  C   UNL     1     160.196 158.117 150.758  1.00  0.00     0.053 C 
BRANCH   4   5
ATOM      5  C   UNL     1     160.365 158.513 152.189  1.00  0.00     0.041 C 
ATOM      6  O   UNL     1     159.715 159.484 152.660  1.00  0.00    -0.550 OA
ATOM      7  O   UNL     1     161.203 157.778 153.019  1.00  0.00    -0.550 OA
ENDBRANCH   4   5
ENDBRANCH   3   4
ENDBRANCH   2   3
ENDBRANCH   1   2
BRANCH   1   8
ATOM      8  C   UNL     1     160.032 159.418 147.104  1.00  0.00     0.000 C 
BRANCH   8   9
ATOM      9  C   UNL     1     159.598 160.759 147.716  1.00  0.00    -0.000 C 
BRANCH   9  10
ATOM     10  C   UNL     1     160.743 161.468 148.463  1.00  0.00    -0.000 C 
BRANCH  10  11
ATOM     11  C   UNL     1     160.398 161.757 149.933  1.00  0.00    -0.000 C 
BRANCH  11  12
ATOM     12  C   UNL     1     158.887 161.881 150.171  1.00  0.00    -0.003 C 
ATOM     13  C   UNL     1     158.591 162.783 151.366  1.00  0.00     0.004 C 
ENDBRANCH  11  12
ENDBRANCH  10  11
ENDBRANCH   9  10
ENDBRANCH   8   9
ENDBRANCH   1   8
TORSDOF 9
ENDMDL
MODEL 8
REMARK VINA RESULT:    -4.110      2.546      3.731
REMARK INTER + INTRA:          -7.621
REMARK INTER:                  -6.462
REMARK INTRA:                  -1.159
REMARK UNBOUND:                -1.348
REMARK SMILES CCCCCCCCCCC(=O)[O-]
REMARK SMILES IDX 7 1 8 2 9 3 10 4 11 5 12 6 13 7 6 8 5 9 4 10 3 11 2 12 1 13
REMARK H PARENT
REMARK Flexibility Score: inf
ROOT
ATOM      1  C   UNL     1     160.384 159.183 151.874  1.00  0.00     0.000 C 
ENDROOT
BRANCH   1   2
ATOM      2  C   UNL     1     159.105 159.959 151.516  1.00  0.00     0.000 C 
BRANCH   2   3
ATOM      3  C   UNL     1     159.354 161.177 150.602  1.00  0.00     0.006 C 
BRANCH   3   4
ATOM      4  C   UNL     1     158.890 160.925 149.161  1.00  0.00     0.053 C 
BRANCH   4   5
ATOM      5  C   UNL     1     160.038 161.047 148.212  1.00  0.00     0.041 C 
ATOM      6  O   UNL     1     161.078 161.672 148.550  1.00  0.00    -0.550 OA
ATOM      7  O   UNL     1     159.982 160.427 146.969  1.00  0.00    -0.550 OA
ENDBRANCH   4   5
ENDBRANCH   3   4
ENDBRANCH   2   3
ENDBRANCH   1   2
BRANCH   1   8
ATOM      8  C   UNL     1     160.403 157.761 151.288  1.00  0.00     0.000 C 
BRANCH   8   9
ATOM      9  C   UNL     1     160.817 157.738 149.809  1.00  0.00    -0.000 C 
BRANCH   9  10
ATOM     10  C   UNL     1     159.654 157.358 148.874  1.00  0.00    -0.000 C 
BRANCH  10  11
ATOM     11  C   UNL     1     158.518 156.629 149.611  1.00  0.00    -0.000 C 
BRANCH  11  12
ATOM     12  C   UNL     1     157.214 157.438 149.630  1.00  0.00    -0.003 C 
ATOM     13  C   UNL     1     156.050 156.590 150.135  1.00  0.00     0.004 C 
ENDBRANCH  11  12
ENDBRANCH  10  11
ENDBRANCH   9  10
ENDBRANCH   8   9
ENDBRANCH   1   8
TORSDOF 9
ENDMDL
MODEL 9
REMARK VINA RESULT:    -4.104      2.735      4.924
REMARK INTER + INTRA:          -7.612
REMARK INTER:                  -6.222
REMARK INTRA:                  -1.390
REMARK UNBOUND:                -1.348
REMARK SMILES CCCCCCCCCCC(=O)[O-]
REMARK SMILES IDX 7 1 8 2 9 3 10 4 11 5 12 6 13 7 6 8 5 9 4 10 3 11 2 12 1 13
REMARK H PARENT
REMARK Flexibility Score: inf
ROOT
ATOM      1  C   UNL     1     159.013 159.821 152.142  1.00  0.00     0.000 C 
ENDROOT
BRANCH   1   2
ATOM      2  C   UNL     1     160.295 159.031 151.826  1.00  0.00     0.000 C 
BRANCH   2   3
ATOM      3  C   UNL     1     160.122 157.999 150.691  1.00  0.00     0.006 C 
BRANCH   3   4
ATOM      4  C   UNL     1     158.908 158.310 149.805  1.00  0.00     0.053 C 
BRANCH   4   5
ATOM      5  C   UNL     1     159.076 157.698 148.452  1.00  0.00     0.041 C 
ATOM      6  O   UNL     1     158.912 156.459 148.291  1.00  0.00    -0.550 OA
ATOM      7  O   UNL     1     159.366 158.502 147.356  1.00  0.00    -0.550 OA
ENDBRANCH   4   5
ENDBRANCH   3   4
ENDBRANCH   2   3
ENDBRANCH   1   2
BRANCH   1   8
ATOM      8  C   UNL     1     159.245 161.340 152.186  1.00  0.00     0.000 C 
BRANCH   8   9
ATOM      9  C   UNL     1     158.609 162.069 150.992  1.00  0.00    -0.000 C 
BRANCH   9  10
ATOM     10  C   UNL     1     159.657 162.652 150.027  1.00  0.00    -0.000 C 
BRANCH  10  11
ATOM     11  C   UNL     1     159.975 161.703 148.860  1.00  0.00    -0.000 C 
BRANCH  11  12
ATOM     12  C   UNL     1     161.383 161.100 148.959  1.00  0.00    -0.003 C 
ATOM     13  C   UNL     1     162.244 161.876 149.951  1.00  0.00     0.004 C 
ENDBRANCH  11  12
ENDBRANCH  10  11
ENDBRANCH   9  10
ENDBRANCH   8   9
ENDBRANCH   1   8
TORSDOF 9
ENDMDL
