MODEL 1
REMARK VINA RESULT:    -6.005      0.000      0.000
REMARK INTER + INTRA:          -6.181
REMARK INTER:                  -6.181
REMARK INTRA:                   0.000
REMARK UNBOUND:                 0.000
REMARK SMILES C=C1[C@@H](O)C[C@@]23C[C@@H]1C(C)(C)[C@@H]2CC[C@@H]3C
REMARK SMILES IDX 16 1 15 2 14 3 13 4 12 5 6 6 7 7 8 8 9 9 10 10 11 11 2 12
REMARK SMILES IDX 1 13 3 14 5 15 4 16
REMARK H PARENT 4 17
REMARK Flexibility Score: inf
ROOT
ATOM      1  C   UNL     1     180.474 178.554 185.252  1.00  0.00     0.008 C 
ATOM      2  C   UNL     1     181.313 179.664 184.601  1.00  0.00    -0.008 C 
ATOM      3  C   UNL     1     182.099 179.172 183.392  1.00  0.00     0.004 C 
ATOM      4  C   UNL     1     182.463 180.435 182.622  1.00  0.00     0.005 C 
ATOM      5  C   UNL     1     181.361 181.475 182.931  1.00  0.00     0.002 C 
ATOM      6  C   UNL     1     180.518 180.884 184.088  1.00  0.00    -0.020 C 
ATOM      7  C   UNL     1     179.166 180.542 183.448  1.00  0.00     0.016 C 
ATOM      8  C   UNL     1     178.962 181.727 182.526  1.00  0.00     0.023 C 
ATOM      9  C   UNL     1     180.336 181.847 181.801  1.00  0.00    -0.025 C 
ATOM     10  C   UNL     1     180.601 183.272 181.255  1.00  0.00     0.012 C 
ATOM     11  C   UNL     1     180.346 180.883 180.582  1.00  0.00     0.012 C 
ATOM     12  C   UNL     1     178.654 182.940 183.406  1.00  0.00    -0.045 C 
ATOM     13  C   UNL     1     177.787 183.869 182.974  1.00  0.00     0.011 C 
ATOM     14  C   UNL     1     179.452 183.179 184.695  1.00  0.00     0.140 C 
ATOM     15  C   UNL     1     180.257 181.938 185.196  1.00  0.00     0.044 C 
ENDROOT
BRANCH  14  16
ATOM     16  O   UNL     1     178.614 183.648 185.722  1.00  0.00    -0.389 OA
ATOM     17  H   UNL     1     178.269 182.854 186.210  1.00  0.00     0.211 HD
ENDBRANCH  14  16
TORSDOF 1
ENDMDL
MODEL 2
REMARK VINA RESULT:    -5.891      3.597      5.936
REMARK INTER + INTRA:          -6.063
REMARK INTER:                  -6.063
REMARK INTRA:                   0.000
REMARK UNBOUND:                 0.000
REMARK SMILES C=C1[C@@H](O)C[C@@]23C[C@@H]1C(C)(C)[C@@H]2CC[C@@H]3C
REMARK SMILES IDX 16 1 15 2 14 3 13 4 12 5 6 6 7 7 8 8 9 9 10 10 11 11 2 12
REMARK SMILES IDX 1 13 3 14 5 15 4 16
REMARK H PARENT 4 17
REMARK Flexibility Score: inf
ROOT
ATOM      1  C   UNL     1     180.520 178.972 185.552  1.00  0.00     0.008 C 
ATOM      2  C   UNL     1     180.292 178.757 184.048  1.00  0.00    -0.008 C 
ATOM      3  C   UNL     1     180.335 180.059 183.257  1.00  0.00     0.004 C 
ATOM      4  C   UNL     1     180.571 179.632 181.814  1.00  0.00     0.005 C 
ATOM      5  C   UNL     1     181.345 178.295 181.868  1.00  0.00     0.002 C 
ATOM      6  C   UNL     1     181.313 177.835 183.346  1.00  0.00    -0.020 C 
ATOM      7  C   UNL     1     182.758 177.992 183.835  1.00  0.00     0.016 C 
ATOM      8  C   UNL     1     183.538 177.518 182.626  1.00  0.00     0.023 C 
ATOM      9  C   UNL     1     182.859 178.283 181.450  1.00  0.00    -0.025 C 
ATOM     10  C   UNL     1     183.054 177.576 180.085  1.00  0.00     0.012 C 
ATOM     11  C   UNL     1     183.504 179.691 181.329  1.00  0.00     0.012 C 
ATOM     12  C   UNL     1     183.348 176.003 182.528  1.00  0.00    -0.045 C 
ATOM     13  C   UNL     1     184.360 175.234 182.096  1.00  0.00     0.011 C 
ATOM     14  C   UNL     1     181.963 175.383 182.763  1.00  0.00     0.140 C 
ATOM     15  C   UNL     1     180.941 176.333 183.465  1.00  0.00     0.044 C 
ENDROOT
BRANCH  14  16
ATOM     16  O   UNL     1     182.070 174.182 183.484  1.00  0.00    -0.389 OA
ATOM     17  H   UNL     1     182.338 174.415 184.412  1.00  0.00     0.211 HD
ENDBRANCH  14  16
TORSDOF 1
ENDMDL
MODEL 3
REMARK VINA RESULT:    -5.838      1.732      3.569
REMARK INTER + INTRA:          -6.009
REMARK INTER:                  -6.009
REMARK INTRA:                   0.000
REMARK UNBOUND:                 0.000
REMARK SMILES C=C1[C@@H](O)C[C@@]23C[C@@H]1C(C)(C)[C@@H]2CC[C@@H]3C
REMARK SMILES IDX 16 1 15 2 14 3 13 4 12 5 6 6 7 7 8 8 9 9 10 10 11 11 2 12
REMARK SMILES IDX 1 13 3 14 5 15 4 16
REMARK H PARENT 4 17
REMARK Flexibility Score: inf
ROOT
ATOM      1  C   UNL     1     182.613 179.143 181.100  1.00  0.00     0.008 C 
ATOM      2  C   UNL     1     181.501 178.625 182.024  1.00  0.00    -0.008 C 
ATOM      3  C   UNL     1     182.004 177.592 183.025  1.00  0.00     0.004 C 
ATOM      4  C   UNL     1     180.944 177.556 184.118  1.00  0.00     0.005 C 
ATOM      5  C   UNL     1     180.287 178.956 184.143  1.00  0.00     0.002 C 
ATOM      6  C   UNL     1     180.797 179.697 182.883  1.00  0.00    -0.020 C 
ATOM      7  C   UNL     1     181.725 180.792 183.425  1.00  0.00     0.016 C 
ATOM      8  C   UNL     1     180.965 181.250 184.653  1.00  0.00     0.023 C 
ATOM      9  C   UNL     1     180.590 179.909 185.354  1.00  0.00    -0.025 C 
ATOM     10  C   UNL     1     179.357 180.043 186.281  1.00  0.00     0.012 C 
ATOM     11  C   UNL     1     181.782 179.459 186.243  1.00  0.00     0.012 C 
ATOM     12  C   UNL     1     179.737 182.021 184.166  1.00  0.00    -0.045 C 
ATOM     13  C   UNL     1     179.298 183.080 184.864  1.00  0.00     0.011 C 
ATOM     14  C   UNL     1     178.914 181.491 182.983  1.00  0.00     0.140 C 
ATOM     15  C   UNL     1     179.637 180.400 182.130  1.00  0.00     0.044 C 
ENDROOT
BRANCH  14  16
ATOM     16  O   UNL     1     178.497 182.545 182.152  1.00  0.00    -0.389 OA
ATOM     17  H   UNL     1     177.947 183.160 182.706  1.00  0.00     0.211 HD
ENDBRANCH  14  16
TORSDOF 1
ENDMDL
MODEL 4
REMARK VINA RESULT:    -5.683      1.916      2.811
REMARK INTER + INTRA:          -5.849
REMARK INTER:                  -5.849
REMARK INTRA:                   0.000
REMARK UNBOUND:                 0.000
REMARK SMILES C=C1[C@@H](O)C[C@@]23C[C@@H]1C(C)(C)[C@@H]2CC[C@@H]3C
REMARK SMILES IDX 16 1 15 2 14 3 13 4 12 5 6 6 7 7 8 8 9 9 10 10 11 11 2 12
REMARK SMILES IDX 1 13 3 14 5 15 4 16
REMARK H PARENT 4 17
REMARK Flexibility Score: inf
ROOT
ATOM      1  C   UNL     1     180.982 176.464 183.046  1.00  0.00     0.008 C 
ATOM      2  C   UNL     1     181.926 177.362 183.860  1.00  0.00    -0.008 C 
ATOM      3  C   UNL     1     183.253 177.609 183.154  1.00  0.00     0.004 C 
ATOM      4  C   UNL     1     183.834 178.843 183.832  1.00  0.00     0.005 C 
ATOM      5  C   UNL     1     182.633 179.672 184.346  1.00  0.00     0.002 C 
ATOM      6  C   UNL     1     181.384 178.770 184.188  1.00  0.00    -0.020 C 
ATOM      7  C   UNL     1     180.573 179.421 183.061  1.00  0.00     0.016 C 
ATOM      8  C   UNL     1     180.748 180.893 183.377  1.00  0.00     0.023 C 
ATOM      9  C   UNL     1     182.282 181.019 183.619  1.00  0.00    -0.025 C 
ATOM     10  C   UNL     1     182.650 182.239 184.500  1.00  0.00     0.012 C 
ATOM     11  C   UNL     1     182.991 181.215 182.251  1.00  0.00     0.012 C 
ATOM     12  C   UNL     1     179.928 181.188 184.634  1.00  0.00    -0.045 C 
ATOM     13  C   UNL     1     179.311 182.373 184.761  1.00  0.00     0.011 C 
ATOM     14  C   UNL     1     179.947 180.206 185.814  1.00  0.00     0.140 C 
ATOM     15  C   UNL     1     180.505 178.789 185.467  1.00  0.00     0.044 C 
ENDROOT
BRANCH  14  16
ATOM     16  O   UNL     1     178.667 180.086 186.384  1.00  0.00    -0.389 OA
ATOM     17  H   UNL     1     178.614 179.190 186.809  1.00  0.00     0.211 HD
ENDBRANCH  14  16
TORSDOF 1
ENDMDL
MODEL 5
REMARK VINA RESULT:    -5.650      1.732      2.831
REMARK INTER + INTRA:          -5.816
REMARK INTER:                  -5.816
REMARK INTRA:                   0.000
REMARK UNBOUND:                 0.000
REMARK SMILES C=C1[C@@H](O)C[C@@]23C[C@@H]1C(C)(C)[C@@H]2CC[C@@H]3C
REMARK SMILES IDX 16 1 15 2 14 3 13 4 12 5 6 6 7 7 8 8 9 9 10 10 11 11 2 12
REMARK SMILES IDX 1 13 3 14 5 15 4 16
REMARK H PARENT 4 17
REMARK Flexibility Score: inf
ROOT
ATOM      1  C   UNL     1     180.878 177.869 184.560  1.00  0.00     0.008 C 
ATOM      2  C   UNL     1     180.788 179.211 185.302  1.00  0.00    -0.008 C 
ATOM      3  C   UNL     1     182.011 179.485 186.169  1.00  0.00     0.004 C 
ATOM      4  C   UNL     1     181.981 180.985 186.426  1.00  0.00     0.005 C 
ATOM      5  C   UNL     1     181.262 181.627 185.216  1.00  0.00     0.002 C 
ATOM      6  C   UNL     1     180.653 180.459 184.404  1.00  0.00    -0.020 C 
ATOM      7  C   UNL     1     181.480 180.410 183.113  1.00  0.00     0.016 C 
ATOM      8  C   UNL     1     181.664 181.884 182.817  1.00  0.00     0.023 C 
ATOM      9  C   UNL     1     182.110 182.464 184.193  1.00  0.00    -0.025 C 
ATOM     10  C   UNL     1     181.813 183.978 184.329  1.00  0.00     0.012 C 
ATOM     11  C   UNL     1     183.647 182.288 184.336  1.00  0.00     0.012 C 
ATOM     12  C   UNL     1     180.309 182.429 182.362  1.00  0.00    -0.045 C 
ATOM     13  C   UNL     1     180.260 183.383 181.419  1.00  0.00     0.011 C 
ATOM     14  C   UNL     1     179.025 182.011 183.093  1.00  0.00     0.140 C 
ATOM     15  C   UNL     1     179.182 180.752 184.004  1.00  0.00     0.044 C 
ENDROOT
BRANCH  14  16
ATOM     16  O   UNL     1     177.974 181.810 182.182  1.00  0.00    -0.389 OA
ATOM     17  H   UNL     1     177.979 182.576 181.549  1.00  0.00     0.211 HD
ENDBRANCH  14  16
TORSDOF 1
ENDMDL
MODEL 6
REMARK VINA RESULT:    -5.635      1.781      2.695
REMARK INTER + INTRA:          -5.800
REMARK INTER:                  -5.800
REMARK INTRA:                   0.000
REMARK UNBOUND:                 0.000
REMARK SMILES C=C1[C@@H](O)C[C@@]23C[C@@H]1C(C)(C)[C@@H]2CC[C@@H]3C
REMARK SMILES IDX 16 1 15 2 14 3 13 4 12 5 6 6 7 7 8 8 9 9 10 10 11 11 2 12
REMARK SMILES IDX 1 13 3 14 5 15 4 16
REMARK H PARENT 4 17
REMARK Flexibility Score: inf
ROOT
ATOM      1  C   UNL     1     181.702 181.291 187.984  1.00  0.00     0.008 C 
ATOM      2  C   UNL     1     182.372 180.985 186.636  1.00  0.00    -0.008 C 
ATOM      3  C   UNL     1     182.835 179.537 186.527  1.00  0.00     0.004 C 
ATOM      4  C   UNL     1     183.015 179.295 185.034  1.00  0.00     0.005 C 
ATOM      5  C   UNL     1     182.034 180.246 184.309  1.00  0.00     0.002 C 
ATOM      6  C   UNL     1     181.490 181.213 185.389  1.00  0.00    -0.020 C 
ATOM      7  C   UNL     1     180.019 180.813 185.565  1.00  0.00     0.016 C 
ATOM      8  C   UNL     1     179.611 180.532 184.133  1.00  0.00     0.023 C 
ATOM      9  C   UNL     1     180.770 179.632 183.608  1.00  0.00    -0.025 C 
ATOM     10  C   UNL     1     180.910 179.677 182.066  1.00  0.00     0.012 C 
ATOM     11  C   UNL     1     180.473 178.157 183.996  1.00  0.00     0.012 C 
ATOM     12  C   UNL     1     179.539 181.878 183.409  1.00  0.00    -0.045 C 
ATOM     13  C   UNL     1     178.604 182.075 182.467  1.00  0.00     0.011 C 
ATOM     14  C   UNL     1     180.629 182.935 183.638  1.00  0.00     0.140 C 
ATOM     15  C   UNL     1     181.517 182.685 184.898  1.00  0.00     0.044 C 
ENDROOT
BRANCH  14  16
ATOM     16  O   UNL     1     180.070 184.224 183.699  1.00  0.00    -0.389 OA
ATOM     17  H   UNL     1     179.082 184.119 183.696  1.00  0.00     0.211 HD
ENDBRANCH  14  16
TORSDOF 1
ENDMDL
MODEL 7
REMARK VINA RESULT:    -5.613      2.504      4.182
REMARK INTER + INTRA:          -5.777
REMARK INTER:                  -5.777
REMARK INTRA:                   0.000
REMARK UNBOUND:                 0.000
REMARK SMILES C=C1[C@@H](O)C[C@@]23C[C@@H]1C(C)(C)[C@@H]2CC[C@@H]3C
REMARK SMILES IDX 16 1 15 2 14 3 13 4 12 5 6 6 7 7 8 8 9 9 10 10 11 11 2 12
REMARK SMILES IDX 1 13 3 14 5 15 4 16
REMARK H PARENT 4 17
REMARK Flexibility Score: inf
ROOT
ATOM      1  C   UNL     1     183.330 179.753 187.051  1.00  0.00     0.008 C 
ATOM      2  C   UNL     1     181.833 179.894 186.737  1.00  0.00    -0.008 C 
ATOM      3  C   UNL     1     181.275 181.253 187.140  1.00  0.00     0.004 C 
ATOM      4  C   UNL     1     179.978 181.393 186.354  1.00  0.00     0.005 C 
ATOM      5  C   UNL     1     180.151 180.558 185.063  1.00  0.00     0.002 C 
ATOM      6  C   UNL     1     181.448 179.733 185.251  1.00  0.00    -0.020 C 
ATOM      7  C   UNL     1     182.446 180.348 184.262  1.00  0.00     0.016 C 
ATOM      8  C   UNL     1     181.558 180.612 183.063  1.00  0.00     0.023 C 
ATOM      9  C   UNL     1     180.316 181.311 183.695  1.00  0.00    -0.025 C 
ATOM     10  C   UNL     1     179.043 181.170 182.824  1.00  0.00     0.012 C 
ATOM     11  C   UNL     1     180.611 182.831 183.829  1.00  0.00     0.012 C 
ATOM     12  C   UNL     1     181.216 179.257 182.442  1.00  0.00    -0.045 C 
ATOM     13  C   UNL     1     181.094 179.149 181.110  1.00  0.00     0.011 C 
ATOM     14  C   UNL     1     180.852 178.067 183.342  1.00  0.00     0.140 C 
ATOM     15  C   UNL     1     181.241 178.250 184.844  1.00  0.00     0.044 C 
ENDROOT
BRANCH  14  16
ATOM     16  O   UNL     1     181.412 176.877 182.848  1.00  0.00    -0.389 OA
ATOM     17  H   UNL     1     181.126 176.141 183.451  1.00  0.00     0.211 HD
ENDBRANCH  14  16
TORSDOF 1
ENDMDL
MODEL 8
REMARK VINA RESULT:    -5.507      1.023      3.656
REMARK INTER + INTRA:          -5.668
REMARK INTER:                  -5.668
REMARK INTRA:                   0.000
REMARK UNBOUND:                 0.000
REMARK SMILES C=C1[C@@H](O)C[C@@]23C[C@@H]1C(C)(C)[C@@H]2CC[C@@H]3C
REMARK SMILES IDX 16 1 15 2 14 3 13 4 12 5 6 6 7 7 8 8 9 9 10 10 11 11 2 12
REMARK SMILES IDX 1 13 3 14 5 15 4 16
REMARK H PARENT 4 17
REMARK Flexibility Score: inf
ROOT
ATOM      1  C   UNL     1     180.974 183.979 181.014  1.00  0.00     0.008 C 
ATOM      2  C   UNL     1     180.169 182.695 181.265  1.00  0.00    -0.008 C 
ATOM      3  C   UNL     1     180.623 181.537 180.384  1.00  0.00     0.004 C 
ATOM      4  C   UNL     1     180.086 180.289 181.071  1.00  0.00     0.005 C 
ATOM      5  C   UNL     1     179.995 180.618 182.580  1.00  0.00     0.002 C 
ATOM      6  C   UNL     1     180.231 182.143 182.705  1.00  0.00    -0.020 C 
ATOM      7  C   UNL     1     181.602 182.271 183.381  1.00  0.00     0.016 C 
ATOM      8  C   UNL     1     181.542 181.150 184.399  1.00  0.00     0.023 C 
ATOM      9  C   UNL     1     181.019 179.944 183.561  1.00  0.00    -0.025 C 
ATOM     10  C   UNL     1     180.329 178.865 184.432  1.00  0.00     0.012 C 
ATOM     11  C   UNL     1     182.226 179.260 182.861  1.00  0.00     0.012 C 
ATOM     12  C   UNL     1     180.557 181.579 185.488  1.00  0.00    -0.045 C 
ATOM     13  C   UNL     1     180.785 181.229 186.764  1.00  0.00     0.011 C 
ATOM     14  C   UNL     1     179.234 182.258 185.107  1.00  0.00     0.140 C 
ATOM     15  C   UNL     1     179.186 182.803 183.644  1.00  0.00     0.044 C 
ENDROOT
BRANCH  14  16
ATOM     16  O   UNL     1     178.925 183.291 186.009  1.00  0.00    -0.389 OA
ATOM     17  H   UNL     1     179.748 183.486 186.530  1.00  0.00     0.211 HD
ENDBRANCH  14  16
TORSDOF 1
ENDMDL
MODEL 9
REMARK VINA RESULT:    -5.501      2.646      4.357
REMARK INTER + INTRA:          -5.662
REMARK INTER:                  -5.662
REMARK INTRA:                   0.000
REMARK UNBOUND:                 0.000
REMARK SMILES C=C1[C@@H](O)C[C@@]23C[C@@H]1C(C)(C)[C@@H]2CC[C@@H]3C
REMARK SMILES IDX 16 1 15 2 14 3 13 4 12 5 6 6 7 7 8 8 9 9 10 10 11 11 2 12
REMARK SMILES IDX 1 13 3 14 5 15 4 16
REMARK H PARENT 4 17
REMARK Flexibility Score: inf
ROOT
ATOM      1  C   UNL     1     182.681 176.468 182.281  1.00  0.00     0.008 C 
ATOM      2  C   UNL     1     182.509 177.989 182.159  1.00  0.00    -0.008 C 
ATOM      3  C   UNL     1     181.285 178.378 181.340  1.00  0.00     0.004 C 
ATOM      4  C   UNL     1     181.005 179.827 181.716  1.00  0.00     0.005 C 
ATOM      5  C   UNL     1     181.532 180.020 183.157  1.00  0.00     0.002 C 
ATOM      6  C   UNL     1     182.349 178.748 183.494  1.00  0.00    -0.020 C 
ATOM      7  C   UNL     1     181.509 178.015 184.549  1.00  0.00     0.016 C 
ATOM      8  C   UNL     1     181.008 179.171 185.391  1.00  0.00     0.023 C 
ATOM      9  C   UNL     1     180.494 180.184 184.324  1.00  0.00    -0.025 C 
ATOM     10  C   UNL     1     180.469 181.642 184.846  1.00  0.00     0.012 C 
ATOM     11  C   UNL     1     179.035 179.812 183.942  1.00  0.00     0.012 C 
ATOM     12  C   UNL     1     182.202 179.707 186.182  1.00  0.00    -0.045 C 
ATOM     13  C   UNL     1     182.017 180.170 187.429  1.00  0.00     0.011 C 
ATOM     14  C   UNL     1     183.568 179.871 185.501  1.00  0.00     0.140 C 
ATOM     15  C   UNL     1     183.710 179.104 184.147  1.00  0.00     0.044 C 
ENDROOT
BRANCH  14  16
ATOM     16  O   UNL     1     184.608 179.498 186.370  1.00  0.00    -0.389 OA
ATOM     17  H   UNL     1     184.529 178.520 186.526  1.00  0.00     0.211 HD
ENDBRANCH  14  16
TORSDOF 1
ENDMDL
