MODEL 1
REMARK VINA RESULT:    -5.161      0.000      0.000
REMARK INTER + INTRA:          -5.976
REMARK INTER:                  -5.764
REMARK INTRA:                  -0.212
REMARK UNBOUND:                -0.212
REMARK SMILES CC(C)c1ccc(C(=O)[O-])cc1
REMARK SMILES IDX 7 1 6 2 11 3 5 4 12 5 4 6 8 7 9 8 10 9 2 10 1 11 3 12
REMARK H PARENT
REMARK Flexibility Score: inf
ROOT
ATOM      1  C   UNL     1      39.174  18.327  10.677  1.00  0.00    -0.003 A 
ATOM      2  C   UNL     1      38.202  18.504   9.680  1.00  0.00     0.010 A 
ATOM      3  C   UNL     1      38.760  18.142  12.007  1.00  0.00     0.010 A 
ATOM      4  C   UNL     1      36.843  18.498  10.004  1.00  0.00     0.004 A 
ATOM      5  C   UNL     1      37.400  18.135  12.332  1.00  0.00     0.004 A 
ATOM      6  C   UNL     1      36.427  18.313  11.335  1.00  0.00    -0.045 A 
ENDROOT
BRANCH   1   7
ATOM      7  C   UNL     1      40.612  18.334  10.328  1.00  0.00     0.071 C 
ATOM      8  O   UNL     1      41.487  18.127  11.212  1.00  0.00    -0.545 OA
ATOM      9  O   UNL     1      41.020  18.571   9.020  1.00  0.00    -0.545 OA
ENDBRANCH   1   7
BRANCH   6  10
ATOM     10  C   UNL     1      34.955  18.304  11.702  1.00  0.00     0.013 C 
ATOM     11  C   UNL     1      34.681  17.344  12.866  1.00  0.00     0.012 C 
ATOM     12  C   UNL     1      34.457  19.718  12.024  1.00  0.00     0.012 C 
ENDBRANCH   6  10
TORSDOF 2
ENDMDL
MODEL 2
REMARK VINA RESULT:    -5.153      1.511      2.392
REMARK INTER + INTRA:          -5.967
REMARK INTER:                  -5.766
REMARK INTRA:                  -0.201
REMARK UNBOUND:                -0.212
REMARK SMILES CC(C)c1ccc(C(=O)[O-])cc1
REMARK SMILES IDX 7 1 6 2 11 3 5 4 12 5 4 6 8 7 9 8 10 9 2 10 1 11 3 12
REMARK H PARENT
REMARK Flexibility Score: inf
ROOT
ATOM      1  C   UNL     1      40.865  18.449  10.564  1.00  0.00    -0.003 A 
ATOM      2  C   UNL     1      40.397  18.130  11.849  1.00  0.00     0.010 A 
ATOM      3  C   UNL     1      39.933  18.654   9.532  1.00  0.00     0.010 A 
ATOM      4  C   UNL     1      39.027  18.017  12.099  1.00  0.00     0.004 A 
ATOM      5  C   UNL     1      38.562  18.542   9.782  1.00  0.00     0.004 A 
ATOM      6  C   UNL     1      38.094  18.222  11.067  1.00  0.00    -0.045 A 
ENDROOT
BRANCH   1   7
ATOM      7  C   UNL     1      42.317  18.567  10.305  1.00  0.00     0.071 C 
ATOM      8  O   UNL     1      42.868  19.699  10.251  1.00  0.00    -0.545 OA
ATOM      9  O   UNL     1      43.095  17.431  10.118  1.00  0.00    -0.545 OA
ENDBRANCH   1   7
BRANCH   6  10
ATOM     10  C   UNL     1      36.603  18.103  11.323  1.00  0.00     0.013 C 
ATOM     11  C   UNL     1      36.133  16.650  11.188  1.00  0.00     0.012 C 
ATOM     12  C   UNL     1      36.230  18.679  12.694  1.00  0.00     0.012 C 
ENDBRANCH   6  10
TORSDOF 2
ENDMDL
MODEL 3
REMARK VINA RESULT:    -5.146      0.388      1.685
REMARK INTER + INTRA:          -5.960
REMARK INTER:                  -5.752
REMARK INTRA:                  -0.208
REMARK UNBOUND:                -0.212
REMARK SMILES CC(C)c1ccc(C(=O)[O-])cc1
REMARK SMILES IDX 7 1 6 2 11 3 5 4 12 5 4 6 8 7 9 8 10 9 2 10 1 11 3 12
REMARK H PARENT
REMARK Flexibility Score: inf
ROOT
ATOM      1  C   UNL     1      38.915  18.264  10.661  1.00  0.00    -0.003 A 
ATOM      2  C   UNL     1      38.505  18.178  12.001  1.00  0.00     0.010 A 
ATOM      3  C   UNL     1      37.941  18.423   9.660  1.00  0.00     0.010 A 
ATOM      4  C   UNL     1      37.151  18.249  12.336  1.00  0.00     0.004 A 
ATOM      5  C   UNL     1      36.585  18.494   9.995  1.00  0.00     0.004 A 
ATOM      6  C   UNL     1      36.175  18.408  11.335  1.00  0.00    -0.045 A 
ENDROOT
BRANCH   1   7
ATOM      7  C   UNL     1      40.351  18.189  10.312  1.00  0.00     0.071 C 
ATOM      8  O   UNL     1      40.714  17.778   9.177  1.00  0.00    -0.545 OA
ATOM      9  O   UNL     1      41.321  18.572  11.231  1.00  0.00    -0.545 OA
ENDBRANCH   1   7
BRANCH   6  10
ATOM     10  C   UNL     1      34.700  18.486  11.683  1.00  0.00     0.013 C 
ATOM     11  C   UNL     1      34.351  17.530  12.830  1.00  0.00     0.012 C 
ATOM     12  C   UNL     1      34.287  19.924  12.018  1.00  0.00     0.012 C 
ENDBRANCH   6  10
TORSDOF 2
ENDMDL
MODEL 4
REMARK VINA RESULT:    -5.144      2.712      5.613
REMARK INTER + INTRA:          -5.957
REMARK INTER:                  -5.755
REMARK INTRA:                  -0.203
REMARK UNBOUND:                -0.212
REMARK SMILES CC(C)c1ccc(C(=O)[O-])cc1
REMARK SMILES IDX 7 1 6 2 11 3 5 4 12 5 4 6 8 7 9 8 10 9 2 10 1 11 3 12
REMARK H PARENT
REMARK Flexibility Score: inf
ROOT
ATOM      1  C   UNL     1      38.651  18.107  11.383  1.00  0.00    -0.003 A 
ATOM      2  C   UNL     1      39.913  18.079  11.998  1.00  0.00     0.010 A 
ATOM      3  C   UNL     1      38.566  18.420  10.016  1.00  0.00     0.010 A 
ATOM      4  C   UNL     1      41.068  18.358  11.262  1.00  0.00     0.004 A 
ATOM      5  C   UNL     1      39.721  18.698   9.279  1.00  0.00     0.004 A 
ATOM      6  C   UNL     1      40.984  18.671   9.893  1.00  0.00    -0.045 A 
ENDROOT
BRANCH   1   7
ATOM      7  C   UNL     1      37.431  17.811  12.167  1.00  0.00     0.071 C 
ATOM      8  O   UNL     1      36.733  16.795  11.906  1.00  0.00    -0.545 OA
ATOM      9  O   UNL     1      37.038  18.650  13.203  1.00  0.00    -0.545 OA
ENDBRANCH   1   7
BRANCH   6  10
ATOM     10  C   UNL     1      42.229  18.976   9.081  1.00  0.00     0.013 C 
ATOM     11  C   UNL     1      43.242  19.781   9.903  1.00  0.00     0.012 C 
ATOM     12  C   UNL     1      42.861  17.690   8.534  1.00  0.00     0.012 C 
ENDBRANCH   6  10
TORSDOF 2
ENDMDL
MODEL 5
REMARK VINA RESULT:    -5.142      1.631      2.400
REMARK INTER + INTRA:          -5.955
REMARK INTER:                  -5.744
REMARK INTRA:                  -0.211
REMARK UNBOUND:                -0.212
REMARK SMILES CC(C)c1ccc(C(=O)[O-])cc1
REMARK SMILES IDX 7 1 6 2 11 3 5 4 12 5 4 6 8 7 9 8 10 9 2 10 1 11 3 12
REMARK H PARENT
REMARK Flexibility Score: inf
ROOT
ATOM      1  C   UNL     1      40.788  18.590   9.813  1.00  0.00    -0.003 A 
ATOM      2  C   UNL     1      39.513  18.489   9.234  1.00  0.00     0.010 A 
ATOM      3  C   UNL     1      40.929  18.371  11.194  1.00  0.00     0.010 A 
ATOM      4  C   UNL     1      38.400  18.177  10.018  1.00  0.00     0.004 A 
ATOM      5  C   UNL     1      39.815  18.058  11.979  1.00  0.00     0.004 A 
ATOM      6  C   UNL     1      38.539  17.957  11.401  1.00  0.00    -0.045 A 
ENDROOT
BRANCH   1   7
ATOM      7  C   UNL     1      41.964  18.921   8.977  1.00  0.00     0.071 C 
ATOM      8  O   UNL     1      42.010  18.570   7.768  1.00  0.00    -0.545 OA
ATOM      9  O   UNL     1      43.035  19.625   9.515  1.00  0.00    -0.545 OA
ENDBRANCH   1   7
BRANCH   6  10
ATOM     10  C   UNL     1      37.339  17.617  12.265  1.00  0.00     0.013 C 
ATOM     11  C   UNL     1      36.964  18.791  13.178  1.00  0.00     0.012 C 
ATOM     12  C   UNL     1      36.145  17.182  11.407  1.00  0.00     0.012 C 
ENDBRANCH   6  10
TORSDOF 2
ENDMDL
MODEL 6
REMARK VINA RESULT:    -5.079      3.122      4.447
REMARK INTER + INTRA:          -5.885
REMARK INTER:                  -5.664
REMARK INTRA:                  -0.221
REMARK UNBOUND:                -0.212
REMARK SMILES CC(C)c1ccc(C(=O)[O-])cc1
REMARK SMILES IDX 7 1 6 2 11 3 5 4 12 5 4 6 8 7 9 8 10 9 2 10 1 11 3 12
REMARK H PARENT
REMARK Flexibility Score: inf
ROOT
ATOM      1  C   UNL     1      36.208  19.151   7.838  1.00  0.00    -0.003 A 
ATOM      2  C   UNL     1      37.447  18.507   7.975  1.00  0.00     0.010 A 
ATOM      3  C   UNL     1      35.417  19.357   8.982  1.00  0.00     0.010 A 
ATOM      4  C   UNL     1      37.890  18.076   9.228  1.00  0.00     0.004 A 
ATOM      5  C   UNL     1      35.859  18.926  10.237  1.00  0.00     0.004 A 
ATOM      6  C   UNL     1      37.099  18.281  10.374  1.00  0.00    -0.045 A 
ENDROOT
BRANCH   1   7
ATOM      7  C   UNL     1      35.744  19.606   6.509  1.00  0.00     0.071 C 
ATOM      8  O   UNL     1      34.550  19.972   6.337  1.00  0.00    -0.545 OA
ATOM      9  O   UNL     1      36.619  19.635   5.429  1.00  0.00    -0.545 OA
ENDBRANCH   1   7
BRANCH   6  10
ATOM     10  C   UNL     1      37.566  17.819  11.742  1.00  0.00     0.013 C 
ATOM     11  C   UNL     1      39.069  18.059  11.924  1.00  0.00     0.012 C 
ATOM     12  C   UNL     1      36.761  18.494  12.858  1.00  0.00     0.012 C 
ENDBRANCH   6  10
TORSDOF 2
ENDMDL
MODEL 7
REMARK VINA RESULT:    -5.012      3.081      5.048
REMARK INTER + INTRA:          -5.811
REMARK INTER:                  -5.599
REMARK INTRA:                  -0.212
REMARK UNBOUND:                -0.212
REMARK SMILES CC(C)c1ccc(C(=O)[O-])cc1
REMARK SMILES IDX 7 1 6 2 11 3 5 4 12 5 4 6 8 7 9 8 10 9 2 10 1 11 3 12
REMARK H PARENT
REMARK Flexibility Score: inf
ROOT
ATOM      1  C   UNL     1      36.369  18.164  11.649  1.00  0.00    -0.003 A 
ATOM      2  C   UNL     1      36.452  18.370  10.263  1.00  0.00     0.010 A 
ATOM      3  C   UNL     1      37.555  18.089  12.399  1.00  0.00     0.010 A 
ATOM      4  C   UNL     1      37.694  18.498   9.637  1.00  0.00     0.004 A 
ATOM      5  C   UNL     1      38.799  18.218  11.773  1.00  0.00     0.004 A 
ATOM      6  C   UNL     1      38.883  18.424  10.386  1.00  0.00    -0.045 A 
ENDROOT
BRANCH   1   7
ATOM      7  C   UNL     1      35.050  18.028  12.307  1.00  0.00     0.071 C 
ATOM      8  O   UNL     1      34.235  18.989  12.312  1.00  0.00    -0.545 OA
ATOM      9  O   UNL     1      34.692  16.838  12.930  1.00  0.00    -0.545 OA
ENDBRANCH   1   7
BRANCH   6  10
ATOM     10  C   UNL     1      40.239  18.562   9.721  1.00  0.00     0.013 C 
ATOM     11  C   UNL     1      41.374  18.350  10.729  1.00  0.00     0.012 C 
ATOM     12  C   UNL     1      40.371  17.602   8.532  1.00  0.00     0.012 C 
ENDBRANCH   6  10
TORSDOF 2
ENDMDL
MODEL 8
REMARK VINA RESULT:    -5.012      3.048      5.194
REMARK INTER + INTRA:          -5.810
REMARK INTER:                  -5.601
REMARK INTRA:                  -0.209
REMARK UNBOUND:                -0.212
REMARK SMILES CC(C)c1ccc(C(=O)[O-])cc1
REMARK SMILES IDX 7 1 6 2 11 3 5 4 12 5 4 6 8 7 9 8 10 9 2 10 1 11 3 12
REMARK H PARENT
REMARK Flexibility Score: inf
ROOT
ATOM      1  C   UNL     1      36.442  18.166  11.669  1.00  0.00    -0.003 A 
ATOM      2  C   UNL     1      37.647  18.027  12.375  1.00  0.00     0.010 A 
ATOM      3  C   UNL     1      36.486  18.412  10.286  1.00  0.00     0.010 A 
ATOM      4  C   UNL     1      38.874  18.132  11.714  1.00  0.00     0.004 A 
ATOM      5  C   UNL     1      37.714  18.517   9.624  1.00  0.00     0.004 A 
ATOM      6  C   UNL     1      38.920  18.379  10.329  1.00  0.00    -0.045 A 
ENDROOT
BRANCH   1   7
ATOM      7  C   UNL     1      35.146  18.053  12.374  1.00  0.00     0.071 C 
ATOM      8  O   UNL     1      34.850  17.004  13.008  1.00  0.00    -0.545 OA
ATOM      9  O   UNL     1      34.235  19.103  12.348  1.00  0.00    -0.545 OA
ENDBRANCH   1   7
BRANCH   6  10
ATOM     10  C   UNL     1      40.244  18.496   9.598  1.00  0.00     0.013 C 
ATOM     11  C   UNL     1      41.421  18.499  10.580  1.00  0.00     0.012 C 
ATOM     12  C   UNL     1      40.400  17.382   8.555  1.00  0.00     0.012 C 
ENDBRANCH   6  10
TORSDOF 2
ENDMDL
MODEL 9
REMARK VINA RESULT:    -4.955      3.023      4.389
REMARK INTER + INTRA:          -5.747
REMARK INTER:                  -5.534
REMARK INTRA:                  -0.212
REMARK UNBOUND:                -0.212
REMARK SMILES CC(C)c1ccc(C(=O)[O-])cc1
REMARK SMILES IDX 7 1 6 2 11 3 5 4 12 5 4 6 8 7 9 8 10 9 2 10 1 11 3 12
REMARK H PARENT
REMARK Flexibility Score: inf
ROOT
ATOM      1  C   UNL     1      36.808  18.513  10.619  1.00  0.00    -0.003 A 
ATOM      2  C   UNL     1      37.575  18.318   9.459  1.00  0.00     0.010 A 
ATOM      3  C   UNL     1      35.511  19.041  10.497  1.00  0.00     0.010 A 
ATOM      4  C   UNL     1      37.057  18.642   8.202  1.00  0.00     0.004 A 
ATOM      5  C   UNL     1      34.993  19.366   9.240  1.00  0.00     0.004 A 
ATOM      6  C   UNL     1      35.759  19.170   8.079  1.00  0.00    -0.045 A 
ENDROOT
BRANCH   1   7
ATOM      7  C   UNL     1      37.361  18.168  11.947  1.00  0.00     0.071 C 
ATOM      8  O   UNL     1      38.335  17.374  12.049  1.00  0.00    -0.545 OA
ATOM      9  O   UNL     1      36.814  18.714  13.103  1.00  0.00    -0.545 OA
ENDBRANCH   1   7
BRANCH   6  10
ATOM     10  C   UNL     1      35.184  19.528   6.722  1.00  0.00     0.013 C 
ATOM     11  C   UNL     1      36.290  19.661   5.669  1.00  0.00     0.012 C 
ATOM     12  C   UNL     1      34.126  18.507   6.284  1.00  0.00     0.012 C 
ENDBRANCH   6  10
TORSDOF 2
ENDMDL
