MODEL 1
REMARK VINA RESULT:    -9.153      0.000      0.000
REMARK INTER + INTRA:         -16.739
REMARK INTER:                 -14.236
REMARK INTRA:                  -2.504
REMARK UNBOUND:                -2.504
REMARK SMILES C[C@H]1O[C@@H](OC[C@H]2O[C@@H](Oc3c(-c4ccc(O)c(O)c4)oc4cc(O)cc(O)c4c3=O)[C@@H](O)[C@@H](O)[C@H]2O)[C@@H](O)[C@H](O)[C@H]1O
REMARK SMILES IDX 7 1 36 2 34 3 32 4 9 5 8 6 6 7 5 8 4 9 1 10 2 11 42 12 3 13
REMARK SMILES IDX 40 14 38 15 43 16 41 18 39 20 37 22 35 24 10 26 11 27 12 28
REMARK SMILES IDX 30 29 21 30 29 31 31 32 22 33 27 34 23 35 26 36 24 37 13 38
REMARK SMILES IDX 20 39 14 40 18 41 15 42 16 43 19 44 17 46 28 48 25 50 33 52
REMARK H PARENT 43 17 41 19 39 21 37 23 35 25 19 45 17 47 28 49 25 51 33 53
REMARK Flexibility Score: inf
ROOT
ATOM      1  C   UNL     1       7.627  40.337  44.664  1.00  0.00     0.180 C 
ATOM      2  C   UNL     1       6.236  40.890  45.328  1.00  0.00     0.177 C 
ATOM      3  C   UNL     1       5.874  40.062  46.514  1.00  0.00     0.180 C 
ATOM      4  C   UNL     1       7.062  40.123  47.460  1.00  0.00     0.214 C 
ATOM      5  C   UNL     1       8.421  39.588  46.950  1.00  0.00     0.339 C 
ATOM      6  O   UNL     1       8.577  39.530  45.488  1.00  0.00    -0.332 OA
ENDROOT
BRANCH   1   7
ATOM      7  C   UNL     1       8.033  41.417  43.363  1.00  0.00     0.198 C 
BRANCH   7   8
ATOM      8  O   UNL     1       7.437  42.595  42.717  1.00  0.00    -0.347 OA
BRANCH   8   9
ATOM      9  C   UNL     1       8.318  43.707  42.335  1.00  0.00     0.281 C 
ATOM     10  C   UNL     1       7.612  46.768  40.370  1.00  0.00     0.041 C 
ATOM     11  C   UNL     1       8.158  45.871  41.464  1.00  0.00     0.150 C 
ATOM     12  C   UNL     1       9.626  46.067  41.848  1.00  0.00     0.174 C 
ATOM     13  O   UNL     1       7.647  44.533  41.341  1.00  0.00    -0.344 OA
ATOM     14  C   UNL     1      10.494  44.738  41.643  1.00  0.00     0.179 C 
ATOM     15  C   UNL     1       9.712  43.362  41.647  1.00  0.00     0.202 C 
BRANCH  12  16
ATOM     16  O   UNL     1      10.241  47.319  41.374  1.00  0.00    -0.388 OA
ATOM     17  H   UNL     1      11.128  47.409  41.863  1.00  0.00     0.211 HD
ENDBRANCH  12  16
BRANCH  14  18
ATOM     18  O   UNL     1      11.049  44.585  42.937  1.00  0.00    -0.387 OA
ATOM     19  H   UNL     1      11.988  44.223  42.884  1.00  0.00     0.211 HD
ENDBRANCH  14  18
BRANCH  15  20
ATOM     20  O   UNL     1       9.393  43.022  40.372  1.00  0.00    -0.385 OA
ATOM     21  H   UNL     1      10.054  43.365  39.752  1.00  0.00     0.211 HD
ENDBRANCH  15  20
ENDBRANCH   8   9
ENDBRANCH   7   8
ENDBRANCH   1   7
BRANCH   2  22
ATOM     22  O   UNL     1       6.267  42.251  45.742  1.00  0.00    -0.387 OA
ATOM     23  H   UNL     1       6.168  42.402  46.800  1.00  0.00     0.211 HD
ENDBRANCH   2  22
BRANCH   3  24
ATOM     24  O   UNL     1       4.652  40.500  47.100  1.00  0.00    -0.387 OA
ATOM     25  H   UNL     1       4.397  41.385  46.799  1.00  0.00     0.211 HD
ENDBRANCH   3  24
BRANCH   5  26
ATOM     26  O   UNL     1       9.716  39.875  47.576  1.00  0.00    -0.454 OA
BRANCH  26  27
ATOM     27  C   UNL     1      11.031  39.774  46.875  1.00  0.00     0.214 A 
ATOM     28  C   UNL     1      11.704  38.532  46.818  1.00  0.00     0.180 A 
ATOM     29  C   UNL     1      11.625  40.682  46.085  1.00  0.00     0.239 A 
ATOM     30  O   UNL     1      12.073  38.069  45.565  1.00  0.00    -0.452 OA
ATOM     31  C   UNL     1      11.895  40.376  44.744  1.00  0.00     0.111 A 
ATOM     32  O   UNL     1      12.492  41.508  46.560  1.00  0.00    -0.285 OA
ATOM     33  C   UNL     1      12.065  38.982  44.532  1.00  0.00     0.146 A 
ATOM     34  C   UNL     1      12.444  41.351  43.868  1.00  0.00     0.134 A 
ATOM     35  C   UNL     1      12.481  38.605  43.251  1.00  0.00     0.094 A 
ATOM     36  C   UNL     1      13.102  40.926  42.725  1.00  0.00     0.093 A 
ATOM     37  C   UNL     1      13.011  39.584  42.345  1.00  0.00     0.123 A 
BRANCH  28  38
ATOM     38  C   UNL     1      11.773  37.753  48.087  1.00  0.00     0.025 A 
ATOM     39  C   UNL     1      11.254  36.426  48.280  1.00  0.00     0.062 A 
ATOM     40  C   UNL     1      12.626  38.238  49.035  1.00  0.00     0.016 A 
ATOM     41  C   UNL     1      12.169  35.562  48.884  1.00  0.00     0.158 A 
ATOM     42  C   UNL     1      13.494  37.331  49.651  1.00  0.00     0.051 A 
ATOM     43  C   UNL     1      13.467  36.037  49.099  1.00  0.00     0.157 A 
BRANCH  41  44
ATOM     44  O   UNL     1      11.825  34.311  49.303  1.00  0.00    -0.504 OA
ATOM     45  H   UNL     1      10.864  33.966  49.376  1.00  0.00     0.293 HD
ENDBRANCH  41  44
BRANCH  43  46
ATOM     46  O   UNL     1      14.256  35.883  47.920  1.00  0.00    -0.504 OA
ATOM     47  H   UNL     1      13.918  35.117  47.348  1.00  0.00     0.293 HD
ENDBRANCH  43  46
ENDBRANCH  28  38
BRANCH  34  48
ATOM     48  O   UNL     1      12.394  42.640  44.244  1.00  0.00    -0.507 OA
ATOM     49  H   UNL     1      11.811  43.072  44.954  1.00  0.00     0.293 HD
ENDBRANCH  34  48
BRANCH  37  50
ATOM     50  O   UNL     1      13.594  39.199  41.118  1.00  0.00    -0.508 OA
ATOM     51  H   UNL     1      14.574  39.299  41.073  1.00  0.00     0.293 HD
ENDBRANCH  37  50
ENDBRANCH  26  27
ENDBRANCH   5  26
BRANCH   4  52
ATOM     52  O   UNL     1       7.200  41.393  47.981  1.00  0.00    -0.384 OA
ATOM     53  H   UNL     1       7.410  41.295  48.914  1.00  0.00     0.211 HD
ENDBRANCH   4  52
TORSDOF 16
ENDMDL
MODEL 2
REMARK VINA RESULT:    -8.967      4.913      9.972
REMARK INTER + INTRA:         -16.450
REMARK INTER:                 -14.185
REMARK INTRA:                  -2.265
REMARK UNBOUND:                -2.504
REMARK SMILES C[C@H]1O[C@@H](OC[C@H]2O[C@@H](Oc3c(-c4ccc(O)c(O)c4)oc4cc(O)cc(O)c4c3=O)[C@@H](O)[C@@H](O)[C@H]2O)[C@@H](O)[C@H](O)[C@H]1O
REMARK SMILES IDX 7 1 36 2 34 3 32 4 9 5 8 6 6 7 5 8 4 9 1 10 2 11 42 12 3 13
REMARK SMILES IDX 40 14 38 15 43 16 41 18 39 20 37 22 35 24 10 26 11 27 12 28
REMARK SMILES IDX 30 29 21 30 29 31 31 32 22 33 27 34 23 35 26 36 24 37 13 38
REMARK SMILES IDX 20 39 14 40 18 41 15 42 16 43 19 44 17 46 28 48 25 50 33 52
REMARK H PARENT 43 17 41 19 39 21 37 23 35 25 19 45 17 47 28 49 25 51 33 53
REMARK Flexibility Score: inf
ROOT
ATOM      1  C   UNL     1       6.701  34.831  48.845  1.00  0.00     0.180 C 
ATOM      2  C   UNL     1       7.559  33.504  48.416  1.00  0.00     0.177 C 
ATOM      3  C   UNL     1       8.267  33.749  47.128  1.00  0.00     0.180 C 
ATOM      4  C   UNL     1       9.129  34.983  47.338  1.00  0.00     0.214 C 
ATOM      5  C   UNL     1       8.418  36.307  47.708  1.00  0.00     0.339 C 
ATOM      6  O   UNL     1       7.076  36.170  48.296  1.00  0.00    -0.332 OA
ENDROOT
BRANCH   1   7
ATOM      7  C   UNL     1       6.000  34.502  50.401  1.00  0.00     0.198 C 
BRANCH   7   8
ATOM      8  O   UNL     1       6.125  35.023  51.770  1.00  0.00    -0.347 OA
BRANCH   8   9
ATOM      9  C   UNL     1       4.912  35.138  52.590  1.00  0.00     0.281 C 
ATOM     10  C   UNL     1       4.490  36.168  56.125  1.00  0.00     0.041 C 
ATOM     11  C   UNL     1       4.240  36.055  54.633  1.00  0.00     0.150 C 
ATOM     12  C   UNL     1       2.794  35.820  54.192  1.00  0.00     0.174 C 
ATOM     13  O   UNL     1       5.291  35.320  53.985  1.00  0.00    -0.344 OA
ATOM     14  C   UNL     1       2.622  34.467  53.356  1.00  0.00     0.179 C 
ATOM     15  C   UNL     1       3.914  33.898  52.638  1.00  0.00     0.202 C 
BRANCH  12  16
ATOM     16  O   UNL     1       1.770  36.078  55.220  1.00  0.00    -0.388 OA
ATOM     17  H   UNL     1       0.998  36.541  54.750  1.00  0.00     0.211 HD
ENDBRANCH  12  16
BRANCH  14  18
ATOM     18  O   UNL     1       2.015  34.962  52.177  1.00  0.00    -0.387 OA
ATOM     19  H   UNL     1       2.111  34.303  51.420  1.00  0.00     0.211 HD
ENDBRANCH  14  18
BRANCH  15  20
ATOM     20  O   UNL     1       4.521  32.997  53.452  1.00  0.00    -0.385 OA
ATOM     21  H   UNL     1       5.189  33.430  54.004  1.00  0.00     0.211 HD
ENDBRANCH  15  20
ENDBRANCH   8   9
ENDBRANCH   7   8
ENDBRANCH   1   7
BRANCH   2  22
ATOM     22  O   UNL     1       8.527  33.079  49.369  1.00  0.00    -0.387 OA
ATOM     23  H   UNL     1       9.195  32.315  49.023  1.00  0.00     0.211 HD
ENDBRANCH   2  22
BRANCH   3  24
ATOM     24  O   UNL     1       9.002  32.603  46.711  1.00  0.00    -0.387 OA
ATOM     25  H   UNL     1       9.839  32.838  46.284  1.00  0.00     0.211 HD
ENDBRANCH   3  24
BRANCH   5  26
ATOM     26  O   UNL     1       9.089  37.483  48.273  1.00  0.00    -0.454 OA
BRANCH  26  27
ATOM     27  C   UNL     1       8.852  38.886  47.821  1.00  0.00     0.214 A 
ATOM     28  C   UNL     1       9.419  39.340  46.609  1.00  0.00     0.180 A 
ATOM     29  C   UNL     1       7.985  39.784  48.316  1.00  0.00     0.239 A 
ATOM     30  O   UNL     1       8.559  39.900  45.678  1.00  0.00    -0.452 OA
ATOM     31  C   UNL     1       6.963  40.294  47.501  1.00  0.00     0.111 A 
ATOM     32  O   UNL     1       8.354  40.646  49.198  1.00  0.00    -0.285 OA
ATOM     33  C   UNL     1       7.310  40.275  46.124  1.00  0.00     0.146 A 
ATOM     34  C   UNL     1       5.984  41.179  48.027  1.00  0.00     0.134 A 
ATOM     35  C   UNL     1       6.407  40.900  45.259  1.00  0.00     0.094 A 
ATOM     36  C   UNL     1       5.287  41.998  47.153  1.00  0.00     0.093 A 
ATOM     37  C   UNL     1       5.394  41.774  45.778  1.00  0.00     0.123 A 
BRANCH  28  38
ATOM     38  C   UNL     1      10.849  38.992  46.372  1.00  0.00     0.025 A 
ATOM     39  C   UNL     1      11.979  39.679  46.935  1.00  0.00     0.062 A 
ATOM     40  C   UNL     1      11.076  37.775  45.799  1.00  0.00     0.016 A 
ATOM     41  C   UNL     1      12.916  38.816  47.507  1.00  0.00     0.158 A 
ATOM     42  C   UNL     1      12.056  36.960  46.374  1.00  0.00     0.051 A 
ATOM     43  C   UNL     1      12.591  37.457  47.576  1.00  0.00     0.157 A 
BRANCH  41  44
ATOM     44  O   UNL     1      14.131  39.248  47.950  1.00  0.00    -0.504 OA
ATOM     45  H   UNL     1      14.443  40.222  47.933  1.00  0.00     0.293 HD
ENDBRANCH  41  44
BRANCH  43  46
ATOM     46  O   UNL     1      11.794  37.193  48.730  1.00  0.00    -0.504 OA
ATOM     47  H   UNL     1      12.371  36.980  49.535  1.00  0.00     0.293 HD
ENDBRANCH  43  46
ENDBRANCH  28  38
BRANCH  34  48
ATOM     48  O   UNL     1       5.853  41.259  49.362  1.00  0.00    -0.507 OA
ATOM     49  H   UNL     1       6.578  41.252  50.072  1.00  0.00     0.293 HD
ENDBRANCH  34  48
BRANCH  37  50
ATOM     50  O   UNL     1       4.587  42.546  44.914  1.00  0.00    -0.508 OA
ATOM     51  H   UNL     1       3.652  42.658  45.206  1.00  0.00     0.293 HD
ENDBRANCH  37  50
ENDBRANCH  26  27
ENDBRANCH   5  26
BRANCH   4  52
ATOM     52  O   UNL     1      10.151  34.714  48.225  1.00  0.00    -0.384 OA
ATOM     53  H   UNL     1       9.748  34.561  49.083  1.00  0.00     0.211 HD
ENDBRANCH   4  52
TORSDOF 16
ENDMDL
MODEL 3
REMARK VINA RESULT:    -8.695      1.562      6.001
REMARK INTER + INTRA:         -16.028
REMARK INTER:                 -12.930
REMARK INTRA:                  -3.097
REMARK UNBOUND:                -2.504
REMARK SMILES C[C@H]1O[C@@H](OC[C@H]2O[C@@H](Oc3c(-c4ccc(O)c(O)c4)oc4cc(O)cc(O)c4c3=O)[C@@H](O)[C@@H](O)[C@H]2O)[C@@H](O)[C@H](O)[C@H]1O
REMARK SMILES IDX 7 1 36 2 34 3 32 4 9 5 8 6 6 7 5 8 4 9 1 10 2 11 42 12 3 13
REMARK SMILES IDX 40 14 38 15 43 16 41 18 39 20 37 22 35 24 10 26 11 27 12 28
REMARK SMILES IDX 30 29 21 30 29 31 31 32 22 33 27 34 23 35 26 36 24 37 13 38
REMARK SMILES IDX 20 39 14 40 18 41 15 42 16 43 19 44 17 46 28 48 25 50 33 52
REMARK H PARENT 43 17 41 19 39 21 37 23 35 25 19 45 17 47 28 49 25 51 33 53
REMARK Flexibility Score: inf
ROOT
ATOM      1  C   UNL     1      12.931  42.029  43.771  1.00  0.00     0.180 C 
ATOM      2  C   UNL     1      13.028  40.731  42.777  1.00  0.00     0.177 C 
ATOM      3  C   UNL     1      13.485  39.536  43.542  1.00  0.00     0.180 C 
ATOM      4  C   UNL     1      12.496  39.351  44.682  1.00  0.00     0.214 C 
ATOM      5  C   UNL     1      12.352  40.501  45.707  1.00  0.00     0.339 C 
ATOM      6  O   UNL     1      12.787  41.829  45.245  1.00  0.00    -0.332 OA
ENDROOT
BRANCH   1   7
ATOM      7  C   UNL     1      12.291  43.343  42.830  1.00  0.00     0.198 C 
BRANCH   7   8
ATOM      8  O   UNL     1      11.248  44.369  42.983  1.00  0.00    -0.347 OA
BRANCH   8   9
ATOM      9  C   UNL     1       9.843  43.968  42.834  1.00  0.00     0.281 C 
ATOM     10  C   UNL     1       8.325  40.602  42.523  1.00  0.00     0.041 C 
ATOM     11  C   UNL     1       8.532  42.037  42.969  1.00  0.00     0.150 C 
ATOM     12  C   UNL     1       7.302  42.947  42.960  1.00  0.00     0.174 C 
ATOM     13  O   UNL     1       9.782  42.556  42.483  1.00  0.00    -0.344 OA
ATOM     14  C   UNL     1       7.490  44.220  42.010  1.00  0.00     0.179 C 
ATOM     15  C   UNL     1       8.977  44.668  41.697  1.00  0.00     0.202 C 
BRANCH  12  16
ATOM     16  O   UNL     1       6.005  42.254  42.862  1.00  0.00    -0.388 OA
ATOM     17  H   UNL     1       5.298  42.977  42.758  1.00  0.00     0.211 HD
ENDBRANCH  12  16
BRANCH  14  18
ATOM     18  O   UNL     1       7.218  45.269  42.921  1.00  0.00    -0.387 OA
ATOM     19  H   UNL     1       7.665  46.124  42.628  1.00  0.00     0.211 HD
ENDBRANCH  14  18
BRANCH  15  20
ATOM     20  O   UNL     1       9.387  44.087  40.541  1.00  0.00    -0.385 OA
ATOM     21  H   UNL     1       9.993  43.354  40.723  1.00  0.00     0.211 HD
ENDBRANCH  15  20
ENDBRANCH   8   9
ENDBRANCH   7   8
ENDBRANCH   1   7
BRANCH   2  22
ATOM     22  O   UNL     1      11.815  40.386  42.117  1.00  0.00    -0.387 OA
ATOM     23  H   UNL     1      11.169  39.735  42.674  1.00  0.00     0.211 HD
ENDBRANCH   2  22
BRANCH   3  24
ATOM     24  O   UNL     1      13.607  38.395  42.699  1.00  0.00    -0.387 OA
ATOM     25  H   UNL     1      14.435  37.914  42.851  1.00  0.00     0.211 HD
ENDBRANCH   3  24
BRANCH   5  26
ATOM     26  O   UNL     1      11.233  40.644  46.645  1.00  0.00    -0.454 OA
BRANCH  26  27
ATOM     27  C   UNL     1      10.736  39.554  47.536  1.00  0.00     0.214 A 
ATOM     28  C   UNL     1       9.392  39.126  47.440  1.00  0.00     0.180 A 
ATOM     29  C   UNL     1      11.448  38.739  48.330  1.00  0.00     0.239 A 
ATOM     30  O   UNL     1       9.171  37.772  47.243  1.00  0.00    -0.452 OA
ATOM     31  C   UNL     1      11.429  37.354  48.112  1.00  0.00     0.111 A 
ATOM     32  O   UNL     1      11.621  39.013  49.576  1.00  0.00    -0.285 OA
ATOM     33  C   UNL     1      10.227  36.922  47.489  1.00  0.00     0.146 A 
ATOM     34  C   UNL     1      12.240  36.481  48.886  1.00  0.00     0.134 A 
ATOM     35  C   UNL     1      10.066  35.538  47.368  1.00  0.00     0.094 A 
ATOM     36  C   UNL     1      11.889  35.144  48.971  1.00  0.00     0.093 A 
ATOM     37  C   UNL     1      10.898  34.644  48.122  1.00  0.00     0.123 A 
BRANCH  28  38
ATOM     38  C   UNL     1       8.357  40.195  47.364  1.00  0.00     0.025 A 
ATOM     39  C   UNL     1       7.523  40.469  46.225  1.00  0.00     0.062 A 
ATOM     40  C   UNL     1       8.002  40.764  48.552  1.00  0.00     0.016 A 
ATOM     41  C   UNL     1       6.171  40.588  46.551  1.00  0.00     0.158 A 
ATOM     42  C   UNL     1       6.637  40.909  48.820  1.00  0.00     0.051 A 
ATOM     43  C   UNL     1       5.792  40.309  47.868  1.00  0.00     0.157 A 
BRANCH  41  44
ATOM     44  O   UNL     1       5.237  41.006  45.649  1.00  0.00    -0.504 OA
ATOM     45  H   UNL     1       4.242  40.769  45.691  1.00  0.00     0.293 HD
ENDBRANCH  41  44
BRANCH  43  46
ATOM     46  O   UNL     1       5.606  38.905  48.047  1.00  0.00    -0.504 OA
ATOM     47  H   UNL     1       5.000  38.521  47.332  1.00  0.00     0.293 HD
ENDBRANCH  43  46
ENDBRANCH  28  38
BRANCH  34  48
ATOM     48  O   UNL     1      13.253  37.015  49.589  1.00  0.00    -0.507 OA
ATOM     49  H   UNL     1      13.427  37.990  49.811  1.00  0.00     0.293 HD
ENDBRANCH  34  48
BRANCH  37  50
ATOM     50  O   UNL     1      10.638  33.256  48.147  1.00  0.00    -0.508 OA
ATOM     51  H   UNL     1      11.107  32.757  48.856  1.00  0.00     0.293 HD
ENDBRANCH  37  50
ENDBRANCH  26  27
ENDBRANCH   5  26
BRANCH   4  52
ATOM     52  O   UNL     1      11.262  38.973  44.195  1.00  0.00    -0.384 OA
ATOM     53  H   UNL     1      10.868  39.750  43.789  1.00  0.00     0.211 HD
ENDBRANCH   4  52
TORSDOF 16
ENDMDL
MODEL 4
REMARK VINA RESULT:    -8.658      3.431      8.534
REMARK INTER + INTRA:         -15.971
REMARK INTER:                 -14.410
REMARK INTRA:                  -1.561
REMARK UNBOUND:                -2.504
REMARK SMILES C[C@H]1O[C@@H](OC[C@H]2O[C@@H](Oc3c(-c4ccc(O)c(O)c4)oc4cc(O)cc(O)c4c3=O)[C@@H](O)[C@@H](O)[C@H]2O)[C@@H](O)[C@H](O)[C@H]1O
REMARK SMILES IDX 7 1 36 2 34 3 32 4 9 5 8 6 6 7 5 8 4 9 1 10 2 11 42 12 3 13
REMARK SMILES IDX 40 14 38 15 43 16 41 18 39 20 37 22 35 24 10 26 11 27 12 28
REMARK SMILES IDX 30 29 21 30 29 31 31 32 22 33 27 34 23 35 26 36 24 37 13 38
REMARK SMILES IDX 20 39 14 40 18 41 15 42 16 43 19 44 17 46 28 48 25 50 33 52
REMARK H PARENT 43 17 41 19 39 21 37 23 35 25 19 45 17 47 28 49 25 51 33 53
REMARK Flexibility Score: inf
ROOT
ATOM      1  C   UNL     1      11.038  38.059  44.713  1.00  0.00     0.180 C 
ATOM      2  C   UNL     1      12.101  38.178  45.952  1.00  0.00     0.177 C 
ATOM      3  C   UNL     1      12.413  39.611  46.221  1.00  0.00     0.180 C 
ATOM      4  C   UNL     1      11.085  40.296  46.497  1.00  0.00     0.214 C 
ATOM      5  C   UNL     1      10.017  40.281  45.377  1.00  0.00     0.339 C 
ATOM      6  O   UNL     1      10.165  39.222  44.366  1.00  0.00    -0.332 OA
ENDROOT
BRANCH   1   7
ATOM      7  C   UNL     1      10.647  36.374  44.538  1.00  0.00     0.198 C 
BRANCH   7   8
ATOM      8  O   UNL     1      10.726  35.355  43.481  1.00  0.00    -0.347 OA
BRANCH   8   9
ATOM      9  C   UNL     1       9.727  34.279  43.468  1.00  0.00     0.281 C 
ATOM     10  C   UNL     1       8.941  31.697  46.007  1.00  0.00     0.041 C 
ATOM     11  C   UNL     1       8.737  32.767  44.951  1.00  0.00     0.150 C 
ATOM     12  C   UNL     1       7.700  32.475  43.864  1.00  0.00     0.174 C 
ATOM     13  O   UNL     1       9.987  33.368  44.573  1.00  0.00    -0.344 OA
ATOM     14  C   UNL     1       8.333  32.494  42.395  1.00  0.00     0.179 C 
ATOM     15  C   UNL     1       9.673  33.317  42.201  1.00  0.00     0.202 C 
BRANCH  12  16
ATOM     16  O   UNL     1       6.776  31.365  44.155  1.00  0.00    -0.388 OA
ATOM     17  H   UNL     1       6.895  31.140  45.139  1.00  0.00     0.211 HD
ENDBRANCH  12  16
BRANCH  14  18
ATOM     18  O   UNL     1       7.495  33.442  41.761  1.00  0.00    -0.387 OA
ATOM     19  H   UNL     1       7.350  33.202  40.793  1.00  0.00     0.211 HD
ENDBRANCH  14  18
BRANCH  15  20
ATOM     20  O   UNL     1      10.735  32.486  42.352  1.00  0.00    -0.385 OA
ATOM     21  H   UNL     1      10.502  31.731  42.912  1.00  0.00     0.211 HD
ENDBRANCH  15  20
ENDBRANCH   8   9
ENDBRANCH   7   8
ENDBRANCH   1   7
BRANCH   2  22
ATOM     22  O   UNL     1      11.669  37.592  47.175  1.00  0.00    -0.387 OA
ATOM     23  H   UNL     1      10.884  38.124  47.676  1.00  0.00     0.211 HD
ENDBRANCH   2  22
BRANCH   3  24
ATOM     24  O   UNL     1      13.359  39.748  47.276  1.00  0.00    -0.387 OA
ATOM     25  H   UNL     1      12.939  39.991  48.115  1.00  0.00     0.211 HD
ENDBRANCH   3  24
BRANCH   5  26
ATOM     26  O   UNL     1       8.595  40.577  45.580  1.00  0.00    -0.454 OA
BRANCH  26  27
ATOM     27  C   UNL     1       7.725  41.259  44.576  1.00  0.00     0.214 A 
ATOM     28  C   UNL     1       6.589  41.982  45.005  1.00  0.00     0.180 A 
ATOM     29  C   UNL     1       7.964  41.465  43.271  1.00  0.00     0.239 A 
ATOM     30  O   UNL     1       6.481  43.299  44.589  1.00  0.00    -0.452 OA
ATOM     31  C   UNL     1       8.044  42.773  42.770  1.00  0.00     0.111 A 
ATOM     32  O   UNL     1       7.521  40.649  42.380  1.00  0.00    -0.285 OA
ATOM     33  C   UNL     1       7.286  43.693  43.542  1.00  0.00     0.146 A 
ATOM     34  C   UNL     1       8.380  43.015  41.411  1.00  0.00     0.134 A 
ATOM     35  C   UNL     1       7.194  44.990  43.027  1.00  0.00     0.094 A 
ATOM     36  C   UNL     1       8.024  44.226  40.841  1.00  0.00     0.093 A 
ATOM     37  C   UNL     1       7.558  45.255  41.664  1.00  0.00     0.123 A 
BRANCH  28  38
ATOM     38  C   UNL     1       5.723  41.319  46.021  1.00  0.00     0.025 A 
ATOM     39  C   UNL     1       5.678  39.907  46.286  1.00  0.00     0.062 A 
ATOM     40  C   UNL     1       5.142  42.148  46.937  1.00  0.00     0.016 A 
ATOM     41  C   UNL     1       5.772  39.600  47.644  1.00  0.00     0.158 A 
ATOM     42  C   UNL     1       5.217  41.780  48.284  1.00  0.00     0.051 A 
ATOM     43  C   UNL     1       6.019  40.651  48.533  1.00  0.00     0.157 A 
BRANCH  41  44
ATOM     44  O   UNL     1       5.587  38.336  48.121  1.00  0.00    -0.504 OA
ATOM     45  H   UNL     1       5.926  38.000  49.026  1.00  0.00     0.293 HD
ENDBRANCH  41  44
BRANCH  43  46
ATOM     46  O   UNL     1       7.418  40.926  48.603  1.00  0.00    -0.504 OA
ATOM     47  H   UNL     1       7.966  40.120  48.326  1.00  0.00     0.293 HD
ENDBRANCH  43  46
ENDBRANCH  28  38
BRANCH  34  48
ATOM     48  O   UNL     1       8.936  42.013  40.708  1.00  0.00    -0.507 OA
ATOM     49  H   UNL     1       9.302  41.129  41.044  1.00  0.00     0.293 HD
ENDBRANCH  34  48
BRANCH  37  50
ATOM     50  O   UNL     1       7.310  46.515  41.077  1.00  0.00    -0.508 OA
ATOM     51  H   UNL     1       8.022  46.844  40.480  1.00  0.00     0.293 HD
ENDBRANCH  37  50
ENDBRANCH  26  27
ENDBRANCH   5  26
BRANCH   4  52
ATOM     52  O   UNL     1      10.550  39.851  47.689  1.00  0.00    -0.384 OA
ATOM     53  H   UNL     1      10.541  40.599  48.292  1.00  0.00     0.211 HD
ENDBRANCH   4  52
TORSDOF 16
ENDMDL
MODEL 5
REMARK VINA RESULT:    -8.615      1.461      4.868
REMARK INTER + INTRA:         -15.904
REMARK INTER:                 -13.541
REMARK INTRA:                  -2.363
REMARK UNBOUND:                -2.504
REMARK SMILES C[C@H]1O[C@@H](OC[C@H]2O[C@@H](Oc3c(-c4ccc(O)c(O)c4)oc4cc(O)cc(O)c4c3=O)[C@@H](O)[C@@H](O)[C@H]2O)[C@@H](O)[C@H](O)[C@H]1O
REMARK SMILES IDX 7 1 36 2 34 3 32 4 9 5 8 6 6 7 5 8 4 9 1 10 2 11 42 12 3 13
REMARK SMILES IDX 40 14 38 15 43 16 41 18 39 20 37 22 35 24 10 26 11 27 12 28
REMARK SMILES IDX 30 29 21 30 29 31 31 32 22 33 27 34 23 35 26 36 24 37 13 38
REMARK SMILES IDX 20 39 14 40 18 41 15 42 16 43 19 44 17 46 28 48 25 50 33 52
REMARK H PARENT 43 17 41 19 39 21 37 23 35 25 19 45 17 47 28 49 25 51 33 53
REMARK Flexibility Score: inf
ROOT
ATOM      1  C   UNL     1       7.225  40.415  44.890  1.00  0.00     0.180 C 
ATOM      2  C   UNL     1       6.228  40.661  46.166  1.00  0.00     0.177 C 
ATOM      3  C   UNL     1       6.493  39.643  47.222  1.00  0.00     0.180 C 
ATOM      4  C   UNL     1       7.967  39.762  47.575  1.00  0.00     0.214 C 
ATOM      5  C   UNL     1       9.001  39.510  46.452  1.00  0.00     0.339 C 
ATOM      6  O   UNL     1       8.503  39.663  45.076  1.00  0.00    -0.332 OA
ENDROOT
BRANCH   1   7
ATOM      7  C   UNL     1       6.928  41.701  43.758  1.00  0.00     0.198 C 
BRANCH   7   8
ATOM      8  O   UNL     1       7.075  41.916  42.311  1.00  0.00    -0.347 OA
BRANCH   8   9
ATOM      9  C   UNL     1       7.744  43.139  41.848  1.00  0.00     0.281 C 
ATOM     10  C   UNL     1      11.240  43.696  40.752  1.00  0.00     0.041 C 
ATOM     11  C   UNL     1       9.725  43.773  40.781  1.00  0.00     0.150 C 
ATOM     12  C   UNL     1       9.100  45.155  40.578  1.00  0.00     0.174 C 
ATOM     13  O   UNL     1       9.181  42.907  41.791  1.00  0.00    -0.344 OA
ATOM     14  C   UNL     1       8.194  45.604  41.818  1.00  0.00     0.179 C 
ATOM     15  C   UNL     1       7.617  44.451  42.739  1.00  0.00     0.202 C 
BRANCH  12  16
ATOM     16  O   UNL     1      10.005  46.184  40.035  1.00  0.00    -0.388 OA
ATOM     17  H   UNL     1       9.472  46.699  39.340  1.00  0.00     0.211 HD
ENDBRANCH  12  16
BRANCH  14  18
ATOM     18  O   UNL     1       6.971  45.882  41.162  1.00  0.00    -0.387 OA
ATOM     19  H   UNL     1       6.691  45.108  40.580  1.00  0.00     0.211 HD
ENDBRANCH  14  18
BRANCH  15  20
ATOM     20  O   UNL     1       8.461  44.245  43.782  1.00  0.00    -0.385 OA
ATOM     21  H   UNL     1       8.999  45.033  43.948  1.00  0.00     0.211 HD
ENDBRANCH  15  20
ENDBRANCH   8   9
ENDBRANCH   7   8
ENDBRANCH   1   7
BRANCH   2  22
ATOM     22  O   UNL     1       6.327  41.947  46.768  1.00  0.00    -0.387 OA
ATOM     23  H   UNL     1       5.800  42.051  47.696  1.00  0.00     0.211 HD
ENDBRANCH   2  22
BRANCH   3  24
ATOM     24  O   UNL     1       5.622  39.812  48.336  1.00  0.00    -0.387 OA
ATOM     25  H   UNL     1       5.588  40.732  48.639  1.00  0.00     0.211 HD
ENDBRANCH   3  24
BRANCH   5  26
ATOM     26  O   UNL     1      10.412  39.908  46.516  1.00  0.00    -0.454 OA
BRANCH  26  27
ATOM     27  C   UNL     1      11.550  38.954  46.674  1.00  0.00     0.214 A 
ATOM     28  C   UNL     1      12.877  39.440  46.702  1.00  0.00     0.180 A 
ATOM     29  C   UNL     1      11.505  37.652  46.998  1.00  0.00     0.239 A 
ATOM     30  O   UNL     1      13.661  39.077  47.785  1.00  0.00    -0.452 OA
ATOM     31  C   UNL     1      12.128  37.199  48.170  1.00  0.00     0.111 A 
ATOM     32  O   UNL     1      11.505  36.742  46.087  1.00  0.00    -0.285 OA
ATOM     33  C   UNL     1      13.218  38.025  48.556  1.00  0.00     0.146 A 
ATOM     34  C   UNL     1      12.021  35.842  48.576  1.00  0.00     0.134 A 
ATOM     35  C   UNL     1      13.983  37.562  49.631  1.00  0.00     0.094 A 
ATOM     36  C   UNL     1      12.972  35.328  49.443  1.00  0.00     0.093 A 
ATOM     37  C   UNL     1      13.865  36.201  50.071  1.00  0.00     0.123 A 
BRANCH  28  38
ATOM     38  C   UNL     1      13.236  40.453  45.669  1.00  0.00     0.025 A 
ATOM     39  C   UNL     1      13.525  40.171  44.290  1.00  0.00     0.062 A 
ATOM     40  C   UNL     1      13.006  41.754  46.009  1.00  0.00     0.016 A 
ATOM     41  C   UNL     1      12.832  40.999  43.404  1.00  0.00     0.158 A 
ATOM     42  C   UNL     1      12.351  42.563  45.075  1.00  0.00     0.051 A 
ATOM     43  C   UNL     1      11.883  41.875  43.940  1.00  0.00     0.157 A 
BRANCH  41  44
ATOM     44  O   UNL     1      13.084  41.007  42.064  1.00  0.00    -0.504 OA
ATOM     45  H   UNL     1      12.412  41.294  41.348  1.00  0.00     0.293 HD
ENDBRANCH  41  44
BRANCH  43  46
ATOM     46  O   UNL     1      10.637  41.205  44.130  1.00  0.00    -0.504 OA
ATOM     47  H   UNL     1       9.902  41.858  44.378  1.00  0.00     0.293 HD
ENDBRANCH  43  46
ENDBRANCH  28  38
BRANCH  34  48
ATOM     48  O   UNL     1      11.061  35.086  48.016  1.00  0.00    -0.507 OA
ATOM     49  H   UNL     1      10.775  34.143  48.256  1.00  0.00     0.293 HD
ENDBRANCH  34  48
BRANCH  37  50
ATOM     50  O   UNL     1      14.748  35.669  51.035  1.00  0.00    -0.508 OA
ATOM     51  H   UNL     1      14.438  34.842  51.473  1.00  0.00     0.293 HD
ENDBRANCH  37  50
ENDBRANCH  26  27
ENDBRANCH   5  26
BRANCH   4  52
ATOM     52  O   UNL     1       8.217  40.962  48.209  1.00  0.00    -0.384 OA
ATOM     53  H   UNL     1       9.105  41.233  47.963  1.00  0.00     0.211 HD
ENDBRANCH   4  52
TORSDOF 16
ENDMDL
MODEL 6
REMARK VINA RESULT:    -8.421      3.306      8.246
REMARK INTER + INTRA:         -15.601
REMARK INTER:                 -13.185
REMARK INTRA:                  -2.416
REMARK UNBOUND:                -2.504
REMARK SMILES C[C@H]1O[C@@H](OC[C@H]2O[C@@H](Oc3c(-c4ccc(O)c(O)c4)oc4cc(O)cc(O)c4c3=O)[C@@H](O)[C@@H](O)[C@H]2O)[C@@H](O)[C@H](O)[C@H]1O
REMARK SMILES IDX 7 1 36 2 34 3 32 4 9 5 8 6 6 7 5 8 4 9 1 10 2 11 42 12 3 13
REMARK SMILES IDX 40 14 38 15 43 16 41 18 39 20 37 22 35 24 10 26 11 27 12 28
REMARK SMILES IDX 30 29 21 30 29 31 31 32 22 33 27 34 23 35 26 36 24 37 13 38
REMARK SMILES IDX 20 39 14 40 18 41 15 42 16 43 19 44 17 46 28 48 25 50 33 52
REMARK H PARENT 43 17 41 19 39 21 37 23 35 25 19 45 17 47 28 49 25 51 33 53
REMARK Flexibility Score: inf
ROOT
ATOM      1  C   UNL     1      10.606  37.996  43.737  1.00  0.00     0.180 C 
ATOM      2  C   UNL     1      11.907  38.780  43.125  1.00  0.00     0.177 C 
ATOM      3  C   UNL     1      11.537  40.179  42.767  1.00  0.00     0.180 C 
ATOM      4  C   UNL     1      10.989  40.816  44.033  1.00  0.00     0.214 C 
ATOM      5  C   UNL     1       9.733  40.181  44.677  1.00  0.00     0.339 C 
ATOM      6  O   UNL     1       9.473  38.777  44.322  1.00  0.00    -0.332 OA
ENDROOT
BRANCH   1   7
ATOM      7  C   UNL     1      11.147  36.418  44.226  1.00  0.00     0.198 C 
BRANCH   7   8
ATOM      8  O   UNL     1      10.673  35.345  45.112  1.00  0.00    -0.347 OA
BRANCH   8   9
ATOM      9  C   UNL     1       9.836  34.282  44.541  1.00  0.00     0.281 C 
ATOM     10  C   UNL     1       8.714  31.063  45.995  1.00  0.00     0.041 C 
ATOM     11  C   UNL     1       8.672  32.379  45.241  1.00  0.00     0.150 C 
ATOM     12  C   UNL     1       7.989  32.369  43.872  1.00  0.00     0.174 C 
ATOM     13  O   UNL     1       9.903  33.106  45.397  1.00  0.00    -0.344 OA
ATOM     14  C   UNL     1       8.974  32.822  42.695  1.00  0.00     0.179 C 
ATOM     15  C   UNL     1      10.218  33.713  43.103  1.00  0.00     0.202 C 
BRANCH  12  16
ATOM     16  O   UNL     1       7.150  31.190  43.594  1.00  0.00    -0.388 OA
ATOM     17  H   UNL     1       6.847  31.272  42.628  1.00  0.00     0.211 HD
ENDBRANCH  12  16
BRANCH  14  18
ATOM     18  O   UNL     1       8.228  33.881  42.123  1.00  0.00    -0.387 OA
ATOM     19  H   UNL     1       7.779  34.432  42.838  1.00  0.00     0.211 HD
ENDBRANCH  14  18
BRANCH  15  20
ATOM     20  O   UNL     1      11.291  32.912  43.322  1.00  0.00    -0.385 OA
ATOM     21  H   UNL     1      11.248  32.516  44.205  1.00  0.00     0.211 HD
ENDBRANCH  15  20
ENDBRANCH   8   9
ENDBRANCH   7   8
ENDBRANCH   1   7
BRANCH   2  22
ATOM     22  O   UNL     1      13.036  38.837  43.989  1.00  0.00    -0.387 OA
ATOM     23  H   UNL     1      12.999  38.165  44.824  1.00  0.00     0.211 HD
ENDBRANCH   2  22
BRANCH   3  24
ATOM     24  O   UNL     1      12.641  40.881  42.205  1.00  0.00    -0.387 OA
ATOM     25  H   UNL     1      13.403  40.303  42.050  1.00  0.00     0.211 HD
ENDBRANCH   3  24
BRANCH   5  26
ATOM     26  O   UNL     1       9.281  40.437  46.049  1.00  0.00    -0.454 OA
BRANCH  26  27
ATOM     27  C   UNL     1       9.885  39.816  47.265  1.00  0.00     0.214 A 
ATOM     28  C   UNL     1       9.110  38.951  48.072  1.00  0.00     0.180 A 
ATOM     29  C   UNL     1      11.175  39.797  47.636  1.00  0.00     0.239 A 
ATOM     30  O   UNL     1       9.629  37.692  48.330  1.00  0.00    -0.452 OA
ATOM     31  C   UNL     1      11.850  38.574  47.766  1.00  0.00     0.111 A 
ATOM     32  O   UNL     1      11.644  40.678  48.450  1.00  0.00    -0.285 OA
ATOM     33  C   UNL     1      10.970  37.503  48.077  1.00  0.00     0.146 A 
ATOM     34  C   UNL     1      13.236  38.534  48.075  1.00  0.00     0.134 A 
ATOM     35  C   UNL     1      11.580  36.278  48.367  1.00  0.00     0.094 A 
ATOM     36  C   UNL     1      13.764  37.378  48.627  1.00  0.00     0.093 A 
ATOM     37  C   UNL     1      12.985  36.218  48.653  1.00  0.00     0.123 A 
BRANCH  28  38
ATOM     38  C   UNL     1       7.729  39.405  48.398  1.00  0.00     0.025 A 
ATOM     39  C   UNL     1       7.324  40.771  48.591  1.00  0.00     0.062 A 
ATOM     40  C   UNL     1       6.744  38.476  48.231  1.00  0.00     0.016 A 
ATOM     41  C   UNL     1       6.177  41.110  47.871  1.00  0.00     0.158 A 
ATOM     42  C   UNL     1       5.591  38.869  47.545  1.00  0.00     0.051 A 
ATOM     43  C   UNL     1       5.660  40.158  46.985  1.00  0.00     0.157 A 
BRANCH  41  44
ATOM     44  O   UNL     1       5.535  42.301  48.038  1.00  0.00    -0.504 OA
ATOM     45  H   UNL     1       5.828  43.184  47.613  1.00  0.00     0.293 HD
ENDBRANCH  41  44
BRANCH  43  46
ATOM     46  O   UNL     1       6.342  40.220  45.732  1.00  0.00    -0.504 OA
ATOM     47  H   UNL     1       7.347  40.181  45.858  1.00  0.00     0.293 HD
ENDBRANCH  43  46
ENDBRANCH  28  38
BRANCH  34  48
ATOM     48  O   UNL     1      13.953  39.660  47.916  1.00  0.00    -0.507 OA
ATOM     49  H   UNL     1      13.752  40.594  48.256  1.00  0.00     0.293 HD
ENDBRANCH  34  48
BRANCH  37  50
ATOM     50  O   UNL     1      13.583  35.025  49.115  1.00  0.00    -0.508 OA
ATOM     51  H   UNL     1      13.324  34.756  50.027  1.00  0.00     0.293 HD
ENDBRANCH  37  50
ENDBRANCH  26  27
ENDBRANCH   5  26
BRANCH   4  52
ATOM     52  O   UNL     1      11.991  40.974  44.969  1.00  0.00    -0.384 OA
ATOM     53  H   UNL     1      11.599  41.402  45.734  1.00  0.00     0.211 HD
ENDBRANCH   4  52
TORSDOF 16
ENDMDL
MODEL 7
REMARK VINA RESULT:    -8.377      5.997      9.134
REMARK INTER + INTRA:         -15.533
REMARK INTER:                 -12.924
REMARK INTRA:                  -2.609
REMARK UNBOUND:                -2.504
REMARK SMILES C[C@H]1O[C@@H](OC[C@H]2O[C@@H](Oc3c(-c4ccc(O)c(O)c4)oc4cc(O)cc(O)c4c3=O)[C@@H](O)[C@@H](O)[C@H]2O)[C@@H](O)[C@H](O)[C@H]1O
REMARK SMILES IDX 7 1 36 2 34 3 32 4 9 5 8 6 6 7 5 8 4 9 1 10 2 11 42 12 3 13
REMARK SMILES IDX 40 14 38 15 43 16 41 18 39 20 37 22 35 24 10 26 11 27 12 28
REMARK SMILES IDX 30 29 21 30 29 31 31 32 22 33 27 34 23 35 26 36 24 37 13 38
REMARK SMILES IDX 20 39 14 40 18 41 15 42 16 43 19 44 17 46 28 48 25 50 33 52
REMARK H PARENT 43 17 41 19 39 21 37 23 35 25 19 45 17 47 28 49 25 51 33 53
REMARK Flexibility Score: inf
ROOT
ATOM      1  C   UNL     1       8.713  34.140  48.605  1.00  0.00     0.180 C 
ATOM      2  C   UNL     1       9.015  33.057  49.795  1.00  0.00     0.177 C 
ATOM      3  C   UNL     1       7.745  32.414  50.234  1.00  0.00     0.180 C 
ATOM      4  C   UNL     1       7.126  31.791  48.994  1.00  0.00     0.214 C 
ATOM      5  C   UNL     1       6.761  32.730  47.819  1.00  0.00     0.339 C 
ATOM      6  O   UNL     1       7.467  34.020  47.787  1.00  0.00    -0.332 OA
ENDROOT
BRANCH   1   7
ATOM      7  C   UNL     1      10.249  34.760  48.079  1.00  0.00     0.198 C 
BRANCH   7   8
ATOM      8  O   UNL     1      10.733  35.860  47.232  1.00  0.00    -0.347 OA
BRANCH   8   9
ATOM      9  C   UNL     1      10.522  37.241  47.687  1.00  0.00     0.281 C 
ATOM     10  C   UNL     1       7.387  39.152  48.191  1.00  0.00     0.041 C 
ATOM     11  C   UNL     1       8.780  38.607  48.441  1.00  0.00     0.150 C 
ATOM     12  C   UNL     1       9.845  39.611  48.888  1.00  0.00     0.174 C 
ATOM     13  O   UNL     1       9.132  37.613  47.463  1.00  0.00    -0.344 OA
ATOM     14  C   UNL     1      11.086  39.675  47.881  1.00  0.00     0.179 C 
ATOM     15  C   UNL     1      11.336  38.404  46.968  1.00  0.00     0.202 C 
BRANCH  12  16
ATOM     16  O   UNL     1       9.330  40.908  49.361  1.00  0.00    -0.388 OA
ATOM     17  H   UNL     1       8.382  40.742  49.685  1.00  0.00     0.211 HD
ENDBRANCH  12  16
BRANCH  14  18
ATOM     18  O   UNL     1      12.158  39.419  48.769  1.00  0.00    -0.387 OA
ATOM     19  H   UNL     1      11.834  39.384  49.723  1.00  0.00     0.211 HD
ENDBRANCH  14  18
BRANCH  15  20
ATOM     20  O   UNL     1      10.710  38.578  45.776  1.00  0.00    -0.385 OA
ATOM     21  H   UNL     1      11.245  38.217  45.054  1.00  0.00     0.211 HD
ENDBRANCH  15  20
ENDBRANCH   8   9
ENDBRANCH   7   8
ENDBRANCH   1   7
BRANCH   2  22
ATOM     22  O   UNL     1       9.928  32.021  49.448  1.00  0.00    -0.387 OA
ATOM     23  H   UNL     1       9.563  31.026  49.612  1.00  0.00     0.211 HD
ENDBRANCH   2  22
BRANCH   3  24
ATOM     24  O   UNL     1       7.969  31.485  51.290  1.00  0.00    -0.387 OA
ATOM     25  H   UNL     1       8.817  31.024  51.198  1.00  0.00     0.211 HD
ENDBRANCH   3  24
BRANCH   5  26
ATOM     26  O   UNL     1       6.486  32.281  46.450  1.00  0.00    -0.454 OA
BRANCH  26  27
ATOM     27  C   UNL     1       7.536  31.865  45.473  1.00  0.00     0.214 A 
ATOM     28  C   UNL     1       7.248  30.870  44.512  1.00  0.00     0.180 A 
ATOM     29  C   UNL     1       8.720  32.448  45.226  1.00  0.00     0.239 A 
ATOM     30  O   UNL     1       7.481  31.187  43.183  1.00  0.00    -0.452 OA
ATOM     31  C   UNL     1       8.998  32.958  43.950  1.00  0.00     0.111 A 
ATOM     32  O   UNL     1       9.793  32.043  45.811  1.00  0.00    -0.285 OA
ATOM     33  C   UNL     1       8.272  32.286  42.930  1.00  0.00     0.146 A 
ATOM     34  C   UNL     1      10.209  33.654  43.689  1.00  0.00     0.134 A 
ATOM     35  C   UNL     1       8.601  32.636  41.616  1.00  0.00     0.094 A 
ATOM     36  C   UNL     1      10.657  33.747  42.381  1.00  0.00     0.093 A 
ATOM     37  C   UNL     1       9.807  33.364  41.340  1.00  0.00     0.123 A 
BRANCH  28  38
ATOM     38  C   UNL     1       6.539  29.655  45.003  1.00  0.00     0.025 A 
ATOM     39  C   UNL     1       6.838  28.949  46.219  1.00  0.00     0.062 A 
ATOM     40  C   UNL     1       5.356  29.369  44.386  1.00  0.00     0.016 A 
ATOM     41  C   UNL     1       5.707  28.686  46.994  1.00  0.00     0.158 A 
ATOM     42  C   UNL     1       4.258  29.064  45.197  1.00  0.00     0.051 A 
ATOM     43  C   UNL     1       4.490  29.233  46.574  1.00  0.00     0.157 A 
BRANCH  41  44
ATOM     44  O   UNL     1       5.749  27.888  48.099  1.00  0.00    -0.504 OA
ATOM     45  H   UNL     1       5.910  28.224  49.052  1.00  0.00     0.293 HD
ENDBRANCH  41  44
BRANCH  43  46
ATOM     46  O   UNL     1       4.365  30.580  47.032  1.00  0.00    -0.504 OA
ATOM     47  H   UNL     1       4.714  30.681  47.978  1.00  0.00     0.293 HD
ENDBRANCH  43  46
ENDBRANCH  28  38
BRANCH  34  48
ATOM     48  O   UNL     1      10.922  34.099  44.737  1.00  0.00    -0.507 OA
ATOM     49  H   UNL     1      11.908  33.967  44.937  1.00  0.00     0.293 HD
ENDBRANCH  34  48
BRANCH  37  50
ATOM     50  O   UNL     1      10.242  33.574  40.014  1.00  0.00    -0.508 OA
ATOM     51  H   UNL     1      10.646  34.457  39.843  1.00  0.00     0.293 HD
ENDBRANCH  37  50
ENDBRANCH  26  27
ENDBRANCH   5  26
BRANCH   4  52
ATOM     52  O   UNL     1       7.891  30.731  48.552  1.00  0.00    -0.384 OA
ATOM     53  H   UNL     1       7.351  30.231  47.935  1.00  0.00     0.211 HD
ENDBRANCH   4  52
TORSDOF 16
ENDMDL
MODEL 8
REMARK VINA RESULT:    -8.342      2.351      4.088
REMARK INTER + INTRA:         -15.479
REMARK INTER:                 -12.917
REMARK INTRA:                  -2.561
REMARK UNBOUND:                -2.504
REMARK SMILES C[C@H]1O[C@@H](OC[C@H]2O[C@@H](Oc3c(-c4ccc(O)c(O)c4)oc4cc(O)cc(O)c4c3=O)[C@@H](O)[C@@H](O)[C@H]2O)[C@@H](O)[C@H](O)[C@H]1O
REMARK SMILES IDX 7 1 36 2 34 3 32 4 9 5 8 6 6 7 5 8 4 9 1 10 2 11 42 12 3 13
REMARK SMILES IDX 40 14 38 15 43 16 41 18 39 20 37 22 35 24 10 26 11 27 12 28
REMARK SMILES IDX 30 29 21 30 29 31 31 32 22 33 27 34 23 35 26 36 24 37 13 38
REMARK SMILES IDX 20 39 14 40 18 41 15 42 16 43 19 44 17 46 28 48 25 50 33 52
REMARK H PARENT 43 17 41 19 39 21 37 23 35 25 19 45 17 47 28 49 25 51 33 53
REMARK Flexibility Score: inf
ROOT
ATOM      1  C   UNL     1       6.900  41.840  43.437  1.00  0.00     0.180 C 
ATOM      2  C   UNL     1       5.931  41.862  44.756  1.00  0.00     0.177 C 
ATOM      3  C   UNL     1       5.793  40.485  45.309  1.00  0.00     0.180 C 
ATOM      4  C   UNL     1       7.201  39.995  45.602  1.00  0.00     0.214 C 
ATOM      5  C   UNL     1       8.192  39.895  44.418  1.00  0.00     0.339 C 
ATOM      6  O   UNL     1       7.871  40.720  43.243  1.00  0.00    -0.332 OA
ENDROOT
BRANCH   1   7
ATOM      7  C   UNL     1       7.096  43.489  42.922  1.00  0.00     0.198 C 
BRANCH   7   8
ATOM      8  O   UNL     1       8.127  44.290  42.244  1.00  0.00    -0.347 OA
BRANCH   8   9
ATOM      9  C   UNL     1       9.513  43.806  42.259  1.00  0.00     0.281 C 
ATOM     10  C   UNL     1      12.712  45.677  42.262  1.00  0.00     0.041 C 
ATOM     11  C   UNL     1      11.671  44.633  42.617  1.00  0.00     0.150 C 
ATOM     12  C   UNL     1      12.147  43.181  42.693  1.00  0.00     0.174 C 
ATOM     13  O   UNL     1      10.413  44.918  41.982  1.00  0.00    -0.344 OA
ATOM     14  C   UNL     1      11.369  42.228  41.670  1.00  0.00     0.179 C 
ATOM     15  C   UNL     1       9.940  42.710  41.186  1.00  0.00     0.202 C 
BRANCH  12  16
ATOM     16  O   UNL     1      13.608  42.999  42.761  1.00  0.00    -0.388 OA
ATOM     17  H   UNL     1      13.978  43.287  41.860  1.00  0.00     0.211 HD
ENDBRANCH  12  16
BRANCH  14  18
ATOM     18  O   UNL     1      10.887  41.233  42.555  1.00  0.00    -0.387 OA
ATOM     19  H   UNL     1       9.896  41.094  42.433  1.00  0.00     0.211 HD
ENDBRANCH  14  18
BRANCH  15  20
ATOM     20  O   UNL     1      10.069  43.397  40.023  1.00  0.00    -0.385 OA
ATOM     21  H   UNL     1      10.626  42.909  39.398  1.00  0.00     0.211 HD
ENDBRANCH  15  20
ENDBRANCH   8   9
ENDBRANCH   7   8
ENDBRANCH   1   7
BRANCH   2  22
ATOM     22  O   UNL     1       6.371  42.711  45.811  1.00  0.00    -0.387 OA
ATOM     23  H   UNL     1       7.259  43.273  45.596  1.00  0.00     0.211 HD
ENDBRANCH   2  22
BRANCH   3  24
ATOM     24  O   UNL     1       4.932  40.465  46.444  1.00  0.00    -0.387 OA
ATOM     25  H   UNL     1       4.805  41.347  46.824  1.00  0.00     0.211 HD
ENDBRANCH   3  24
BRANCH   5  26
ATOM     26  O   UNL     1       9.648  39.779  44.560  1.00  0.00    -0.454 OA
BRANCH  26  27
ATOM     27  C   UNL     1      10.360  38.525  44.948  1.00  0.00     0.214 A 
ATOM     28  C   UNL     1      10.579  38.235  46.314  1.00  0.00     0.180 A 
ATOM     29  C   UNL     1      10.680  37.476  44.173  1.00  0.00     0.239 A 
ATOM     30  O   UNL     1      10.140  37.005  46.779  1.00  0.00    -0.452 OA
ATOM     31  C   UNL     1      10.152  36.208  44.457  1.00  0.00     0.111 A 
ATOM     32  O   UNL     1      11.841  37.388  43.625  1.00  0.00    -0.285 OA
ATOM     33  C   UNL     1       9.841  36.048  45.834  1.00  0.00     0.146 A 
ATOM     34  C   UNL     1      10.409  35.102  43.602  1.00  0.00     0.134 A 
ATOM     35  C   UNL     1       9.447  34.765  46.225  1.00  0.00     0.094 A 
ATOM     36  C   UNL     1      10.274  33.821  44.110  1.00  0.00     0.093 A 
ATOM     37  C   UNL     1       9.674  33.642  45.360  1.00  0.00     0.123 A 
BRANCH  28  38
ATOM     38  C   UNL     1      11.080  39.355  47.160  1.00  0.00     0.025 A 
ATOM     39  C   UNL     1      10.369  39.957  48.253  1.00  0.00     0.062 A 
ATOM     40  C   UNL     1      12.412  39.632  47.049  1.00  0.00     0.016 A 
ATOM     41  C   UNL     1      11.141  40.080  49.410  1.00  0.00     0.158 A 
ATOM     42  C   UNL     1      13.141  39.794  48.231  1.00  0.00     0.051 A 
ATOM     43  C   UNL     1      12.417  39.507  49.403  1.00  0.00     0.157 A 
BRANCH  41  44
ATOM     44  O   UNL     1      10.711  40.769  50.505  1.00  0.00    -0.504 OA
ATOM     45  H   UNL     1      10.280  41.696  50.477  1.00  0.00     0.293 HD
ENDBRANCH  41  44
BRANCH  43  46
ATOM     46  O   UNL     1      12.342  38.118  49.724  1.00  0.00    -0.504 OA
ATOM     47  H   UNL     1      13.080  37.847  50.363  1.00  0.00     0.293 HD
ENDBRANCH  43  46
ENDBRANCH  28  38
BRANCH  34  48
ATOM     48  O   UNL     1      10.876  35.352  42.367  1.00  0.00    -0.507 OA
ATOM     49  H   UNL     1      11.706  35.867  42.094  1.00  0.00     0.293 HD
ENDBRANCH  34  48
BRANCH  37  50
ATOM     50  O   UNL     1       9.444  32.322  45.805  1.00  0.00    -0.508 OA
ATOM     51  H   UNL     1       8.533  31.982  45.645  1.00  0.00     0.293 HD
ENDBRANCH  37  50
ENDBRANCH  26  27
ENDBRANCH   5  26
BRANCH   4  52
ATOM     52  O   UNL     1       7.755  40.709  46.645  1.00  0.00    -0.384 OA
ATOM     53  H   UNL     1       8.508  40.206  46.965  1.00  0.00     0.211 HD
ENDBRANCH   4  52
TORSDOF 16
ENDMDL
MODEL 9
REMARK VINA RESULT:    -8.172      5.135     10.848
REMARK INTER + INTRA:         -15.214
REMARK INTER:                 -12.272
REMARK INTRA:                  -2.942
REMARK UNBOUND:                -2.504
REMARK SMILES C[C@H]1O[C@@H](OC[C@H]2O[C@@H](Oc3c(-c4ccc(O)c(O)c4)oc4cc(O)cc(O)c4c3=O)[C@@H](O)[C@@H](O)[C@H]2O)[C@@H](O)[C@H](O)[C@H]1O
REMARK SMILES IDX 7 1 36 2 34 3 32 4 9 5 8 6 6 7 5 8 4 9 1 10 2 11 42 12 3 13
REMARK SMILES IDX 40 14 38 15 43 16 41 18 39 20 37 22 35 24 10 26 11 27 12 28
REMARK SMILES IDX 30 29 21 30 29 31 31 32 22 33 27 34 23 35 26 36 24 37 13 38
REMARK SMILES IDX 20 39 14 40 18 41 15 42 16 43 19 44 17 46 28 48 25 50 33 52
REMARK H PARENT 43 17 41 19 39 21 37 23 35 25 19 45 17 47 28 49 25 51 33 53
REMARK Flexibility Score: inf
ROOT
ATOM      1  C   UNL     1      12.448  33.514  50.564  1.00  0.00     0.180 C 
ATOM      2  C   UNL     1      13.851  34.059  51.208  1.00  0.00     0.177 C 
ATOM      3  C   UNL     1      14.663  34.738  50.159  1.00  0.00     0.180 C 
ATOM      4  C   UNL     1      13.791  35.844  49.588  1.00  0.00     0.214 C 
ATOM      5  C   UNL     1      12.457  35.439  48.917  1.00  0.00     0.339 C 
ATOM      6  O   UNL     1      11.916  34.128  49.310  1.00  0.00    -0.332 OA
ENDROOT
BRANCH   1   7
ATOM      7  C   UNL     1      11.519  32.837  51.869  1.00  0.00     0.198 C 
BRANCH   7   8
ATOM      8  O   UNL     1      10.901  31.542  52.191  1.00  0.00    -0.347 OA
BRANCH   8   9
ATOM      9  C   UNL     1       9.548  31.267  51.690  1.00  0.00     0.281 C 
ATOM     10  C   UNL     1       8.106  28.180  50.233  1.00  0.00     0.041 C 
ATOM     11  C   UNL     1       8.230  29.438  51.071  1.00  0.00     0.150 C 
ATOM     12  C   UNL     1       7.025  30.381  51.081  1.00  0.00     0.174 C 
ATOM     13  O   UNL     1       9.550  29.999  50.974  1.00  0.00    -0.344 OA
ATOM     14  C   UNL     1       7.392  31.845  50.550  1.00  0.00     0.179 C 
ATOM     15  C   UNL     1       8.912  32.282  50.641  1.00  0.00     0.202 C 
BRANCH  12  16
ATOM     16  O   UNL     1       5.768  29.806  50.571  1.00  0.00    -0.388 OA
ATOM     17  H   UNL     1       5.108  30.575  50.496  1.00  0.00     0.211 HD
ENDBRANCH  12  16
BRANCH  14  18
ATOM     18  O   UNL     1       6.956  32.636  51.641  1.00  0.00    -0.387 OA
ATOM     19  H   UNL     1       6.677  33.554  51.330  1.00  0.00     0.211 HD
ENDBRANCH  14  18
BRANCH  15  20
ATOM     20  O   UNL     1       9.531  31.999  49.467  1.00  0.00    -0.385 OA
ATOM     21  H   UNL     1      10.455  32.289  49.489  1.00  0.00     0.211 HD
ENDBRANCH  15  20
ENDBRANCH   8   9
ENDBRANCH   7   8
ENDBRANCH   1   7
BRANCH   2  22
ATOM     22  O   UNL     1      13.702  34.965  52.296  1.00  0.00    -0.387 OA
ATOM     23  H   UNL     1      14.595  35.136  52.865  1.00  0.00     0.211 HD
ENDBRANCH   2  22
BRANCH   3  24
ATOM     24  O   UNL     1      15.905  35.200  50.681  1.00  0.00    -0.387 OA
ATOM     25  H   UNL     1      16.480  35.564  49.991  1.00  0.00     0.211 HD
ENDBRANCH   3  24
BRANCH   5  26
ATOM     26  O   UNL     1      11.355  36.364  48.629  1.00  0.00    -0.454 OA
BRANCH  26  27
ATOM     27  C   UNL     1      10.351  36.166  47.542  1.00  0.00     0.214 A 
ATOM     28  C   UNL     1      10.260  37.103  46.489  1.00  0.00     0.180 A 
ATOM     29  C   UNL     1       9.602  35.080  47.290  1.00  0.00     0.239 A 
ATOM     30  O   UNL     1      10.352  36.614  45.196  1.00  0.00    -0.452 OA
ATOM     31  C   UNL     1       9.737  34.403  46.069  1.00  0.00     0.111 A 
ATOM     32  O   UNL     1       8.403  34.981  47.749  1.00  0.00    -0.285 OA
ATOM     33  C   UNL     1      10.186  35.256  45.026  1.00  0.00     0.146 A 
ATOM     34  C   UNL     1       9.017  33.205  45.815  1.00  0.00     0.134 A 
ATOM     35  C   UNL     1      10.208  34.695  43.745  1.00  0.00     0.094 A 
ATOM     36  C   UNL     1       8.815  32.814  44.501  1.00  0.00     0.093 A 
ATOM     37  C   UNL     1       9.509  33.469  43.480  1.00  0.00     0.123 A 
BRANCH  28  38
ATOM     38  C   UNL     1      10.274  38.542  46.876  1.00  0.00     0.025 A 
ATOM     39  C   UNL     1       9.450  39.141  47.890  1.00  0.00     0.062 A 
ATOM     40  C   UNL     1      11.333  39.270  46.417  1.00  0.00     0.016 A 
ATOM     41  C   UNL     1      10.170  39.940  48.781  1.00  0.00     0.158 A 
ATOM     42  C   UNL     1      11.999  40.094  47.330  1.00  0.00     0.051 A 
ATOM     43  C   UNL     1      11.564  39.953  48.661  1.00  0.00     0.157 A 
BRANCH  41  44
ATOM     44  O   UNL     1       9.560  40.724  49.715  1.00  0.00    -0.504 OA
ATOM     45  H   UNL     1       9.322  40.421  50.663  1.00  0.00     0.293 HD
ENDBRANCH  41  44
BRANCH  43  46
ATOM     46  O   UNL     1      12.135  38.843  49.353  1.00  0.00    -0.504 OA
ATOM     47  H   UNL     1      11.433  38.338  49.881  1.00  0.00     0.293 HD
ENDBRANCH  43  46
ENDBRANCH  28  38
BRANCH  34  48
ATOM     48  O   UNL     1       8.472  32.560  46.860  1.00  0.00    -0.507 OA
ATOM     49  H   UNL     1       8.172  31.593  46.923  1.00  0.00     0.293 HD
ENDBRANCH  34  48
BRANCH  37  50
ATOM     50  O   UNL     1       9.374  32.979  42.163  1.00  0.00    -0.508 OA
ATOM     51  H   UNL     1       8.501  32.567  41.960  1.00  0.00     0.293 HD
ENDBRANCH  37  50
ENDBRANCH  26  27
ENDBRANCH   5  26
BRANCH   4  52
ATOM     52  O   UNL     1      13.585  36.832  50.529  1.00  0.00    -0.384 OA
ATOM     53  H   UNL     1      13.460  36.394  51.376  1.00  0.00     0.211 HD
ENDBRANCH   4  52
TORSDOF 16
ENDMDL
