MODEL 1
REMARK VINA RESULT:    -4.614      0.000      0.000
REMARK INTER + INTRA:          -6.432
REMARK INTER:                  -6.232
REMARK INTRA:                  -0.199
REMARK UNBOUND:                -0.199
REMARK SMILES CC(=O)CCC=C(C)CCC=C(C)C
REMARK SMILES IDX 7 1 6 2 8 3 9 4 10 5 11 6 13 7 12 8 14 9 5 10 4 11 2 12 3 13
REMARK SMILES IDX 1 14
REMARK H PARENT
REMARK Flexibility Score: inf
ROOT
ATOM      1  C   UNL     1      83.774   3.679  27.470  1.00  0.00    -0.077 C 
ATOM      2  C   UNL     1      82.623   3.576  28.173  1.00  0.00    -0.028 C 
ATOM      3  C   UNL     1      85.111   3.316  28.072  1.00  0.00     0.039 C 
ENDROOT
BRANCH   1   4
ATOM      4  C   UNL     1      83.720   4.187  26.047  1.00  0.00     0.034 C 
BRANCH   4   5
ATOM      5  C   UNL     1      83.417   5.690  26.020  1.00  0.00     0.032 C 
BRANCH   5   6
ATOM      6  C   UNL     1      81.946   5.936  25.795  1.00  0.00    -0.028 C 
ATOM      7  C   UNL     1      81.496   6.431  28.209  1.00  0.00     0.039 C 
ATOM      8  C   UNL     1      81.064   6.245  26.772  1.00  0.00    -0.080 C 
ATOM      9  C   UNL     1      79.615   6.424  26.403  1.00  0.00     0.039 C 
ENDBRANCH   5   6
ENDBRANCH   4   5
ENDBRANCH   1   4
BRANCH   2  10
ATOM     10  C   UNL     1      82.518   3.002  29.566  1.00  0.00     0.035 C 
BRANCH  10  11
ATOM     11  C   UNL     1      81.063   2.683  29.935  1.00  0.00     0.079 C 
BRANCH  11  12
ATOM     12  C   UNL     1      80.710   3.203  31.305  1.00  0.00     0.130 C 
ATOM     13  O   UNL     1      81.314   4.165  31.757  1.00  0.00    -0.300 OA
ATOM     14  C   UNL     1      79.628   2.566  32.125  1.00  0.00     0.087 C 
ENDBRANCH  11  12
ENDBRANCH  10  11
ENDBRANCH   2  10
TORSDOF 6
ENDMDL
MODEL 2
REMARK VINA RESULT:    -4.373      9.880     11.897
REMARK INTER + INTRA:          -6.106
REMARK INTER:                  -5.026
REMARK INTRA:                  -1.080
REMARK UNBOUND:                -0.199
REMARK SMILES CC(=O)CCC=C(C)CCC=C(C)C
REMARK SMILES IDX 7 1 6 2 8 3 9 4 10 5 11 6 13 7 12 8 14 9 5 10 4 11 2 12 3 13
REMARK SMILES IDX 1 14
REMARK H PARENT
REMARK Flexibility Score: inf
ROOT
ATOM      1  C   UNL     1      83.218  -4.601  28.550  1.00  0.00    -0.077 C 
ATOM      2  C   UNL     1      82.414  -5.678  28.696  1.00  0.00    -0.028 C 
ATOM      3  C   UNL     1      83.339  -3.867  27.235  1.00  0.00     0.039 C 
ENDROOT
BRANCH   1   4
ATOM      4  C   UNL     1      84.031  -4.128  29.734  1.00  0.00     0.034 C 
BRANCH   4   5
ATOM      5  C   UNL     1      84.114  -5.222  30.805  1.00  0.00     0.032 C 
BRANCH   5   6
ATOM      6  C   UNL     1      85.550  -5.523  31.154  1.00  0.00    -0.028 C 
ATOM      7  C   UNL     1      85.727  -7.395  29.500  1.00  0.00     0.039 C 
ATOM      8  C   UNL     1      86.282  -6.512  30.594  1.00  0.00    -0.080 C 
ATOM      9  C   UNL     1      87.695  -6.719  31.071  1.00  0.00     0.039 C 
ENDBRANCH   5   6
ENDBRANCH   4   5
ENDBRANCH   1   4
BRANCH   2  10
ATOM     10  C   UNL     1      81.483  -6.204  27.628  1.00  0.00     0.035 C 
BRANCH  10  11
ATOM     11  C   UNL     1      81.872  -7.622  27.190  1.00  0.00     0.079 C 
BRANCH  11  12
ATOM     12  C   UNL     1      82.936  -7.601  26.124  1.00  0.00     0.130 C 
ATOM     13  O   UNL     1      82.884  -6.760  25.238  1.00  0.00    -0.300 OA
ATOM     14  C   UNL     1      84.063  -8.591  26.128  1.00  0.00     0.087 C 
ENDBRANCH  11  12
ENDBRANCH  10  11
ENDBRANCH   2  10
TORSDOF 6
ENDMDL
MODEL 3
REMARK VINA RESULT:    -4.368     10.856     12.465
REMARK INTER + INTRA:          -6.100
REMARK INTER:                  -5.355
REMARK INTRA:                  -0.745
REMARK UNBOUND:                -0.199
REMARK SMILES CC(=O)CCC=C(C)CCC=C(C)C
REMARK SMILES IDX 7 1 6 2 8 3 9 4 10 5 11 6 13 7 12 8 14 9 5 10 4 11 2 12 3 13
REMARK SMILES IDX 1 14
REMARK H PARENT
REMARK Flexibility Score: inf
ROOT
ATOM      1  C   UNL     1      85.392  -8.494  29.514  1.00  0.00    -0.077 C 
ATOM      2  C   UNL     1      84.620  -8.013  28.514  1.00  0.00    -0.028 C 
ATOM      3  C   UNL     1      85.405  -9.961  29.878  1.00  0.00     0.039 C 
ENDROOT
BRANCH   1   4
ATOM      4  C   UNL     1      86.254  -7.533  30.302  1.00  0.00     0.034 C 
BRANCH   4   5
ATOM      5  C   UNL     1      86.051  -6.095  29.809  1.00  0.00     0.032 C 
BRANCH   5   6
ATOM      6  C   UNL     1      85.227  -5.304  30.794  1.00  0.00    -0.028 C 
ATOM      7  C   UNL     1      83.607  -4.520  29.052  1.00  0.00     0.039 C 
ATOM      8  C   UNL     1      84.141  -4.570  30.465  1.00  0.00    -0.080 C 
ATOM      9  C   UNL     1      83.439  -3.798  31.552  1.00  0.00     0.039 C 
ENDBRANCH   5   6
ENDBRANCH   4   5
ENDBRANCH   1   4
BRANCH   2  10
ATOM     10  C   UNL     1      83.782  -8.866  27.592  1.00  0.00     0.035 C 
BRANCH  10  11
ATOM     11  C   UNL     1      84.130  -8.613  26.119  1.00  0.00     0.079 C 
BRANCH  11  12
ATOM     12  C   UNL     1      83.037  -7.854  25.412  1.00  0.00     0.130 C 
ATOM     13  O   UNL     1      82.733  -6.736  25.801  1.00  0.00    -0.300 OA
ATOM     14  C   UNL     1      82.317  -8.441  24.235  1.00  0.00     0.087 C 
ENDBRANCH  11  12
ENDBRANCH  10  11
ENDBRANCH   2  10
TORSDOF 6
ENDMDL
MODEL 4
REMARK VINA RESULT:    -4.271     10.748     12.705
REMARK INTER + INTRA:          -5.969
REMARK INTER:                  -5.161
REMARK INTRA:                  -0.809
REMARK UNBOUND:                -0.199
REMARK SMILES CC(=O)CCC=C(C)CCC=C(C)C
REMARK SMILES IDX 7 1 6 2 8 3 9 4 10 5 11 6 13 7 12 8 14 9 5 10 4 11 2 12 3 13
REMARK SMILES IDX 1 14
REMARK H PARENT
REMARK Flexibility Score: inf
ROOT
ATOM      1  C   UNL     1      84.159  -8.956  27.826  1.00  0.00    -0.077 C 
ATOM      2  C   UNL     1      83.889  -7.632  27.881  1.00  0.00    -0.028 C 
ATOM      3  C   UNL     1      83.698  -9.817  26.674  1.00  0.00     0.039 C 
ENDROOT
BRANCH   1   4
ATOM      4  C   UNL     1      84.930  -9.593  28.960  1.00  0.00     0.034 C 
BRANCH   4   5
ATOM      5  C   UNL     1      84.846  -8.731  30.225  1.00  0.00     0.032 C 
BRANCH   5   6
ATOM      6  C   UNL     1      86.222  -8.440  30.768  1.00  0.00    -0.028 C 
ATOM      7  C   UNL     1      86.074  -5.989  30.275  1.00  0.00     0.039 C 
ATOM      8  C   UNL     1      86.799  -7.218  30.774  1.00  0.00    -0.080 C 
ATOM      9  C   UNL     1      88.199  -7.086  31.315  1.00  0.00     0.039 C 
ENDBRANCH   5   6
ENDBRANCH   4   5
ENDBRANCH   1   4
BRANCH   2  10
ATOM     10  C   UNL     1      83.208  -6.850  26.782  1.00  0.00     0.035 C 
BRANCH  10  11
ATOM     11  C   UNL     1      82.290  -5.761  27.352  1.00  0.00     0.079 C 
BRANCH  11  12
ATOM     12  C   UNL     1      83.046  -4.488  27.634  1.00  0.00     0.130 C 
ATOM     13  O   UNL     1      83.413  -4.246  28.775  1.00  0.00    -0.300 OA
ATOM     14  C   UNL     1      83.362  -3.511  26.541  1.00  0.00     0.087 C 
ENDBRANCH  11  12
ENDBRANCH  10  11
ENDBRANCH   2  10
TORSDOF 6
ENDMDL
MODEL 5
REMARK VINA RESULT:    -4.265     10.175     12.250
REMARK INTER + INTRA:          -5.961
REMARK INTER:                  -5.048
REMARK INTRA:                  -0.913
REMARK UNBOUND:                -0.199
REMARK SMILES CC(=O)CCC=C(C)CCC=C(C)C
REMARK SMILES IDX 7 1 6 2 8 3 9 4 10 5 11 6 13 7 12 8 14 9 5 10 4 11 2 12 3 13
REMARK SMILES IDX 1 14
REMARK H PARENT
REMARK Flexibility Score: inf
ROOT
ATOM      1  C   UNL     1      84.356  -4.856  30.430  1.00  0.00    -0.077 C 
ATOM      2  C   UNL     1      84.119  -5.028  29.110  1.00  0.00    -0.028 C 
ATOM      3  C   UNL     1      83.396  -4.104  31.322  1.00  0.00     0.039 C 
ENDROOT
BRANCH   1   4
ATOM      4  C   UNL     1      85.627  -5.419  31.025  1.00  0.00     0.034 C 
BRANCH   4   5
ATOM      5  C   UNL     1      86.336  -6.335  30.020  1.00  0.00     0.032 C 
BRANCH   5   6
ATOM      6  C   UNL     1      86.390  -7.752  30.534  1.00  0.00    -0.028 C 
ATOM      7  C   UNL     1      84.682  -8.580  28.900  1.00  0.00     0.039 C 
ATOM      8  C   UNL     1      85.635  -8.767  30.058  1.00  0.00    -0.080 C 
ATOM      9  C   UNL     1      85.770 -10.125  30.697  1.00  0.00     0.039 C 
ENDBRANCH   5   6
ENDBRANCH   4   5
ENDBRANCH   1   4
BRANCH   2  10
ATOM     10  C   UNL     1      82.854  -4.598  28.403  1.00  0.00     0.035 C 
BRANCH  10  11
ATOM     11  C   UNL     1      82.893  -4.959  26.912  1.00  0.00     0.079 C 
BRANCH  11  12
ATOM     12  C   UNL     1      82.282  -6.311  26.651  1.00  0.00     0.130 C 
ATOM     13  O   UNL     1      81.323  -6.676  27.316  1.00  0.00    -0.300 OA
ATOM     14  C   UNL     1      82.822  -7.218  25.587  1.00  0.00     0.087 C 
ENDBRANCH  11  12
ENDBRANCH  10  11
ENDBRANCH   2  10
TORSDOF 6
ENDMDL
MODEL 6
REMARK VINA RESULT:    -4.259     10.297     11.802
REMARK INTER + INTRA:          -5.952
REMARK INTER:                  -4.553
REMARK INTRA:                  -1.399
REMARK UNBOUND:                -0.199
REMARK SMILES CC(=O)CCC=C(C)CCC=C(C)C
REMARK SMILES IDX 7 1 6 2 8 3 9 4 10 5 11 6 13 7 12 8 14 9 5 10 4 11 2 12 3 13
REMARK SMILES IDX 1 14
REMARK H PARENT
REMARK Flexibility Score: inf
ROOT
ATOM      1  C   UNL     1      83.585  -7.552  29.497  1.00  0.00    -0.077 C 
ATOM      2  C   UNL     1      84.356  -7.923  28.451  1.00  0.00    -0.028 C 
ATOM      3  C   UNL     1      82.268  -8.228  29.798  1.00  0.00     0.039 C 
ENDROOT
BRANCH   1   4
ATOM      4  C   UNL     1      84.048  -6.416  30.381  1.00  0.00     0.034 C 
BRANCH   4   5
ATOM      5  C   UNL     1      83.179  -5.171  30.165  1.00  0.00     0.032 C 
BRANCH   5   6
ATOM      6  C   UNL     1      83.587  -4.445  28.908  1.00  0.00    -0.028 C 
ATOM      7  C   UNL     1      81.439  -4.953  27.725  1.00  0.00     0.039 C 
ATOM      8  C   UNL     1      82.827  -4.359  27.794  1.00  0.00    -0.080 C 
ATOM      9  C   UNL     1      83.383  -3.632  26.597  1.00  0.00     0.039 C 
ENDBRANCH   5   6
ENDBRANCH   4   5
ENDBRANCH   1   4
BRANCH   2  10
ATOM     10  C   UNL     1      84.062  -9.094  27.542  1.00  0.00     0.035 C 
BRANCH  10  11
ATOM     11  C   UNL     1      84.048  -8.672  26.067  1.00  0.00     0.079 C 
BRANCH  11  12
ATOM     12  C   UNL     1      82.803  -7.897  25.723  1.00  0.00     0.130 C 
ATOM     13  O   UNL     1      82.897  -6.866  25.071  1.00  0.00    -0.300 OA
ATOM     14  C   UNL     1      81.447  -8.366  26.159  1.00  0.00     0.087 C 
ENDBRANCH  11  12
ENDBRANCH  10  11
ENDBRANCH   2  10
TORSDOF 6
ENDMDL
MODEL 7
REMARK VINA RESULT:    -4.220     10.273     12.254
REMARK INTER + INTRA:          -5.899
REMARK INTER:                  -4.947
REMARK INTRA:                  -0.952
REMARK UNBOUND:                -0.199
REMARK SMILES CC(=O)CCC=C(C)CCC=C(C)C
REMARK SMILES IDX 7 1 6 2 8 3 9 4 10 5 11 6 13 7 12 8 14 9 5 10 4 11 2 12 3 13
REMARK SMILES IDX 1 14
REMARK H PARENT
REMARK Flexibility Score: inf
ROOT
ATOM      1  C   UNL     1      85.597  -5.758  30.607  1.00  0.00    -0.077 C 
ATOM      2  C   UNL     1      84.854  -5.480  29.513  1.00  0.00    -0.028 C 
ATOM      3  C   UNL     1      85.431  -4.995  31.900  1.00  0.00     0.039 C 
ENDROOT
BRANCH   1   4
ATOM      4  C   UNL     1      86.635  -6.855  30.528  1.00  0.00     0.034 C 
BRANCH   4   5
ATOM      5  C   UNL     1      86.018  -8.212  30.886  1.00  0.00     0.032 C 
BRANCH   5   6
ATOM      6  C   UNL     1      85.643  -8.975  29.640  1.00  0.00    -0.028 C 
ATOM      7  C   UNL     1      83.183  -8.689  30.011  1.00  0.00     0.039 C 
ATOM      8  C   UNL     1      84.373  -9.220  29.247  1.00  0.00    -0.080 C 
ATOM      9  C   UNL     1      84.151 -10.032  27.997  1.00  0.00     0.039 C 
ENDBRANCH   5   6
ENDBRANCH   4   5
ENDBRANCH   1   4
BRANCH   2  10
ATOM     10  C   UNL     1      83.725  -4.476  29.475  1.00  0.00     0.035 C 
BRANCH  10  11
ATOM     11  C   UNL     1      82.577  -4.953  28.576  1.00  0.00     0.079 C 
BRANCH  11  12
ATOM     12  C   UNL     1      82.913  -4.798  27.116  1.00  0.00     0.130 C 
ATOM     13  O   UNL     1      82.830  -5.765  26.373  1.00  0.00    -0.300 OA
ATOM     14  C   UNL     1      83.345  -3.477  26.552  1.00  0.00     0.087 C 
ENDBRANCH  11  12
ENDBRANCH  10  11
ENDBRANCH   2  10
TORSDOF 6
ENDMDL
MODEL 8
REMARK VINA RESULT:    -4.214     10.294     11.866
REMARK INTER + INTRA:          -5.891
REMARK INTER:                  -4.855
REMARK INTRA:                  -1.036
REMARK UNBOUND:                -0.199
REMARK SMILES CC(=O)CCC=C(C)CCC=C(C)C
REMARK SMILES IDX 7 1 6 2 8 3 9 4 10 5 11 6 13 7 12 8 14 9 5 10 4 11 2 12 3 13
REMARK SMILES IDX 1 14
REMARK H PARENT
REMARK Flexibility Score: inf
ROOT
ATOM      1  C   UNL     1      82.638  -5.109  28.097  1.00  0.00    -0.077 C 
ATOM      2  C   UNL     1      83.249  -5.605  29.196  1.00  0.00    -0.028 C 
ATOM      3  C   UNL     1      83.291  -4.063  27.224  1.00  0.00     0.039 C 
ENDROOT
BRANCH   1   4
ATOM      4  C   UNL     1      81.255  -5.606  27.742  1.00  0.00     0.034 C 
BRANCH   4   5
ATOM      5  C   UNL     1      81.245  -7.133  27.606  1.00  0.00     0.032 C 
BRANCH   5   6
ATOM      6  C   UNL     1      81.431  -7.543  26.167  1.00  0.00    -0.028 C 
ATOM      7  C   UNL     1      83.817  -8.225  26.501  1.00  0.00     0.039 C 
ATOM      8  C   UNL     1      82.587  -8.012  25.648  1.00  0.00    -0.080 C 
ATOM      9  C   UNL     1      82.634  -8.346  24.180  1.00  0.00     0.039 C 
ENDBRANCH   5   6
ENDBRANCH   4   5
ENDBRANCH   1   4
BRANCH   2  10
ATOM     10  C   UNL     1      84.660  -5.268  29.619  1.00  0.00     0.035 C 
BRANCH  10  11
ATOM     11  C   UNL     1      85.664  -6.311  29.110  1.00  0.00     0.079 C 
BRANCH  11  12
ATOM     12  C   UNL     1      86.397  -6.976  30.246  1.00  0.00     0.130 C 
ATOM     13  O   UNL     1      86.349  -8.192  30.363  1.00  0.00    -0.300 OA
ATOM     14  C   UNL     1      87.190  -6.177  31.237  1.00  0.00     0.087 C 
ENDBRANCH  11  12
ENDBRANCH  10  11
ENDBRANCH   2  10
TORSDOF 6
ENDMDL
MODEL 9
REMARK VINA RESULT:    -4.121      9.600     11.438
REMARK INTER + INTRA:          -5.765
REMARK INTER:                  -4.945
REMARK INTRA:                  -0.820
REMARK UNBOUND:                -0.199
REMARK SMILES CC(=O)CCC=C(C)CCC=C(C)C
REMARK SMILES IDX 7 1 6 2 8 3 9 4 10 5 11 6 13 7 12 8 14 9 5 10 4 11 2 12 3 13
REMARK SMILES IDX 1 14
REMARK H PARENT
REMARK Flexibility Score: inf
ROOT
ATOM      1  C   UNL     1      84.081  -5.600  28.820  1.00  0.00    -0.077 C 
ATOM      2  C   UNL     1      83.138  -5.896  27.896  1.00  0.00    -0.028 C 
ATOM      3  C   UNL     1      83.886  -4.498  29.834  1.00  0.00     0.039 C 
ENDROOT
BRANCH   1   4
ATOM      4  C   UNL     1      85.373  -6.386  28.825  1.00  0.00     0.034 C 
BRANCH   4   5
ATOM      5  C   UNL     1      85.536  -7.150  30.144  1.00  0.00     0.032 C 
BRANCH   5   6
ATOM      6  C   UNL     1      86.981  -7.166  30.578  1.00  0.00    -0.028 C 
ATOM      7  C   UNL     1      86.704  -5.216  32.125  1.00  0.00     0.039 C 
ATOM      8  C   UNL     1      87.527  -6.287  31.448  1.00  0.00    -0.080 C 
ATOM      9  C   UNL     1      88.997  -6.402  31.758  1.00  0.00     0.039 C 
ENDBRANCH   5   6
ENDBRANCH   4   5
ENDBRANCH   1   4
BRANCH   2  10
ATOM     10  C   UNL     1      81.771  -5.255  27.831  1.00  0.00     0.035 C 
BRANCH  10  11
ATOM     11  C   UNL     1      80.718  -6.103  28.556  1.00  0.00     0.079 C 
BRANCH  11  12
ATOM     12  C   UNL     1      79.931  -5.285  29.546  1.00  0.00     0.130 C 
ATOM     13  O   UNL     1      78.950  -4.661  29.167  1.00  0.00    -0.300 OA
ATOM     14  C   UNL     1      80.324  -5.222  30.992  1.00  0.00     0.087 C 
ENDBRANCH  11  12
ENDBRANCH  10  11
ENDBRANCH   2  10
TORSDOF 6
ENDMDL
