MODEL 1
REMARK VINA RESULT:    -5.428      0.000      0.000
REMARK INTER + INTRA:         -12.481
REMARK INTER:                  -8.919
REMARK INTRA:                  -3.563
REMARK UNBOUND:                -3.563
REMARK SMILES COc1ccc([C@H]2CC(=O)c3c(O)cc(O[C@H]4O[C@@H](CO[C@H]5O[C@@H](C)[C@@H](O)[C@@H](O)[C@@H]5O)[C@@H](O)[C@@H](O)[C@H]4O)cc3O2)cc1O
REMARK SMILES IDX 19 1 32 2 34 3 36 4 17 5 18 6 20 7 21 8 22 9 25 10 24 11
REMARK SMILES IDX 26 12 23 13 28 14 30 15 27 16 29 18 31 20 33 22 35 24 16 26
REMARK SMILES IDX 15 27 14 28 38 29 12 30 39 31 11 32 40 33 9 34 7 35 10 36
REMARK SMILES IDX 8 37 13 38 6 40 41 41 5 42 42 43 4 44 3 45 43 46 2 48 1 49
REMARK SMILES IDX 37 50
REMARK H PARENT 27 17 29 19 31 21 33 23 35 25 13 39 43 47 37 51
REMARK Flexibility Score: inf
ROOT
ATOM      1  C   UNL     1       8.880  32.833  53.635  1.00  0.00     0.180 C 
ATOM      2  C   UNL     1       7.889  31.733  54.073  1.00  0.00     0.177 C 
ATOM      3  C   UNL     1       8.631  30.936  55.177  1.00  0.00     0.180 C 
ATOM      4  C   UNL     1       8.848  31.896  56.302  1.00  0.00     0.214 C 
ATOM      5  C   UNL     1       9.887  33.040  55.923  1.00  0.00     0.339 C 
ATOM      6  O   UNL     1       9.541  33.638  54.689  1.00  0.00    -0.332 OA
ENDROOT
BRANCH   1   7
ATOM      7  C   UNL     1       9.675  32.266  52.254  1.00  0.00     0.198 C 
BRANCH   7   8
ATOM      8  O   UNL     1      10.501  33.103  51.318  1.00  0.00    -0.347 OA
BRANCH   8   9
ATOM      9  C   UNL     1      11.821  32.577  51.216  1.00  0.00     0.281 C 
ATOM     10  C   UNL     1      11.526  35.494  50.339  1.00  0.00     0.041 C 
ATOM     11  C   UNL     1      12.818  34.590  50.259  1.00  0.00     0.150 C 
ATOM     12  C   UNL     1      13.662  34.756  51.552  1.00  0.00     0.174 C 
ATOM     13  O   UNL     1      12.479  33.205  50.064  1.00  0.00    -0.344 OA
ATOM     14  C   UNL     1      13.100  34.045  52.870  1.00  0.00     0.179 C 
ATOM     15  C   UNL     1      12.664  32.614  52.579  1.00  0.00     0.202 C 
BRANCH  12  16
ATOM     16  O   UNL     1      14.200  36.038  51.784  1.00  0.00    -0.388 OA
ATOM     17  H   UNL     1      15.195  35.845  51.957  1.00  0.00     0.211 HD
ENDBRANCH  12  16
BRANCH  14  18
ATOM     18  O   UNL     1      12.135  34.696  53.673  1.00  0.00    -0.387 OA
ATOM     19  H   UNL     1      12.564  35.304  54.336  1.00  0.00     0.211 HD
ENDBRANCH  14  18
BRANCH  15  20
ATOM     20  O   UNL     1      13.822  31.813  52.635  1.00  0.00    -0.385 OA
ATOM     21  H   UNL     1      13.533  30.924  52.239  1.00  0.00     0.211 HD
ENDBRANCH  15  20
ENDBRANCH   8   9
ENDBRANCH   7   8
ENDBRANCH   1   7
BRANCH   2  22
ATOM     22  O   UNL     1       7.377  30.955  53.003  1.00  0.00    -0.387 OA
ATOM     23  H   UNL     1       8.185  30.544  52.565  1.00  0.00     0.211 HD
ENDBRANCH   2  22
BRANCH   3  24
ATOM     24  O   UNL     1       9.849  30.353  54.683  1.00  0.00    -0.387 OA
ATOM     25  H   UNL     1      10.446  30.396  55.508  1.00  0.00     0.211 HD
ENDBRANCH   3  24
BRANCH   5  26
ATOM     26  O   UNL     1      11.253  32.626  55.767  1.00  0.00    -0.462 OA
BRANCH  26  27
ATOM     27  C   UNL     1      12.269  32.650  56.764  1.00  0.00     0.130 A 
ATOM     28  C   UNL     1      12.292  31.687  57.781  1.00  0.00     0.093 A 
ATOM     29  C   UNL     1      13.531  33.319  56.465  1.00  0.00     0.094 A 
ATOM     30  C   UNL     1      13.464  30.931  57.861  1.00  0.00     0.133 A 
ATOM     31  C   UNL     1      14.772  32.541  56.838  1.00  0.00     0.138 A 
ATOM     32  C   UNL     1      14.475  31.106  56.917  1.00  0.00     0.102 A 
ATOM     33  O   UNL     1      15.989  32.901  56.211  1.00  0.00    -0.484 OA
ATOM     34  C   UNL     1      14.893  30.266  55.645  1.00  0.00     0.174 C 
ATOM     35  C   UNL     1      16.164  32.314  54.929  1.00  0.00     0.211 C 
ATOM     36  O   UNL     1      14.390  29.129  55.159  1.00  0.00    -0.294 OA
ATOM     37  C   UNL     1      16.178  30.749  54.987  1.00  0.00     0.131 C 
BRANCH  30  38
ATOM     38  O   UNL     1      13.766  30.453  59.149  1.00  0.00    -0.507 OA
ATOM     39  H   UNL     1      13.082  30.768  59.902  1.00  0.00     0.293 HD
ENDBRANCH  30  38
BRANCH  35  40
ATOM     40  C   UNL     1      17.222  32.927  54.070  1.00  0.00    -0.003 A 
ATOM     41  C   UNL     1      16.918  34.098  53.355  1.00  0.00     0.057 A 
ATOM     42  C   UNL     1      18.345  32.137  53.586  1.00  0.00     0.011 A 
ATOM     43  C   UNL     1      17.577  34.417  52.124  1.00  0.00     0.158 A 
ATOM     44  C   UNL     1      18.906  32.411  52.302  1.00  0.00     0.051 A 
ATOM     45  C   UNL     1      18.473  33.535  51.564  1.00  0.00     0.160 A 
BRANCH  43  46
ATOM     46  O   UNL     1      17.154  35.588  51.432  1.00  0.00    -0.504 OA
ATOM     47  H   UNL     1      17.451  36.526  51.738  1.00  0.00     0.293 HD
ENDBRANCH  43  46
BRANCH  45  48
ATOM     48  O   UNL     1      18.918  33.907  50.238  1.00  0.00    -0.493 OA
ATOM     49  C   UNL     1      20.211  34.468  49.959  1.00  0.00     0.278 C 
ENDBRANCH  45  48
ENDBRANCH  35  40
ENDBRANCH  26  27
ENDBRANCH   5  26
BRANCH   4  50
ATOM     50  O   UNL     1       8.292  31.443  57.552  1.00  0.00    -0.384 OA
ATOM     51  H   UNL     1       8.467  30.390  57.734  1.00  0.00     0.211 HD
ENDBRANCH   4  50
TORSDOF 15
ENDMDL
MODEL 2
REMARK VINA RESULT:    -5.414      2.514      6.169
REMARK INTER + INTRA:         -12.459
REMARK INTER:                 -10.069
REMARK INTRA:                  -2.391
REMARK UNBOUND:                -3.563
REMARK SMILES COc1ccc([C@H]2CC(=O)c3c(O)cc(O[C@H]4O[C@@H](CO[C@H]5O[C@@H](C)[C@@H](O)[C@@H](O)[C@@H]5O)[C@@H](O)[C@@H](O)[C@H]4O)cc3O2)cc1O
REMARK SMILES IDX 19 1 32 2 34 3 36 4 17 5 18 6 20 7 21 8 22 9 25 10 24 11
REMARK SMILES IDX 26 12 23 13 28 14 30 15 27 16 29 18 31 20 33 22 35 24 16 26
REMARK SMILES IDX 15 27 14 28 38 29 12 30 39 31 11 32 40 33 9 34 7 35 10 36
REMARK SMILES IDX 8 37 13 38 6 40 41 41 5 42 42 43 4 44 3 45 43 46 2 48 1 49
REMARK SMILES IDX 37 50
REMARK H PARENT 27 17 29 19 31 21 33 23 35 25 13 39 43 47 37 51
REMARK Flexibility Score: inf
ROOT
ATOM      1  C   UNL     1       9.604  30.820  54.770  1.00  0.00     0.180 C 
ATOM      2  C   UNL     1       8.879  31.686  55.823  1.00  0.00     0.177 C 
ATOM      3  C   UNL     1       8.737  33.085  55.169  1.00  0.00     0.180 C 
ATOM      4  C   UNL     1       7.855  32.894  53.977  1.00  0.00     0.214 C 
ATOM      5  C   UNL     1       8.560  32.034  52.839  1.00  0.00     0.339 C 
ATOM      6  O   UNL     1       9.098  30.842  53.377  1.00  0.00    -0.332 OA
ENDROOT
BRANCH   1   7
ATOM      7  C   UNL     1      11.248  30.828  55.167  1.00  0.00     0.198 C 
BRANCH   7   8
ATOM      8  O   UNL     1      12.331  31.525  54.390  1.00  0.00    -0.347 OA
BRANCH   8   9
ATOM      9  C   UNL     1      13.407  31.885  55.251  1.00  0.00     0.281 C 
ATOM     10  C   UNL     1      14.022  32.106  52.262  1.00  0.00     0.041 C 
ATOM     11  C   UNL     1      15.014  32.332  53.468  1.00  0.00     0.150 C 
ATOM     12  C   UNL     1      15.016  33.829  53.881  1.00  0.00     0.174 C 
ATOM     13  O   UNL     1      14.665  31.509  54.597  1.00  0.00    -0.344 OA
ATOM     14  C   UNL     1      13.733  34.353  54.680  1.00  0.00     0.179 C 
ATOM     15  C   UNL     1      13.352  33.390  55.798  1.00  0.00     0.202 C 
BRANCH  12  16
ATOM     16  O   UNL     1      15.494  34.740  52.916  1.00  0.00    -0.388 OA
ATOM     17  H   UNL     1      15.085  34.389  52.042  1.00  0.00     0.211 HD
ENDBRANCH  12  16
BRANCH  14  18
ATOM     18  O   UNL     1      12.578  34.770  53.979  1.00  0.00    -0.387 OA
ATOM     19  H   UNL     1      12.780  34.952  53.020  1.00  0.00     0.211 HD
ENDBRANCH  14  18
BRANCH  15  20
ATOM     20  O   UNL     1      14.172  33.698  56.902  1.00  0.00    -0.385 OA
ATOM     21  H   UNL     1      14.782  34.437  56.564  1.00  0.00     0.211 HD
ENDBRANCH  15  20
ENDBRANCH   8   9
ENDBRANCH   7   8
ENDBRANCH   1   7
BRANCH   2  22
ATOM     22  O   UNL     1       9.489  31.674  57.103  1.00  0.00    -0.387 OA
ATOM     23  H   UNL     1       9.079  30.888  57.582  1.00  0.00     0.211 HD
ENDBRANCH   2  22
BRANCH   3  24
ATOM     24  O   UNL     1      10.018  33.651  54.843  1.00  0.00    -0.387 OA
ATOM     25  H   UNL     1      10.649  33.044  55.365  1.00  0.00     0.211 HD
ENDBRANCH   3  24
BRANCH   5  26
ATOM     26  O   UNL     1       9.656  32.664  52.159  1.00  0.00    -0.462 OA
BRANCH  26  27
ATOM     27  C   UNL     1      10.185  32.310  50.886  1.00  0.00     0.130 A 
ATOM     28  C   UNL     1       9.347  31.810  49.880  1.00  0.00     0.093 A 
ATOM     29  C   UNL     1      11.440  32.915  50.453  1.00  0.00     0.094 A 
ATOM     30  C   UNL     1       9.340  32.541  48.690  1.00  0.00     0.133 A 
ATOM     31  C   UNL     1      11.441  33.446  49.038  1.00  0.00     0.138 A 
ATOM     32  C   UNL     1      10.070  33.725  48.593  1.00  0.00     0.102 A 
ATOM     33  O   UNL     1      12.424  34.404  48.694  1.00  0.00    -0.484 OA
ATOM     34  C   UNL     1       9.639  35.244  48.669  1.00  0.00     0.174 C 
ATOM     35  C   UNL     1      12.076  35.733  49.054  1.00  0.00     0.211 C 
ATOM     36  O   UNL     1       8.431  35.792  48.818  1.00  0.00    -0.294 OA
ATOM     37  C   UNL     1      10.765  36.217  48.347  1.00  0.00     0.131 C 
BRANCH  30  38
ATOM     38  O   UNL     1       9.051  31.786  47.539  1.00  0.00    -0.507 OA
ATOM     39  H   UNL     1       8.054  31.413  47.503  1.00  0.00     0.293 HD
ENDBRANCH  30  38
BRANCH  35  40
ATOM     40  C   UNL     1      13.196  36.722  49.061  1.00  0.00    -0.003 A 
ATOM     41  C   UNL     1      13.939  36.911  47.883  1.00  0.00     0.057 A 
ATOM     42  C   UNL     1      13.830  37.127  50.307  1.00  0.00     0.011 A 
ATOM     43  C   UNL     1      15.307  37.333  47.918  1.00  0.00     0.158 A 
ATOM     44  C   UNL     1      15.225  37.432  50.328  1.00  0.00     0.051 A 
ATOM     45  C   UNL     1      15.958  37.485  49.122  1.00  0.00     0.160 A 
BRANCH  43  46
ATOM     46  O   UNL     1      16.002  37.428  46.678  1.00  0.00    -0.504 OA
ATOM     47  H   UNL     1      16.588  36.655  46.334  1.00  0.00     0.293 HD
ENDBRANCH  43  46
BRANCH  45  48
ATOM     48  O   UNL     1      17.378  37.736  48.997  1.00  0.00    -0.493 OA
ATOM     49  C   UNL     1      18.374  36.701  48.999  1.00  0.00     0.278 C 
ENDBRANCH  45  48
ENDBRANCH  35  40
ENDBRANCH  26  27
ENDBRANCH   5  26
BRANCH   4  50
ATOM     50  O   UNL     1       6.684  33.735  53.997  1.00  0.00    -0.384 OA
ATOM     51  H   UNL     1       6.483  34.154  54.974  1.00  0.00     0.211 HD
ENDBRANCH   4  50
TORSDOF 15
ENDMDL
MODEL 3
REMARK VINA RESULT:    -5.306      2.518      7.029
REMARK INTER + INTRA:         -12.281
REMARK INTER:                  -9.637
REMARK INTRA:                  -2.644
REMARK UNBOUND:                -3.563
REMARK SMILES COc1ccc([C@H]2CC(=O)c3c(O)cc(O[C@H]4O[C@@H](CO[C@H]5O[C@@H](C)[C@@H](O)[C@@H](O)[C@@H]5O)[C@@H](O)[C@@H](O)[C@H]4O)cc3O2)cc1O
REMARK SMILES IDX 19 1 32 2 34 3 36 4 17 5 18 6 20 7 21 8 22 9 25 10 24 11
REMARK SMILES IDX 26 12 23 13 28 14 30 15 27 16 29 18 31 20 33 22 35 24 16 26
REMARK SMILES IDX 15 27 14 28 38 29 12 30 39 31 11 32 40 33 9 34 7 35 10 36
REMARK SMILES IDX 8 37 13 38 6 40 41 41 5 42 42 43 4 44 3 45 43 46 2 48 1 49
REMARK SMILES IDX 37 50
REMARK H PARENT 27 17 29 19 31 21 33 23 35 25 13 39 43 47 37 51
REMARK Flexibility Score: inf
ROOT
ATOM      1  C   UNL     1      16.626  32.638  51.593  1.00  0.00     0.180 C 
ATOM      2  C   UNL     1      17.682  31.921  52.461  1.00  0.00     0.177 C 
ATOM      3  C   UNL     1      17.276  32.225  53.926  1.00  0.00     0.180 C 
ATOM      4  C   UNL     1      15.940  31.585  54.125  1.00  0.00     0.214 C 
ATOM      5  C   UNL     1      14.799  32.302  53.278  1.00  0.00     0.339 C 
ATOM      6  O   UNL     1      15.195  32.444  51.928  1.00  0.00    -0.332 OA
ENDROOT
BRANCH   1   7
ATOM      7  C   UNL     1      17.285  34.128  51.137  1.00  0.00     0.198 C 
BRANCH   7   8
ATOM      8  O   UNL     1      16.840  34.957  49.965  1.00  0.00    -0.347 OA
BRANCH   8   9
ATOM      9  C   UNL     1      16.560  36.291  50.378  1.00  0.00     0.281 C 
ATOM     10  C   UNL     1      15.009  35.358  47.912  1.00  0.00     0.041 C 
ATOM     11  C   UNL     1      15.007  36.795  48.563  1.00  0.00     0.150 C 
ATOM     12  C   UNL     1      13.863  36.904  49.607  1.00  0.00     0.174 C 
ATOM     13  O   UNL     1      16.272  37.093  49.184  1.00  0.00    -0.344 OA
ATOM     14  C   UNL     1      14.086  36.144  50.996  1.00  0.00     0.179 C 
ATOM     15  C   UNL     1      15.478  36.416  51.554  1.00  0.00     0.202 C 
BRANCH  12  16
ATOM     16  O   UNL     1      12.550  36.795  49.104  1.00  0.00    -0.388 OA
ATOM     17  H   UNL     1      12.563  37.410  48.282  1.00  0.00     0.211 HD
ENDBRANCH  12  16
BRANCH  14  18
ATOM     18  O   UNL     1      13.773  34.769  51.114  1.00  0.00    -0.387 OA
ATOM     19  H   UNL     1      14.199  34.366  51.919  1.00  0.00     0.211 HD
ENDBRANCH  14  18
BRANCH  15  20
ATOM     20  O   UNL     1      15.413  37.649  52.233  1.00  0.00    -0.385 OA
ATOM     21  H   UNL     1      15.621  38.341  51.520  1.00  0.00     0.211 HD
ENDBRANCH  15  20
ENDBRANCH   8   9
ENDBRANCH   7   8
ENDBRANCH   1   7
BRANCH   2  22
ATOM     22  O   UNL     1      19.022  32.238  52.124  1.00  0.00    -0.387 OA
ATOM     23  H   UNL     1      18.984  33.169  51.740  1.00  0.00     0.211 HD
ENDBRANCH   2  22
BRANCH   3  24
ATOM     24  O   UNL     1      17.275  33.637  54.194  1.00  0.00    -0.387 OA
ATOM     25  H   UNL     1      17.113  34.023  53.265  1.00  0.00     0.211 HD
ENDBRANCH   3  24
BRANCH   5  26
ATOM     26  O   UNL     1      14.435  33.624  53.702  1.00  0.00    -0.462 OA
BRANCH  26  27
ATOM     27  C   UNL     1      13.488  33.965  54.709  1.00  0.00     0.130 A 
ATOM     28  C   UNL     1      12.134  34.129  54.387  1.00  0.00     0.093 A 
ATOM     29  C   UNL     1      13.798  33.655  56.101  1.00  0.00     0.094 A 
ATOM     30  C   UNL     1      11.250  33.299  55.081  1.00  0.00     0.133 A 
ATOM     31  C   UNL     1      12.680  32.997  56.874  1.00  0.00     0.138 A 
ATOM     32  C   UNL     1      11.742  32.335  55.960  1.00  0.00     0.102 A 
ATOM     33  O   UNL     1      13.021  32.288  58.051  1.00  0.00    -0.484 OA
ATOM     34  C   UNL     1      11.938  30.773  55.816  1.00  0.00     0.174 C 
ATOM     35  C   UNL     1      13.461  30.959  57.809  1.00  0.00     0.211 C 
ATOM     36  O   UNL     1      11.645  29.957  54.801  1.00  0.00    -0.294 OA
ATOM     37  C   UNL     1      12.364  30.088  57.107  1.00  0.00     0.131 C 
BRANCH  30  38
ATOM     38  O   UNL     1       9.960  33.832  55.256  1.00  0.00    -0.507 OA
ATOM     39  H   UNL     1       9.672  34.530  54.505  1.00  0.00     0.293 HD
ENDBRANCH  30  38
BRANCH  35  40
ATOM     40  C   UNL     1      14.175  30.291  58.939  1.00  0.00    -0.003 A 
ATOM     41  C   UNL     1      13.497  30.114  60.157  1.00  0.00     0.057 A 
ATOM     42  C   UNL     1      15.629  30.252  58.987  1.00  0.00     0.011 A 
ATOM     43  C   UNL     1      14.198  30.055  61.404  1.00  0.00     0.158 A 
ATOM     44  C   UNL     1      16.300  30.309  60.246  1.00  0.00     0.051 A 
ATOM     45  C   UNL     1      15.559  30.256  61.448  1.00  0.00     0.160 A 
BRANCH  43  46
ATOM     46  O   UNL     1      13.423  29.946  62.594  1.00  0.00    -0.504 OA
ATOM     47  H   UNL     1      12.914  30.756  62.976  1.00  0.00     0.293 HD
ENDBRANCH  43  46
BRANCH  45  48
ATOM     48  O   UNL     1      16.100  30.348  62.787  1.00  0.00    -0.493 OA
ATOM     49  C   UNL     1      17.279  31.097  63.122  1.00  0.00     0.278 C 
ENDBRANCH  45  48
ENDBRANCH  35  40
ENDBRANCH  26  27
ENDBRANCH   5  26
BRANCH   4  50
ATOM     50  O   UNL     1      15.915  30.647  55.219  1.00  0.00    -0.384 OA
ATOM     51  H   UNL     1      16.590  29.813  55.075  1.00  0.00     0.211 HD
ENDBRANCH   4  50
TORSDOF 15
ENDMDL
MODEL 4
REMARK VINA RESULT:    -5.273      2.505      6.352
REMARK INTER + INTRA:         -12.227
REMARK INTER:                  -9.087
REMARK INTRA:                  -3.140
REMARK UNBOUND:                -3.563
REMARK SMILES COc1ccc([C@H]2CC(=O)c3c(O)cc(O[C@H]4O[C@@H](CO[C@H]5O[C@@H](C)[C@@H](O)[C@@H](O)[C@@H]5O)[C@@H](O)[C@@H](O)[C@H]4O)cc3O2)cc1O
REMARK SMILES IDX 19 1 32 2 34 3 36 4 17 5 18 6 20 7 21 8 22 9 25 10 24 11
REMARK SMILES IDX 26 12 23 13 28 14 30 15 27 16 29 18 31 20 33 22 35 24 16 26
REMARK SMILES IDX 15 27 14 28 38 29 12 30 39 31 11 32 40 33 9 34 7 35 10 36
REMARK SMILES IDX 8 37 13 38 6 40 41 41 5 42 42 43 4 44 3 45 43 46 2 48 1 49
REMARK SMILES IDX 37 50
REMARK H PARENT 27 17 29 19 31 21 33 23 35 25 13 39 43 47 37 51
REMARK Flexibility Score: inf
ROOT
ATOM      1  C   UNL     1      11.908  31.571  54.058  1.00  0.00     0.180 C 
ATOM      2  C   UNL     1      12.007  32.366  55.377  1.00  0.00     0.177 C 
ATOM      3  C   UNL     1      11.161  33.644  55.144  1.00  0.00     0.180 C 
ATOM      4  C   UNL     1       9.755  33.176  54.940  1.00  0.00     0.214 C 
ATOM      5  C   UNL     1       9.581  32.374  53.577  1.00  0.00     0.339 C 
ATOM      6  O   UNL     1      10.566  31.366  53.463  1.00  0.00    -0.332 OA
ENDROOT
BRANCH   1   7
ATOM      7  C   UNL     1      13.287  31.940  53.151  1.00  0.00     0.198 C 
BRANCH   7   8
ATOM      8  O   UNL     1      14.327  32.960  53.521  1.00  0.00    -0.347 OA
BRANCH   8   9
ATOM      9  C   UNL     1      14.655  33.766  52.393  1.00  0.00     0.281 C 
ATOM     10  C   UNL     1      16.969  33.264  54.330  1.00  0.00     0.041 C 
ATOM     11  C   UNL     1      16.969  34.185  53.050  1.00  0.00     0.150 C 
ATOM     12  C   UNL     1      17.440  33.375  51.811  1.00  0.00     0.174 C 
ATOM     13  O   UNL     1      15.666  34.747  52.806  1.00  0.00    -0.344 OA
ATOM     14  C   UNL     1      16.397  32.326  51.204  1.00  0.00     0.179 C 
ATOM     15  C   UNL     1      15.012  32.946  51.063  1.00  0.00     0.202 C 
BRANCH  12  16
ATOM     16  O   UNL     1      18.767  32.901  51.846  1.00  0.00    -0.388 OA
ATOM     17  H   UNL     1      19.300  33.669  51.419  1.00  0.00     0.211 HD
ENDBRANCH  12  16
BRANCH  14  18
ATOM     18  O   UNL     1      16.296  31.024  51.749  1.00  0.00    -0.387 OA
ATOM     19  H   UNL     1      17.164  30.538  51.693  1.00  0.00     0.211 HD
ENDBRANCH  14  18
BRANCH  15  20
ATOM     20  O   UNL     1      15.006  33.662  49.850  1.00  0.00    -0.385 OA
ATOM     21  H   UNL     1      14.090  34.100  49.820  1.00  0.00     0.211 HD
ENDBRANCH  15  20
ENDBRANCH   8   9
ENDBRANCH   7   8
ENDBRANCH   1   7
BRANCH   2  22
ATOM     22  O   UNL     1      13.335  32.590  55.822  1.00  0.00    -0.387 OA
ATOM     23  H   UNL     1      13.240  33.045  56.716  1.00  0.00     0.211 HD
ENDBRANCH   2  22
BRANCH   3  24
ATOM     24  O   UNL     1      11.666  34.421  54.045  1.00  0.00    -0.387 OA
ATOM     25  H   UNL     1      10.871  34.417  53.408  1.00  0.00     0.211 HD
ENDBRANCH   3  24
BRANCH   5  26
ATOM     26  O   UNL     1       9.695  33.146  52.372  1.00  0.00    -0.462 OA
BRANCH  26  27
ATOM     27  C   UNL     1      10.159  32.687  51.106  1.00  0.00     0.130 A 
ATOM     28  C   UNL     1       9.256  32.206  50.149  1.00  0.00     0.093 A 
ATOM     29  C   UNL     1      11.445  33.166  50.612  1.00  0.00     0.094 A 
ATOM     30  C   UNL     1       9.273  32.874  48.923  1.00  0.00     0.133 A 
ATOM     31  C   UNL     1      11.448  33.623  49.172  1.00  0.00     0.138 A 
ATOM     32  C   UNL     1      10.091  33.989  48.746  1.00  0.00     0.102 A 
ATOM     33  O   UNL     1      12.494  34.480  48.754  1.00  0.00    -0.484 OA
ATOM     34  C   UNL     1       9.784  35.539  48.753  1.00  0.00     0.174 C 
ATOM     35  C   UNL     1      12.262  35.849  49.052  1.00  0.00     0.211 C 
ATOM     36  O   UNL     1       8.628  36.189  48.902  1.00  0.00    -0.294 OA
ATOM     37  C   UNL     1      10.974  36.401  48.352  1.00  0.00     0.131 C 
BRANCH  30  38
ATOM     38  O   UNL     1       8.892  32.087  47.821  1.00  0.00    -0.507 OA
ATOM     39  H   UNL     1       9.167  31.062  47.903  1.00  0.00     0.293 HD
ENDBRANCH  30  38
BRANCH  35  40
ATOM     40  C   UNL     1      13.456  36.744  48.980  1.00  0.00    -0.003 A 
ATOM     41  C   UNL     1      14.171  36.822  47.772  1.00  0.00     0.057 A 
ATOM     42  C   UNL     1      14.163  37.149  50.186  1.00  0.00     0.011 A 
ATOM     43  C   UNL     1      15.569  37.133  47.746  1.00  0.00     0.158 A 
ATOM     44  C   UNL     1      15.578  37.341  50.150  1.00  0.00     0.051 A 
ATOM     45  C   UNL     1      16.271  37.283  48.921  1.00  0.00     0.160 A 
BRANCH  43  46
ATOM     46  O   UNL     1      16.226  37.119  46.482  1.00  0.00    -0.504 OA
ATOM     47  H   UNL     1      15.700  36.977  45.609  1.00  0.00     0.293 HD
ENDBRANCH  43  46
BRANCH  45  48
ATOM     48  O   UNL     1      17.701  37.413  48.742  1.00  0.00    -0.493 OA
ATOM     49  C   UNL     1      18.629  36.331  48.920  1.00  0.00     0.278 C 
ENDBRANCH  45  48
ENDBRANCH  35  40
ENDBRANCH  26  27
ENDBRANCH   5  26
BRANCH   4  50
ATOM     50  O   UNL     1       8.820  33.766  55.865  1.00  0.00    -0.384 OA
ATOM     51  H   UNL     1       8.742  33.215  56.794  1.00  0.00     0.211 HD
ENDBRANCH   4  50
TORSDOF 15
ENDMDL
MODEL 5
REMARK VINA RESULT:    -5.267      3.178      8.186
REMARK INTER + INTRA:         -12.217
REMARK INTER:                  -8.141
REMARK INTRA:                  -4.076
REMARK UNBOUND:                -3.563
REMARK SMILES COc1ccc([C@H]2CC(=O)c3c(O)cc(O[C@H]4O[C@@H](CO[C@H]5O[C@@H](C)[C@@H](O)[C@@H](O)[C@@H]5O)[C@@H](O)[C@@H](O)[C@H]4O)cc3O2)cc1O
REMARK SMILES IDX 19 1 32 2 34 3 36 4 17 5 18 6 20 7 21 8 22 9 25 10 24 11
REMARK SMILES IDX 26 12 23 13 28 14 30 15 27 16 29 18 31 20 33 22 35 24 16 26
REMARK SMILES IDX 15 27 14 28 38 29 12 30 39 31 11 32 40 33 9 34 7 35 10 36
REMARK SMILES IDX 8 37 13 38 6 40 41 41 5 42 42 43 4 44 3 45 43 46 2 48 1 49
REMARK SMILES IDX 37 50
REMARK H PARENT 27 17 29 19 31 21 33 23 35 25 13 39 43 47 37 51
REMARK Flexibility Score: inf
ROOT
ATOM      1  C   UNL     1      13.263  35.465  45.356  1.00  0.00     0.180 C 
ATOM      2  C   UNL     1      12.794  36.648  46.230  1.00  0.00     0.177 C 
ATOM      3  C   UNL     1      13.749  36.653  47.452  1.00  0.00     0.180 C 
ATOM      4  C   UNL     1      15.113  36.937  46.907  1.00  0.00     0.214 C 
ATOM      5  C   UNL     1      15.667  35.737  46.020  1.00  0.00     0.339 C 
ATOM      6  O   UNL     1      14.710  35.348  45.055  1.00  0.00    -0.332 OA
ENDROOT
BRANCH   1   7
ATOM      7  C   UNL     1      12.278  34.144  45.737  1.00  0.00     0.198 C 
BRANCH   7   8
ATOM      8  O   UNL     1      12.067  33.582  47.115  1.00  0.00    -0.347 OA
BRANCH   8   9
ATOM      9  C   UNL     1      10.718  33.151  47.274  1.00  0.00     0.281 C 
ATOM     10  C   UNL     1      12.543  32.572  49.661  1.00  0.00     0.041 C 
ATOM     11  C   UNL     1      11.036  32.142  49.474  1.00  0.00     0.150 C 
ATOM     12  C   UNL     1      10.097  33.221  50.077  1.00  0.00     0.174 C 
ATOM     13  O   UNL     1      10.718  31.929  48.087  1.00  0.00    -0.344 OA
ATOM     14  C   UNL     1       9.938  34.578  49.244  1.00  0.00     0.179 C 
ATOM     15  C   UNL     1       9.704  34.290  47.766  1.00  0.00     0.202 C 
BRANCH  12  16
ATOM     16  O   UNL     1      10.188  33.419  51.470  1.00  0.00    -0.388 OA
ATOM     17  H   UNL     1      10.041  34.431  51.572  1.00  0.00     0.211 HD
ENDBRANCH  12  16
BRANCH  14  18
ATOM     18  O   UNL     1      10.881  35.621  49.395  1.00  0.00    -0.387 OA
ATOM     19  H   UNL     1      10.738  36.342  48.723  1.00  0.00     0.211 HD
ENDBRANCH  14  18
BRANCH  15  20
ATOM     20  O   UNL     1       8.328  34.029  47.613  1.00  0.00    -0.385 OA
ATOM     21  H   UNL     1       7.871  34.767  48.140  1.00  0.00     0.211 HD
ENDBRANCH  15  20
ENDBRANCH   8   9
ENDBRANCH   7   8
ENDBRANCH   1   7
BRANCH   2  22
ATOM     22  O   UNL     1      11.411  36.626  46.542  1.00  0.00    -0.387 OA
ATOM     23  H   UNL     1      11.316  35.938  47.271  1.00  0.00     0.211 HD
ENDBRANCH   2  22
BRANCH   3  24
ATOM     24  O   UNL     1      13.677  35.420  48.187  1.00  0.00    -0.387 OA
ATOM     25  H   UNL     1      14.427  34.880  47.758  1.00  0.00     0.211 HD
ENDBRANCH   3  24
BRANCH   5  26
ATOM     26  O   UNL     1      15.997  34.531  46.726  1.00  0.00    -0.462 OA
BRANCH  26  27
ATOM     27  C   UNL     1      17.044  34.359  47.675  1.00  0.00     0.130 A 
ATOM     28  C   UNL     1      18.101  35.277  47.743  1.00  0.00     0.093 A 
ATOM     29  C   UNL     1      16.785  33.566  48.872  1.00  0.00     0.094 A 
ATOM     30  C   UNL     1      18.275  35.896  48.983  1.00  0.00     0.133 A 
ATOM     31  C   UNL     1      17.255  34.189  50.166  1.00  0.00     0.138 A 
ATOM     32  C   UNL     1      17.379  35.644  50.022  1.00  0.00     0.102 A 
ATOM     33  O   UNL     1      16.679  33.720  51.371  1.00  0.00    -0.484 OA
ATOM     34  C   UNL     1      16.167  36.478  50.600  1.00  0.00     0.174 C 
ATOM     35  C   UNL     1      15.433  34.330  51.681  1.00  0.00     0.211 C 
ATOM     36  O   UNL     1      15.703  37.681  50.252  1.00  0.00    -0.294 OA
ATOM     37  C   UNL     1      15.558  35.880  51.861  1.00  0.00     0.131 C 
BRANCH  30  38
ATOM     38  O   UNL     1      19.596  36.291  49.262  1.00  0.00    -0.507 OA
ATOM     39  H   UNL     1      19.763  36.567  50.276  1.00  0.00     0.293 HD
ENDBRANCH  30  38
BRANCH  35  40
ATOM     40  C   UNL     1      14.607  33.635  52.714  1.00  0.00    -0.003 A 
ATOM     41  C   UNL     1      13.261  34.011  52.869  1.00  0.00     0.057 A 
ATOM     42  C   UNL     1      15.231  32.956  53.841  1.00  0.00     0.011 A 
ATOM     43  C   UNL     1      12.584  33.875  54.123  1.00  0.00     0.158 A 
ATOM     44  C   UNL     1      14.577  32.938  55.110  1.00  0.00     0.051 A 
ATOM     45  C   UNL     1      13.266  33.447  55.240  1.00  0.00     0.160 A 
BRANCH  43  46
ATOM     46  O   UNL     1      11.243  34.349  54.205  1.00  0.00    -0.504 OA
ATOM     47  H   UNL     1      10.444  33.713  54.072  1.00  0.00     0.293 HD
ENDBRANCH  43  46
BRANCH  45  48
ATOM     48  O   UNL     1      12.502  33.533  56.466  1.00  0.00    -0.493 OA
ATOM     49  C   UNL     1      12.002  32.389  57.177  1.00  0.00     0.278 C 
ENDBRANCH  45  48
ENDBRANCH  35  40
ENDBRANCH  26  27
ENDBRANCH   5  26
BRANCH   4  50
ATOM     50  O   UNL     1      15.734  38.092  47.504  1.00  0.00    -0.384 OA
ATOM     51  H   UNL     1      15.536  39.006  46.959  1.00  0.00     0.211 HD
ENDBRANCH   4  50
TORSDOF 15
ENDMDL
MODEL 6
REMARK VINA RESULT:    -5.188      2.819      6.045
REMARK INTER + INTRA:         -12.087
REMARK INTER:                  -9.399
REMARK INTRA:                  -2.688
REMARK UNBOUND:                -3.563
REMARK SMILES COc1ccc([C@H]2CC(=O)c3c(O)cc(O[C@H]4O[C@@H](CO[C@H]5O[C@@H](C)[C@@H](O)[C@@H](O)[C@@H]5O)[C@@H](O)[C@@H](O)[C@H]4O)cc3O2)cc1O
REMARK SMILES IDX 19 1 32 2 34 3 36 4 17 5 18 6 20 7 21 8 22 9 25 10 24 11
REMARK SMILES IDX 26 12 23 13 28 14 30 15 27 16 29 18 31 20 33 22 35 24 16 26
REMARK SMILES IDX 15 27 14 28 38 29 12 30 39 31 11 32 40 33 9 34 7 35 10 36
REMARK SMILES IDX 8 37 13 38 6 40 41 41 5 42 42 43 4 44 3 45 43 46 2 48 1 49
REMARK SMILES IDX 37 50
REMARK H PARENT 27 17 29 19 31 21 33 23 35 25 13 39 43 47 37 51
REMARK Flexibility Score: inf
ROOT
ATOM      1  C   UNL     1      14.380  31.412  50.514  1.00  0.00     0.180 C 
ATOM      2  C   UNL     1      15.335  30.350  51.102  1.00  0.00     0.177 C 
ATOM      3  C   UNL     1      15.544  30.769  52.581  1.00  0.00     0.180 C 
ATOM      4  C   UNL     1      14.203  30.660  53.233  1.00  0.00     0.214 C 
ATOM      5  C   UNL     1      13.180  31.752  52.690  1.00  0.00     0.339 C 
ATOM      6  O   UNL     1      13.155  31.751  51.277  1.00  0.00    -0.332 OA
ENDROOT
BRANCH   1   7
ATOM      7  C   UNL     1      15.339  32.560  49.726  1.00  0.00     0.198 C 
BRANCH   7   8
ATOM      8  O   UNL     1      14.936  33.978  49.428  1.00  0.00    -0.347 OA
BRANCH   8   9
ATOM      9  C   UNL     1      16.089  34.800  49.270  1.00  0.00     0.281 C 
ATOM     10  C   UNL     1      13.577  36.274  50.208  1.00  0.00     0.041 C 
ATOM     11  C   UNL     1      14.980  36.898  49.843  1.00  0.00     0.150 C 
ATOM     12  C   UNL     1      15.868  36.990  51.114  1.00  0.00     0.174 C 
ATOM     13  O   UNL     1      15.650  36.128  48.828  1.00  0.00    -0.344 OA
ATOM     14  C   UNL     1      16.484  35.617  51.657  1.00  0.00     0.179 C 
ATOM     15  C   UNL     1      17.089  34.799  50.522  1.00  0.00     0.202 C 
BRANCH  12  16
ATOM     16  O   UNL     1      15.407  37.848  52.134  1.00  0.00    -0.388 OA
ATOM     17  H   UNL     1      14.638  37.314  52.558  1.00  0.00     0.211 HD
ENDBRANCH  12  16
BRANCH  14  18
ATOM     18  O   UNL     1      15.724  34.783  52.509  1.00  0.00    -0.387 OA
ATOM     19  H   UNL     1      15.383  35.284  53.300  1.00  0.00     0.211 HD
ENDBRANCH  14  18
BRANCH  15  20
ATOM     20  O   UNL     1      18.387  35.302  50.302  1.00  0.00    -0.385 OA
ATOM     21  H   UNL     1      18.259  36.306  50.227  1.00  0.00     0.211 HD
ENDBRANCH  15  20
ENDBRANCH   8   9
ENDBRANCH   7   8
ENDBRANCH   1   7
BRANCH   2  22
ATOM     22  O   UNL     1      16.522  30.158  50.352  1.00  0.00    -0.387 OA
ATOM     23  H   UNL     1      16.343  30.590  49.460  1.00  0.00     0.211 HD
ENDBRANCH   2  22
BRANCH   3  24
ATOM     24  O   UNL     1      16.121  32.082  52.683  1.00  0.00    -0.387 OA
ATOM     25  H   UNL     1      15.550  32.609  52.024  1.00  0.00     0.211 HD
ENDBRANCH   3  24
BRANCH   5  26
ATOM     26  O   UNL     1      13.455  33.112  53.058  1.00  0.00    -0.462 OA
BRANCH  26  27
ATOM     27  C   UNL     1      13.086  33.757  54.273  1.00  0.00     0.130 A 
ATOM     28  C   UNL     1      11.738  33.988  54.576  1.00  0.00     0.093 A 
ATOM     29  C   UNL     1      14.015  33.721  55.398  1.00  0.00     0.094 A 
ATOM     30  C   UNL     1      11.289  33.422  55.771  1.00  0.00     0.133 A 
ATOM     31  C   UNL     1      13.395  33.362  56.728  1.00  0.00     0.138 A 
ATOM     32  C   UNL     1      12.143  32.622  56.530  1.00  0.00     0.102 A 
ATOM     33  O   UNL     1      14.253  32.890  57.750  1.00  0.00    -0.484 OA
ATOM     34  C   UNL     1      12.262  31.053  56.687  1.00  0.00     0.174 C 
ATOM     35  C   UNL     1      14.539  31.502  57.657  1.00  0.00     0.211 C 
ATOM     36  O   UNL     1      11.536  30.074  56.145  1.00  0.00    -0.294 OA
ATOM     37  C   UNL     1      13.250  30.620  57.762  1.00  0.00     0.131 C 
BRANCH  30  38
ATOM     38  O   UNL     1      10.227  34.110  56.384  1.00  0.00    -0.507 OA
ATOM     39  H   UNL     1       9.409  33.489  56.664  1.00  0.00     0.293 HD
ENDBRANCH  30  38
BRANCH  35  40
ATOM     40  C   UNL     1      15.705  31.021  58.458  1.00  0.00    -0.003 A 
ATOM     41  C   UNL     1      15.493  30.623  59.789  1.00  0.00     0.057 A 
ATOM     42  C   UNL     1      17.067  31.384  58.093  1.00  0.00     0.011 A 
ATOM     43  C   UNL     1      16.527  30.719  60.775  1.00  0.00     0.158 A 
ATOM     44  C   UNL     1      18.047  31.583  59.111  1.00  0.00     0.051 A 
ATOM     45  C   UNL     1      17.741  31.286  60.458  1.00  0.00     0.160 A 
BRANCH  43  46
ATOM     46  O   UNL     1      16.200  30.359  62.114  1.00  0.00    -0.504 OA
ATOM     47  H   UNL     1      16.835  30.576  62.895  1.00  0.00     0.293 HD
ENDBRANCH  43  46
BRANCH  45  48
ATOM     48  O   UNL     1      18.616  31.480  61.594  1.00  0.00    -0.493 OA
ATOM     49  C   UNL     1      20.032  31.240  61.561  1.00  0.00     0.278 C 
ENDBRANCH  45  48
ENDBRANCH  35  40
ENDBRANCH  26  27
ENDBRANCH   5  26
BRANCH   4  50
ATOM     50  O   UNL     1      14.198  29.787  54.380  1.00  0.00    -0.384 OA
ATOM     51  H   UNL     1      14.389  28.753  54.123  1.00  0.00     0.211 HD
ENDBRANCH   4  50
TORSDOF 15
ENDMDL
MODEL 7
REMARK VINA RESULT:    -5.168      1.956      2.920
REMARK INTER + INTRA:         -12.053
REMARK INTER:                  -9.076
REMARK INTRA:                  -2.978
REMARK UNBOUND:                -3.563
REMARK SMILES COc1ccc([C@H]2CC(=O)c3c(O)cc(O[C@H]4O[C@@H](CO[C@H]5O[C@@H](C)[C@@H](O)[C@@H](O)[C@@H]5O)[C@@H](O)[C@@H](O)[C@H]4O)cc3O2)cc1O
REMARK SMILES IDX 19 1 32 2 34 3 36 4 17 5 18 6 20 7 21 8 22 9 25 10 24 11
REMARK SMILES IDX 26 12 23 13 28 14 30 15 27 16 29 18 31 20 33 22 35 24 16 26
REMARK SMILES IDX 15 27 14 28 38 29 12 30 39 31 11 32 40 33 9 34 7 35 10 36
REMARK SMILES IDX 8 37 13 38 6 40 41 41 5 42 42 43 4 44 3 45 43 46 2 48 1 49
REMARK SMILES IDX 37 50
REMARK H PARENT 27 17 29 19 31 21 33 23 35 25 13 39 43 47 37 51
REMARK Flexibility Score: inf
ROOT
ATOM      1  C   UNL     1      10.702  33.577  54.194  1.00  0.00     0.180 C 
ATOM      2  C   UNL     1       9.283  32.970  54.242  1.00  0.00     0.177 C 
ATOM      3  C   UNL     1       9.449  31.611  54.969  1.00  0.00     0.180 C 
ATOM      4  C   UNL     1       9.905  31.938  56.355  1.00  0.00     0.214 C 
ATOM      5  C   UNL     1      11.378  32.539  56.375  1.00  0.00     0.339 C 
ATOM      6  O   UNL     1      11.497  33.598  55.445  1.00  0.00    -0.332 OA
ENDROOT
BRANCH   1   7
ATOM      7  C   UNL     1      11.352  33.201  52.679  1.00  0.00     0.198 C 
BRANCH   7   8
ATOM      8  O   UNL     1      11.221  34.043  51.440  1.00  0.00    -0.347 OA
BRANCH   8   9
ATOM      9  C   UNL     1      12.344  34.910  51.308  1.00  0.00     0.281 C 
ATOM     10  C   UNL     1      11.960  32.942  48.997  1.00  0.00     0.041 C 
ATOM     11  C   UNL     1      13.147  33.960  49.208  1.00  0.00     0.150 C 
ATOM     12  C   UNL     1      12.825  35.306  48.505  1.00  0.00     0.174 C 
ATOM     13  O   UNL     1      13.408  34.183  50.606  1.00  0.00    -0.344 OA
ATOM     14  C   UNL     1      11.738  36.241  49.214  1.00  0.00     0.179 C 
ATOM     15  C   UNL     1      12.006  36.358  50.710  1.00  0.00     0.202 C 
BRANCH  12  16
ATOM     16  O   UNL     1      12.705  35.262  47.100  1.00  0.00    -0.388 OA
ATOM     17  H   UNL     1      12.125  34.429  46.942  1.00  0.00     0.211 HD
ENDBRANCH  12  16
BRANCH  14  18
ATOM     18  O   UNL     1      10.359  36.034  48.980  1.00  0.00    -0.387 OA
ATOM     19  H   UNL     1       9.939  36.829  48.549  1.00  0.00     0.211 HD
ENDBRANCH  14  18
BRANCH  15  20
ATOM     20  O   UNL     1      12.984  37.360  50.874  1.00  0.00    -0.385 OA
ATOM     21  H   UNL     1      13.245  37.300  51.853  1.00  0.00     0.211 HD
ENDBRANCH  15  20
ENDBRANCH   8   9
ENDBRANCH   7   8
ENDBRANCH   1   7
BRANCH   2  22
ATOM     22  O   UNL     1       8.635  32.910  52.982  1.00  0.00    -0.387 OA
ATOM     23  H   UNL     1       9.285  32.438  52.374  1.00  0.00     0.211 HD
ENDBRANCH   2  22
BRANCH   3  24
ATOM     24  O   UNL     1      10.349  30.739  54.265  1.00  0.00    -0.387 OA
ATOM     25  H   UNL     1      10.052  29.823  54.601  1.00  0.00     0.211 HD
ENDBRANCH   3  24
BRANCH   5  26
ATOM     26  O   UNL     1      12.437  31.629  56.042  1.00  0.00    -0.462 OA
BRANCH  26  27
ATOM     27  C   UNL     1      13.795  31.711  56.460  1.00  0.00     0.130 A 
ATOM     28  C   UNL     1      14.466  30.574  56.929  1.00  0.00     0.093 A 
ATOM     29  C   UNL     1      14.623  32.798  55.948  1.00  0.00     0.094 A 
ATOM     30  C   UNL     1      15.625  30.233  56.228  1.00  0.00     0.133 A 
ATOM     31  C   UNL     1      15.989  32.383  55.453  1.00  0.00     0.138 A 
ATOM     32  C   UNL     1      15.996  30.959  55.096  1.00  0.00     0.102 A 
ATOM     33  O   UNL     1      16.664  33.259  54.569  1.00  0.00    -0.484 OA
ATOM     34  C   UNL     1      15.855  30.656  53.551  1.00  0.00     0.174 C 
ATOM     35  C   UNL     1      16.271  33.113  53.212  1.00  0.00     0.211 C 
ATOM     36  O   UNL     1      15.360  29.587  52.923  1.00  0.00    -0.294 OA
ATOM     37  C   UNL     1      16.554  31.674  52.661  1.00  0.00     0.131 C 
BRANCH  30  38
ATOM     38  O   UNL     1      16.595  29.557  56.990  1.00  0.00    -0.507 OA
ATOM     39  H   UNL     1      17.591  29.679  56.634  1.00  0.00     0.293 HD
ENDBRANCH  30  38
BRANCH  35  40
ATOM     40  C   UNL     1      16.656  34.230  52.298  1.00  0.00    -0.003 A 
ATOM     41  C   UNL     1      16.225  35.533  52.601  1.00  0.00     0.057 A 
ATOM     42  C   UNL     1      17.034  33.971  50.916  1.00  0.00     0.011 A 
ATOM     43  C   UNL     1      16.016  36.512  51.577  1.00  0.00     0.158 A 
ATOM     44  C   UNL     1      16.709  34.921  49.900  1.00  0.00     0.051 A 
ATOM     45  C   UNL     1      16.156  36.172  50.250  1.00  0.00     0.160 A 
BRANCH  43  46
ATOM     46  O   UNL     1      15.509  37.783  51.971  1.00  0.00    -0.504 OA
ATOM     47  H   UNL     1      14.496  37.954  52.046  1.00  0.00     0.293 HD
ENDBRANCH  43  46
BRANCH  45  48
ATOM     48  O   UNL     1      15.739  37.208  49.329  1.00  0.00    -0.493 OA
ATOM     49  C   UNL     1      16.648  38.102  48.668  1.00  0.00     0.278 C 
ENDBRANCH  45  48
ENDBRANCH  35  40
ENDBRANCH  26  27
ENDBRANCH   5  26
BRANCH   4  50
ATOM     50  O   UNL     1       9.043  31.403  57.378  1.00  0.00    -0.384 OA
ATOM     51  H   UNL     1       8.570  30.473  57.088  1.00  0.00     0.211 HD
ENDBRANCH   4  50
TORSDOF 15
ENDMDL
MODEL 8
REMARK VINA RESULT:    -5.167      2.612      8.542
REMARK INTER + INTRA:         -12.052
REMARK INTER:                  -8.914
REMARK INTRA:                  -3.138
REMARK UNBOUND:                -3.563
REMARK SMILES COc1ccc([C@H]2CC(=O)c3c(O)cc(O[C@H]4O[C@@H](CO[C@H]5O[C@@H](C)[C@@H](O)[C@@H](O)[C@@H]5O)[C@@H](O)[C@@H](O)[C@H]4O)cc3O2)cc1O
REMARK SMILES IDX 19 1 32 2 34 3 36 4 17 5 18 6 20 7 21 8 22 9 25 10 24 11
REMARK SMILES IDX 26 12 23 13 28 14 30 15 27 16 29 18 31 20 33 22 35 24 16 26
REMARK SMILES IDX 15 27 14 28 38 29 12 30 39 31 11 32 40 33 9 34 7 35 10 36
REMARK SMILES IDX 8 37 13 38 6 40 41 41 5 42 42 43 4 44 3 45 43 46 2 48 1 49
REMARK SMILES IDX 37 50
REMARK H PARENT 27 17 29 19 31 21 33 23 35 25 13 39 43 47 37 51
REMARK Flexibility Score: inf
ROOT
ATOM      1  C   UNL     1      16.917  32.268  52.707  1.00  0.00     0.180 C 
ATOM      2  C   UNL     1      16.652  31.523  51.381  1.00  0.00     0.177 C 
ATOM      3  C   UNL     1      16.108  32.603  50.411  1.00  0.00     0.180 C 
ATOM      4  C   UNL     1      17.218  33.587  50.225  1.00  0.00     0.214 C 
ATOM      5  C   UNL     1      17.518  34.412  51.553  1.00  0.00     0.339 C 
ATOM      6  O   UNL     1      17.674  33.541  52.655  1.00  0.00    -0.332 OA
ENDROOT
BRANCH   1   7
ATOM      7  C   UNL     1      15.565  32.023  53.693  1.00  0.00     0.198 C 
BRANCH   7   8
ATOM      8  O   UNL     1      14.289  32.818  53.637  1.00  0.00    -0.347 OA
BRANCH   8   9
ATOM      9  C   UNL     1      13.161  31.950  53.692  1.00  0.00     0.281 C 
ATOM     10  C   UNL     1      13.610  33.637  56.205  1.00  0.00     0.041 C 
ATOM     11  C   UNL     1      12.523  32.516  55.980  1.00  0.00     0.150 C 
ATOM     12  C   UNL     1      11.214  33.148  55.431  1.00  0.00     0.174 C 
ATOM     13  O   UNL     1      12.995  31.498  55.078  1.00  0.00    -0.344 OA
ATOM     14  C   UNL     1      11.231  33.609  53.899  1.00  0.00     0.179 C 
ATOM     15  C   UNL     1      11.834  32.532  53.007  1.00  0.00     0.202 C 
BRANCH  12  16
ATOM     16  O   UNL     1      10.551  34.050  56.289  1.00  0.00    -0.388 OA
ATOM     17  H   UNL     1      10.647  33.607  57.211  1.00  0.00     0.211 HD
ENDBRANCH  12  16
BRANCH  14  18
ATOM     18  O   UNL     1      11.740  34.880  53.544  1.00  0.00    -0.387 OA
ATOM     19  H   UNL     1      11.085  35.604  53.743  1.00  0.00     0.211 HD
ENDBRANCH  14  18
BRANCH  15  20
ATOM     20  O   UNL     1      10.806  31.611  52.724  1.00  0.00    -0.385 OA
ATOM     21  H   UNL     1      10.093  31.808  53.420  1.00  0.00     0.211 HD
ENDBRANCH  15  20
ENDBRANCH   8   9
ENDBRANCH   7   8
ENDBRANCH   1   7
BRANCH   2  22
ATOM     22  O   UNL     1      15.844  30.366  51.517  1.00  0.00    -0.387 OA
ATOM     23  H   UNL     1      15.517  30.162  50.586  1.00  0.00     0.211 HD
ENDBRANCH   2  22
BRANCH   3  24
ATOM     24  O   UNL     1      14.897  33.199  50.907  1.00  0.00    -0.387 OA
ATOM     25  H   UNL     1      15.199  33.553  51.814  1.00  0.00     0.211 HD
ENDBRANCH   3  24
BRANCH   5  26
ATOM     26  O   UNL     1      16.507  35.348  51.956  1.00  0.00    -0.462 OA
BRANCH  26  27
ATOM     27  C   UNL     1      16.063  36.488  51.228  1.00  0.00     0.130 A 
ATOM     28  C   UNL     1      16.849  37.029  50.203  1.00  0.00     0.093 A 
ATOM     29  C   UNL     1      14.634  36.780  51.182  1.00  0.00     0.094 A 
ATOM     30  C   UNL     1      16.238  37.088  48.948  1.00  0.00     0.133 A 
ATOM     31  C   UNL     1      14.091  37.107  49.811  1.00  0.00     0.138 A 
ATOM     32  C   UNL     1      14.963  36.554  48.767  1.00  0.00     0.102 A 
ATOM     33  O   UNL     1      12.697  36.976  49.605  1.00  0.00    -0.484 OA
ATOM     34  C   UNL     1      14.464  35.196  48.131  1.00  0.00     0.174 C 
ATOM     35  C   UNL     1      12.288  35.648  49.307  1.00  0.00     0.211 C 
ATOM     36  O   UNL     1      15.155  34.205  47.563  1.00  0.00    -0.294 OA
ATOM     37  C   UNL     1      12.950  35.101  47.997  1.00  0.00     0.131 C 
BRANCH  30  38
ATOM     38  O   UNL     1      16.702  38.124  48.118  1.00  0.00    -0.507 OA
ATOM     39  H   UNL     1      17.733  38.052  47.866  1.00  0.00     0.293 HD
ENDBRANCH  30  38
BRANCH  35  40
ATOM     40  C   UNL     1      10.826  35.371  49.442  1.00  0.00    -0.003 A 
ATOM     41  C   UNL     1      10.409  34.055  49.708  1.00  0.00     0.057 A 
ATOM     42  C   UNL     1       9.836  36.267  48.863  1.00  0.00     0.011 A 
ATOM     43  C   UNL     1       9.127  33.575  49.286  1.00  0.00     0.158 A 
ATOM     44  C   UNL     1       8.614  35.738  48.349  1.00  0.00     0.051 A 
ATOM     45  C   UNL     1       8.298  34.373  48.532  1.00  0.00     0.160 A 
BRANCH  43  46
ATOM     46  O   UNL     1       8.820  32.206  49.535  1.00  0.00    -0.504 OA
ATOM     47  H   UNL     1       9.555  31.531  49.788  1.00  0.00     0.293 HD
ENDBRANCH  43  46
BRANCH  45  48
ATOM     48  O   UNL     1       7.123  33.695  48.028  1.00  0.00    -0.493 OA
ATOM     49  C   UNL     1       5.894  33.577  48.762  1.00  0.00     0.278 C 
ENDBRANCH  45  48
ENDBRANCH  35  40
ENDBRANCH  26  27
ENDBRANCH   5  26
BRANCH   4  50
ATOM     50  O   UNL     1      17.592  33.767  48.845  1.00  0.00    -0.384 OA
ATOM     51  H   UNL     1      18.606  34.129  48.727  1.00  0.00     0.211 HD
ENDBRANCH   4  50
TORSDOF 15
ENDMDL
MODEL 9
REMARK VINA RESULT:    -5.143      2.576      4.972
REMARK INTER + INTRA:         -12.013
REMARK INTER:                  -8.148
REMARK INTRA:                  -3.865
REMARK UNBOUND:                -3.563
REMARK SMILES COc1ccc([C@H]2CC(=O)c3c(O)cc(O[C@H]4O[C@@H](CO[C@H]5O[C@@H](C)[C@@H](O)[C@@H](O)[C@@H]5O)[C@@H](O)[C@@H](O)[C@H]4O)cc3O2)cc1O
REMARK SMILES IDX 19 1 32 2 34 3 36 4 17 5 18 6 20 7 21 8 22 9 25 10 24 11
REMARK SMILES IDX 26 12 23 13 28 14 30 15 27 16 29 18 31 20 33 22 35 24 16 26
REMARK SMILES IDX 15 27 14 28 38 29 12 30 39 31 11 32 40 33 9 34 7 35 10 36
REMARK SMILES IDX 8 37 13 38 6 40 41 41 5 42 42 43 4 44 3 45 43 46 2 48 1 49
REMARK SMILES IDX 37 50
REMARK H PARENT 27 17 29 19 31 21 33 23 35 25 13 39 43 47 37 51
REMARK Flexibility Score: inf
ROOT
ATOM      1  C   UNL     1      14.176  34.160  54.514  1.00  0.00     0.180 C 
ATOM      2  C   UNL     1      12.658  33.909  54.388  1.00  0.00     0.177 C 
ATOM      3  C   UNL     1      12.523  32.400  54.059  1.00  0.00     0.180 C 
ATOM      4  C   UNL     1      13.058  31.670  55.249  1.00  0.00     0.214 C 
ATOM      5  C   UNL     1      14.629  31.864  55.416  1.00  0.00     0.339 C 
ATOM      6  O   UNL     1      14.970  33.234  55.357  1.00  0.00    -0.332 OA
ENDROOT
BRANCH   1   7
ATOM      7  C   UNL     1      14.707  34.757  53.024  1.00  0.00     0.198 C 
BRANCH   7   8
ATOM      8  O   UNL     1      14.109  34.421  51.686  1.00  0.00    -0.347 OA
BRANCH   8   9
ATOM      9  C   UNL     1      14.700  35.218  50.664  1.00  0.00     0.281 C 
ATOM     10  C   UNL     1      12.116  33.793  49.853  1.00  0.00     0.041 C 
ATOM     11  C   UNL     1      13.063  34.664  48.939  1.00  0.00     0.150 C 
ATOM     12  C   UNL     1      12.594  36.144  48.945  1.00  0.00     0.174 C 
ATOM     13  O   UNL     1      14.434  34.579  49.370  1.00  0.00    -0.344 OA
ATOM     14  C   UNL     1      12.899  36.986  50.270  1.00  0.00     0.179 C 
ATOM     15  C   UNL     1      14.335  36.777  50.736  1.00  0.00     0.202 C 
BRANCH  12  16
ATOM     16  O   UNL     1      11.321  36.396  48.393  1.00  0.00    -0.388 OA
ATOM     17  H   UNL     1      10.747  36.606  49.220  1.00  0.00     0.211 HD
ENDBRANCH  12  16
BRANCH  14  18
ATOM     18  O   UNL     1      12.015  36.925  51.372  1.00  0.00    -0.387 OA
ATOM     19  H   UNL     1      11.330  36.211  51.251  1.00  0.00     0.211 HD
ENDBRANCH  14  18
BRANCH  15  20
ATOM     20  O   UNL     1      15.141  37.656  49.985  1.00  0.00    -0.385 OA
ATOM     21  H   UNL     1      14.694  38.562  50.092  1.00  0.00     0.211 HD
ENDBRANCH  15  20
ENDBRANCH   8   9
ENDBRANCH   7   8
ENDBRANCH   1   7
BRANCH   2  22
ATOM     22  O   UNL     1      11.998  34.787  53.491  1.00  0.00    -0.387 OA
ATOM     23  H   UNL     1      11.300  34.222  53.035  1.00  0.00     0.211 HD
ENDBRANCH   2  22
BRANCH   3  24
ATOM     24  O   UNL     1      13.196  32.061  52.835  1.00  0.00    -0.387 OA
ATOM     25  H   UNL     1      13.906  32.790  52.782  1.00  0.00     0.211 HD
ENDBRANCH   3  24
BRANCH   5  26
ATOM     26  O   UNL     1      15.452  31.230  54.426  1.00  0.00    -0.462 OA
BRANCH  26  27
ATOM     27  C   UNL     1      16.873  31.254  54.357  1.00  0.00     0.130 A 
ATOM     28  C   UNL     1      17.618  30.093  54.608  1.00  0.00     0.093 A 
ATOM     29  C   UNL     1      17.522  32.290  53.560  1.00  0.00     0.094 A 
ATOM     30  C   UNL     1      18.455  29.685  53.567  1.00  0.00     0.133 A 
ATOM     31  C   UNL     1      18.620  31.801  52.646  1.00  0.00     0.138 A 
ATOM     32  C   UNL     1      18.449  30.372  52.354  1.00  0.00     0.102 A 
ATOM     33  O   UNL     1      18.990  32.627  51.558  1.00  0.00    -0.484 OA
ATOM     34  C   UNL     1      17.780  30.051  50.959  1.00  0.00     0.174 C 
ATOM     35  C   UNL     1      18.154  32.478  50.419  1.00  0.00     0.211 C 
ATOM     36  O   UNL     1      17.059  28.996  50.570  1.00  0.00    -0.294 OA
ATOM     37  C   UNL     1      18.176  31.019  49.852  1.00  0.00     0.131 C 
BRANCH  30  38
ATOM     38  O   UNL     1      19.598  28.975  53.979  1.00  0.00    -0.507 OA
ATOM     39  H   UNL     1      20.502  29.535  53.922  1.00  0.00     0.293 HD
ENDBRANCH  30  38
BRANCH  35  40
ATOM     40  C   UNL     1      18.251  33.560  49.393  1.00  0.00    -0.003 A 
ATOM     41  C   UNL     1      18.379  34.892  49.823  1.00  0.00     0.057 A 
ATOM     42  C   UNL     1      17.758  33.354  48.039  1.00  0.00     0.011 A 
ATOM     43  C   UNL     1      17.902  35.985  49.031  1.00  0.00     0.158 A 
ATOM     44  C   UNL     1      17.185  34.445  47.318  1.00  0.00     0.051 A 
ATOM     45  C   UNL     1      17.227  35.750  47.855  1.00  0.00     0.160 A 
BRANCH  43  46
ATOM     46  O   UNL     1      18.010  37.295  49.580  1.00  0.00    -0.504 OA
ATOM     47  H   UNL     1      17.209  37.943  49.577  1.00  0.00     0.293 HD
ENDBRANCH  43  46
BRANCH  45  48
ATOM     48  O   UNL     1      16.649  36.936  47.260  1.00  0.00    -0.493 OA
ATOM     49  C   UNL     1      15.385  36.952  46.578  1.00  0.00     0.278 C 
ENDBRANCH  45  48
ENDBRANCH  35  40
ENDBRANCH  26  27
ENDBRANCH   5  26
BRANCH   4  50
ATOM     50  O   UNL     1      12.110  30.749  55.825  1.00  0.00    -0.384 OA
ATOM     51  H   UNL     1      12.140  30.734  56.906  1.00  0.00     0.211 HD
ENDBRANCH   4  50
TORSDOF 15
ENDMDL
