MODEL 1
REMARK VINA RESULT:    -3.424      0.000      0.000
REMARK INTER + INTRA:          -4.630
REMARK INTER:                  -4.424
REMARK INTRA:                  -0.206
REMARK UNBOUND:                -0.206
REMARK SMILES CCCCCCC(=O)[O-]
REMARK SMILES IDX 5 1 6 2 7 3 8 4 9 5 4 6 3 7 2 8 1 9
REMARK H PARENT
REMARK Flexibility Score: inf
ROOT
ATOM      1  C   UNL     1      -5.837  -7.264  -6.018  1.00  0.00     0.006 C 
ENDROOT
BRANCH   1   2
ATOM      2  C   UNL     1      -5.363  -6.347  -7.150  1.00  0.00     0.053 C 
BRANCH   2   3
ATOM      3  C   UNL     1      -4.530  -7.111  -8.129  1.00  0.00     0.041 C 
ATOM      4  O   UNL     1      -3.355  -7.451  -7.833  1.00  0.00    -0.550 OA
ATOM      5  O   UNL     1      -5.068  -7.491  -9.353  1.00  0.00    -0.550 OA
ENDBRANCH   2   3
ENDBRANCH   1   2
BRANCH   1   6
ATOM      6  C   UNL     1      -7.367  -7.395  -6.021  1.00  0.00     0.000 C 
BRANCH   6   7
ATOM      7  C   UNL     1      -8.046  -6.387  -6.961  1.00  0.00    -0.000 C 
BRANCH   7   8
ATOM      8  C   UNL     1      -9.364  -5.842  -6.392  1.00  0.00    -0.003 C 
ATOM      9  C   UNL     1      -9.745  -4.522  -7.056  1.00  0.00     0.004 C 
ENDBRANCH   7   8
ENDBRANCH   6   7
ENDBRANCH   1   6
TORSDOF 5
ENDMDL
MODEL 2
REMARK VINA RESULT:    -3.423      0.280      1.102
REMARK INTER + INTRA:          -4.629
REMARK INTER:                  -4.417
REMARK INTRA:                  -0.212
REMARK UNBOUND:                -0.206
REMARK SMILES CCCCCCC(=O)[O-]
REMARK SMILES IDX 5 1 6 2 7 3 8 4 9 5 4 6 3 7 2 8 1 9
REMARK H PARENT
REMARK Flexibility Score: inf
ROOT
ATOM      1  C   UNL     1      -5.956  -7.162  -5.979  1.00  0.00     0.006 C 
ENDROOT
BRANCH   1   2
ATOM      2  C   UNL     1      -5.310  -6.360  -7.112  1.00  0.00     0.053 C 
BRANCH   2   3
ATOM      3  C   UNL     1      -4.508  -7.260  -8.000  1.00  0.00     0.041 C 
ATOM      4  O   UNL     1      -4.857  -7.445  -9.195  1.00  0.00    -0.550 OA
ATOM      5  O   UNL     1      -3.349  -7.856  -7.521  1.00  0.00    -0.550 OA
ENDBRANCH   2   3
ENDBRANCH   1   2
BRANCH   1   6
ATOM      6  C   UNL     1      -7.402  -7.541  -6.329  1.00  0.00     0.000 C 
BRANCH   6   7
ATOM      7  C   UNL     1      -8.158  -6.404  -7.035  1.00  0.00    -0.000 C 
BRANCH   7   8
ATOM      8  C   UNL     1      -9.389  -5.934  -6.247  1.00  0.00    -0.003 C 
ATOM      9  C   UNL     1      -9.832  -4.545  -6.697  1.00  0.00     0.004 C 
ENDBRANCH   7   8
ENDBRANCH   6   7
ENDBRANCH   1   6
TORSDOF 5
ENDMDL
MODEL 3
REMARK VINA RESULT:    -3.397     15.733     16.463
REMARK INTER + INTRA:          -4.596
REMARK INTER:                  -4.350
REMARK INTRA:                  -0.246
REMARK UNBOUND:                -0.206
REMARK SMILES CCCCCCC(=O)[O-]
REMARK SMILES IDX 5 1 6 2 7 3 8 4 9 5 4 6 3 7 2 8 1 9
REMARK H PARENT
REMARK Flexibility Score: inf
ROOT
ATOM      1  C   UNL     1       0.555   8.569  -9.607  1.00  0.00     0.006 C 
ENDROOT
BRANCH   1   2
ATOM      2  C   UNL     1      -0.090   7.236  -9.215  1.00  0.00     0.053 C 
BRANCH   2   3
ATOM      3  C   UNL     1       0.921   6.328  -8.589  1.00  0.00     0.041 C 
ATOM      4  O   UNL     1       0.712   5.837  -7.449  1.00  0.00    -0.550 OA
ATOM      5  O   UNL     1       2.074   5.986  -9.284  1.00  0.00    -0.550 OA
ENDBRANCH   2   3
ENDBRANCH   1   2
BRANCH   1   6
ATOM      6  C   UNL     1       0.026   9.713  -8.728  1.00  0.00     0.000 C 
BRANCH   6   7
ATOM      7  C   UNL     1       0.478   9.593  -7.265  1.00  0.00    -0.000 C 
BRANCH   7   8
ATOM      8  C   UNL     1      -0.624   9.987  -6.272  1.00  0.00    -0.003 C 
ATOM      9  C   UNL     1      -1.988  10.038  -6.956  1.00  0.00     0.004 C 
ENDBRANCH   7   8
ENDBRANCH   6   7
ENDBRANCH   1   6
TORSDOF 5
ENDMDL
MODEL 4
REMARK VINA RESULT:    -3.321      2.974      4.653
REMARK INTER + INTRA:          -4.498
REMARK INTER:                  -4.232
REMARK INTRA:                  -0.266
REMARK UNBOUND:                -0.206
REMARK SMILES CCCCCCC(=O)[O-]
REMARK SMILES IDX 5 1 6 2 7 3 8 4 9 5 4 6 3 7 2 8 1 9
REMARK H PARENT
REMARK Flexibility Score: inf
ROOT
ATOM      1  C   UNL     1      -7.437  -7.183  -5.953  1.00  0.00     0.006 C 
ENDROOT
BRANCH   1   2
ATOM      2  C   UNL     1      -8.034  -6.488  -7.180  1.00  0.00     0.053 C 
BRANCH   2   3
ATOM      3  C   UNL     1      -9.172  -5.602  -6.779  1.00  0.00     0.041 C 
ATOM      4  O   UNL     1      -9.925  -5.931  -5.825  1.00  0.00    -0.550 OA
ATOM      5  O   UNL     1      -9.371  -4.390  -7.427  1.00  0.00    -0.550 OA
ENDBRANCH   2   3
ENDBRANCH   1   2
BRANCH   1   6
ATOM      6  C   UNL     1      -5.903  -7.204  -6.026  1.00  0.00     0.000 C 
BRANCH   6   7
ATOM      7  C   UNL     1      -5.353  -6.348  -7.177  1.00  0.00    -0.000 C 
BRANCH   7   8
ATOM      8  C   UNL     1      -4.274  -7.074  -7.991  1.00  0.00    -0.003 C 
ATOM      9  C   UNL     1      -4.854  -7.655  -9.278  1.00  0.00     0.004 C 
ENDBRANCH   7   8
ENDBRANCH   6   7
ENDBRANCH   1   6
TORSDOF 5
ENDMDL
MODEL 5
REMARK VINA RESULT:    -3.112      2.446      4.369
REMARK INTER + INTRA:          -4.228
REMARK INTER:                  -3.882
REMARK INTRA:                  -0.346
REMARK UNBOUND:                -0.206
REMARK SMILES CCCCCCC(=O)[O-]
REMARK SMILES IDX 5 1 6 2 7 3 8 4 9 5 4 6 3 7 2 8 1 9
REMARK H PARENT
REMARK Flexibility Score: inf
ROOT
ATOM      1  C   UNL     1      -5.996  -7.066  -5.984  1.00  0.00     0.006 C 
ENDROOT
BRANCH   1   2
ATOM      2  C   UNL     1      -7.268  -7.824  -6.373  1.00  0.00     0.053 C 
BRANCH   2   3
ATOM      3  C   UNL     1      -8.308  -6.878  -6.884  1.00  0.00     0.041 C 
ATOM      4  O   UNL     1      -8.879  -6.079  -6.097  1.00  0.00    -0.550 OA
ATOM      5  O   UNL     1      -8.612  -6.844  -8.239  1.00  0.00    -0.550 OA
ENDBRANCH   2   3
ENDBRANCH   1   2
BRANCH   1   6
ATOM      6  C   UNL     1      -5.245  -6.577  -7.232  1.00  0.00     0.000 C 
BRANCH   6   7
ATOM      7  C   UNL     1      -4.087  -7.506  -7.627  1.00  0.00    -0.000 C 
BRANCH   7   8
ATOM      8  C   UNL     1      -4.077  -7.834  -9.127  1.00  0.00    -0.003 C 
ATOM      9  C   UNL     1      -5.497  -7.909  -9.682  1.00  0.00     0.004 C 
ENDBRANCH   7   8
ENDBRANCH   6   7
ENDBRANCH   1   6
TORSDOF 5
ENDMDL
MODEL 6
REMARK VINA RESULT:    -3.045      2.041      2.917
REMARK INTER + INTRA:          -4.141
REMARK INTER:                  -3.690
REMARK INTRA:                  -0.451
REMARK UNBOUND:                -0.206
REMARK SMILES CCCCCCC(=O)[O-]
REMARK SMILES IDX 5 1 6 2 7 3 8 4 9 5 4 6 3 7 2 8 1 9
REMARK H PARENT
REMARK Flexibility Score: inf
ROOT
ATOM      1  C   UNL     1      -5.062  -6.442  -7.171  1.00  0.00     0.006 C 
ENDROOT
BRANCH   1   2
ATOM      2  C   UNL     1      -4.395  -7.180  -8.335  1.00  0.00     0.053 C 
BRANCH   2   3
ATOM      3  C   UNL     1      -4.067  -8.587  -7.945  1.00  0.00     0.041 C 
ATOM      4  O   UNL     1      -4.385  -9.544  -8.697  1.00  0.00    -0.550 OA
ATOM      5  O   UNL     1      -3.366  -8.837  -6.772  1.00  0.00    -0.550 OA
ENDBRANCH   2   3
ENDBRANCH   1   2
BRANCH   1   6
ATOM      6  C   UNL     1      -6.529  -6.871  -7.016  1.00  0.00     0.000 C 
BRANCH   6   7
ATOM      7  C   UNL     1      -6.867  -7.322  -5.587  1.00  0.00    -0.000 C 
BRANCH   7   8
ATOM      8  C   UNL     1      -7.019  -8.845  -5.468  1.00  0.00    -0.003 C 
ATOM      9  C   UNL     1      -7.492  -9.455  -6.785  1.00  0.00     0.004 C 
ENDBRANCH   7   8
ENDBRANCH   6   7
ENDBRANCH   1   6
TORSDOF 5
ENDMDL
MODEL 7
REMARK VINA RESULT:    -3.034     20.962     22.272
REMARK INTER + INTRA:          -4.127
REMARK INTER:                  -4.008
REMARK INTRA:                  -0.119
REMARK UNBOUND:                -0.206
REMARK SMILES CCCCCCC(=O)[O-]
REMARK SMILES IDX 5 1 6 2 7 3 8 4 9 5 4 6 3 7 2 8 1 9
REMARK H PARENT
REMARK Flexibility Score: inf
ROOT
ATOM      1  C   UNL     1       9.015   6.833   2.252  1.00  0.00     0.006 C 
ENDROOT
BRANCH   1   2
ATOM      2  C   UNL     1       8.502   8.275   2.293  1.00  0.00     0.053 C 
BRANCH   2   3
ATOM      3  C   UNL     1       7.047   8.324   1.950  1.00  0.00     0.041 C 
ATOM      4  O   UNL     1       6.402   7.258   1.769  1.00  0.00    -0.550 OA
ATOM      5  O   UNL     1       6.390   9.546   1.876  1.00  0.00    -0.550 OA
ENDBRANCH   2   3
ENDBRANCH   1   2
BRANCH   1   6
ATOM      6  C   UNL     1       9.962   6.621   1.060  1.00  0.00     0.000 C 
BRANCH   6   7
ATOM      7  C   UNL     1      10.125   5.139   0.689  1.00  0.00    -0.000 C 
BRANCH   7   8
ATOM      8  C   UNL     1       9.584   4.817  -0.711  1.00  0.00    -0.003 C 
ATOM      9  C   UNL     1       9.881   3.369  -1.094  1.00  0.00     0.004 C 
ENDBRANCH   7   8
ENDBRANCH   6   7
ENDBRANCH   1   6
TORSDOF 5
ENDMDL
MODEL 8
REMARK VINA RESULT:    -2.961      2.781      4.956
REMARK INTER + INTRA:          -4.033
REMARK INTER:                  -3.827
REMARK INTRA:                  -0.205
REMARK UNBOUND:                -0.206
REMARK SMILES CCCCCCC(=O)[O-]
REMARK SMILES IDX 5 1 6 2 7 3 8 4 9 5 4 6 3 7 2 8 1 9
REMARK H PARENT
REMARK Flexibility Score: inf
ROOT
ATOM      1  C   UNL     1      -6.571  -7.322  -7.277  1.00  0.00     0.006 C 
ENDROOT
BRANCH   1   2
ATOM      2  C   UNL     1      -7.529  -6.957  -6.139  1.00  0.00     0.053 C 
BRANCH   2   3
ATOM      3  C   UNL     1      -8.768  -6.318  -6.682  1.00  0.00     0.041 C 
ATOM      4  O   UNL     1      -8.934  -6.213  -7.925  1.00  0.00    -0.550 OA
ATOM      5  O   UNL     1      -9.762  -5.882  -5.815  1.00  0.00    -0.550 OA
ENDBRANCH   2   3
ENDBRANCH   1   2
BRANCH   1   6
ATOM      6  C   UNL     1      -5.263  -6.523  -7.171  1.00  0.00     0.000 C 
BRANCH   6   7
ATOM      7  C   UNL     1      -4.099  -7.191  -7.919  1.00  0.00    -0.000 C 
BRANCH   7   8
ATOM      8  C   UNL     1      -4.224  -8.720  -7.963  1.00  0.00    -0.003 C 
ATOM      9  C   UNL     1      -3.580  -9.360  -6.737  1.00  0.00     0.004 C 
ENDBRANCH   7   8
ENDBRANCH   6   7
ENDBRANCH   1   6
TORSDOF 5
ENDMDL
MODEL 9
REMARK VINA RESULT:    -2.869      2.133      4.270
REMARK INTER + INTRA:          -3.913
REMARK INTER:                  -3.619
REMARK INTRA:                  -0.293
REMARK UNBOUND:                -0.206
REMARK SMILES CCCCCCC(=O)[O-]
REMARK SMILES IDX 5 1 6 2 7 3 8 4 9 5 4 6 3 7 2 8 1 9
REMARK H PARENT
REMARK Flexibility Score: inf
ROOT
ATOM      1  C   UNL     1      -8.141  -7.263  -6.105  1.00  0.00     0.006 C 
ENDROOT
BRANCH   1   2
ATOM      2  C   UNL     1      -8.615  -6.165  -7.062  1.00  0.00     0.053 C 
BRANCH   2   3
ATOM      3  C   UNL     1      -8.950  -6.744  -8.400  1.00  0.00     0.041 C 
ATOM      4  O   UNL     1      -9.965  -6.343  -9.027  1.00  0.00    -0.550 OA
ATOM      5  O   UNL     1      -8.115  -7.693  -8.976  1.00  0.00    -0.550 OA
ENDBRANCH   2   3
ENDBRANCH   1   2
BRANCH   1   6
ATOM      6  C   UNL     1      -6.706  -6.994  -5.627  1.00  0.00     0.000 C 
BRANCH   6   7
ATOM      7  C   UNL     1      -5.650  -7.686  -6.504  1.00  0.00    -0.000 C 
BRANCH   7   8
ATOM      8  C   UNL     1      -4.906  -6.704  -7.419  1.00  0.00    -0.003 C 
ATOM      9  C   UNL     1      -4.093  -7.446  -8.476  1.00  0.00     0.004 C 
ENDBRANCH   7   8
ENDBRANCH   6   7
ENDBRANCH   1   6
TORSDOF 5
ENDMDL
