MODEL 1
REMARK VINA RESULT:    -2.059      0.000      0.000
REMARK INTER + INTRA:          -7.588
REMARK INTER:                  -5.190
REMARK INTRA:                  -2.399
REMARK UNBOUND:                -2.399
REMARK SMILES CCCCCCCCCCCCCCCCCCCCCCCCCCCC(=O)[O-]
REMARK SMILES IDX 15 1 16 2 17 3 18 4 19 5 20 6 21 7 22 8 23 9 24 10 25 11
REMARK SMILES IDX 26 12 27 13 28 14 29 15 30 16 14 17 13 18 12 19 11 20 10 21
REMARK SMILES IDX 9 22 8 23 7 24 6 25 5 26 4 27 3 28 2 29 1 30
REMARK H PARENT
REMARK Flexibility Score: inf
ROOT
ATOM      1  C   UNL     1      -9.797   2.912  -8.222  1.00  0.00     0.000 C 
ENDROOT
BRANCH   1   2
ATOM      2  C   UNL     1      -9.100   4.060  -8.977  1.00  0.00     0.000 C 
BRANCH   2   3
ATOM      3  C   UNL     1      -7.639   4.318  -8.563  1.00  0.00     0.000 C 
BRANCH   3   4
ATOM      4  C   UNL     1      -6.778   4.873  -9.711  1.00  0.00     0.000 C 
BRANCH   4   5
ATOM      5  C   UNL     1      -7.200   6.293 -10.125  1.00  0.00     0.000 C 
BRANCH   5   6
ATOM      6  C   UNL     1      -6.125   7.346  -9.810  1.00  0.00     0.000 C 
BRANCH   6   7
ATOM      7  C   UNL     1      -6.763   8.631  -9.263  1.00  0.00     0.000 C 
BRANCH   7   8
ATOM      8  C   UNL     1      -8.297   8.635  -9.384  1.00  0.00     0.000 C 
BRANCH   8   9
ATOM      9  C   UNL     1      -8.974   9.988  -9.082  1.00  0.00     0.000 C 
BRANCH   9  10
ATOM     10  C   UNL     1     -10.081   9.939  -8.015  1.00  0.00     0.000 C 
BRANCH  10  11
ATOM     11  C   UNL     1      -9.540  10.116  -6.586  1.00  0.00     0.000 C 
BRANCH  11  12
ATOM     12  C   UNL     1      -9.914   8.947  -5.663  1.00  0.00     0.006 C 
BRANCH  12  13
ATOM     13  C   UNL     1     -10.039   7.616  -6.419  1.00  0.00     0.053 C 
BRANCH  13  14
ATOM     14  C   UNL     1      -8.890   6.706  -6.106  1.00  0.00     0.041 C 
ATOM     15  O   UNL     1      -7.712   7.062  -6.375  1.00  0.00    -0.550 OA
ATOM     16  O   UNL     1      -9.111   5.494  -5.461  1.00  0.00    -0.550 OA
ENDBRANCH  13  14
ENDBRANCH  12  13
ENDBRANCH  11  12
ENDBRANCH  10  11
ENDBRANCH   9  10
ENDBRANCH   8   9
ENDBRANCH   7   8
ENDBRANCH   6   7
ENDBRANCH   5   6
ENDBRANCH   4   5
ENDBRANCH   3   4
ENDBRANCH   2   3
ENDBRANCH   1   2
BRANCH   1  17
ATOM     17  C   UNL     1     -10.125   1.712  -9.127  1.00  0.00     0.000 C 
BRANCH  17  18
ATOM     18  C   UNL     1      -8.950   0.728  -9.252  1.00  0.00     0.000 C 
BRANCH  18  19
ATOM     19  C   UNL     1      -8.599   0.054  -7.915  1.00  0.00     0.000 C 
BRANCH  19  20
ATOM     20  C   UNL     1      -9.827  -0.155  -7.010  1.00  0.00     0.000 C 
BRANCH  20  21
ATOM     21  C   UNL     1      -9.501  -0.353  -5.518  1.00  0.00     0.000 C 
BRANCH  21  22
ATOM     22  C   UNL     1      -9.800   0.893  -4.667  1.00  0.00    -0.000 C 
BRANCH  22  23
ATOM     23  C   UNL     1      -8.846   2.059  -4.973  1.00  0.00    -0.000 C 
BRANCH  23  24
ATOM     24  C   UNL     1      -8.533   2.908  -3.727  1.00  0.00    -0.000 C 
BRANCH  24  25
ATOM     25  C   UNL     1      -7.646   2.170  -2.711  1.00  0.00    -0.000 C 
BRANCH  25  26
ATOM     26  C   UNL     1      -6.145   2.298  -3.028  1.00  0.00    -0.000 C 
BRANCH  26  27
ATOM     27  C   UNL     1      -5.256   1.807  -1.866  1.00  0.00    -0.000 C 
BRANCH  27  28
ATOM     28  C   UNL     1      -5.403   2.637  -0.579  1.00  0.00    -0.000 C 
BRANCH  28  29
ATOM     29  C   UNL     1      -5.011   1.861   0.685  1.00  0.00    -0.003 C 
ATOM     30  C   UNL     1      -5.542   2.547   1.939  1.00  0.00     0.004 C 
ENDBRANCH  28  29
ENDBRANCH  27  28
ENDBRANCH  26  27
ENDBRANCH  25  26
ENDBRANCH  24  25
ENDBRANCH  23  24
ENDBRANCH  22  23
ENDBRANCH  21  22
ENDBRANCH  20  21
ENDBRANCH  19  20
ENDBRANCH  18  19
ENDBRANCH  17  18
ENDBRANCH   1  17
TORSDOF 26
ENDMDL
MODEL 2
REMARK VINA RESULT:    -1.621      2.220      8.093
REMARK INTER + INTRA:          -6.484
REMARK INTER:                  -3.251
REMARK INTRA:                  -3.233
REMARK UNBOUND:                -2.399
REMARK SMILES CCCCCCCCCCCCCCCCCCCCCCCCCCCC(=O)[O-]
REMARK SMILES IDX 15 1 16 2 17 3 18 4 19 5 20 6 21 7 22 8 23 9 24 10 25 11
REMARK SMILES IDX 26 12 27 13 28 14 29 15 30 16 14 17 13 18 12 19 11 20 10 21
REMARK SMILES IDX 9 22 8 23 7 24 6 25 5 26 4 27 3 28 2 29 1 30
REMARK H PARENT
REMARK Flexibility Score: inf
ROOT
ATOM      1  C   UNL     1      -9.411   0.741  -5.788  1.00  0.00     0.000 C 
ENDROOT
BRANCH   1   2
ATOM      2  C   UNL     1     -10.025   2.131  -6.033  1.00  0.00     0.000 C 
BRANCH   2   3
ATOM      3  C   UNL     1      -9.014   3.293  -6.068  1.00  0.00     0.000 C 
BRANCH   3   4
ATOM      4  C   UNL     1      -8.910   4.040  -4.728  1.00  0.00     0.000 C 
BRANCH   4   5
ATOM      5  C   UNL     1      -9.657   3.316  -3.595  1.00  0.00     0.000 C 
BRANCH   5   6
ATOM      6  C   UNL     1      -8.707   2.749  -2.527  1.00  0.00     0.000 C 
BRANCH   6   7
ATOM      7  C   UNL     1      -7.249   2.815  -3.003  1.00  0.00     0.000 C 
BRANCH   7   8
ATOM      8  C   UNL     1      -6.576   1.432  -3.064  1.00  0.00     0.000 C 
BRANCH   8   9
ATOM      9  C   UNL     1      -5.050   1.456  -3.289  1.00  0.00     0.000 C 
BRANCH   9  10
ATOM     10  C   UNL     1      -4.222   0.735  -2.210  1.00  0.00     0.000 C 
BRANCH  10  11
ATOM     11  C   UNL     1      -4.951   0.647  -0.858  1.00  0.00     0.000 C 
BRANCH  11  12
ATOM     12  C   UNL     1      -4.091   1.151   0.310  1.00  0.00     0.006 C 
BRANCH  12  13
ATOM     13  C   UNL     1      -4.871   2.070   1.262  1.00  0.00     0.053 C 
BRANCH  13  14
ATOM     14  C   UNL     1      -5.680   3.076   0.502  1.00  0.00     0.041 C 
ATOM     15  O   UNL     1      -6.905   3.223   0.757  1.00  0.00    -0.550 OA
ATOM     16  O   UNL     1      -5.073   3.895  -0.443  1.00  0.00    -0.550 OA
ENDBRANCH  13  14
ENDBRANCH  12  13
ENDBRANCH  11  12
ENDBRANCH  10  11
ENDBRANCH   9  10
ENDBRANCH   8   9
ENDBRANCH   7   8
ENDBRANCH   6   7
ENDBRANCH   5   6
ENDBRANCH   4   5
ENDBRANCH   3   4
ENDBRANCH   2   3
ENDBRANCH   1   2
BRANCH   1  17
ATOM     17  C   UNL     1      -9.663  -0.239  -6.946  1.00  0.00     0.000 C 
BRANCH  17  18
ATOM     18  C   UNL     1     -10.125   0.470  -8.230  1.00  0.00     0.000 C 
BRANCH  18  19
ATOM     19  C   UNL     1      -9.089   0.374  -9.363  1.00  0.00     0.000 C 
BRANCH  19  20
ATOM     20  C   UNL     1      -7.788   1.135  -9.050  1.00  0.00     0.000 C 
BRANCH  20  21
ATOM     21  C   UNL     1      -7.443   2.258 -10.045  1.00  0.00     0.000 C 
BRANCH  21  22
ATOM     22  C   UNL     1      -7.894   3.648  -9.561  1.00  0.00    -0.000 C 
BRANCH  22  23
ATOM     23  C   UNL     1      -6.827   4.729  -9.797  1.00  0.00    -0.000 C 
BRANCH  23  24
ATOM     24  C   UNL     1      -7.246   6.104  -9.245  1.00  0.00    -0.000 C 
BRANCH  24  25
ATOM     25  C   UNL     1      -7.729   6.037  -7.788  1.00  0.00    -0.000 C 
BRANCH  25  26
ATOM     26  C   UNL     1      -9.154   6.591  -7.607  1.00  0.00    -0.000 C 
BRANCH  26  27
ATOM     27  C   UNL     1      -9.381   7.895  -8.400  1.00  0.00    -0.000 C 
BRANCH  27  28
ATOM     28  C   UNL     1      -9.298   9.168  -7.538  1.00  0.00    -0.000 C 
BRANCH  28  29
ATOM     29  C   UNL     1      -7.857   9.584  -7.218  1.00  0.00    -0.003 C 
ATOM     30  C   UNL     1      -7.043   9.774  -8.494  1.00  0.00     0.004 C 
ENDBRANCH  28  29
ENDBRANCH  27  28
ENDBRANCH  26  27
ENDBRANCH  25  26
ENDBRANCH  24  25
ENDBRANCH  23  24
ENDBRANCH  22  23
ENDBRANCH  21  22
ENDBRANCH  20  21
ENDBRANCH  19  20
ENDBRANCH  18  19
ENDBRANCH  17  18
ENDBRANCH   1  17
TORSDOF 26
ENDMDL
MODEL 3
REMARK VINA RESULT:    -1.485      1.802      4.130
REMARK INTER + INTRA:          -6.141
REMARK INTER:                  -4.004
REMARK INTRA:                  -2.137
REMARK UNBOUND:                -2.399
REMARK SMILES CCCCCCCCCCCCCCCCCCCCCCCCCCCC(=O)[O-]
REMARK SMILES IDX 15 1 16 2 17 3 18 4 19 5 20 6 21 7 22 8 23 9 24 10 25 11
REMARK SMILES IDX 26 12 27 13 28 14 29 15 30 16 14 17 13 18 12 19 11 20 10 21
REMARK SMILES IDX 9 22 8 23 7 24 6 25 5 26 4 27 3 28 2 29 1 30
REMARK H PARENT
REMARK Flexibility Score: inf
ROOT
ATOM      1  C   UNL     1      -9.584  -0.038  -6.803  1.00  0.00     0.000 C 
ENDROOT
BRANCH   1   2
ATOM      2  C   UNL     1      -9.883   0.838  -8.034  1.00  0.00     0.000 C 
BRANCH   2   3
ATOM      3  C   UNL     1      -9.430   0.245  -9.381  1.00  0.00     0.000 C 
BRANCH   3   4
ATOM      4  C   UNL     1      -8.393   1.120 -10.106  1.00  0.00     0.000 C 
BRANCH   4   5
ATOM      5  C   UNL     1      -7.718   2.130  -9.162  1.00  0.00     0.000 C 
BRANCH   5   6
ATOM      6  C   UNL     1      -7.910   3.585  -9.618  1.00  0.00     0.000 C 
BRANCH   6   7
ATOM      7  C   UNL     1      -9.397   3.965  -9.625  1.00  0.00     0.000 C 
BRANCH   7   8
ATOM      8  C   UNL     1      -9.833   4.699  -8.344  1.00  0.00     0.000 C 
BRANCH   8   9
ATOM      9  C   UNL     1      -8.839   5.759  -7.827  1.00  0.00     0.000 C 
BRANCH   9  10
ATOM     10  C   UNL     1      -8.670   5.802  -6.298  1.00  0.00     0.000 C 
BRANCH  10  11
ATOM     11  C   UNL     1      -9.568   6.856  -5.628  1.00  0.00     0.000 C 
BRANCH  11  12
ATOM     12  C   UNL     1      -9.803   8.085  -6.520  1.00  0.00     0.006 C 
BRANCH  12  13
ATOM     13  C   UNL     1      -8.713   9.153  -6.349  1.00  0.00     0.053 C 
BRANCH  13  14
ATOM     14  C   UNL     1      -7.904   9.307  -7.602  1.00  0.00     0.041 C 
ATOM     15  O   UNL     1      -6.647   9.343  -7.540  1.00  0.00    -0.550 OA
ATOM     16  O   UNL     1      -8.532   9.346  -8.842  1.00  0.00    -0.550 OA
ENDBRANCH  13  14
ENDBRANCH  12  13
ENDBRANCH  11  12
ENDBRANCH  10  11
ENDBRANCH   9  10
ENDBRANCH   8   9
ENDBRANCH   7   8
ENDBRANCH   6   7
ENDBRANCH   5   6
ENDBRANCH   4   5
ENDBRANCH   3   4
ENDBRANCH   2   3
ENDBRANCH   1   2
BRANCH   1  17
ATOM     17  C   UNL     1     -10.062   0.597  -5.486  1.00  0.00     0.000 C 
BRANCH  17  18
ATOM     18  C   UNL     1      -9.932   2.128  -5.486  1.00  0.00     0.000 C 
BRANCH  18  19
ATOM     19  C   UNL     1      -8.833   2.628  -4.533  1.00  0.00     0.000 C 
BRANCH  19  20
ATOM     20  C   UNL     1      -8.030   1.482  -3.892  1.00  0.00     0.000 C 
BRANCH  20  21
ATOM     21  C   UNL     1      -6.761   1.924  -3.143  1.00  0.00     0.000 C 
BRANCH  21  22
ATOM     22  C   UNL     1      -7.045   2.948  -2.029  1.00  0.00    -0.000 C 
BRANCH  22  23
ATOM     23  C   UNL     1      -5.798   3.265  -1.187  1.00  0.00    -0.000 C 
BRANCH  23  24
ATOM     24  C   UNL     1      -6.049   3.105   0.323  1.00  0.00    -0.000 C 
BRANCH  24  25
ATOM     25  C   UNL     1      -4.939   2.309   1.029  1.00  0.00    -0.000 C 
BRANCH  25  26
ATOM     26  C   UNL     1      -4.921   0.824   0.624  1.00  0.00    -0.000 C 
BRANCH  26  27
ATOM     27  C   UNL     1      -3.828   0.515  -0.420  1.00  0.00    -0.000 C 
BRANCH  27  28
ATOM     28  C   UNL     1      -4.316   0.608  -1.877  1.00  0.00    -0.000 C 
BRANCH  28  29
ATOM     29  C   UNL     1      -3.210   0.324  -2.900  1.00  0.00    -0.003 C 
ATOM     30  C   UNL     1      -3.597   0.833  -4.285  1.00  0.00     0.004 C 
ENDBRANCH  28  29
ENDBRANCH  27  28
ENDBRANCH  26  27
ENDBRANCH  25  26
ENDBRANCH  24  25
ENDBRANCH  23  24
ENDBRANCH  22  23
ENDBRANCH  21  22
ENDBRANCH  20  21
ENDBRANCH  19  20
ENDBRANCH  18  19
ENDBRANCH  17  18
ENDBRANCH   1  17
TORSDOF 26
ENDMDL
MODEL 4
REMARK VINA RESULT:    -0.998      1.117      2.347
REMARK INTER + INTRA:          -4.914
REMARK INTER:                  -2.708
REMARK INTRA:                  -2.206
REMARK UNBOUND:                -2.399
REMARK SMILES CCCCCCCCCCCCCCCCCCCCCCCCCCCC(=O)[O-]
REMARK SMILES IDX 15 1 16 2 17 3 18 4 19 5 20 6 21 7 22 8 23 9 24 10 25 11
REMARK SMILES IDX 26 12 27 13 28 14 29 15 30 16 14 17 13 18 12 19 11 20 10 21
REMARK SMILES IDX 9 22 8 23 7 24 6 25 5 26 4 27 3 28 2 29 1 30
REMARK H PARENT
REMARK Flexibility Score: inf
ROOT
ATOM      1  C   UNL     1      -8.932   0.759  -8.212  1.00  0.00     0.000 C 
ENDROOT
BRANCH   1   2
ATOM      2  C   UNL     1      -9.451   1.753  -9.268  1.00  0.00     0.000 C 
BRANCH   2   3
ATOM      3  C   UNL     1      -8.877   3.178  -9.158  1.00  0.00     0.000 C 
BRANCH   3   4
ATOM      4  C   UNL     1      -9.569   4.179 -10.099  1.00  0.00     0.000 C 
BRANCH   4   5
ATOM      5  C   UNL     1     -10.019   5.455  -9.367  1.00  0.00     0.000 C 
BRANCH   5   6
ATOM      6  C   UNL     1      -9.308   6.716  -9.884  1.00  0.00     0.000 C 
BRANCH   6   7
ATOM      7  C   UNL     1      -8.058   7.020  -9.045  1.00  0.00     0.000 C 
BRANCH   7   8
ATOM      8  C   UNL     1      -7.666   8.509  -9.075  1.00  0.00     0.000 C 
BRANCH   8   9
ATOM      9  C   UNL     1      -8.840   9.491  -9.266  1.00  0.00     0.000 C 
BRANCH   9  10
ATOM     10  C   UNL     1      -9.751   9.662  -8.037  1.00  0.00     0.000 C 
BRANCH  10  11
ATOM     11  C   UNL     1      -8.961   9.828  -6.728  1.00  0.00     0.000 C 
BRANCH  11  12
ATOM     12  C   UNL     1      -9.604   9.080  -5.550  1.00  0.00     0.006 C 
BRANCH  12  13
ATOM     13  C   UNL     1     -10.109   7.685  -5.945  1.00  0.00     0.053 C 
BRANCH  13  14
ATOM     14  C   UNL     1      -9.226   6.611  -5.385  1.00  0.00     0.041 C 
ATOM     15  O   UNL     1      -8.233   6.919  -4.673  1.00  0.00    -0.550 OA
ATOM     16  O   UNL     1      -9.532   5.271  -5.593  1.00  0.00    -0.550 OA
ENDBRANCH  13  14
ENDBRANCH  12  13
ENDBRANCH  11  12
ENDBRANCH  10  11
ENDBRANCH   9  10
ENDBRANCH   8   9
ENDBRANCH   7   8
ENDBRANCH   6   7
ENDBRANCH   5   6
ENDBRANCH   4   5
ENDBRANCH   3   4
ENDBRANCH   2   3
ENDBRANCH   1   2
BRANCH   1  17
ATOM     17  C   UNL     1     -10.015   0.337  -7.204  1.00  0.00     0.000 C 
BRANCH  17  18
ATOM     18  C   UNL     1      -9.486  -0.644  -6.145  1.00  0.00     0.000 C 
BRANCH  18  19
ATOM     19  C   UNL     1     -10.113  -0.413  -4.760  1.00  0.00     0.000 C 
BRANCH  19  20
ATOM     20  C   UNL     1      -9.970   1.040  -4.273  1.00  0.00     0.000 C 
BRANCH  20  21
ATOM     21  C   UNL     1      -8.628   1.708  -4.621  1.00  0.00     0.000 C 
BRANCH  21  22
ATOM     22  C   UNL     1      -7.694   1.850  -3.406  1.00  0.00    -0.000 C 
BRANCH  22  23
ATOM     23  C   UNL     1      -6.256   1.399  -3.711  1.00  0.00    -0.000 C 
BRANCH  23  24
ATOM     24  C   UNL     1      -5.247   1.894  -2.659  1.00  0.00    -0.000 C 
BRANCH  24  25
ATOM     25  C   UNL     1      -4.167   0.849  -2.333  1.00  0.00    -0.000 C 
BRANCH  25  26
ATOM     26  C   UNL     1      -4.353   0.216  -0.942  1.00  0.00    -0.000 C 
BRANCH  26  27
ATOM     27  C   UNL     1      -5.240   1.077  -0.019  1.00  0.00    -0.000 C 
BRANCH  27  28
ATOM     28  C   UNL     1      -4.517   1.585   1.240  1.00  0.00    -0.000 C 
BRANCH  28  29
ATOM     29  C   UNL     1      -5.145   2.858   1.822  1.00  0.00    -0.003 C 
ATOM     30  C   UNL     1      -6.309   3.339   0.963  1.00  0.00     0.004 C 
ENDBRANCH  28  29
ENDBRANCH  27  28
ENDBRANCH  26  27
ENDBRANCH  25  26
ENDBRANCH  24  25
ENDBRANCH  23  24
ENDBRANCH  22  23
ENDBRANCH  21  22
ENDBRANCH  20  21
ENDBRANCH  19  20
ENDBRANCH  18  19
ENDBRANCH  17  18
ENDBRANCH   1  17
TORSDOF 26
ENDMDL
MODEL 5
REMARK VINA RESULT:    -0.764      2.259      8.400
REMARK INTER + INTRA:          -4.324
REMARK INTER:                  -2.807
REMARK INTRA:                  -1.517
REMARK UNBOUND:                -2.399
REMARK SMILES CCCCCCCCCCCCCCCCCCCCCCCCCCCC(=O)[O-]
REMARK SMILES IDX 15 1 16 2 17 3 18 4 19 5 20 6 21 7 22 8 23 9 24 10 25 11
REMARK SMILES IDX 26 12 27 13 28 14 29 15 30 16 14 17 13 18 12 19 11 20 10 21
REMARK SMILES IDX 9 22 8 23 7 24 6 25 5 26 4 27 3 28 2 29 1 30
REMARK H PARENT
REMARK Flexibility Score: inf
ROOT
ATOM      1  C   UNL     1     -10.098   0.270  -5.926  1.00  0.00     0.000 C 
ENDROOT
BRANCH   1   2
ATOM      2  C   UNL     1      -8.983   0.939  -5.102  1.00  0.00     0.000 C 
BRANCH   2   3
ATOM      3  C   UNL     1      -9.083   2.472  -4.995  1.00  0.00     0.000 C 
BRANCH   3   4
ATOM      4  C   UNL     1      -8.768   2.999  -3.584  1.00  0.00     0.000 C 
BRANCH   4   5
ATOM      5  C   UNL     1      -7.484   2.384  -3.003  1.00  0.00     0.000 C 
BRANCH   5   6
ATOM      6  C   UNL     1      -7.149   2.926  -1.604  1.00  0.00     0.000 C 
BRANCH   6   7
ATOM      7  C   UNL     1      -5.656   3.269  -1.494  1.00  0.00     0.000 C 
BRANCH   7   8
ATOM      8  C   UNL     1      -5.248   3.717  -0.079  1.00  0.00     0.000 C 
BRANCH   8   9
ATOM      9  C   UNL     1      -5.642   2.746   1.053  1.00  0.00     0.000 C 
BRANCH   9  10
ATOM     10  C   UNL     1      -5.324   1.265   0.780  1.00  0.00     0.000 C 
BRANCH  10  11
ATOM     11  C   UNL     1      -3.828   1.014   0.524  1.00  0.00     0.000 C 
BRANCH  11  12
ATOM     12  C   UNL     1      -3.570   0.286  -0.804  1.00  0.00     0.006 C 
BRANCH  12  13
ATOM     13  C   UNL     1      -4.559   0.699  -1.903  1.00  0.00     0.053 C 
BRANCH  13  14
ATOM     14  C   UNL     1      -3.924   0.625  -3.259  1.00  0.00     0.041 C 
ATOM     15  O   UNL     1      -3.146  -0.326  -3.539  1.00  0.00    -0.550 OA
ATOM     16  O   UNL     1      -4.237   1.565  -4.233  1.00  0.00    -0.550 OA
ENDBRANCH  13  14
ENDBRANCH  12  13
ENDBRANCH  11  12
ENDBRANCH  10  11
ENDBRANCH   9  10
ENDBRANCH   8   9
ENDBRANCH   7   8
ENDBRANCH   6   7
ENDBRANCH   5   6
ENDBRANCH   4   5
ENDBRANCH   3   4
ENDBRANCH   2   3
ENDBRANCH   1   2
BRANCH   1  17
ATOM     17  C   UNL     1     -10.061   0.661  -7.414  1.00  0.00     0.000 C 
BRANCH  17  18
ATOM     18  C   UNL     1      -8.630   0.719  -7.973  1.00  0.00     0.000 C 
BRANCH  18  19
ATOM     19  C   UNL     1      -8.588   1.179  -9.440  1.00  0.00     0.000 C 
BRANCH  19  20
ATOM     20  C   UNL     1      -8.373   2.696  -9.586  1.00  0.00     0.000 C 
BRANCH  20  21
ATOM     21  C   UNL     1      -8.968   3.544  -8.447  1.00  0.00     0.000 C 
BRANCH  21  22
ATOM     22  C   UNL     1      -7.971   4.566  -7.874  1.00  0.00    -0.000 C 
BRANCH  22  23
ATOM     23  C   UNL     1      -8.637   5.906  -7.522  1.00  0.00    -0.000 C 
BRANCH  23  24
ATOM     24  C   UNL     1      -8.559   6.228  -6.019  1.00  0.00    -0.000 C 
BRANCH  24  25
ATOM     25  C   UNL     1      -9.708   7.133  -5.544  1.00  0.00    -0.000 C 
BRANCH  25  26
ATOM     26  C   UNL     1      -9.211   8.370  -4.774  1.00  0.00    -0.000 C 
BRANCH  26  27
ATOM     27  C   UNL     1      -9.419   9.677  -5.567  1.00  0.00    -0.000 C 
BRANCH  27  28
ATOM     28  C   UNL     1      -8.259  10.017  -6.519  1.00  0.00    -0.000 C 
BRANCH  28  29
ATOM     29  C   UNL     1      -8.694  10.117  -7.986  1.00  0.00    -0.003 C 
ATOM     30  C   UNL     1      -8.019   9.046  -8.835  1.00  0.00     0.004 C 
ENDBRANCH  28  29
ENDBRANCH  27  28
ENDBRANCH  26  27
ENDBRANCH  25  26
ENDBRANCH  24  25
ENDBRANCH  23  24
ENDBRANCH  22  23
ENDBRANCH  21  22
ENDBRANCH  20  21
ENDBRANCH  19  20
ENDBRANCH  18  19
ENDBRANCH  17  18
ENDBRANCH   1  17
TORSDOF 26
ENDMDL
MODEL 6
REMARK VINA RESULT:    -0.656     14.898     18.483
REMARK INTER + INTRA:          -4.052
REMARK INTER:                  -2.738
REMARK INTRA:                  -1.314
REMARK UNBOUND:                -2.399
REMARK SMILES CCCCCCCCCCCCCCCCCCCCCCCCCCCC(=O)[O-]
REMARK SMILES IDX 15 1 16 2 17 3 18 4 19 5 20 6 21 7 22 8 23 9 24 10 25 11
REMARK SMILES IDX 26 12 27 13 28 14 29 15 30 16 14 17 13 18 12 19 11 20 10 21
REMARK SMILES IDX 9 22 8 23 7 24 6 25 5 26 4 27 3 28 2 29 1 30
REMARK H PARENT
REMARK Flexibility Score: inf
ROOT
ATOM      1  C   UNL     1       6.584   9.149  -0.272  1.00  0.00     0.000 C 
ENDROOT
BRANCH   1   2
ATOM      2  C   UNL     1       7.501  10.113  -1.047  1.00  0.00     0.000 C 
BRANCH   2   3
ATOM      3  C   UNL     1       7.730   9.747  -2.526  1.00  0.00     0.000 C 
BRANCH   3   4
ATOM      4  C   UNL     1       8.341   8.348  -2.711  1.00  0.00     0.000 C 
BRANCH   4   5
ATOM      5  C   UNL     1       8.432   7.940  -4.192  1.00  0.00     0.000 C 
BRANCH   5   6
ATOM      6  C   UNL     1       9.122   9.006  -5.058  1.00  0.00     0.000 C 
BRANCH   6   7
ATOM      7  C   UNL     1       9.799   8.365  -6.277  1.00  0.00     0.000 C 
BRANCH   7   8
ATOM      8  C   UNL     1       8.856   8.236  -7.487  1.00  0.00     0.000 C 
BRANCH   8   9
ATOM      9  C   UNL     1       9.332   8.955  -8.766  1.00  0.00     0.000 C 
BRANCH   9  10
ATOM     10  C   UNL     1       8.326   9.955  -9.363  1.00  0.00     0.000 C 
BRANCH  10  11
ATOM     11  C   UNL     1       7.068  10.125  -8.495  1.00  0.00     0.000 C 
BRANCH  11  12
ATOM     12  C   UNL     1       5.922   9.197  -8.927  1.00  0.00     0.006 C 
BRANCH  12  13
ATOM     13  C   UNL     1       4.540   9.838  -8.730  1.00  0.00     0.053 C 
BRANCH  13  14
ATOM     14  C   UNL     1       3.662   8.978  -7.872  1.00  0.00     0.041 C 
ATOM     15  O   UNL     1       3.084   7.975  -8.368  1.00  0.00    -0.550 OA
ATOM     16  O   UNL     1       3.531   9.244  -6.514  1.00  0.00    -0.550 OA
ENDBRANCH  13  14
ENDBRANCH  12  13
ENDBRANCH  11  12
ENDBRANCH  10  11
ENDBRANCH   9  10
ENDBRANCH   8   9
ENDBRANCH   7   8
ENDBRANCH   6   7
ENDBRANCH   5   6
ENDBRANCH   4   5
ENDBRANCH   3   4
ENDBRANCH   2   3
ENDBRANCH   1   2
BRANCH   1  17
ATOM     17  C   UNL     1       5.557   9.879   0.610  1.00  0.00     0.000 C 
BRANCH  17  18
ATOM     18  C   UNL     1       6.072  10.123   2.038  1.00  0.00     0.000 C 
BRANCH  18  19
ATOM     19  C   UNL     1       7.336   9.307   2.358  1.00  0.00     0.000 C 
BRANCH  19  20
ATOM     20  C   UNL     1       8.391  10.118   3.131  1.00  0.00     0.000 C 
BRANCH  20  21
ATOM     21  C   UNL     1       9.205   9.305   4.155  1.00  0.00     0.000 C 
BRANCH  21  22
ATOM     22  C   UNL     1       8.437   9.045   5.463  1.00  0.00    -0.000 C 
BRANCH  22  23
ATOM     23  C   UNL     1       9.302   9.281   6.712  1.00  0.00    -0.000 C 
BRANCH  23  24
ATOM     24  C   UNL     1       8.895   8.379   7.891  1.00  0.00    -0.000 C 
BRANCH  24  25
ATOM     25  C   UNL     1       9.965   7.330   8.234  1.00  0.00    -0.000 C 
BRANCH  25  26
ATOM     26  C   UNL     1       9.951   6.929   9.721  1.00  0.00    -0.000 C 
BRANCH  26  27
ATOM     27  C   UNL     1       9.376   5.513   9.940  1.00  0.00    -0.000 C 
BRANCH  27  28
ATOM     28  C   UNL     1       7.843   5.442   9.830  1.00  0.00    -0.000 C 
BRANCH  28  29
ATOM     29  C   UNL     1       7.357   4.283   8.950  1.00  0.00    -0.003 C 
ATOM     30  C   UNL     1       8.469   3.264   8.719  1.00  0.00     0.004 C 
ENDBRANCH  28  29
ENDBRANCH  27  28
ENDBRANCH  26  27
ENDBRANCH  25  26
ENDBRANCH  24  25
ENDBRANCH  23  24
ENDBRANCH  22  23
ENDBRANCH  21  22
ENDBRANCH  20  21
ENDBRANCH  19  20
ENDBRANCH  18  19
ENDBRANCH  17  18
ENDBRANCH   1  17
TORSDOF 26
ENDMDL
MODEL 7
REMARK VINA RESULT:    -0.552      2.333      8.242
REMARK INTER + INTRA:          -3.789
REMARK INTER:                  -0.933
REMARK INTRA:                  -2.856
REMARK UNBOUND:                -2.399
REMARK SMILES CCCCCCCCCCCCCCCCCCCCCCCCCCCC(=O)[O-]
REMARK SMILES IDX 15 1 16 2 17 3 18 4 19 5 20 6 21 7 22 8 23 9 24 10 25 11
REMARK SMILES IDX 26 12 27 13 28 14 29 15 30 16 14 17 13 18 12 19 11 20 10 21
REMARK SMILES IDX 9 22 8 23 7 24 6 25 5 26 4 27 3 28 2 29 1 30
REMARK H PARENT
REMARK Flexibility Score: inf
ROOT
ATOM      1  C   UNL     1      -9.734  -0.131  -5.541  1.00  0.00     0.000 C 
ENDROOT
BRANCH   1   2
ATOM      2  C   UNL     1      -8.645   0.868  -5.106  1.00  0.00     0.000 C 
BRANCH   2   3
ATOM      3  C   UNL     1      -9.146   2.298  -4.832  1.00  0.00     0.000 C 
BRANCH   3   4
ATOM      4  C   UNL     1      -8.443   2.962  -3.635  1.00  0.00     0.000 C 
BRANCH   4   5
ATOM      5  C   UNL     1      -7.235   2.148  -3.140  1.00  0.00     0.000 C 
BRANCH   5   6
ATOM      6  C   UNL     1      -6.297   2.968  -2.241  1.00  0.00     0.000 C 
BRANCH   6   7
ATOM      7  C   UNL     1      -6.760   2.918  -0.778  1.00  0.00     0.000 C 
BRANCH   7   8
ATOM      8  C   UNL     1      -5.676   3.388   0.209  1.00  0.00     0.000 C 
BRANCH   8   9
ATOM      9  C   UNL     1      -5.430   2.449   1.407  1.00  0.00     0.000 C 
BRANCH   9  10
ATOM     10  C   UNL     1      -5.113   0.990   1.036  1.00  0.00     0.000 C 
BRANCH  10  11
ATOM     11  C   UNL     1      -3.888   0.862   0.115  1.00  0.00     0.000 C 
BRANCH  11  12
ATOM     12  C   UNL     1      -4.247   0.305  -1.271  1.00  0.00     0.006 C 
BRANCH  12  13
ATOM     13  C   UNL     1      -3.599   1.103  -2.412  1.00  0.00     0.053 C 
BRANCH  13  14
ATOM     14  C   UNL     1      -3.758   0.397  -3.725  1.00  0.00     0.041 C 
ATOM     15  O   UNL     1      -4.854   0.454  -4.342  1.00  0.00    -0.550 OA
ATOM     16  O   UNL     1      -2.681  -0.269  -4.298  1.00  0.00    -0.550 OA
ENDBRANCH  13  14
ENDBRANCH  12  13
ENDBRANCH  11  12
ENDBRANCH  10  11
ENDBRANCH   9  10
ENDBRANCH   8   9
ENDBRANCH   7   8
ENDBRANCH   6   7
ENDBRANCH   5   6
ENDBRANCH   4   5
ENDBRANCH   3   4
ENDBRANCH   2   3
ENDBRANCH   1   2
BRANCH   1  17
ATOM     17  C   UNL     1      -9.643  -0.506  -7.030  1.00  0.00     0.000 C 
BRANCH  17  18
ATOM     18  C   UNL     1     -10.125   0.623  -7.954  1.00  0.00     0.000 C 
BRANCH  18  19
ATOM     19  C   UNL     1      -8.969   1.315  -8.696  1.00  0.00     0.000 C 
BRANCH  19  20
ATOM     20  C   UNL     1      -9.243   2.804  -8.976  1.00  0.00     0.000 C 
BRANCH  20  21
ATOM     21  C   UNL     1      -8.181   3.770  -8.419  1.00  0.00     0.000 C 
BRANCH  21  22
ATOM     22  C   UNL     1      -6.969   3.934  -9.353  1.00  0.00    -0.000 C 
BRANCH  22  23
ATOM     23  C   UNL     1      -6.679   5.406  -9.690  1.00  0.00    -0.000 C 
BRANCH  23  24
ATOM     24  C   UNL     1      -7.963   6.222  -9.924  1.00  0.00    -0.000 C 
BRANCH  24  25
ATOM     25  C   UNL     1      -7.788   7.713  -9.595  1.00  0.00    -0.000 C 
BRANCH  25  26
ATOM     26  C   UNL     1      -7.578   7.970  -8.091  1.00  0.00    -0.000 C 
BRANCH  26  27
ATOM     27  C   UNL     1      -8.752   7.447  -7.237  1.00  0.00    -0.000 C 
BRANCH  27  28
ATOM     28  C   UNL     1      -8.318   6.532  -6.079  1.00  0.00    -0.000 C 
BRANCH  28  29
ATOM     29  C   UNL     1      -9.466   6.187  -5.123  1.00  0.00    -0.003 C 
ATOM     30  C   UNL     1      -9.874   7.400  -4.292  1.00  0.00     0.004 C 
ENDBRANCH  28  29
ENDBRANCH  27  28
ENDBRANCH  26  27
ENDBRANCH  25  26
ENDBRANCH  24  25
ENDBRANCH  23  24
ENDBRANCH  22  23
ENDBRANCH  21  22
ENDBRANCH  20  21
ENDBRANCH  19  20
ENDBRANCH  18  19
ENDBRANCH  17  18
ENDBRANCH   1  17
TORSDOF 26
ENDMDL
MODEL 8
REMARK VINA RESULT:    -0.447      1.225      2.895
REMARK INTER + INTRA:          -3.525
REMARK INTER:                  -2.546
REMARK INTRA:                  -0.979
REMARK UNBOUND:                -2.399
REMARK SMILES CCCCCCCCCCCCCCCCCCCCCCCCCCCC(=O)[O-]
REMARK SMILES IDX 15 1 16 2 17 3 18 4 19 5 20 6 21 7 22 8 23 9 24 10 25 11
REMARK SMILES IDX 26 12 27 13 28 14 29 15 30 16 14 17 13 18 12 19 11 20 10 21
REMARK SMILES IDX 9 22 8 23 7 24 6 25 5 26 4 27 3 28 2 29 1 30
REMARK H PARENT
REMARK Flexibility Score: inf
ROOT
ATOM      1  C   UNL     1     -10.125   2.305  -6.258  1.00  0.00     0.000 C 
ENDROOT
BRANCH   1   2
ATOM      2  C   UNL     1      -9.924   2.868  -7.677  1.00  0.00     0.000 C 
BRANCH   2   3
ATOM      3  C   UNL     1      -9.628   1.814  -8.760  1.00  0.00     0.000 C 
BRANCH   3   4
ATOM      4  C   UNL     1      -8.704   2.339  -9.873  1.00  0.00     0.000 C 
BRANCH   4   5
ATOM      5  C   UNL     1      -8.549   3.868  -9.833  1.00  0.00     0.000 C 
BRANCH   5   6
ATOM      6  C   UNL     1      -7.100   4.323 -10.066  1.00  0.00     0.000 C 
BRANCH   6   7
ATOM      7  C   UNL     1      -6.861   5.715  -9.463  1.00  0.00     0.000 C 
BRANCH   7   8
ATOM      8  C   UNL     1      -8.168   6.477  -9.180  1.00  0.00     0.000 C 
BRANCH   8   9
ATOM      9  C   UNL     1      -8.093   8.004  -9.385  1.00  0.00     0.000 C 
BRANCH   9  10
ATOM     10  C   UNL     1      -9.306   8.791  -8.858  1.00  0.00     0.000 C 
BRANCH  10  11
ATOM     11  C   UNL     1      -8.952   9.711  -7.677  1.00  0.00     0.000 C 
BRANCH  11  12
ATOM     12  C   UNL     1      -9.770   9.394  -6.416  1.00  0.00     0.006 C 
BRANCH  12  13
ATOM     13  C   UNL     1     -10.124   7.904  -6.304  1.00  0.00     0.053 C 
BRANCH  13  14
ATOM     14  C   UNL     1      -9.182   7.192  -5.381  1.00  0.00     0.041 C 
ATOM     15  O   UNL     1      -8.557   6.173  -5.781  1.00  0.00    -0.550 OA
ATOM     16  O   UNL     1      -8.943   7.686  -4.104  1.00  0.00    -0.550 OA
ENDBRANCH  13  14
ENDBRANCH  12  13
ENDBRANCH  11  12
ENDBRANCH  10  11
ENDBRANCH   9  10
ENDBRANCH   8   9
ENDBRANCH   7   8
ENDBRANCH   6   7
ENDBRANCH   5   6
ENDBRANCH   4   5
ENDBRANCH   3   4
ENDBRANCH   2   3
ENDBRANCH   1   2
BRANCH   1  17
ATOM     17  C   UNL     1     -10.113   0.767  -6.216  1.00  0.00     0.000 C 
BRANCH  17  18
ATOM     18  C   UNL     1      -8.721   0.195  -5.907  1.00  0.00     0.000 C 
BRANCH  18  19
ATOM     19  C   UNL     1      -8.220   0.582  -4.505  1.00  0.00     0.000 C 
BRANCH  19  20
ATOM     20  C   UNL     1      -8.057   2.102  -4.327  1.00  0.00     0.000 C 
BRANCH  20  21
ATOM     21  C   UNL     1      -7.823   2.560  -2.876  1.00  0.00     0.000 C 
BRANCH  21  22
ATOM     22  C   UNL     1      -6.348   2.465  -2.446  1.00  0.00    -0.000 C 
BRANCH  22  23
ATOM     23  C   UNL     1      -5.610   1.300  -3.126  1.00  0.00    -0.000 C 
BRANCH  23  24
ATOM     24  C   UNL     1      -4.152   1.165  -2.648  1.00  0.00    -0.000 C 
BRANCH  24  25
ATOM     25  C   UNL     1      -4.009   0.243  -1.427  1.00  0.00    -0.000 C 
BRANCH  25  26
ATOM     26  C   UNL     1      -3.768   1.020  -0.120  1.00  0.00    -0.000 C 
BRANCH  26  27
ATOM     27  C   UNL     1      -5.082   1.340   0.623  1.00  0.00    -0.000 C 
BRANCH  27  28
ATOM     28  C   UNL     1      -5.405   2.843   0.694  1.00  0.00    -0.000 C 
BRANCH  28  29
ATOM     29  C   UNL     1      -5.172   3.443   2.086  1.00  0.00    -0.003 C 
ATOM     30  C   UNL     1      -5.425   2.410   3.179  1.00  0.00     0.004 C 
ENDBRANCH  28  29
ENDBRANCH  27  28
ENDBRANCH  26  27
ENDBRANCH  25  26
ENDBRANCH  24  25
ENDBRANCH  23  24
ENDBRANCH  22  23
ENDBRANCH  21  22
ENDBRANCH  20  21
ENDBRANCH  19  20
ENDBRANCH  18  19
ENDBRANCH  17  18
ENDBRANCH   1  17
TORSDOF 26
ENDMDL
MODEL 9
REMARK VINA RESULT:    -0.253      2.122      4.418
REMARK INTER + INTRA:          -3.036
REMARK INTER:                  -2.829
REMARK INTRA:                  -0.207
REMARK UNBOUND:                -2.399
REMARK SMILES CCCCCCCCCCCCCCCCCCCCCCCCCCCC(=O)[O-]
REMARK SMILES IDX 15 1 16 2 17 3 18 4 19 5 20 6 21 7 22 8 23 9 24 10 25 11
REMARK SMILES IDX 26 12 27 13 28 14 29 15 30 16 14 17 13 18 12 19 11 20 10 21
REMARK SMILES IDX 9 22 8 23 7 24 6 25 5 26 4 27 3 28 2 29 1 30
REMARK H PARENT
REMARK Flexibility Score: inf
ROOT
ATOM      1  C   UNL     1     -10.094   2.840  -6.853  1.00  0.00     0.000 C 
ENDROOT
BRANCH   1   2
ATOM      2  C   UNL     1     -10.024   1.531  -7.661  1.00  0.00     0.000 C 
BRANCH   2   3
ATOM      3  C   UNL     1      -8.656   1.236  -8.305  1.00  0.00     0.000 C 
BRANCH   3   4
ATOM      4  C   UNL     1      -8.525   1.808  -9.727  1.00  0.00     0.000 C 
BRANCH   4   5
ATOM      5  C   UNL     1      -8.350   3.335  -9.730  1.00  0.00     0.000 C 
BRANCH   5   6
ATOM      6  C   UNL     1      -9.636   4.078 -10.125  1.00  0.00     0.000 C 
BRANCH   6   7
ATOM      7  C   UNL     1      -9.427   5.598 -10.071  1.00  0.00     0.000 C 
BRANCH   7   8
ATOM      8  C   UNL     1      -9.524   6.165  -8.643  1.00  0.00     0.000 C 
BRANCH   8   9
ATOM      9  C   UNL     1      -8.189   6.649  -8.040  1.00  0.00     0.000 C 
BRANCH   9  10
ATOM     10  C   UNL     1      -8.059   8.174  -7.887  1.00  0.00     0.000 C 
BRANCH  10  11
ATOM     11  C   UNL     1      -8.431   8.936  -9.171  1.00  0.00     0.000 C 
BRANCH  11  12
ATOM     12  C   UNL     1      -7.210   9.241 -10.052  1.00  0.00     0.006 C 
BRANCH  12  13
ATOM     13  C   UNL     1      -5.955   8.477  -9.604  1.00  0.00     0.053 C 
BRANCH  13  14
ATOM     14  C   UNL     1      -4.867   9.419  -9.187  1.00  0.00     0.041 C 
ATOM     15  O   UNL     1      -4.863   9.901  -8.023  1.00  0.00    -0.550 OA
ATOM     16  O   UNL     1      -3.825   9.717 -10.057  1.00  0.00    -0.550 OA
ENDBRANCH  13  14
ENDBRANCH  12  13
ENDBRANCH  11  12
ENDBRANCH  10  11
ENDBRANCH   9  10
ENDBRANCH   8   9
ENDBRANCH   7   8
ENDBRANCH   6   7
ENDBRANCH   5   6
ENDBRANCH   4   5
ENDBRANCH   3   4
ENDBRANCH   2   3
ENDBRANCH   1   2
BRANCH   1  17
ATOM     17  C   UNL     1      -9.628   2.670  -5.397  1.00  0.00     0.000 C 
BRANCH  17  18
ATOM     18  C   UNL     1      -9.438   1.196  -5.005  1.00  0.00     0.000 C 
BRANCH  18  19
ATOM     19  C   UNL     1      -8.203   0.975  -4.116  1.00  0.00     0.000 C 
BRANCH  19  20
ATOM     20  C   UNL     1      -7.817   2.226  -3.306  1.00  0.00     0.000 C 
BRANCH  20  21
ATOM     21  C   UNL     1      -6.343   2.279  -2.866  1.00  0.00     0.000 C 
BRANCH  21  22
ATOM     22  C   UNL     1      -6.102   3.235  -1.684  1.00  0.00    -0.000 C 
BRANCH  22  23
ATOM     23  C   UNL     1      -6.816   2.778  -0.401  1.00  0.00    -0.000 C 
BRANCH  23  24
ATOM     24  C   UNL     1      -6.150   3.329   0.873  1.00  0.00    -0.000 C 
BRANCH  24  25
ATOM     25  C   UNL     1      -5.326   2.268   1.620  1.00  0.00    -0.000 C 
BRANCH  25  26
ATOM     26  C   UNL     1      -4.184   1.691   0.765  1.00  0.00    -0.000 C 
BRANCH  26  27
ATOM     27  C   UNL     1      -4.677   0.609  -0.219  1.00  0.00    -0.000 C 
BRANCH  27  28
ATOM     28  C   UNL     1      -3.683   0.302  -1.354  1.00  0.00    -0.000 C 
BRANCH  28  29
ATOM     29  C   UNL     1      -4.225   0.666  -2.742  1.00  0.00    -0.003 C 
ATOM     30  C   UNL     1      -3.213   0.334  -3.832  1.00  0.00     0.004 C 
ENDBRANCH  28  29
ENDBRANCH  27  28
ENDBRANCH  26  27
ENDBRANCH  25  26
ENDBRANCH  24  25
ENDBRANCH  23  24
ENDBRANCH  22  23
ENDBRANCH  21  22
ENDBRANCH  20  21
ENDBRANCH  19  20
ENDBRANCH  18  19
ENDBRANCH  17  18
ENDBRANCH   1  17
TORSDOF 26
ENDMDL
