MODEL 1
REMARK VINA RESULT:    -3.286      0.000      0.000
REMARK INTER + INTRA:          -3.995
REMARK INTER:                  -3.863
REMARK INTRA:                  -0.132
REMARK UNBOUND:                -0.132
REMARK SMILES O=C([O-])C=Cc1ccc(O)c(O)c1
REMARK SMILES IDX 6 1 13 2 7 3 11 4 8 5 9 6 5 7 4 8 2 9 1 10 3 11 12 12 10 14
REMARK H PARENT 12 13 10 15
REMARK Flexibility Score: inf
ROOT
ATOM      1  C   UNL     1       8.008 -22.192  13.494  1.00  0.00    -0.022 A 
ATOM      2  C   UNL     1       8.416 -20.858  13.326  1.00  0.00     0.058 A 
ATOM      3  C   UNL     1       7.947 -23.031  12.364  1.00  0.00     0.012 A 
ATOM      4  C   UNL     1       8.731 -20.359  12.054  1.00  0.00     0.157 A 
ATOM      5  C   UNL     1       8.262 -22.534  11.096  1.00  0.00     0.051 A 
ATOM      6  C   UNL     1       8.651 -21.202  10.934  1.00  0.00     0.157 A 
ENDROOT
BRANCH   1   7
ATOM      7  C   UNL     1       7.696 -22.671  14.863  1.00  0.00     0.010 C 
ATOM      8  C   UNL     1       7.443 -21.857  15.897  1.00  0.00     0.025 C 
BRANCH   8   9
ATOM      9  C   UNL     1       7.149 -22.368  17.247  1.00  0.00     0.064 C 
ATOM     10  O   UNL     1       7.965 -23.109  17.856  1.00  0.00    -0.545 OA
ATOM     11  O   UNL     1       5.948 -22.030  17.858  1.00  0.00    -0.545 OA
ENDBRANCH   8   9
ENDBRANCH   1   7
BRANCH   4  12
ATOM     12  O   UNL     1       9.125 -19.030  11.900  1.00  0.00    -0.504 OA
ATOM     13  H   UNL     1       9.953 -18.778  11.373  1.00  0.00     0.293 HD
ENDBRANCH   4  12
BRANCH   6  14
ATOM     14  O   UNL     1       8.958 -20.736   9.656  1.00  0.00    -0.504 OA
ATOM     15  H   UNL     1       9.091 -21.363   8.872  1.00  0.00     0.293 HD
ENDBRANCH   6  14
TORSDOF 4
ENDMDL
MODEL 2
REMARK VINA RESULT:    -3.263      1.145      2.006
REMARK INTER + INTRA:          -3.967
REMARK INTER:                  -3.835
REMARK INTRA:                  -0.132
REMARK UNBOUND:                -0.132
REMARK SMILES O=C([O-])C=Cc1ccc(O)c(O)c1
REMARK SMILES IDX 6 1 13 2 7 3 11 4 8 5 9 6 5 7 4 8 2 9 1 10 3 11 12 12 10 14
REMARK H PARENT 12 13 10 15
REMARK Flexibility Score: inf
ROOT
ATOM      1  C   UNL     1       8.424 -21.078  13.847  1.00  0.00    -0.022 A 
ATOM      2  C   UNL     1       7.840 -22.084  13.059  1.00  0.00     0.058 A 
ATOM      3  C   UNL     1       9.058 -19.996  13.207  1.00  0.00     0.012 A 
ATOM      4  C   UNL     1       7.908 -22.029  11.659  1.00  0.00     0.157 A 
ATOM      5  C   UNL     1       9.125 -19.940  11.812  1.00  0.00     0.051 A 
ATOM      6  C   UNL     1       8.557 -20.952  11.035  1.00  0.00     0.157 A 
ENDROOT
BRANCH   1   7
ATOM      7  C   UNL     1       8.314 -21.181  15.324  1.00  0.00     0.010 C 
ATOM      8  C   UNL     1       7.253 -21.701  15.957  1.00  0.00     0.025 C 
BRANCH   8   9
ATOM      9  C   UNL     1       7.172 -21.775  17.426  1.00  0.00     0.064 C 
ATOM     10  O   UNL     1       8.199 -21.638  18.143  1.00  0.00    -0.545 OA
ATOM     11  O   UNL     1       5.943 -22.004  18.031  1.00  0.00    -0.545 OA
ENDBRANCH   8   9
ENDBRANCH   1   7
BRANCH   4  12
ATOM     12  O   UNL     1       7.334 -23.039  10.889  1.00  0.00    -0.504 OA
ATOM     13  H   UNL     1       7.217 -22.943   9.887  1.00  0.00     0.293 HD
ENDBRANCH   4  12
BRANCH   6  14
ATOM     14  O   UNL     1       8.641 -20.868   9.646  1.00  0.00    -0.504 OA
ATOM     15  H   UNL     1       8.195 -21.544   9.037  1.00  0.00     0.293 HD
ENDBRANCH   6  14
TORSDOF 4
ENDMDL
MODEL 3
REMARK VINA RESULT:    -3.195     17.850     19.420
REMARK INTER + INTRA:          -3.888
REMARK INTER:                  -3.750
REMARK INTRA:                  -0.138
REMARK UNBOUND:                -0.132
REMARK SMILES O=C([O-])C=Cc1ccc(O)c(O)c1
REMARK SMILES IDX 6 1 13 2 7 3 11 4 8 5 9 6 5 7 4 8 2 9 1 10 3 11 12 12 10 14
REMARK H PARENT 12 13 10 15
REMARK Flexibility Score: inf
ROOT
ATOM      1  C   UNL     1      -9.685 -21.328  19.770  1.00  0.00    -0.022 A 
ATOM      2  C   UNL     1     -10.128 -20.492  20.809  1.00  0.00     0.058 A 
ATOM      3  C   UNL     1      -8.894 -22.449  20.090  1.00  0.00     0.012 A 
ATOM      4  C   UNL     1      -9.769 -20.751  22.140  1.00  0.00     0.157 A 
ATOM      5  C   UNL     1      -8.538 -22.707  21.416  1.00  0.00     0.051 A 
ATOM      6  C   UNL     1      -8.968 -21.863  22.443  1.00  0.00     0.157 A 
ENDROOT
BRANCH   1   7
ATOM      7  C   UNL     1     -10.102 -21.014  18.381  1.00  0.00     0.010 C 
ATOM      8  C   UNL     1      -9.474 -21.480  17.292  1.00  0.00     0.025 C 
BRANCH   8   9
ATOM      9  C   UNL     1      -9.909 -21.138  15.927  1.00  0.00     0.064 C 
ATOM     10  O   UNL     1     -11.125 -21.177  15.600  1.00  0.00    -0.545 OA
ATOM     11  O   UNL     1      -8.961 -20.767  14.982  1.00  0.00    -0.545 OA
ENDBRANCH   8   9
ENDBRANCH   1   7
BRANCH   4  12
ATOM     12  O   UNL     1     -10.207 -19.907  23.160  1.00  0.00    -0.504 OA
ATOM     13  H   UNL     1     -11.193 -19.752  23.334  1.00  0.00     0.293 HD
ENDBRANCH   4  12
BRANCH   6  14
ATOM     14  O   UNL     1      -8.594 -22.148  23.756  1.00  0.00    -0.504 OA
ATOM     15  H   UNL     1      -7.627 -22.123  24.058  1.00  0.00     0.293 HD
ENDBRANCH   6  14
TORSDOF 4
ENDMDL
MODEL 4
REMARK VINA RESULT:    -3.158     18.029     19.759
REMARK INTER + INTRA:          -3.844
REMARK INTER:                  -3.706
REMARK INTRA:                  -0.139
REMARK UNBOUND:                -0.132
REMARK SMILES O=C([O-])C=Cc1ccc(O)c(O)c1
REMARK SMILES IDX 6 1 13 2 7 3 11 4 8 5 9 6 5 7 4 8 2 9 1 10 3 11 12 12 10 14
REMARK H PARENT 12 13 10 15
REMARK Flexibility Score: inf
ROOT
ATOM      1  C   UNL     1     -10.045 -20.920  19.067  1.00  0.00    -0.022 A 
ATOM      2  C   UNL     1      -9.318 -21.690  19.991  1.00  0.00     0.058 A 
ATOM      3  C   UNL     1     -10.930 -19.936  19.550  1.00  0.00     0.012 A 
ATOM      4  C   UNL     1      -9.486 -21.503  21.371  1.00  0.00     0.157 A 
ATOM      5  C   UNL     1     -11.097 -19.749  20.925  1.00  0.00     0.051 A 
ATOM      6  C   UNL     1     -10.383 -20.529  21.838  1.00  0.00     0.157 A 
ENDROOT
BRANCH   1   7
ATOM      7  C   UNL     1      -9.821 -21.152  17.619  1.00  0.00     0.010 C 
ATOM      8  C   UNL     1     -10.396 -20.424  16.651  1.00  0.00     0.025 C 
BRANCH   8   9
ATOM      9  C   UNL     1     -10.160 -20.690  15.221  1.00  0.00     0.064 C 
ATOM     10  O   UNL     1     -11.117 -20.914  14.433  1.00  0.00    -0.545 OA
ATOM     11  O   UNL     1      -8.860 -20.696  14.734  1.00  0.00    -0.545 OA
ENDBRANCH   8   9
ENDBRANCH   1   7
BRANCH   4  12
ATOM     12  O   UNL     1      -8.765 -22.281  22.276  1.00  0.00    -0.504 OA
ATOM     13  H   UNL     1      -9.192 -22.648  23.119  1.00  0.00     0.293 HD
ENDBRANCH   4  12
BRANCH   6  14
ATOM     14  O   UNL     1     -10.572 -20.319  23.203  1.00  0.00    -0.504 OA
ATOM     15  H   UNL     1     -10.811 -19.409  23.581  1.00  0.00     0.293 HD
ENDBRANCH   6  14
TORSDOF 4
ENDMDL
MODEL 5
REMARK VINA RESULT:    -3.009     15.940     18.633
REMARK INTER + INTRA:          -3.670
REMARK INTER:                  -3.538
REMARK INTRA:                  -0.132
REMARK UNBOUND:                -0.132
REMARK SMILES O=C([O-])C=Cc1ccc(O)c(O)c1
REMARK SMILES IDX 6 1 13 2 7 3 11 4 8 5 9 6 5 7 4 8 2 9 1 10 3 11 12 12 10 14
REMARK H PARENT 12 13 10 15
REMARK Flexibility Score: inf
ROOT
ATOM      1  C   UNL     1      -8.848 -21.956  19.901  1.00  0.00    -0.022 A 
ATOM      2  C   UNL     1      -9.624 -20.851  20.288  1.00  0.00     0.058 A 
ATOM      3  C   UNL     1      -8.558 -22.952  20.855  1.00  0.00     0.012 A 
ATOM      4  C   UNL     1     -10.083 -20.724  21.608  1.00  0.00     0.157 A 
ATOM      5  C   UNL     1      -9.016 -22.826  22.169  1.00  0.00     0.051 A 
ATOM      6  C   UNL     1      -9.774 -21.716  22.552  1.00  0.00     0.157 A 
ENDROOT
BRANCH   1   7
ATOM      7  C   UNL     1      -8.397 -22.047  18.490  1.00  0.00     0.010 C 
ATOM      8  C   UNL     1      -7.148 -22.372  18.126  1.00  0.00     0.025 C 
BRANCH   8   9
ATOM      9  C   UNL     1      -6.732 -22.440  16.715  1.00  0.00     0.064 C 
ATOM     10  O   UNL     1      -5.736 -23.125  16.361  1.00  0.00    -0.545 OA
ATOM     11  O   UNL     1      -7.448 -21.733  15.758  1.00  0.00    -0.545 OA
ENDBRANCH   8   9
ENDBRANCH   1   7
BRANCH   4  12
ATOM     12  O   UNL     1     -10.844 -19.617  21.981  1.00  0.00    -0.504 OA
ATOM     13  H   UNL     1     -11.444 -19.138  21.320  1.00  0.00     0.293 HD
ENDBRANCH   4  12
BRANCH   6  14
ATOM     14  O   UNL     1     -10.215 -21.619  23.871  1.00  0.00    -0.504 OA
ATOM     15  H   UNL     1     -10.657 -22.395  24.350  1.00  0.00     0.293 HD
ENDBRANCH   6  14
TORSDOF 4
ENDMDL
MODEL 6
REMARK VINA RESULT:    -2.986     16.385     19.096
REMARK INTER + INTRA:          -3.643
REMARK INTER:                  -3.510
REMARK INTRA:                  -0.132
REMARK UNBOUND:                -0.132
REMARK SMILES O=C([O-])C=Cc1ccc(O)c(O)c1
REMARK SMILES IDX 6 1 13 2 7 3 11 4 8 5 9 6 5 7 4 8 2 9 1 10 3 11 12 12 10 14
REMARK H PARENT 12 13 10 15
REMARK Flexibility Score: inf
ROOT
ATOM      1  C   UNL     1      -9.532 -21.309  19.932  1.00  0.00    -0.022 A 
ATOM      2  C   UNL     1      -8.998 -21.825  21.125  1.00  0.00     0.058 A 
ATOM      3  C   UNL     1     -10.586 -20.378  20.006  1.00  0.00     0.012 A 
ATOM      4  C   UNL     1      -9.521 -21.443  22.369  1.00  0.00     0.157 A 
ATOM      5  C   UNL     1     -11.107 -19.997  21.245  1.00  0.00     0.051 A 
ATOM      6  C   UNL     1     -10.583 -20.526  22.427  1.00  0.00     0.157 A 
ENDROOT
BRANCH   1   7
ATOM      7  C   UNL     1      -8.934 -21.739  18.643  1.00  0.00     0.010 C 
ATOM      8  C   UNL     1      -7.630 -22.004  18.479  1.00  0.00     0.025 C 
BRANCH   8   9
ATOM      9  C   UNL     1      -7.069 -22.416  17.181  1.00  0.00     0.064 C 
ATOM     10  O   UNL     1      -7.690 -22.207  16.105  1.00  0.00    -0.545 OA
ATOM     11  O   UNL     1      -5.834 -23.050  17.143  1.00  0.00    -0.545 OA
ENDBRANCH   8   9
ENDBRANCH   1   7
BRANCH   4  12
ATOM     12  O   UNL     1      -8.989 -21.971  23.544  1.00  0.00    -0.504 OA
ATOM     13  H   UNL     1      -8.438 -21.405  24.179  1.00  0.00     0.293 HD
ENDBRANCH   4  12
BRANCH   6  14
ATOM     14  O   UNL     1     -11.125 -20.127  23.648  1.00  0.00    -0.504 OA
ATOM     15  H   UNL     1     -10.640 -20.273  24.526  1.00  0.00     0.293 HD
ENDBRANCH   6  14
TORSDOF 4
ENDMDL
MODEL 7
REMARK VINA RESULT:    -2.781      3.297      6.121
REMARK INTER + INTRA:          -3.401
REMARK INTER:                  -3.273
REMARK INTRA:                  -0.128
REMARK UNBOUND:                -0.132
REMARK SMILES O=C([O-])C=Cc1ccc(O)c(O)c1
REMARK SMILES IDX 6 1 13 2 7 3 11 4 8 5 9 6 5 7 4 8 2 9 1 10 3 11 12 12 10 14
REMARK H PARENT 12 13 10 15
REMARK Flexibility Score: inf
ROOT
ATOM      1  C   UNL     1       5.591 -22.853  14.224  1.00  0.00    -0.022 A 
ATOM      2  C   UNL     1       4.369 -22.797  13.534  1.00  0.00     0.058 A 
ATOM      3  C   UNL     1       5.575 -22.903  15.632  1.00  0.00     0.012 A 
ATOM      4  C   UNL     1       3.152 -22.764  14.231  1.00  0.00     0.157 A 
ATOM      5  C   UNL     1       4.363 -22.871  16.326  1.00  0.00     0.051 A 
ATOM      6  C   UNL     1       3.152 -22.798  15.635  1.00  0.00     0.157 A 
ENDROOT
BRANCH   1   7
ATOM      7  C   UNL     1       6.849 -22.896  13.437  1.00  0.00     0.010 C 
ATOM      8  C   UNL     1       7.238 -21.922  12.602  1.00  0.00     0.025 C 
BRANCH   8   9
ATOM      9  C   UNL     1       8.488 -22.004  11.827  1.00  0.00     0.064 C 
ATOM     10  O   UNL     1       9.105 -23.095  11.698  1.00  0.00    -0.545 OA
ATOM     11  O   UNL     1       8.996 -20.858  11.229  1.00  0.00    -0.545 OA
ENDBRANCH   8   9
ENDBRANCH   1   7
BRANCH   4  12
ATOM     12  O   UNL     1       1.946 -22.697  13.534  1.00  0.00    -0.504 OA
ATOM     13  H   UNL     1       1.860 -23.050  12.588  1.00  0.00     0.293 HD
ENDBRANCH   4  12
BRANCH   6  14
ATOM     14  O   UNL     1       1.959 -22.767  16.357  1.00  0.00    -0.504 OA
ATOM     15  H   UNL     1       1.560 -23.600  16.773  1.00  0.00     0.293 HD
ENDBRANCH   6  14
TORSDOF 4
ENDMDL
MODEL 8
REMARK VINA RESULT:    -2.644     15.881     17.812
REMARK INTER + INTRA:          -3.241
REMARK INTER:                  -3.108
REMARK INTRA:                  -0.132
REMARK UNBOUND:                -0.132
REMARK SMILES O=C([O-])C=Cc1ccc(O)c(O)c1
REMARK SMILES IDX 6 1 13 2 7 3 11 4 8 5 9 6 5 7 4 8 2 9 1 10 3 11 12 12 10 14
REMARK H PARENT 12 13 10 15
REMARK Flexibility Score: inf
ROOT
ATOM      1  C   UNL     1      -9.060 -21.970  19.370  1.00  0.00    -0.022 A 
ATOM      2  C   UNL     1      -7.743 -22.455  19.454  1.00  0.00     0.058 A 
ATOM      3  C   UNL     1      -9.608 -21.710  18.099  1.00  0.00     0.012 A 
ATOM      4  C   UNL     1      -6.977 -22.653  18.296  1.00  0.00     0.157 A 
ATOM      5  C   UNL     1      -8.845 -21.908  16.946  1.00  0.00     0.051 A 
ATOM      6  C   UNL     1      -7.531 -22.375  17.036  1.00  0.00     0.157 A 
ENDROOT
BRANCH   1   7
ATOM      7  C   UNL     1      -9.830 -21.789  20.626  1.00  0.00     0.010 C 
ATOM      8  C   UNL     1      -9.272 -21.764  21.844  1.00  0.00     0.025 C 
BRANCH   8   9
ATOM      9  C   UNL     1     -10.069 -21.594  23.071  1.00  0.00     0.064 C 
ATOM     10  O   UNL     1     -10.779 -20.569  23.252  1.00  0.00    -0.545 OA
ATOM     11  O   UNL     1     -10.037 -22.581  24.047  1.00  0.00    -0.545 OA
ENDBRANCH   8   9
ENDBRANCH   1   7
BRANCH   4  12
ATOM     12  O   UNL     1      -5.668 -23.125  18.394  1.00  0.00    -0.504 OA
ATOM     13  H   UNL     1      -4.880 -22.576  18.072  1.00  0.00     0.293 HD
ENDBRANCH   4  12
BRANCH   6  14
ATOM     14  O   UNL     1      -6.795 -22.561  15.867  1.00  0.00    -0.504 OA
ATOM     15  H   UNL     1      -7.232 -22.582  14.953  1.00  0.00     0.293 HD
ENDBRANCH   6  14
TORSDOF 4
ENDMDL
MODEL 9
REMARK VINA RESULT:    -2.606     14.592     16.395
REMARK INTER + INTRA:          -3.195
REMARK INTER:                  -3.069
REMARK INTRA:                  -0.127
REMARK UNBOUND:                -0.132
REMARK SMILES O=C([O-])C=Cc1ccc(O)c(O)c1
REMARK SMILES IDX 6 1 13 2 7 3 11 4 8 5 9 6 5 7 4 8 2 9 1 10 3 11 12 12 10 14
REMARK H PARENT 12 13 10 15
REMARK Flexibility Score: inf
ROOT
ATOM      1  C   UNL     1      -7.603 -22.411  17.963  1.00  0.00    -0.022 A 
ATOM      2  C   UNL     1      -6.424 -22.799  18.620  1.00  0.00     0.058 A 
ATOM      3  C   UNL     1      -7.526 -21.989  16.621  1.00  0.00     0.012 A 
ATOM      4  C   UNL     1      -5.185 -22.744  17.963  1.00  0.00     0.157 A 
ATOM      5  C   UNL     1      -6.293 -21.935  15.966  1.00  0.00     0.051 A 
ATOM      6  C   UNL     1      -5.121 -22.307  16.631  1.00  0.00     0.157 A 
ENDROOT
BRANCH   1   7
ATOM      7  C   UNL     1      -8.888 -22.498  18.700  1.00  0.00     0.010 C 
ATOM      8  C   UNL     1      -9.266 -21.623  19.643  1.00  0.00     0.025 C 
BRANCH   8   9
ATOM      9  C   UNL     1     -10.544 -21.748  20.365  1.00  0.00     0.064 C 
ATOM     10  O   UNL     1     -11.124 -20.737  20.843  1.00  0.00    -0.545 OA
ATOM     11  O   UNL     1     -11.118 -23.002  20.523  1.00  0.00    -0.545 OA
ENDBRANCH   8   9
ENDBRANCH   1   7
BRANCH   4  12
ATOM     12  O   UNL     1      -4.021 -23.122  18.631  1.00  0.00    -0.504 OA
ATOM     13  H   UNL     1      -3.120 -22.723  18.396  1.00  0.00     0.293 HD
ENDBRANCH   4  12
BRANCH   6  14
ATOM     14  O   UNL     1      -3.906 -22.241  15.951  1.00  0.00    -0.504 OA
ATOM     15  H   UNL     1      -3.131 -21.680  16.285  1.00  0.00     0.293 HD
ENDBRANCH   6  14
TORSDOF 4
ENDMDL
