MODEL 1
REMARK VINA RESULT:    53.707      0.000      0.000
REMARK INTER + INTRA:          88.342
REMARK INTER:                  88.244
REMARK INTRA:                   0.098
REMARK UNBOUND:                 0.098
REMARK SMILES C[C@@H]1O[C@@H](OC[C@H]2O[C@H](Oc3c(-c4ccc(O)c(O)c4)oc4cc(O)cc(O)c4c3=O)[C@H](O)[C@H](O)[C@@H]2O)[C@@H](O)[C@H](O)[C@@H]1O
REMARK SMILES IDX 7 1 36 2 34 3 32 4 9 5 8 6 6 7 5 8 4 9 1 10 2 11 42 12 3 13
REMARK SMILES IDX 40 14 38 15 43 16 41 18 39 20 37 22 35 24 10 26 11 27 12 28
REMARK SMILES IDX 30 29 21 30 29 31 31 32 22 33 27 34 23 35 26 36 24 37 13 38
REMARK SMILES IDX 20 39 14 40 18 41 15 42 16 43 19 44 17 46 28 48 25 50 33 52
REMARK H PARENT 43 17 41 19 39 21 37 23 35 25 19 45 17 47 28 49 25 51 33 53
REMARK Flexibility Score: inf
ROOT
ATOM      1  C   UNL     1      11.274   8.354  14.575  1.00  0.00     0.180 C 
ATOM      2  C   UNL     1      11.822   7.567  13.355  1.00  0.00     0.177 C 
ATOM      3  C   UNL     1      13.345   7.317  13.483  1.00  0.00     0.180 C 
ATOM      4  C   UNL     1      13.692   6.802  14.890  1.00  0.00     0.214 C 
ATOM      5  C   UNL     1      13.019   7.659  15.989  1.00  0.00     0.339 C 
ATOM      6  O   UNL     1      11.618   7.719  15.797  1.00  0.00    -0.332 OA
ENDROOT
BRANCH   1   7
ATOM      7  C   UNL     1       9.741   8.462  14.515  1.00  0.00     0.198 C 
BRANCH   7   8
ATOM      8  O   UNL     1       9.297   8.106  13.215  1.00  0.00    -0.347 OA
BRANCH   8   9
ATOM      9  C   UNL     1       8.066   7.395  13.200  1.00  0.00     0.281 C 
ATOM     10  C   UNL     1       6.898   4.877  14.450  1.00  0.00     0.041 C 
ATOM     11  C   UNL     1       7.058   5.278  12.976  1.00  0.00     0.150 C 
ATOM     12  C   UNL     1       5.778   5.894  12.332  1.00  0.00     0.174 C 
ATOM     13  O   UNL     1       8.231   6.055  12.757  1.00  0.00    -0.344 OA
ATOM     14  C   UNL     1       5.623   7.400  12.614  1.00  0.00     0.179 C 
ATOM     15  C   UNL     1       6.960   8.139  12.411  1.00  0.00     0.202 C 
BRANCH  12  16
ATOM     16  O   UNL     1       4.636   5.200  12.772  1.00  0.00    -0.388 OA
ATOM     17  H   UNL     1       4.709   4.265  12.438  1.00  0.00     0.211 HD
ENDBRANCH  12  16
BRANCH  14  18
ATOM     18  O   UNL     1       5.168   7.601  13.931  1.00  0.00    -0.387 OA
ATOM     19  H   UNL     1       4.312   8.098  13.879  1.00  0.00     0.211 HD
ENDBRANCH  14  18
BRANCH  15  20
ATOM     20  O   UNL     1       7.256   8.261  11.038  1.00  0.00    -0.385 OA
ATOM     21  H   UNL     1       6.731   9.017  10.669  1.00  0.00     0.211 HD
ENDBRANCH  15  20
ENDBRANCH   8   9
ENDBRANCH   7   8
ENDBRANCH   1   7
BRANCH   2  22
ATOM     22  O   UNL     1      11.545   8.270  12.168  1.00  0.00    -0.387 OA
ATOM     23  H   UNL     1      11.620   9.234  12.381  1.00  0.00     0.211 HD
ENDBRANCH   2  22
BRANCH   3  24
ATOM     24  O   UNL     1      14.102   8.457  13.141  1.00  0.00    -0.387 OA
ATOM     25  H   UNL     1      13.670   9.253  13.540  1.00  0.00     0.211 HD
ENDBRANCH   3  24
BRANCH   5  26
ATOM     26  O   UNL     1      13.579   8.978  16.071  1.00  0.00    -0.454 OA
BRANCH  26  27
ATOM     27  C   UNL     1      13.481   9.776  17.219  1.00  0.00     0.214 A 
ATOM     28  C   UNL     1      13.620  11.174  17.141  1.00  0.00     0.180 A 
ATOM     29  C   UNL     1      13.273   9.187  18.469  1.00  0.00     0.239 A 
ATOM     30  O   UNL     1      13.487  11.922  18.228  1.00  0.00    -0.452 OA
ATOM     31  C   UNL     1      13.136  10.010  19.607  1.00  0.00     0.111 A 
ATOM     32  O   UNL     1      13.221   7.933  18.561  1.00  0.00    -0.285 OA
ATOM     33  C   UNL     1      13.243  11.411  19.428  1.00  0.00     0.146 A 
ATOM     34  C   UNL     1      12.899   9.498  20.903  1.00  0.00     0.134 A 
ATOM     35  C   UNL     1      13.102  12.275  20.519  1.00  0.00     0.094 A 
ATOM     36  C   UNL     1      12.763  10.379  21.985  1.00  0.00     0.093 A 
ATOM     37  C   UNL     1      12.866  11.766  21.796  1.00  0.00     0.123 A 
BRANCH  28  38
ATOM     38  C   UNL     1      13.981  11.826  15.879  1.00  0.00     0.025 A 
ATOM     39  C   UNL     1      13.731  13.189  15.692  1.00  0.00     0.062 A 
ATOM     40  C   UNL     1      14.634  11.095  14.878  1.00  0.00     0.016 A 
ATOM     41  C   UNL     1      14.076  13.823  14.489  1.00  0.00     0.158 A 
ATOM     42  C   UNL     1      14.989  11.719  13.677  1.00  0.00     0.051 A 
ATOM     43  C   UNL     1      14.711  13.076  13.468  1.00  0.00     0.157 A 
BRANCH  41  44
ATOM     44  O   UNL     1      13.789  15.186  14.356  1.00  0.00    -0.504 OA
ATOM     45  H   UNL     1      14.361  15.926  14.737  1.00  0.00     0.293 HD
ENDBRANCH  41  44
BRANCH  43  46
ATOM     46  O   UNL     1      15.077  13.630  12.245  1.00  0.00    -0.504 OA
ATOM     47  H   UNL     1      14.856  14.573  11.972  1.00  0.00     0.293 HD
ENDBRANCH  43  46
ENDBRANCH  28  38
BRANCH  34  48
ATOM     48  O   UNL     1      12.794   8.127  21.128  1.00  0.00    -0.507 OA
ATOM     49  H   UNL     1      13.539   7.491  20.862  1.00  0.00     0.293 HD
ENDBRANCH  34  48
BRANCH  37  50
ATOM     50  O   UNL     1      12.743  12.638  22.877  1.00  0.00    -0.508 OA
ATOM     51  H   UNL     1      11.851  12.788  23.338  1.00  0.00     0.293 HD
ENDBRANCH  37  50
ENDBRANCH  26  27
ENDBRANCH   5  26
BRANCH   4  52
ATOM     52  O   UNL     1      15.084   6.744  15.053  1.00  0.00    -0.384 OA
ATOM     53  H   UNL     1      15.376   7.636  15.367  1.00  0.00     0.211 HD
ENDBRANCH   4  52
TORSDOF 16
ENDMDL
MODEL 2
REMARK VINA RESULT:    55.202      1.481      4.721
REMARK INTER + INTRA:          90.798
REMARK INTER:                  84.572
REMARK INTRA:                   6.226
REMARK UNBOUND:                 0.098
REMARK SMILES C[C@@H]1O[C@@H](OC[C@H]2O[C@H](Oc3c(-c4ccc(O)c(O)c4)oc4cc(O)cc(O)c4c3=O)[C@H](O)[C@H](O)[C@@H]2O)[C@@H](O)[C@H](O)[C@@H]1O
REMARK SMILES IDX 7 1 36 2 34 3 32 4 9 5 8 6 6 7 5 8 4 9 1 10 2 11 42 12 3 13
REMARK SMILES IDX 40 14 38 15 43 16 41 18 39 20 37 22 35 24 10 26 11 27 12 28
REMARK SMILES IDX 30 29 21 30 29 31 31 32 22 33 27 34 23 35 26 36 24 37 13 38
REMARK SMILES IDX 20 39 14 40 18 41 15 42 16 43 19 44 17 46 28 48 25 50 33 52
REMARK H PARENT 43 17 41 19 39 21 37 23 35 25 19 45 17 47 28 49 25 51 33 53
REMARK Flexibility Score: inf
ROOT
ATOM      1  C   UNL     1      11.845   8.749  14.767  1.00  0.00     0.180 C 
ATOM      2  C   UNL     1      12.187   7.388  14.107  1.00  0.00     0.177 C 
ATOM      3  C   UNL     1      13.687   7.041  14.274  1.00  0.00     0.180 C 
ATOM      4  C   UNL     1      14.136   7.273  15.726  1.00  0.00     0.214 C 
ATOM      5  C   UNL     1      13.664   8.649  16.253  1.00  0.00     0.339 C 
ATOM      6  O   UNL     1      12.261   8.786  16.123  1.00  0.00    -0.332 OA
ENDROOT
BRANCH   1   7
ATOM      7  C   UNL     1      10.330   9.012  14.732  1.00  0.00     0.198 C 
BRANCH   7   8
ATOM      8  O   UNL     1       9.842   8.767  13.422  1.00  0.00    -0.347 OA
BRANCH   8   9
ATOM      9  C   UNL     1       8.739   7.872  13.374  1.00  0.00     0.281 C 
ATOM     10  C   UNL     1       8.066   5.183  12.114  1.00  0.00     0.041 C 
ATOM     11  C   UNL     1       7.380   6.550  11.976  1.00  0.00     0.150 C 
ATOM     12  C   UNL     1       6.140   6.745  12.903  1.00  0.00     0.174 C 
ATOM     13  O   UNL     1       8.311   7.625  12.042  1.00  0.00    -0.344 OA
ATOM     14  C   UNL     1       6.514   7.196  14.327  1.00  0.00     0.179 C 
ATOM     15  C   UNL     1       7.572   8.317  14.290  1.00  0.00     0.202 C 
BRANCH  12  16
ATOM     16  O   UNL     1       5.386   5.560  12.953  1.00  0.00    -0.388 OA
ATOM     17  H   UNL     1       6.011   4.818  13.173  1.00  0.00     0.211 HD
ENDBRANCH  12  16
BRANCH  14  18
ATOM     18  O   UNL     1       7.008   6.105  15.065  1.00  0.00    -0.387 OA
ATOM     19  H   UNL     1       7.818   6.412  15.546  1.00  0.00     0.211 HD
ENDBRANCH  14  18
BRANCH  15  20
ATOM     20  O   UNL     1       6.991   9.535  13.882  1.00  0.00    -0.385 OA
ATOM     21  H   UNL     1       7.712  10.208  13.779  1.00  0.00     0.211 HD
ENDBRANCH  15  20
ENDBRANCH   8   9
ENDBRANCH   7   8
ENDBRANCH   1   7
BRANCH   2  22
ATOM     22  O   UNL     1      11.846   7.418  12.742  1.00  0.00    -0.387 OA
ATOM     23  H   UNL     1      11.539   8.338  12.543  1.00  0.00     0.211 HD
ENDBRANCH   2  22
BRANCH   3  24
ATOM     24  O   UNL     1      14.500   7.737  13.356  1.00  0.00    -0.387 OA
ATOM     25  H   UNL     1      14.265   8.699  13.395  1.00  0.00     0.211 HD
ENDBRANCH   3  24
BRANCH   5  26
ATOM     26  O   UNL     1      14.343   9.740  15.613  1.00  0.00    -0.454 OA
BRANCH  26  27
ATOM     27  C   UNL     1      14.136  11.079  15.972  1.00  0.00     0.214 A 
ATOM     28  C   UNL     1      13.831  11.432  17.299  1.00  0.00     0.180 A 
ATOM     29  C   UNL     1      14.202  12.085  15.005  1.00  0.00     0.239 A 
ATOM     30  O   UNL     1      13.675  12.705  17.636  1.00  0.00    -0.452 OA
ATOM     31  C   UNL     1      14.032  13.431  15.394  1.00  0.00     0.111 A 
ATOM     32  O   UNL     1      14.402  11.774  13.802  1.00  0.00    -0.285 OA
ATOM     33  C   UNL     1      13.774  13.697  16.761  1.00  0.00     0.146 A 
ATOM     34  C   UNL     1      14.108  14.509  14.484  1.00  0.00     0.134 A 
ATOM     35  C   UNL     1      13.610  15.014  17.205  1.00  0.00     0.094 A 
ATOM     36  C   UNL     1      13.939  15.822  14.947  1.00  0.00     0.093 A 
ATOM     37  C   UNL     1      13.689  16.076  16.304  1.00  0.00     0.123 A 
BRANCH  28  38
ATOM     38  C   UNL     1      13.609  10.404  18.321  1.00  0.00     0.025 A 
ATOM     39  C   UNL     1      13.021  10.738  19.544  1.00  0.00     0.062 A 
ATOM     40  C   UNL     1      13.934   9.068  18.048  1.00  0.00     0.016 A 
ATOM     41  C   UNL     1      12.802   9.761  20.527  1.00  0.00     0.158 A 
ATOM     42  C   UNL     1      13.714   8.084  19.017  1.00  0.00     0.051 A 
ATOM     43  C   UNL     1      13.157   8.417  20.259  1.00  0.00     0.157 A 
BRANCH  41  44
ATOM     44  O   UNL     1      12.221  10.159  21.735  1.00  0.00    -0.504 OA
ATOM     45  H   UNL     1      12.318   9.655  22.605  1.00  0.00     0.293 HD
ENDBRANCH  41  44
BRANCH  43  46
ATOM     46  O   UNL     1      12.978   7.392  21.183  1.00  0.00    -0.504 OA
ATOM     47  H   UNL     1      12.075   7.068  21.489  1.00  0.00     0.293 HD
ENDBRANCH  43  46
ENDBRANCH  28  38
BRANCH  34  48
ATOM     48  O   UNL     1      14.352  14.294  13.129  1.00  0.00    -0.507 OA
ATOM     49  H   UNL     1      14.777  15.011  12.551  1.00  0.00     0.293 HD
ENDBRANCH  34  48
BRANCH  37  50
ATOM     50  O   UNL     1      13.508  17.383  16.758  1.00  0.00    -0.508 OA
ATOM     51  H   UNL     1      12.587  17.807  16.798  1.00  0.00     0.293 HD
ENDBRANCH  37  50
ENDBRANCH  26  27
ENDBRANCH   5  26
BRANCH   4  52
ATOM     52  O   UNL     1      15.528   7.124  15.830  1.00  0.00    -0.384 OA
ATOM     53  H   UNL     1      15.924   7.531  15.020  1.00  0.00     0.211 HD
ENDBRANCH   4  52
TORSDOF 16
ENDMDL
MODEL 3
REMARK VINA RESULT:    55.447      1.371      1.603
REMARK INTER + INTRA:          91.201
REMARK INTER:                  90.631
REMARK INTRA:                   0.571
REMARK UNBOUND:                 0.098
REMARK SMILES C[C@@H]1O[C@@H](OC[C@H]2O[C@H](Oc3c(-c4ccc(O)c(O)c4)oc4cc(O)cc(O)c4c3=O)[C@H](O)[C@H](O)[C@@H]2O)[C@@H](O)[C@H](O)[C@@H]1O
REMARK SMILES IDX 7 1 36 2 34 3 32 4 9 5 8 6 6 7 5 8 4 9 1 10 2 11 42 12 3 13
REMARK SMILES IDX 40 14 38 15 43 16 41 18 39 20 37 22 35 24 10 26 11 27 12 28
REMARK SMILES IDX 30 29 21 30 29 31 31 32 22 33 27 34 23 35 26 36 24 37 13 38
REMARK SMILES IDX 20 39 14 40 18 41 15 42 16 43 19 44 17 46 28 48 25 50 33 52
REMARK H PARENT 43 17 41 19 39 21 37 23 35 25 19 45 17 47 28 49 25 51 33 53
REMARK Flexibility Score: inf
ROOT
ATOM      1  C   UNL     1      11.958   8.684  15.290  1.00  0.00     0.180 C 
ATOM      2  C   UNL     1      12.797   7.918  14.233  1.00  0.00     0.177 C 
ATOM      3  C   UNL     1      14.313   8.168  14.427  1.00  0.00     0.180 C 
ATOM      4  C   UNL     1      14.701   8.015  15.907  1.00  0.00     0.214 C 
ATOM      5  C   UNL     1      13.731   8.790  16.831  1.00  0.00     0.339 C 
ATOM      6  O   UNL     1      12.392   8.388  16.609  1.00  0.00    -0.332 OA
ENDROOT
BRANCH   1   7
ATOM      7  C   UNL     1      10.470   8.309  15.188  1.00  0.00     0.198 C 
BRANCH   7   8
ATOM      8  O   UNL     1      10.083   8.297  13.822  1.00  0.00    -0.347 OA
BRANCH   8   9
ATOM      9  C   UNL     1       8.891   7.567  13.567  1.00  0.00     0.281 C 
ATOM     10  C   UNL     1       8.062   5.051  12.065  1.00  0.00     0.041 C 
ATOM     11  C   UNL     1       7.590   6.505  11.914  1.00  0.00     0.150 C 
ATOM     12  C   UNL     1       6.264   6.834  12.668  1.00  0.00     0.174 C 
ATOM     13  O   UNL     1       8.635   7.436  12.175  1.00  0.00    -0.344 OA
ATOM     14  C   UNL     1       6.480   7.171  14.155  1.00  0.00     0.179 C 
ATOM     15  C   UNL     1       7.670   8.133  14.334  1.00  0.00     0.202 C 
BRANCH  12  16
ATOM     16  O   UNL     1       5.361   5.764  12.540  1.00  0.00    -0.388 OA
ATOM     17  H   UNL     1       5.652   5.052  13.172  1.00  0.00     0.211 HD
ENDBRANCH  12  16
BRANCH  14  18
ATOM     18  O   UNL     1       6.711   5.993  14.888  1.00  0.00    -0.387 OA
ATOM     19  H   UNL     1       6.575   6.205  15.846  1.00  0.00     0.211 HD
ENDBRANCH  14  18
BRANCH  15  20
ATOM     20  O   UNL     1       7.322   9.436  13.922  1.00  0.00    -0.385 OA
ATOM     21  H   UNL     1       6.851   9.376  13.052  1.00  0.00     0.211 HD
ENDBRANCH  15  20
ENDBRANCH   8   9
ENDBRANCH   7   8
ENDBRANCH   1   7
BRANCH   2  22
ATOM     22  O   UNL     1      12.404   8.305  12.938  1.00  0.00    -0.387 OA
ATOM     23  H   UNL     1      12.716   9.236  12.810  1.00  0.00     0.211 HD
ENDBRANCH   2  22
BRANCH   3  24
ATOM     24  O   UNL     1      14.718   9.415  13.906  1.00  0.00    -0.387 OA
ATOM     25  H   UNL     1      15.708   9.445  13.895  1.00  0.00     0.211 HD
ENDBRANCH   3  24
BRANCH   5  26
ATOM     26  O   UNL     1      13.866  10.212  16.693  1.00  0.00    -0.454 OA
BRANCH  26  27
ATOM     27  C   UNL     1      13.545  11.109  17.721  1.00  0.00     0.214 A 
ATOM     28  C   UNL     1      13.463  12.492  17.473  1.00  0.00     0.180 A 
ATOM     29  C   UNL     1      13.328  10.643  19.020  1.00  0.00     0.239 A 
ATOM     30  O   UNL     1      13.121  13.327  18.444  1.00  0.00    -0.452 OA
ATOM     31  C   UNL     1      12.965  11.557  20.032  1.00  0.00     0.111 A 
ATOM     32  O   UNL     1      13.471   9.417  19.269  1.00  0.00    -0.285 OA
ATOM     33  C   UNL     1      12.862  12.925  19.682  1.00  0.00     0.146 A 
ATOM     34  C   UNL     1      12.705  11.165  21.365  1.00  0.00     0.134 A 
ATOM     35  C   UNL     1      12.492  13.874  20.641  1.00  0.00     0.094 A 
ATOM     36  C   UNL     1      12.338  12.130  22.313  1.00  0.00     0.093 A 
ATOM     37  C   UNL     1      12.233  13.483  21.955  1.00  0.00     0.123 A 
BRANCH  28  38
ATOM     38  C   UNL     1      13.821  13.045  16.164  1.00  0.00     0.025 A 
ATOM     39  C   UNL     1      13.765  14.424  15.940  1.00  0.00     0.062 A 
ATOM     40  C   UNL     1      14.278  12.194  15.148  1.00  0.00     0.016 A 
ATOM     41  C   UNL     1      14.108  14.964  14.692  1.00  0.00     0.158 A 
ATOM     42  C   UNL     1      14.629  12.722  13.901  1.00  0.00     0.051 A 
ATOM     43  C   UNL     1      14.543  14.099  13.659  1.00  0.00     0.157 A 
BRANCH  41  44
ATOM     44  O   UNL     1      14.020  16.350  14.525  1.00  0.00    -0.504 OA
ATOM     45  H   UNL     1      13.985  16.813  13.629  1.00  0.00     0.293 HD
ENDBRANCH  41  44
BRANCH  43  46
ATOM     46  O   UNL     1      14.894  14.556  12.392  1.00  0.00    -0.504 OA
ATOM     47  H   UNL     1      14.598  14.112  11.538  1.00  0.00     0.293 HD
ENDBRANCH  43  46
ENDBRANCH  28  38
BRANCH  34  48
ATOM     48  O   UNL     1      12.803   9.832  21.756  1.00  0.00    -0.507 OA
ATOM     49  H   UNL     1      13.219   9.573  22.644  1.00  0.00     0.293 HD
ENDBRANCH  34  48
BRANCH  37  50
ATOM     50  O   UNL     1      11.881  14.441  22.905  1.00  0.00    -0.508 OA
ATOM     51  H   UNL     1      10.928  14.779  22.988  1.00  0.00     0.293 HD
ENDBRANCH  37  50
ENDBRANCH  26  27
ENDBRANCH   5  26
BRANCH   4  52
ATOM     52  O   UNL     1      16.034   8.411  16.100  1.00  0.00    -0.384 OA
ATOM     53  H   UNL     1      16.552   8.069  15.330  1.00  0.00     0.211 HD
ENDBRANCH   4  52
TORSDOF 16
ENDMDL
MODEL 4
REMARK VINA RESULT:    55.616      2.084      2.423
REMARK INTER + INTRA:          91.479
REMARK INTER:                  91.844
REMARK INTRA:                  -0.365
REMARK UNBOUND:                 0.098
REMARK SMILES C[C@@H]1O[C@@H](OC[C@H]2O[C@H](Oc3c(-c4ccc(O)c(O)c4)oc4cc(O)cc(O)c4c3=O)[C@H](O)[C@H](O)[C@@H]2O)[C@@H](O)[C@H](O)[C@@H]1O
REMARK SMILES IDX 7 1 36 2 34 3 32 4 9 5 8 6 6 7 5 8 4 9 1 10 2 11 42 12 3 13
REMARK SMILES IDX 40 14 38 15 43 16 41 18 39 20 37 22 35 24 10 26 11 27 12 28
REMARK SMILES IDX 30 29 21 30 29 31 31 32 22 33 27 34 23 35 26 36 24 37 13 38
REMARK SMILES IDX 20 39 14 40 18 41 15 42 16 43 19 44 17 46 28 48 25 50 33 52
REMARK H PARENT 43 17 41 19 39 21 37 23 35 25 19 45 17 47 28 49 25 51 33 53
REMARK Flexibility Score: inf
ROOT
ATOM      1  C   UNL     1       9.344   9.051  14.627  1.00  0.00     0.180 C 
ATOM      2  C   UNL     1       9.959   8.686  13.250  1.00  0.00     0.177 C 
ATOM      3  C   UNL     1      11.436   8.245  13.392  1.00  0.00     0.180 C 
ATOM      4  C   UNL     1      11.592   7.237  14.543  1.00  0.00     0.214 C 
ATOM      5  C   UNL     1      10.871   7.723  15.823  1.00  0.00     0.339 C 
ATOM      6  O   UNL     1       9.507   7.996  15.563  1.00  0.00    -0.332 OA
ENDROOT
BRANCH   1   7
ATOM      7  C   UNL     1       7.838   9.336  14.497  1.00  0.00     0.198 C 
BRANCH   7   8
ATOM      8  O   UNL     1       7.417   9.037  13.175  1.00  0.00    -0.347 OA
BRANCH   8   9
ATOM      9  C   UNL     1       6.458   7.991  13.097  1.00  0.00     0.281 C 
ATOM     10  C   UNL     1       6.224   5.075  13.945  1.00  0.00     0.041 C 
ATOM     11  C   UNL     1       6.108   5.724  12.558  1.00  0.00     0.150 C 
ATOM     12  C   UNL     1       4.643   6.003  12.097  1.00  0.00     0.174 C 
ATOM     13  O   UNL     1       6.968   6.850  12.420  1.00  0.00    -0.344 OA
ATOM     14  C   UNL     1       4.077   7.326  12.645  1.00  0.00     0.179 C 
ATOM     15  C   UNL     1       5.107   8.464  12.507  1.00  0.00     0.202 C 
BRANCH  12  16
ATOM     16  O   UNL     1       3.811   4.931  12.465  1.00  0.00    -0.388 OA
ATOM     17  H   UNL     1       4.262   4.445  13.207  1.00  0.00     0.211 HD
ENDBRANCH  12  16
BRANCH  14  18
ATOM     18  O   UNL     1       3.720   7.174  13.997  1.00  0.00    -0.387 OA
ATOM     19  H   UNL     1       4.263   6.433  14.369  1.00  0.00     0.211 HD
ENDBRANCH  14  18
BRANCH  15  20
ATOM     20  O   UNL     1       5.212   8.879  11.164  1.00  0.00    -0.385 OA
ATOM     21  H   UNL     1       6.163   8.818  10.890  1.00  0.00     0.211 HD
ENDBRANCH  15  20
ENDBRANCH   8   9
ENDBRANCH   7   8
ENDBRANCH   1   7
BRANCH   2  22
ATOM     22  O   UNL     1       9.863   9.784  12.376  1.00  0.00    -0.387 OA
ATOM     23  H   UNL     1      10.719  10.277  12.441  1.00  0.00     0.211 HD
ENDBRANCH   2  22
BRANCH   3  24
ATOM     24  O   UNL     1      12.308   9.344  13.537  1.00  0.00    -0.387 OA
ATOM     25  H   UNL     1      11.889  10.000  14.149  1.00  0.00     0.211 HD
ENDBRANCH   3  24
BRANCH   5  26
ATOM     26  O   UNL     1      11.515   8.862  16.412  1.00  0.00    -0.454 OA
BRANCH  26  27
ATOM     27  C   UNL     1      12.358   8.766  17.528  1.00  0.00     0.214 A 
ATOM     28  C   UNL     1      13.720   9.107  17.436  1.00  0.00     0.180 A 
ATOM     29  C   UNL     1      11.860   8.301  18.748  1.00  0.00     0.239 A 
ATOM     30  O   UNL     1      14.499   9.049  18.507  1.00  0.00    -0.452 OA
ATOM     31  C   UNL     1      12.714   8.252  19.870  1.00  0.00     0.111 A 
ATOM     32  O   UNL     1      10.661   7.925  18.824  1.00  0.00    -0.285 OA
ATOM     33  C   UNL     1      14.060   8.658  19.696  1.00  0.00     0.146 A 
ATOM     34  C   UNL     1      12.284   7.818  21.145  1.00  0.00     0.134 A 
ATOM     35  C   UNL     1      14.947   8.642  20.777  1.00  0.00     0.094 A 
ATOM     36  C   UNL     1      13.189   7.807  22.216  1.00  0.00     0.093 A 
ATOM     37  C   UNL     1      14.519   8.215  22.035  1.00  0.00     0.123 A 
BRANCH  28  38
ATOM     38  C   UNL     1      14.323   9.462  16.148  1.00  0.00     0.025 A 
ATOM     39  C   UNL     1      14.283  10.783  15.690  1.00  0.00     0.062 A 
ATOM     40  C   UNL     1      14.994   8.486  15.398  1.00  0.00     0.016 A 
ATOM     41  C   UNL     1      14.860  11.134  14.460  1.00  0.00     0.158 A 
ATOM     42  C   UNL     1      15.578   8.826  14.174  1.00  0.00     0.051 A 
ATOM     43  C   UNL     1      15.513  10.140  13.692  1.00  0.00     0.157 A 
BRANCH  41  44
ATOM     44  O   UNL     1      14.778  12.468  14.050  1.00  0.00    -0.504 OA
ATOM     45  H   UNL     1      14.713  13.253  14.682  1.00  0.00     0.293 HD
ENDBRANCH  41  44
BRANCH  43  46
ATOM     46  O   UNL     1      16.103  10.407  12.459  1.00  0.00    -0.504 OA
ATOM     47  H   UNL     1      15.982  11.272  11.959  1.00  0.00     0.293 HD
ENDBRANCH  43  46
ENDBRANCH  28  38
BRANCH  34  48
ATOM     48  O   UNL     1      10.972   7.402  21.361  1.00  0.00    -0.507 OA
ATOM     49  H   UNL     1      10.325   7.280  20.589  1.00  0.00     0.293 HD
ENDBRANCH  34  48
BRANCH  37  50
ATOM     50  O   UNL     1      15.419   8.190  23.100  1.00  0.00    -0.508 OA
ATOM     51  H   UNL     1      15.537   7.361  23.674  1.00  0.00     0.293 HD
ENDBRANCH  37  50
ENDBRANCH  26  27
ENDBRANCH   5  26
BRANCH   4  52
ATOM     52  O   UNL     1      12.951   6.976  14.777  1.00  0.00    -0.384 OA
ATOM     53  H   UNL     1      13.040   6.000  14.907  1.00  0.00     0.211 HD
ENDBRANCH   4  52
TORSDOF 16
ENDMDL
MODEL 5
REMARK VINA RESULT:    55.820      2.048      8.304
REMARK INTER + INTRA:          91.813
REMARK INTER:                  90.847
REMARK INTRA:                   0.966
REMARK UNBOUND:                 0.098
REMARK SMILES C[C@@H]1O[C@@H](OC[C@H]2O[C@H](Oc3c(-c4ccc(O)c(O)c4)oc4cc(O)cc(O)c4c3=O)[C@H](O)[C@H](O)[C@@H]2O)[C@@H](O)[C@H](O)[C@@H]1O
REMARK SMILES IDX 7 1 36 2 34 3 32 4 9 5 8 6 6 7 5 8 4 9 1 10 2 11 42 12 3 13
REMARK SMILES IDX 40 14 38 15 43 16 41 18 39 20 37 22 35 24 10 26 11 27 12 28
REMARK SMILES IDX 30 29 21 30 29 31 31 32 22 33 27 34 23 35 26 36 24 37 13 38
REMARK SMILES IDX 20 39 14 40 18 41 15 42 16 43 19 44 17 46 28 48 25 50 33 52
REMARK H PARENT 43 17 41 19 39 21 37 23 35 25 19 45 17 47 28 49 25 51 33 53
REMARK Flexibility Score: inf
ROOT
ATOM      1  C   UNL     1      14.293  10.256  14.223  1.00  0.00     0.180 C 
ATOM      2  C   UNL     1      15.430   9.559  15.016  1.00  0.00     0.177 C 
ATOM      3  C   UNL     1      14.897   8.350  15.823  1.00  0.00     0.180 C 
ATOM      4  C   UNL     1      13.986   7.474  14.947  1.00  0.00     0.214 C 
ATOM      5  C   UNL     1      12.948   8.328  14.178  1.00  0.00     0.339 C 
ATOM      6  O   UNL     1      13.587   9.330  13.410  1.00  0.00    -0.332 OA
ENDROOT
BRANCH   1   7
ATOM      7  C   UNL     1      14.855  11.354  13.306  1.00  0.00     0.198 C 
BRANCH   7   8
ATOM      8  O   UNL     1      14.880  12.586  14.012  1.00  0.00    -0.347 OA
BRANCH   8   9
ATOM      9  C   UNL     1      14.145  13.627  13.383  1.00  0.00     0.281 C 
ATOM     10  C   UNL     1      12.460  14.005  10.875  1.00  0.00     0.041 C 
ATOM     11  C   UNL     1      13.721  14.741  11.351  1.00  0.00     0.150 C 
ATOM     12  C   UNL     1      13.443  16.089  12.084  1.00  0.00     0.174 C 
ATOM     13  O   UNL     1      14.606  13.882  12.063  1.00  0.00    -0.344 OA
ATOM     14  C   UNL     1      13.114  15.910  13.578  1.00  0.00     0.179 C 
ATOM     15  C   UNL     1      14.087  14.916  14.240  1.00  0.00     0.202 C 
BRANCH  12  16
ATOM     16  O   UNL     1      12.402  16.781  11.439  1.00  0.00    -0.388 OA
ATOM     17  H   UNL     1      11.998  17.400  12.106  1.00  0.00     0.211 HD
ENDBRANCH  12  16
BRANCH  14  18
ATOM     18  O   UNL     1      11.793  15.450  13.729  1.00  0.00    -0.387 OA
ATOM     19  H   UNL     1      11.827  14.613  14.259  1.00  0.00     0.211 HD
ENDBRANCH  14  18
BRANCH  15  20
ATOM     20  O   UNL     1      15.354  15.508  14.424  1.00  0.00    -0.385 OA
ATOM     21  H   UNL     1      15.854  15.452  13.570  1.00  0.00     0.211 HD
ENDBRANCH  15  20
ENDBRANCH   8   9
ENDBRANCH   7   8
ENDBRANCH   1   7
BRANCH   2  22
ATOM     22  O   UNL     1      16.048  10.483  15.880  1.00  0.00    -0.387 OA
ATOM     23  H   UNL     1      16.264   9.997  16.714  1.00  0.00     0.211 HD
ENDBRANCH   2  22
BRANCH   3  24
ATOM     24  O   UNL     1      14.253   8.748  17.014  1.00  0.00    -0.387 OA
ATOM     25  H   UNL     1      14.542   9.669  17.235  1.00  0.00     0.211 HD
ENDBRANCH   3  24
BRANCH   5  26
ATOM     26  O   UNL     1      11.963   8.903  15.049  1.00  0.00    -0.454 OA
BRANCH  26  27
ATOM     27  C   UNL     1      10.599   8.593  14.963  1.00  0.00     0.214 A 
ATOM     28  C   UNL     1       9.774   8.642  16.102  1.00  0.00     0.180 A 
ATOM     29  C   UNL     1      10.042   8.199  13.744  1.00  0.00     0.239 A 
ATOM     30  O   UNL     1       8.478   8.385  16.003  1.00  0.00    -0.452 OA
ATOM     31  C   UNL     1       8.659   7.932  13.669  1.00  0.00     0.111 A 
ATOM     32  O   UNL     1      10.785   8.080  12.735  1.00  0.00    -0.285 OA
ATOM     33  C   UNL     1       7.896   8.053  14.857  1.00  0.00     0.146 A 
ATOM     34  C   UNL     1       8.012   7.554  12.471  1.00  0.00     0.134 A 
ATOM     35  C   UNL     1       6.518   7.813  14.838  1.00  0.00     0.094 A 
ATOM     36  C   UNL     1       6.630   7.315  12.472  1.00  0.00     0.093 A 
ATOM     37  C   UNL     1       5.883   7.442  13.653  1.00  0.00     0.123 A 
BRANCH  28  38
ATOM     38  C   UNL     1      10.337   8.909  17.429  1.00  0.00     0.025 A 
ATOM     39  C   UNL     1       9.499   9.234  18.500  1.00  0.00     0.062 A 
ATOM     40  C   UNL     1      11.716   8.779  17.641  1.00  0.00     0.016 A 
ATOM     41  C   UNL     1      10.027   9.488  19.775  1.00  0.00     0.158 A 
ATOM     42  C   UNL     1      12.253   9.023  18.909  1.00  0.00     0.051 A 
ATOM     43  C   UNL     1      11.423   9.383  19.979  1.00  0.00     0.157 A 
BRANCH  41  44
ATOM     44  O   UNL     1       9.139   9.821  20.803  1.00  0.00    -0.504 OA
ATOM     45  H   UNL     1       8.335  10.421  20.686  1.00  0.00     0.293 HD
ENDBRANCH  41  44
BRANCH  43  46
ATOM     46  O   UNL     1      12.025   9.626  21.211  1.00  0.00    -0.504 OA
ATOM     47  H   UNL     1      12.646   8.976  21.666  1.00  0.00     0.293 HD
ENDBRANCH  43  46
ENDBRANCH  28  38
BRANCH  34  48
ATOM     48  O   UNL     1       8.723   7.415  11.281  1.00  0.00    -0.507 OA
ATOM     49  H   UNL     1       9.395   8.114  10.985  1.00  0.00     0.293 HD
ENDBRANCH  34  48
BRANCH  37  50
ATOM     50  O   UNL     1       4.511   7.191  13.652  1.00  0.00    -0.508 OA
ATOM     51  H   UNL     1       3.960   7.258  14.502  1.00  0.00     0.293 HD
ENDBRANCH  37  50
ENDBRANCH  26  27
ENDBRANCH   5  26
BRANCH   4  52
ATOM     52  O   UNL     1      13.371   6.484  15.728  1.00  0.00    -0.384 OA
ATOM     53  H   UNL     1      12.583   6.165  15.223  1.00  0.00     0.211 HD
ENDBRANCH   4  52
TORSDOF 16
ENDMDL
