MODEL 1
REMARK VINA RESULT:    -4.198      0.000      0.000
REMARK INTER + INTRA:         -10.139
REMARK INTER:                  -7.879
REMARK INTRA:                  -2.260
REMARK UNBOUND:                -2.260
REMARK SMILES CCCCCCCCC=CCCCCCCCC(=O)[O-]
REMARK SMILES IDX 10 1 9 2 11 3 12 4 13 5 14 6 15 7 16 8 17 9 18 10 19 11
REMARK SMILES IDX 20 12 8 13 7 14 6 15 5 16 4 17 3 18 2 19 1 20
REMARK H PARENT
REMARK Flexibility Score: inf
ROOT
ATOM      1  C   UNL     1      -0.957   4.043   4.872  1.00  0.00    -0.031 C 
ATOM      2  C   UNL     1      -1.402   2.851   5.313  1.00  0.00    -0.031 C 
ENDROOT
BRANCH   1   3
ATOM      3  C   UNL     1      -0.702   5.241   5.752  1.00  0.00     0.027 C 
BRANCH   3   4
ATOM      4  C   UNL     1       0.783   5.630   5.722  1.00  0.00     0.004 C 
BRANCH   4   5
ATOM      5  C   UNL     1       1.705   4.479   6.157  1.00  0.00     0.000 C 
BRANCH   5   6
ATOM      6  C   UNL     1       1.732   4.287   7.680  1.00  0.00     0.000 C 
BRANCH   6   7
ATOM      7  C   UNL     1       1.822   2.797   8.042  1.00  0.00     0.000 C 
BRANCH   7   8
ATOM      8  C   UNL     1       1.991   1.891   6.808  1.00  0.00     0.006 C 
BRANCH   8   9
ATOM      9  C   UNL     1       3.024   0.766   6.986  1.00  0.00     0.053 C 
BRANCH   9  10
ATOM     10  C   UNL     1       2.415  -0.588   6.789  1.00  0.00     0.041 C 
ATOM     11  O   UNL     1       1.856  -1.178   7.751  1.00  0.00    -0.550 OA
ATOM     12  O   UNL     1       2.437  -1.185   5.535  1.00  0.00    -0.550 OA
ENDBRANCH   9  10
ENDBRANCH   8   9
ENDBRANCH   7   8
ENDBRANCH   6   7
ENDBRANCH   5   6
ENDBRANCH   4   5
ENDBRANCH   3   4
ENDBRANCH   1   3
BRANCH   2  13
ATOM     13  C   UNL     1      -1.623   2.499   6.764  1.00  0.00     0.027 C 
BRANCH  13  14
ATOM     14  C   UNL     1      -3.085   2.709   7.196  1.00  0.00     0.004 C 
BRANCH  14  15
ATOM     15  C   UNL     1      -4.085   2.806   6.028  1.00  0.00     0.000 C 
BRANCH  15  16
ATOM     16  C   UNL     1      -4.934   4.088   6.075  1.00  0.00     0.000 C 
BRANCH  16  17
ATOM     17  C   UNL     1      -4.269   5.207   6.893  1.00  0.00    -0.000 C 
BRANCH  17  18
ATOM     18  C   UNL     1      -4.007   6.475   6.063  1.00  0.00    -0.000 C 
BRANCH  18  19
ATOM     19  C   UNL     1      -4.965   6.605   4.868  1.00  0.00    -0.003 C 
ATOM     20  C   UNL     1      -5.174   8.055   4.434  1.00  0.00     0.004 C 
ENDBRANCH  18  19
ENDBRANCH  17  18
ENDBRANCH  16  17
ENDBRANCH  15  16
ENDBRANCH  14  15
ENDBRANCH  13  14
ENDBRANCH   2  13
TORSDOF 15
ENDMDL
MODEL 2
REMARK VINA RESULT:    -4.185     13.560     15.419
REMARK INTER + INTRA:         -10.115
REMARK INTER:                  -7.107
REMARK INTRA:                  -3.008
REMARK UNBOUND:                -2.260
REMARK SMILES CCCCCCCCC=CCCCCCCCC(=O)[O-]
REMARK SMILES IDX 10 1 9 2 11 3 12 4 13 5 14 6 15 7 16 8 17 9 18 10 19 11
REMARK SMILES IDX 20 12 8 13 7 14 6 15 5 16 4 17 3 18 2 19 1 20
REMARK H PARENT
REMARK Flexibility Score: inf
ROOT
ATOM      1  C   UNL     1      -5.152  -0.341  -7.452  1.00  0.00    -0.031 C 
ATOM      2  C   UNL     1      -4.003   0.045  -6.865  1.00  0.00    -0.031 C 
ENDROOT
BRANCH   1   3
ATOM      3  C   UNL     1      -5.962  -1.544  -7.039  1.00  0.00     0.027 C 
BRANCH   3   4
ATOM      4  C   UNL     1      -5.577  -2.771  -7.877  1.00  0.00     0.004 C 
BRANCH   4   5
ATOM      5  C   UNL     1      -5.035  -3.926  -7.019  1.00  0.00     0.000 C 
BRANCH   5   6
ATOM      6  C   UNL     1      -5.275  -3.711  -5.518  1.00  0.00     0.000 C 
BRANCH   6   7
ATOM      7  C   UNL     1      -4.033  -4.102  -4.703  1.00  0.00     0.000 C 
BRANCH   7   8
ATOM      8  C   UNL     1      -4.326  -5.182  -3.645  1.00  0.00     0.006 C 
BRANCH   8   9
ATOM      9  C   UNL     1      -4.434  -6.608  -4.210  1.00  0.00     0.053 C 
BRANCH   9  10
ATOM     10  C   UNL     1      -5.827  -7.146  -4.103  1.00  0.00     0.041 C 
ATOM     11  O   UNL     1      -6.202  -7.732  -3.054  1.00  0.00    -0.550 OA
ATOM     12  O   UNL     1      -6.722  -6.974  -5.152  1.00  0.00    -0.550 OA
ENDBRANCH   9  10
ENDBRANCH   8   9
ENDBRANCH   7   8
ENDBRANCH   6   7
ENDBRANCH   5   6
ENDBRANCH   4   5
ENDBRANCH   3   4
ENDBRANCH   1   3
BRANCH   2  13
ATOM     13  C   UNL     1      -3.398  -0.608  -5.647  1.00  0.00     0.027 C 
BRANCH  13  14
ATOM     14  C   UNL     1      -2.059  -1.298  -5.961  1.00  0.00     0.004 C 
BRANCH  14  15
ATOM     15  C   UNL     1      -1.732  -1.395  -7.463  1.00  0.00     0.000 C 
BRANCH  15  16
ATOM     16  C   UNL     1      -1.667  -2.847  -7.967  1.00  0.00     0.000 C 
BRANCH  16  17
ATOM     17  C   UNL     1      -0.601  -3.679  -7.235  1.00  0.00    -0.000 C 
BRANCH  17  18
ATOM     18  C   UNL     1      -1.164  -4.988  -6.655  1.00  0.00    -0.000 C 
BRANCH  18  19
ATOM     19  C   UNL     1      -0.525  -5.358  -5.307  1.00  0.00    -0.003 C 
ATOM     20  C   UNL     1      -0.313  -4.144  -4.403  1.00  0.00     0.004 C 
ENDBRANCH  18  19
ENDBRANCH  17  18
ENDBRANCH  16  17
ENDBRANCH  15  16
ENDBRANCH  14  15
ENDBRANCH  13  14
ENDBRANCH   2  13
TORSDOF 15
ENDMDL
MODEL 3
REMARK VINA RESULT:    -4.163      1.344      2.237
REMARK INTER + INTRA:         -10.073
REMARK INTER:                  -7.212
REMARK INTRA:                  -2.861
REMARK UNBOUND:                -2.260
REMARK SMILES CCCCCCCCC=CCCCCCCCC(=O)[O-]
REMARK SMILES IDX 10 1 9 2 11 3 12 4 13 5 14 6 15 7 16 8 17 9 18 10 19 11
REMARK SMILES IDX 20 12 8 13 7 14 6 15 5 16 4 17 3 18 2 19 1 20
REMARK H PARENT
REMARK Flexibility Score: inf
ROOT
ATOM      1  C   UNL     1       0.593   5.755   6.225  1.00  0.00    -0.031 C 
ATOM      2  C   UNL     1       0.398   4.875   5.225  1.00  0.00    -0.031 C 
ENDROOT
BRANCH   1   3
ATOM      3  C   UNL     1      -0.508   6.363   7.057  1.00  0.00     0.027 C 
BRANCH   3   4
ATOM      4  C   UNL     1      -0.649   5.623   8.395  1.00  0.00     0.004 C 
BRANCH   4   5
ATOM      5  C   UNL     1       0.644   4.906   8.812  1.00  0.00     0.000 C 
BRANCH   5   6
ATOM      6  C   UNL     1       0.449   3.394   8.999  1.00  0.00     0.000 C 
BRANCH   6   7
ATOM      7  C   UNL     1       1.425   2.603   8.116  1.00  0.00     0.000 C 
BRANCH   7   8
ATOM      8  C   UNL     1       0.972   1.151   7.875  1.00  0.00     0.006 C 
BRANCH   8   9
ATOM      9  C   UNL     1       2.119   0.127   7.848  1.00  0.00     0.053 C 
BRANCH   9  10
ATOM     10  C   UNL     1       2.799   0.085   6.515  1.00  0.00     0.041 C 
ATOM     11  O   UNL     1       2.385  -0.694   5.616  1.00  0.00    -0.550 OA
ATOM     12  O   UNL     1       3.872   0.927   6.254  1.00  0.00    -0.550 OA
ENDBRANCH   9  10
ENDBRANCH   8   9
ENDBRANCH   7   8
ENDBRANCH   6   7
ENDBRANCH   5   6
ENDBRANCH   4   5
ENDBRANCH   3   4
ENDBRANCH   1   3
BRANCH   2  13
ATOM     13  C   UNL     1      -0.940   4.289   4.844  1.00  0.00     0.027 C 
BRANCH  13  14
ATOM     14  C   UNL     1      -1.113   2.851   5.363  1.00  0.00     0.004 C 
BRANCH  14  15
ATOM     15  C   UNL     1      -2.541   2.512   5.830  1.00  0.00     0.000 C 
BRANCH  15  16
ATOM     16  C   UNL     1      -2.786   2.867   7.306  1.00  0.00     0.000 C 
BRANCH  16  17
ATOM     17  C   UNL     1      -3.908   3.903   7.486  1.00  0.00    -0.000 C 
BRANCH  17  18
ATOM     18  C   UNL     1      -4.848   3.979   6.271  1.00  0.00    -0.000 C 
BRANCH  18  19
ATOM     19  C   UNL     1      -5.130   5.425   5.834  1.00  0.00    -0.003 C 
ATOM     20  C   UNL     1      -3.903   6.329   5.960  1.00  0.00     0.004 C 
ENDBRANCH  18  19
ENDBRANCH  17  18
ENDBRANCH  16  17
ENDBRANCH  15  16
ENDBRANCH  14  15
ENDBRANCH  13  14
ENDBRANCH   2  13
TORSDOF 15
ENDMDL
MODEL 4
REMARK VINA RESULT:    -4.090      3.143      7.458
REMARK INTER + INTRA:          -9.937
REMARK INTER:                  -7.664
REMARK INTRA:                  -2.273
REMARK UNBOUND:                -2.260
REMARK SMILES CCCCCCCCC=CCCCCCCCC(=O)[O-]
REMARK SMILES IDX 10 1 9 2 11 3 12 4 13 5 14 6 15 7 16 8 17 9 18 10 19 11
REMARK SMILES IDX 20 12 8 13 7 14 6 15 5 16 4 17 3 18 2 19 1 20
REMARK H PARENT
REMARK Flexibility Score: inf
ROOT
ATOM      1  C   UNL     1       3.675   3.704   6.550  1.00  0.00    -0.031 C 
ATOM      2  C   UNL     1       4.922   3.199   6.494  1.00  0.00    -0.031 C 
ENDROOT
BRANCH   1   3
ATOM      3  C   UNL     1       3.085   4.396   7.753  1.00  0.00     0.027 C 
BRANCH   3   4
ATOM      4  C   UNL     1       1.551   4.396   7.680  1.00  0.00     0.004 C 
BRANCH   4   5
ATOM      5  C   UNL     1       1.009   5.374   6.627  1.00  0.00     0.000 C 
BRANCH   5   6
ATOM      6  C   UNL     1       0.161   4.678   5.553  1.00  0.00     0.000 C 
BRANCH   6   7
ATOM      7  C   UNL     1      -0.002   3.183   5.868  1.00  0.00     0.000 C 
BRANCH   7   8
ATOM      8  C   UNL     1      -1.436   2.675   5.635  1.00  0.00     0.006 C 
BRANCH   8   9
ATOM      9  C   UNL     1      -2.524   3.746   5.818  1.00  0.00     0.053 C 
BRANCH   9  10
ATOM     10  C   UNL     1      -3.893   3.143   5.902  1.00  0.00     0.041 C 
ATOM     11  O   UNL     1      -4.085   1.954   5.536  1.00  0.00    -0.550 OA
ATOM     12  O   UNL     1      -4.949   3.885   6.413  1.00  0.00    -0.550 OA
ENDBRANCH   9  10
ENDBRANCH   8   9
ENDBRANCH   7   8
ENDBRANCH   6   7
ENDBRANCH   5   6
ENDBRANCH   4   5
ENDBRANCH   3   4
ENDBRANCH   1   3
BRANCH   2  13
ATOM     13  C   UNL     1       5.953   3.330   7.589  1.00  0.00     0.027 C 
BRANCH  13  14
ATOM     14  C   UNL     1       5.923   2.137   8.560  1.00  0.00     0.004 C 
BRANCH  14  15
ATOM     15  C   UNL     1       5.896   0.758   7.873  1.00  0.00     0.000 C 
BRANCH  15  16
ATOM     16  C   UNL     1       4.709  -0.109   8.323  1.00  0.00     0.000 C 
BRANCH  16  17
ATOM     17  C   UNL     1       3.533   0.728   8.853  1.00  0.00    -0.000 C 
BRANCH  17  18
ATOM     18  C   UNL     1       2.191   0.345   8.206  1.00  0.00    -0.000 C 
BRANCH  18  19
ATOM     19  C   UNL     1       2.250   0.371   6.670  1.00  0.00    -0.003 C 
ATOM     20  C   UNL     1       2.216  -1.028   6.055  1.00  0.00     0.004 C 
ENDBRANCH  18  19
ENDBRANCH  17  18
ENDBRANCH  16  17
ENDBRANCH  15  16
ENDBRANCH  14  15
ENDBRANCH  13  14
ENDBRANCH   2  13
TORSDOF 15
ENDMDL
MODEL 5
REMARK VINA RESULT:    -4.064     13.515     14.961
REMARK INTER + INTRA:          -9.889
REMARK INTER:                  -6.774
REMARK INTRA:                  -3.115
REMARK UNBOUND:                -2.260
REMARK SMILES CCCCCCCCC=CCCCCCCCC(=O)[O-]
REMARK SMILES IDX 10 1 9 2 11 3 12 4 13 5 14 6 15 7 16 8 17 9 18 10 19 11
REMARK SMILES IDX 20 12 8 13 7 14 6 15 5 16 4 17 3 18 2 19 1 20
REMARK H PARENT
REMARK Flexibility Score: inf
ROOT
ATOM      1  C   UNL     1      -2.253  -1.612  -5.528  1.00  0.00    -0.031 C 
ATOM      2  C   UNL     1      -3.384  -0.883  -5.592  1.00  0.00    -0.031 C 
ENDROOT
BRANCH   1   3
ATOM      3  C   UNL     1      -1.108  -1.502  -6.502  1.00  0.00     0.027 C 
BRANCH   3   4
ATOM      4  C   UNL     1      -0.109  -2.650  -6.296  1.00  0.00     0.004 C 
BRANCH   4   5
ATOM      5  C   UNL     1      -0.283  -3.348  -4.937  1.00  0.00     0.000 C 
BRANCH   5   6
ATOM      6  C   UNL     1      -0.319  -4.878  -5.059  1.00  0.00     0.000 C 
BRANCH   6   7
ATOM      7  C   UNL     1      -1.767  -5.389  -5.106  1.00  0.00     0.000 C 
BRANCH   7   8
ATOM      8  C   UNL     1      -2.600  -4.940  -3.891  1.00  0.00     0.006 C 
BRANCH   8   9
ATOM      9  C   UNL     1      -4.072  -4.633  -4.212  1.00  0.00     0.053 C 
BRANCH   9  10
ATOM     10  C   UNL     1      -4.905  -5.877  -4.258  1.00  0.00     0.041 C 
ATOM     11  O   UNL     1      -5.333  -6.313  -5.359  1.00  0.00    -0.550 OA
ATOM     12  O   UNL     1      -5.182  -6.572  -3.088  1.00  0.00    -0.550 OA
ENDBRANCH   9  10
ENDBRANCH   8   9
ENDBRANCH   7   8
ENDBRANCH   6   7
ENDBRANCH   5   6
ENDBRANCH   4   5
ENDBRANCH   3   4
ENDBRANCH   1   3
BRANCH   2  13
ATOM     13  C   UNL     1      -3.640   0.221  -6.589  1.00  0.00     0.027 C 
BRANCH  13  14
ATOM     14  C   UNL     1      -4.758  -0.142  -7.582  1.00  0.00     0.004 C 
BRANCH  14  15
ATOM     15  C   UNL     1      -5.784  -1.156  -7.042  1.00  0.00     0.000 C 
BRANCH  15  16
ATOM     16  C   UNL     1      -5.946  -2.384  -7.955  1.00  0.00     0.000 C 
BRANCH  16  17
ATOM     17  C   UNL     1      -4.618  -2.825  -8.592  1.00  0.00    -0.000 C 
BRANCH  17  18
ATOM     18  C   UNL     1      -3.913  -3.932  -7.789  1.00  0.00    -0.000 C 
BRANCH  18  19
ATOM     19  C   UNL     1      -2.692  -4.507  -8.526  1.00  0.00    -0.003 C 
ATOM     20  C   UNL     1      -2.036  -3.491  -9.460  1.00  0.00     0.004 C 
ENDBRANCH  18  19
ENDBRANCH  17  18
ENDBRANCH  16  17
ENDBRANCH  15  16
ENDBRANCH  14  15
ENDBRANCH  13  14
ENDBRANCH   2  13
TORSDOF 15
ENDMDL
MODEL 6
REMARK VINA RESULT:    -4.059     13.423     15.061
REMARK INTER + INTRA:          -9.879
REMARK INTER:                  -7.352
REMARK INTRA:                  -2.527
REMARK UNBOUND:                -2.260
REMARK SMILES CCCCCCCCC=CCCCCCCCC(=O)[O-]
REMARK SMILES IDX 10 1 9 2 11 3 12 4 13 5 14 6 15 7 16 8 17 9 18 10 19 11
REMARK SMILES IDX 20 12 8 13 7 14 6 15 5 16 4 17 3 18 2 19 1 20
REMARK H PARENT
REMARK Flexibility Score: inf
ROOT
ATOM      1  C   UNL     1      -6.617  -2.894  -7.239  1.00  0.00    -0.031 C 
ATOM      2  C   UNL     1      -6.041  -4.020  -6.776  1.00  0.00    -0.031 C 
ENDROOT
BRANCH   1   3
ATOM      3  C   UNL     1      -6.072  -1.504  -7.029  1.00  0.00     0.027 C 
BRANCH   3   4
ATOM      4  C   UNL     1      -5.201  -1.077  -8.220  1.00  0.00     0.004 C 
BRANCH   4   5
ATOM      5  C   UNL     1      -3.764  -0.726  -7.805  1.00  0.00     0.000 C 
BRANCH   5   6
ATOM      6  C   UNL     1      -3.682  -0.148  -6.385  1.00  0.00     0.000 C 
BRANCH   6   7
ATOM      7  C   UNL     1      -2.746  -0.991  -5.504  1.00  0.00     0.000 C 
BRANCH   7   8
ATOM      8  C   UNL     1      -1.837  -1.926  -6.322  1.00  0.00     0.006 C 
BRANCH   8   9
ATOM      9  C   UNL     1      -0.567  -2.378  -5.583  1.00  0.00     0.053 C 
BRANCH   9  10
ATOM     10  C   UNL     1      -0.794  -3.634  -4.799  1.00  0.00     0.041 C 
ATOM     11  O   UNL     1      -0.910  -4.739  -5.391  1.00  0.00    -0.550 OA
ATOM     12  O   UNL     1      -0.845  -3.588  -3.412  1.00  0.00    -0.550 OA
ENDBRANCH   9  10
ENDBRANCH   8   9
ENDBRANCH   7   8
ENDBRANCH   6   7
ENDBRANCH   5   6
ENDBRANCH   4   5
ENDBRANCH   3   4
ENDBRANCH   1   3
BRANCH   2  13
ATOM     13  C   UNL     1      -4.715  -4.074  -6.058  1.00  0.00     0.027 C 
BRANCH  13  14
ATOM     14  C   UNL     1      -4.866  -3.868  -4.541  1.00  0.00     0.004 C 
BRANCH  14  15
ATOM     15  C   UNL     1      -4.246  -4.987  -3.683  1.00  0.00     0.000 C 
BRANCH  15  16
ATOM     16  C   UNL     1      -3.902  -6.244  -4.499  1.00  0.00     0.000 C 
BRANCH  16  17
ATOM     17  C   UNL     1      -4.475  -7.528  -3.877  1.00  0.00    -0.000 C 
BRANCH  17  18
ATOM     18  C   UNL     1      -6.011  -7.512  -3.789  1.00  0.00    -0.000 C 
BRANCH  18  19
ATOM     19  C   UNL     1      -6.678  -7.390  -5.169  1.00  0.00    -0.003 C 
ATOM     20  C   UNL     1      -6.339  -8.559  -6.093  1.00  0.00     0.004 C 
ENDBRANCH  18  19
ENDBRANCH  17  18
ENDBRANCH  16  17
ENDBRANCH  15  16
ENDBRANCH  14  15
ENDBRANCH  13  14
ENDBRANCH   2  13
TORSDOF 15
ENDMDL
MODEL 7
REMARK VINA RESULT:    -4.037      1.594      2.339
REMARK INTER + INTRA:          -9.837
REMARK INTER:                  -6.729
REMARK INTRA:                  -3.109
REMARK UNBOUND:                -2.260
REMARK SMILES CCCCCCCCC=CCCCCCCCC(=O)[O-]
REMARK SMILES IDX 10 1 9 2 11 3 12 4 13 5 14 6 15 7 16 8 17 9 18 10 19 11
REMARK SMILES IDX 20 12 8 13 7 14 6 15 5 16 4 17 3 18 2 19 1 20
REMARK H PARENT
REMARK Flexibility Score: inf
ROOT
ATOM      1  C   UNL     1      -2.697   2.499   5.535  1.00  0.00    -0.031 C 
ATOM      2  C   UNL     1      -3.286   2.434   6.744  1.00  0.00    -0.031 C 
ENDROOT
BRANCH   1   3
ATOM      3  C   UNL     1      -1.219   2.693   5.312  1.00  0.00     0.027 C 
BRANCH   3   4
ATOM      4  C   UNL     1      -0.893   4.178   5.096  1.00  0.00     0.004 C 
BRANCH   4   5
ATOM      5  C   UNL     1       0.179   4.696   6.068  1.00  0.00     0.000 C 
BRANCH   5   6
ATOM      6  C   UNL     1       1.322   3.691   6.277  1.00  0.00     0.000 C 
BRANCH   6   7
ATOM      7  C   UNL     1       1.321   3.155   7.717  1.00  0.00     0.000 C 
BRANCH   7   8
ATOM      8  C   UNL     1       1.107   1.631   7.787  1.00  0.00     0.006 C 
BRANCH   8   9
ATOM      9  C   UNL     1       1.885   0.834   6.727  1.00  0.00     0.053 C 
BRANCH   9  10
ATOM     10  C   UNL     1       3.359   0.843   6.992  1.00  0.00     0.041 C 
ATOM     11  O   UNL     1       3.835   0.181   7.952  1.00  0.00    -0.550 OA
ATOM     12  O   UNL     1       4.211   1.558   6.160  1.00  0.00    -0.550 OA
ENDBRANCH   9  10
ENDBRANCH   8   9
ENDBRANCH   7   8
ENDBRANCH   6   7
ENDBRANCH   5   6
ENDBRANCH   4   5
ENDBRANCH   3   4
ENDBRANCH   1   3
BRANCH   2  13
ATOM     13  C   UNL     1      -2.549   2.450   8.061  1.00  0.00     0.027 C 
BRANCH  13  14
ATOM     14  C   UNL     1      -2.952   3.648   8.938  1.00  0.00     0.004 C 
BRANCH  14  15
ATOM     15  C   UNL     1      -1.848   4.709   9.111  1.00  0.00     0.000 C 
BRANCH  15  16
ATOM     16  C   UNL     1      -2.177   6.033   8.402  1.00  0.00     0.000 C 
BRANCH  16  17
ATOM     17  C   UNL     1      -3.562   6.018   7.734  1.00  0.00    -0.000 C 
BRANCH  17  18
ATOM     18  C   UNL     1      -3.491   6.246   6.214  1.00  0.00    -0.000 C 
BRANCH  18  19
ATOM     19  C   UNL     1      -4.847   6.030   5.522  1.00  0.00    -0.003 C 
ATOM     20  C   UNL     1      -5.746   5.055   6.280  1.00  0.00     0.004 C 
ENDBRANCH  18  19
ENDBRANCH  17  18
ENDBRANCH  16  17
ENDBRANCH  15  16
ENDBRANCH  14  15
ENDBRANCH  13  14
ENDBRANCH   2  13
TORSDOF 15
ENDMDL
MODEL 8
REMARK VINA RESULT:    -4.033     13.204     14.694
REMARK INTER + INTRA:          -9.830
REMARK INTER:                  -6.842
REMARK INTRA:                  -2.988
REMARK UNBOUND:                -2.260
REMARK SMILES CCCCCCCCC=CCCCCCCCC(=O)[O-]
REMARK SMILES IDX 10 1 9 2 11 3 12 4 13 5 14 6 15 7 16 8 17 9 18 10 19 11
REMARK SMILES IDX 20 12 8 13 7 14 6 15 5 16 4 17 3 18 2 19 1 20
REMARK H PARENT
REMARK Flexibility Score: inf
ROOT
ATOM      1  C   UNL     1      -3.950  -0.048  -7.052  1.00  0.00    -0.031 C 
ATOM      2  C   UNL     1      -5.074  -0.628  -7.514  1.00  0.00    -0.031 C 
ENDROOT
BRANCH   1   3
ATOM      3  C   UNL     1      -3.395  -0.240  -5.663  1.00  0.00     0.027 C 
BRANCH   3   4
ATOM      4  C   UNL     1      -2.368  -1.381  -5.642  1.00  0.00     0.004 C 
BRANCH   4   5
ATOM      5  C   UNL     1      -1.449  -1.372  -6.874  1.00  0.00     0.000 C 
BRANCH   5   6
ATOM      6  C   UNL     1      -1.442  -2.716  -7.617  1.00  0.00     0.000 C 
BRANCH   6   7
ATOM      7  C   UNL     1      -2.179  -3.792  -6.806  1.00  0.00     0.000 C 
BRANCH   7   8
ATOM      8  C   UNL     1      -1.368  -5.093  -6.662  1.00  0.00     0.006 C 
BRANCH   8   9
ATOM      9  C   UNL     1      -0.933  -5.411  -5.222  1.00  0.00     0.053 C 
BRANCH   9  10
ATOM     10  C   UNL     1      -0.268  -4.239  -4.568  1.00  0.00     0.041 C 
ATOM     11  O   UNL     1      -0.740  -3.755  -3.505  1.00  0.00    -0.550 OA
ATOM     12  O   UNL     1       0.890  -3.702  -5.114  1.00  0.00    -0.550 OA
ENDBRANCH   9  10
ENDBRANCH   8   9
ENDBRANCH   7   8
ENDBRANCH   6   7
ENDBRANCH   5   6
ENDBRANCH   4   5
ENDBRANCH   3   4
ENDBRANCH   1   3
BRANCH   2  13
ATOM     13  C   UNL     1      -5.900  -1.633  -6.747  1.00  0.00     0.027 C 
BRANCH  13  14
ATOM     14  C   UNL     1      -5.692  -3.068  -7.260  1.00  0.00     0.004 C 
BRANCH  14  15
ATOM     15  C   UNL     1      -5.708  -4.146  -6.160  1.00  0.00     0.000 C 
BRANCH  15  16
ATOM     16  C   UNL     1      -5.068  -3.666  -4.846  1.00  0.00     0.000 C 
BRANCH  16  17
ATOM     17  C   UNL     1      -4.565  -4.829  -3.975  1.00  0.00    -0.000 C 
BRANCH  17  18
ATOM     18  C   UNL     1      -5.355  -6.129  -4.206  1.00  0.00    -0.000 C 
BRANCH  18  19
ATOM     19  C   UNL     1      -4.439  -7.334  -4.474  1.00  0.00    -0.003 C 
ATOM     20  C   UNL     1      -4.007  -7.431  -5.937  1.00  0.00     0.004 C 
ENDBRANCH  18  19
ENDBRANCH  17  18
ENDBRANCH  16  17
ENDBRANCH  15  16
ENDBRANCH  14  15
ENDBRANCH  13  14
ENDBRANCH   2  13
TORSDOF 15
ENDMDL
MODEL 9
REMARK VINA RESULT:    -4.016     13.457     15.395
REMARK INTER + INTRA:          -9.799
REMARK INTER:                  -6.888
REMARK INTRA:                  -2.910
REMARK UNBOUND:                -2.260
REMARK SMILES CCCCCCCCC=CCCCCCCCC(=O)[O-]
REMARK SMILES IDX 10 1 9 2 11 3 12 4 13 5 14 6 15 7 16 8 17 9 18 10 19 11
REMARK SMILES IDX 20 12 8 13 7 14 6 15 5 16 4 17 3 18 2 19 1 20
REMARK H PARENT
REMARK Flexibility Score: inf
ROOT
ATOM      1  C   UNL     1      -5.641  -1.663  -7.216  1.00  0.00    -0.031 C 
ATOM      2  C   UNL     1      -4.687  -0.714  -7.268  1.00  0.00    -0.031 C 
ENDROOT
BRANCH   1   3
ATOM      3  C   UNL     1      -5.773  -2.686  -6.117  1.00  0.00     0.027 C 
BRANCH   3   4
ATOM      4  C   UNL     1      -5.629  -4.108  -6.680  1.00  0.00     0.004 C 
BRANCH   4   5
ATOM      5  C   UNL     1      -4.447  -4.241  -7.653  1.00  0.00     0.000 C 
BRANCH   5   6
ATOM      6  C   UNL     1      -3.222  -4.906  -7.010  1.00  0.00     0.000 C 
BRANCH   6   7
ATOM      7  C   UNL     1      -3.529  -6.361  -6.625  1.00  0.00     0.000 C 
BRANCH   7   8
ATOM      8  C   UNL     1      -2.955  -6.750  -5.250  1.00  0.00     0.006 C 
BRANCH   8   9
ATOM      9  C   UNL     1      -3.065  -5.647  -4.184  1.00  0.00     0.053 C 
BRANCH   9  10
ATOM     10  C   UNL     1      -4.401  -5.654  -3.508  1.00  0.00     0.041 C 
ATOM     11  O   UNL     1      -4.960  -4.569  -3.196  1.00  0.00    -0.550 OA
ATOM     12  O   UNL     1      -5.044  -6.858  -3.250  1.00  0.00    -0.550 OA
ENDBRANCH   9  10
ENDBRANCH   8   9
ENDBRANCH   7   8
ENDBRANCH   6   7
ENDBRANCH   5   6
ENDBRANCH   4   5
ENDBRANCH   3   4
ENDBRANCH   1   3
BRANCH   2  13
ATOM     13  C   UNL     1      -3.661  -0.468  -6.189  1.00  0.00     0.027 C 
BRANCH  13  14
ATOM     14  C   UNL     1      -2.341  -1.209  -6.462  1.00  0.00     0.004 C 
BRANCH  14  15
ATOM     15  C   UNL     1      -1.857  -2.097  -5.300  1.00  0.00     0.000 C 
BRANCH  15  16
ATOM     16  C   UNL     1      -0.413  -2.592  -5.489  1.00  0.00     0.000 C 
BRANCH  16  17
ATOM     17  C   UNL     1      -0.037  -3.708  -4.500  1.00  0.00    -0.000 C 
BRANCH  17  18
ATOM     18  C   UNL     1       0.451  -4.986  -5.204  1.00  0.00    -0.000 C 
BRANCH  18  19
ATOM     19  C   UNL     1       0.476  -4.842  -6.734  1.00  0.00    -0.003 C 
ATOM     20  C   UNL     1       0.234  -6.168  -7.455  1.00  0.00     0.004 C 
ENDBRANCH  18  19
ENDBRANCH  17  18
ENDBRANCH  16  17
ENDBRANCH  15  16
ENDBRANCH  14  15
ENDBRANCH  13  14
ENDBRANCH   2  13
TORSDOF 15
ENDMDL
