MODEL 1
REMARK VINA RESULT:    -2.672      0.000      0.000
REMARK INTER + INTRA:          -3.411
REMARK INTER:                  -3.297
REMARK INTRA:                  -0.115
REMARK UNBOUND:                -0.115
REMARK SMILES CCCCCC(=O)[O-]
REMARK SMILES IDX 4 1 5 2 6 3 7 4 8 5 3 6 2 7 1 8
REMARK H PARENT
REMARK Flexibility Score: inf
ROOT
ATOM      1  C   UNL     1      10.627  40.890 152.817  1.00  0.00     0.006 C 
ENDROOT
BRANCH   1   2
ATOM      2  C   UNL     1      11.786  41.868 152.606  1.00  0.00     0.053 C 
BRANCH   2   3
ATOM      3  C   UNL     1      11.977  42.725 153.817  1.00  0.00     0.041 C 
ATOM      4  O   UNL     1      11.123  42.713 154.742  1.00  0.00    -0.550 OA
ATOM      5  O   UNL     1      13.073  43.576 153.901  1.00  0.00    -0.550 OA
ENDBRANCH   2   3
ENDBRANCH   1   2
BRANCH   1   6
ATOM      6  C   UNL     1      10.654  39.770 151.770  1.00  0.00     0.000 C 
BRANCH   6   7
ATOM      7  C   UNL     1      12.030  39.673 151.104  1.00  0.00    -0.003 C 
ATOM      8  C   UNL     1      12.013  38.679 149.946  1.00  0.00     0.004 C 
ENDBRANCH   6   7
ENDBRANCH   1   6
TORSDOF 4
ENDMDL
MODEL 2
REMARK VINA RESULT:    -2.621      5.195      6.483
REMARK INTER + INTRA:          -3.348
REMARK INTER:                  -3.298
REMARK INTRA:                  -0.050
REMARK UNBOUND:                -0.115
REMARK SMILES CCCCCC(=O)[O-]
REMARK SMILES IDX 4 1 5 2 6 3 7 4 8 5 3 6 2 7 1 8
REMARK H PARENT
REMARK Flexibility Score: inf
ROOT
ATOM      1  C   UNL     1      10.498  37.668 150.034  1.00  0.00     0.006 C 
ENDROOT
BRANCH   1   2
ATOM      2  C   UNL     1       9.121  37.070 149.734  1.00  0.00     0.053 C 
BRANCH   2   3
ATOM      3  C   UNL     1       9.184  35.575 149.749  1.00  0.00     0.041 C 
ATOM      4  O   UNL     1       8.162  34.895 149.468  1.00  0.00    -0.550 OA
ATOM      5  O   UNL     1      10.357  34.932 150.124  1.00  0.00    -0.550 OA
ENDBRANCH   2   3
ENDBRANCH   1   2
BRANCH   1   6
ATOM      6  C   UNL     1      10.367  39.037 150.713  1.00  0.00     0.000 C 
BRANCH   6   7
ATOM      7  C   UNL     1      11.706  39.782 150.710  1.00  0.00    -0.003 C 
ATOM      8  C   UNL     1      11.792  40.764 151.876  1.00  0.00     0.004 C 
ENDBRANCH   6   7
ENDBRANCH   1   6
TORSDOF 4
ENDMDL
MODEL 3
REMARK VINA RESULT:    -2.598      2.495      4.401
REMARK INTER + INTRA:          -3.321
REMARK INTER:                  -3.125
REMARK INTRA:                  -0.195
REMARK UNBOUND:                -0.115
REMARK SMILES CCCCCC(=O)[O-]
REMARK SMILES IDX 4 1 5 2 6 3 7 4 8 5 3 6 2 7 1 8
REMARK H PARENT
REMARK Flexibility Score: inf
ROOT
ATOM      1  C   UNL     1      11.564  42.124 152.046  1.00  0.00     0.006 C 
ENDROOT
BRANCH   1   2
ATOM      2  C   UNL     1      11.880  40.639 151.842  1.00  0.00     0.053 C 
BRANCH   2   3
ATOM      3  C   UNL     1      10.625  39.825 151.880  1.00  0.00     0.041 C 
ATOM      4  O   UNL     1      10.365  39.018 150.949  1.00  0.00    -0.550 OA
ATOM      5  O   UNL     1       9.717  39.995 152.918  1.00  0.00    -0.550 OA
ENDBRANCH   2   3
ENDBRANCH   1   2
BRANCH   1   6
ATOM      6  C   UNL     1      12.054  42.607 153.416  1.00  0.00     0.000 C 
BRANCH   6   7
ATOM      7  C   UNL     1      10.921  43.278 154.200  1.00  0.00    -0.003 C 
ATOM      8  C   UNL     1      10.467  42.404 155.367  1.00  0.00     0.004 C 
ENDBRANCH   6   7
ENDBRANCH   1   6
TORSDOF 4
ENDMDL
MODEL 4
REMARK VINA RESULT:    -2.588      1.797      2.449
REMARK INTER + INTRA:          -3.308
REMARK INTER:                  -3.159
REMARK INTRA:                  -0.149
REMARK UNBOUND:                -0.115
REMARK SMILES CCCCCC(=O)[O-]
REMARK SMILES IDX 4 1 5 2 6 3 7 4 8 5 3 6 2 7 1 8
REMARK H PARENT
REMARK Flexibility Score: inf
ROOT
ATOM      1  C   UNL     1      11.128  42.906 152.982  1.00  0.00     0.006 C 
ENDROOT
BRANCH   1   2
ATOM      2  C   UNL     1      11.445  42.746 154.471  1.00  0.00     0.053 C 
BRANCH   2   3
ATOM      3  C   UNL     1      10.221  42.332 155.227  1.00  0.00     0.041 C 
ATOM      4  O   UNL     1      10.229  42.317 156.486  1.00  0.00    -0.550 OA
ATOM      5  O   UNL     1       9.088  41.913 154.540  1.00  0.00    -0.550 OA
ENDBRANCH   2   3
ENDBRANCH   1   2
BRANCH   1   6
ATOM      6  C   UNL     1      11.957  41.933 152.135  1.00  0.00     0.000 C 
BRANCH   6   7
ATOM      7  C   UNL     1      11.221  40.601 151.949  1.00  0.00    -0.003 C 
ATOM      8  C   UNL     1      12.051  39.625 151.119  1.00  0.00     0.004 C 
ENDBRANCH   6   7
ENDBRANCH   1   6
TORSDOF 4
ENDMDL
MODEL 5
REMARK VINA RESULT:    -2.563      1.752      2.414
REMARK INTER + INTRA:          -3.277
REMARK INTER:                  -3.229
REMARK INTRA:                  -0.049
REMARK UNBOUND:                -0.115
REMARK SMILES CCCCCC(=O)[O-]
REMARK SMILES IDX 4 1 5 2 6 3 7 4 8 5 3 6 2 7 1 8
REMARK H PARENT
REMARK Flexibility Score: inf
ROOT
ATOM      1  C   UNL     1      10.683  39.923 151.768  1.00  0.00     0.006 C 
ENDROOT
BRANCH   1   2
ATOM      2  C   UNL     1      10.836  41.067 152.774  1.00  0.00     0.053 C 
BRANCH   2   3
ATOM      3  C   UNL     1       9.644  41.134 153.677  1.00  0.00     0.041 C 
ATOM      4  O   UNL     1       8.633  40.419 153.445  1.00  0.00    -0.550 OA
ATOM      5  O   UNL     1       9.630  42.022 154.745  1.00  0.00    -0.550 OA
ENDBRANCH   2   3
ENDBRANCH   1   2
BRANCH   1   6
ATOM      6  C   UNL     1      12.015  39.623 151.069  1.00  0.00     0.000 C 
BRANCH   6   7
ATOM      7  C   UNL     1      11.825  38.611 149.935  1.00  0.00    -0.003 C 
ATOM      8  C   UNL     1      13.122  37.860 149.644  1.00  0.00     0.004 C 
ENDBRANCH   6   7
ENDBRANCH   1   6
TORSDOF 4
ENDMDL
MODEL 6
REMARK VINA RESULT:    -2.547      3.418      4.684
REMARK INTER + INTRA:          -3.257
REMARK INTER:                  -3.145
REMARK INTRA:                  -0.112
REMARK UNBOUND:                -0.115
REMARK SMILES CCCCCC(=O)[O-]
REMARK SMILES IDX 4 1 5 2 6 3 7 4 8 5 3 6 2 7 1 8
REMARK H PARENT
REMARK Flexibility Score: inf
ROOT
ATOM      1  C   UNL     1      10.521  39.822 151.848  1.00  0.00     0.006 C 
ENDROOT
BRANCH   1   2
ATOM      2  C   UNL     1      11.881  39.714 151.154  1.00  0.00     0.053 C 
BRANCH   2   3
ATOM      3  C   UNL     1      11.828  38.706 150.049  1.00  0.00     0.041 C 
ATOM      4  O   UNL     1      10.857  37.909 149.966  1.00  0.00    -0.550 OA
ATOM      5  O   UNL     1      12.876  38.613 149.142  1.00  0.00    -0.550 OA
ENDBRANCH   2   3
ENDBRANCH   1   2
BRANCH   1   6
ATOM      6  C   UNL     1      10.534  40.922 152.917  1.00  0.00     0.000 C 
BRANCH   6   7
ATOM      7  C   UNL     1      11.746  41.843 152.743  1.00  0.00    -0.003 C 
ATOM      8  C   UNL     1      11.871  42.816 153.911  1.00  0.00     0.004 C 
ENDBRANCH   6   7
ENDBRANCH   1   6
TORSDOF 4
ENDMDL
MODEL 7
REMARK VINA RESULT:    -2.524     20.984     21.731
REMARK INTER + INTRA:          -3.229
REMARK INTER:                  -3.097
REMARK INTRA:                  -0.133
REMARK UNBOUND:                -0.115
REMARK SMILES CCCCCC(=O)[O-]
REMARK SMILES IDX 4 1 5 2 6 3 7 4 8 5 3 6 2 7 1 8
REMARK H PARENT
REMARK Flexibility Score: inf
ROOT
ATOM      1  C   UNL     1      -4.960  40.879 140.284  1.00  0.00     0.006 C 
ENDROOT
BRANCH   1   2
ATOM      2  C   UNL     1      -4.649  42.266 139.714  1.00  0.00     0.053 C 
BRANCH   2   3
ATOM      3  C   UNL     1      -5.779  42.747 138.859  1.00  0.00     0.041 C 
ATOM      4  O   UNL     1      -5.630  42.851 137.613  1.00  0.00    -0.550 OA
ATOM      5  O   UNL     1      -6.980  43.129 139.444  1.00  0.00    -0.550 OA
ENDBRANCH   2   3
ENDBRANCH   1   2
BRANCH   1   6
ATOM      6  C   UNL     1      -5.304  40.962 141.776  1.00  0.00     0.000 C 
BRANCH   6   7
ATOM      7  C   UNL     1      -6.808  40.782 142.004  1.00  0.00    -0.003 C 
ATOM      8  C   UNL     1      -7.125  39.374 142.501  1.00  0.00     0.004 C 
ENDBRANCH   6   7
ENDBRANCH   1   6
TORSDOF 4
ENDMDL
MODEL 8
REMARK VINA RESULT:    -2.511      3.011      3.771
REMARK INTER + INTRA:          -3.213
REMARK INTER:                  -3.144
REMARK INTRA:                  -0.069
REMARK UNBOUND:                -0.115
REMARK SMILES CCCCCC(=O)[O-]
REMARK SMILES IDX 4 1 5 2 6 3 7 4 8 5 3 6 2 7 1 8
REMARK H PARENT
REMARK Flexibility Score: inf
ROOT
ATOM      1  C   UNL     1       9.960  38.678 150.189  1.00  0.00     0.006 C 
ENDROOT
BRANCH   1   2
ATOM      2  C   UNL     1      11.270  39.338 150.626  1.00  0.00     0.053 C 
BRANCH   2   3
ATOM      3  C   UNL     1      11.072  40.110 151.892  1.00  0.00     0.041 C 
ATOM      4  O   UNL     1      10.047  39.917 152.598  1.00  0.00    -0.550 OA
ATOM      5  O   UNL     1      11.994  41.080 152.266  1.00  0.00    -0.550 OA
ENDBRANCH   2   3
ENDBRANCH   1   2
BRANCH   1   6
ATOM      6  C   UNL     1      10.137  37.165 150.012  1.00  0.00     0.000 C 
BRANCH   6   7
ATOM      7  C   UNL     1       8.826  36.505 149.573  1.00  0.00    -0.003 C 
ATOM      8  C   UNL     1       8.958  34.985 149.543  1.00  0.00     0.004 C 
ENDBRANCH   6   7
ENDBRANCH   1   6
TORSDOF 4
ENDMDL
MODEL 9
REMARK VINA RESULT:    -2.489      2.939      4.456
REMARK INTER + INTRA:          -3.185
REMARK INTER:                  -3.031
REMARK INTRA:                  -0.154
REMARK UNBOUND:                -0.115
REMARK SMILES CCCCCC(=O)[O-]
REMARK SMILES IDX 4 1 5 2 6 3 7 4 8 5 3 6 2 7 1 8
REMARK H PARENT
REMARK Flexibility Score: inf
ROOT
ATOM      1  C   UNL     1      12.017  41.340 150.560  1.00  0.00     0.006 C 
ENDROOT
BRANCH   1   2
ATOM      2  C   UNL     1      11.958  40.058 151.396  1.00  0.00     0.053 C 
BRANCH   2   3
ATOM      3  C   UNL     1      10.713  39.288 151.088  1.00  0.00     0.041 C 
ATOM      4  O   UNL     1       9.610  39.644 151.580  1.00  0.00    -0.550 OA
ATOM      5  O   UNL     1      10.779  38.147 150.298  1.00  0.00    -0.550 OA
ENDBRANCH   2   3
ENDBRANCH   1   2
BRANCH   1   6
ATOM      6  C   UNL     1      12.067  42.581 151.458  1.00  0.00     0.000 C 
BRANCH   6   7
ATOM      7  C   UNL     1      11.909  42.199 152.934  1.00  0.00    -0.003 C 
ATOM      8  C   UNL     1      12.423  43.307 153.848  1.00  0.00     0.004 C 
ENDBRANCH   6   7
ENDBRANCH   1   6
TORSDOF 4
ENDMDL
