MODEL 1
REMARK VINA RESULT:    -5.446      0.000      0.000
REMARK INTER + INTRA:         -10.337
REMARK INTER:                  -8.312
REMARK INTRA:                  -2.025
REMARK UNBOUND:                -2.025
REMARK SMILES CC(=O)CCC=C(C)CCC=C(C)CCC=C(C)C
REMARK SMILES IDX 10 1 11 2 12 3 13 4 14 5 15 6 16 7 18 8 17 9 19 10 9 11 7 12
REMARK SMILES IDX 6 13 8 14 5 15 4 16 2 17 3 18 1 19
REMARK H PARENT
REMARK Flexibility Score: inf
ROOT
ATOM      1  C   UNL     1      50.311  33.403  32.748  1.00  0.00     0.032 C 
ENDROOT
BRANCH   1   2
ATOM      2  C   UNL     1      51.428  32.415  32.516  1.00  0.00    -0.028 C 
ATOM      3  C   UNL     1      51.664  31.836  31.318  1.00  0.00    -0.077 C 
ATOM      4  C   UNL     1      50.818  32.157  30.107  1.00  0.00     0.039 C 
BRANCH   3   5
ATOM      5  C   UNL     1      52.799  30.844  31.188  1.00  0.00     0.034 C 
BRANCH   5   6
ATOM      6  C   UNL     1      53.763  30.964  32.373  1.00  0.00     0.032 C 
BRANCH   6   7
ATOM      7  C   UNL     1      55.180  31.146  31.892  1.00  0.00    -0.028 C 
ATOM      8  C   UNL     1      57.181  32.372  31.162  1.00  0.00     0.039 C 
ATOM      9  C   UNL     1      55.767  32.346  31.684  1.00  0.00    -0.080 C 
ATOM     10  C   UNL     1      55.056  33.646  31.976  1.00  0.00     0.039 C 
ENDBRANCH   6   7
ENDBRANCH   5   6
ENDBRANCH   3   5
ENDBRANCH   1   2
BRANCH   1  11
ATOM     11  C   UNL     1      50.856  34.825  32.909  1.00  0.00     0.034 C 
BRANCH  11  12
ATOM     12  C   UNL     1      50.881  35.545  31.575  1.00  0.00    -0.077 C 
ATOM     13  C   UNL     1      49.823  36.235  31.089  1.00  0.00    -0.028 C 
ATOM     14  C   UNL     1      52.163  35.557  30.783  1.00  0.00     0.039 C 
BRANCH  13  15
ATOM     15  C   UNL     1      48.472  36.317  31.756  1.00  0.00     0.035 C 
BRANCH  15  16
ATOM     16  C   UNL     1      47.370  35.822  30.813  1.00  0.00     0.079 C 
BRANCH  16  17
ATOM     17  C   UNL     1      47.153  34.343  30.981  1.00  0.00     0.130 C 
ATOM     18  O   UNL     1      46.828  33.899  32.071  1.00  0.00    -0.300 OA
ATOM     19  C   UNL     1      47.365  33.400  29.836  1.00  0.00     0.087 C 
ENDBRANCH  16  17
ENDBRANCH  15  16
ENDBRANCH  13  15
ENDBRANCH  11  12
ENDBRANCH   1  11
TORSDOF 9
ENDMDL
MODEL 2
REMARK VINA RESULT:    -5.441      2.567      3.979
REMARK INTER + INTRA:         -10.329
REMARK INTER:                  -8.330
REMARK INTRA:                  -1.999
REMARK UNBOUND:                -2.025
REMARK SMILES CC(=O)CCC=C(C)CCC=C(C)CCC=C(C)C
REMARK SMILES IDX 10 1 11 2 12 3 13 4 14 5 15 6 16 7 18 8 17 9 19 10 9 11 7 12
REMARK SMILES IDX 6 13 8 14 5 15 4 16 2 17 3 18 1 19
REMARK H PARENT
REMARK Flexibility Score: inf
ROOT
ATOM      1  C   UNL     1      50.104  33.557  32.729  1.00  0.00     0.032 C 
ENDROOT
BRANCH   1   2
ATOM      2  C   UNL     1      51.091  32.439  32.500  1.00  0.00    -0.028 C 
ATOM      3  C   UNL     1      51.492  32.049  31.270  1.00  0.00    -0.077 C 
ATOM      4  C   UNL     1      50.981  32.730  30.022  1.00  0.00     0.039 C 
BRANCH   3   5
ATOM      5  C   UNL     1      52.475  30.906  31.142  1.00  0.00     0.034 C 
BRANCH   5   6
ATOM      6  C   UNL     1      53.464  30.907  32.313  1.00  0.00     0.032 C 
BRANCH   6   7
ATOM      7  C   UNL     1      54.876  31.096  31.819  1.00  0.00    -0.028 C 
ATOM      8  C   UNL     1      56.876  32.333  31.106  1.00  0.00     0.039 C 
ATOM      9  C   UNL     1      55.470  32.298  31.647  1.00  0.00    -0.080 C 
ATOM     10  C   UNL     1      54.774  33.593  31.997  1.00  0.00     0.039 C 
ENDBRANCH   6   7
ENDBRANCH   5   6
ENDBRANCH   3   5
ENDBRANCH   1   2
BRANCH   1  11
ATOM     11  C   UNL     1      50.819  34.900  32.902  1.00  0.00     0.034 C 
BRANCH  11  12
ATOM     12  C   UNL     1      50.279  35.927  31.925  1.00  0.00    -0.077 C 
ATOM     13  C   UNL     1      51.042  36.509  30.971  1.00  0.00    -0.028 C 
ATOM     14  C   UNL     1      48.810  36.263  31.967  1.00  0.00     0.039 C 
BRANCH  13  15
ATOM     15  C   UNL     1      52.524  36.283  30.799  1.00  0.00     0.035 C 
BRANCH  15  16
ATOM     16  C   UNL     1      53.237  37.597  30.463  1.00  0.00     0.079 C 
BRANCH  16  17
ATOM     17  C   UNL     1      54.296  37.902  31.488  1.00  0.00     0.130 C 
ATOM     18  O   UNL     1      55.211  38.661  31.206  1.00  0.00    -0.300 OA
ATOM     19  C   UNL     1      54.265  37.259  32.841  1.00  0.00     0.087 C 
ENDBRANCH  16  17
ENDBRANCH  15  16
ENDBRANCH  13  15
ENDBRANCH  11  12
ENDBRANCH   1  11
TORSDOF 9
ENDMDL
MODEL 3
REMARK VINA RESULT:    -5.302      2.183      3.906
REMARK INTER + INTRA:         -10.117
REMARK INTER:                  -7.577
REMARK INTRA:                  -2.539
REMARK UNBOUND:                -2.025
REMARK SMILES CC(=O)CCC=C(C)CCC=C(C)CCC=C(C)C
REMARK SMILES IDX 10 1 11 2 12 3 13 4 14 5 15 6 16 7 18 8 17 9 19 10 9 11 7 12
REMARK SMILES IDX 6 13 8 14 5 15 4 16 2 17 3 18 1 19
REMARK H PARENT
REMARK Flexibility Score: inf
ROOT
ATOM      1  C   UNL     1      48.961  33.269  30.497  1.00  0.00     0.032 C 
ENDROOT
BRANCH   1   2
ATOM      2  C   UNL     1      50.364  33.802  30.650  1.00  0.00    -0.028 C 
ATOM      3  C   UNL     1      50.985  33.913  31.845  1.00  0.00    -0.077 C 
ATOM      4  C   UNL     1      50.307  33.490  33.128  1.00  0.00     0.039 C 
BRANCH   3   5
ATOM      5  C   UNL     1      52.389  34.474  31.899  1.00  0.00     0.034 C 
BRANCH   5   6
ATOM      6  C   UNL     1      53.385  33.508  31.249  1.00  0.00     0.032 C 
BRANCH   6   7
ATOM      7  C   UNL     1      53.712  32.371  32.182  1.00  0.00    -0.028 C 
ATOM      8  C   UNL     1      53.623  30.085  33.081  1.00  0.00     0.039 C 
ATOM      9  C   UNL     1      53.241  31.111  32.045  1.00  0.00    -0.080 C 
ATOM     10  C   UNL     1      52.367  30.705  30.882  1.00  0.00     0.039 C 
ENDBRANCH   6   7
ENDBRANCH   5   6
ENDBRANCH   3   5
ENDBRANCH   1   2
BRANCH   1  11
ATOM     11  C   UNL     1      47.978  34.390  30.148  1.00  0.00     0.034 C 
BRANCH  11  12
ATOM     12  C   UNL     1      47.193  34.816  31.374  1.00  0.00    -0.077 C 
ATOM     13  C   UNL     1      47.340  36.028  31.959  1.00  0.00    -0.028 C 
ATOM     14  C   UNL     1      46.150  33.880  31.927  1.00  0.00     0.039 C 
BRANCH  13  15
ATOM     15  C   UNL     1      48.340  37.074  31.530  1.00  0.00     0.035 C 
BRANCH  15  16
ATOM     16  C   UNL     1      49.449  37.224  32.577  1.00  0.00     0.079 C 
BRANCH  16  17
ATOM     17  C   UNL     1      50.667  37.864  31.968  1.00  0.00     0.130 C 
ATOM     18  O   UNL     1      51.381  38.580  32.653  1.00  0.00    -0.300 OA
ATOM     19  C   UNL     1      51.000  37.664  30.521  1.00  0.00     0.087 C 
ENDBRANCH  16  17
ENDBRANCH  15  16
ENDBRANCH  13  15
ENDBRANCH  11  12
ENDBRANCH   1  11
TORSDOF 9
ENDMDL
MODEL 4
REMARK VINA RESULT:    -5.301      2.752      4.951
REMARK INTER + INTRA:         -10.116
REMARK INTER:                  -8.586
REMARK INTRA:                  -1.530
REMARK UNBOUND:                -2.025
REMARK SMILES CC(=O)CCC=C(C)CCC=C(C)CCC=C(C)C
REMARK SMILES IDX 10 1 11 2 12 3 13 4 14 5 15 6 16 7 18 8 17 9 19 10 9 11 7 12
REMARK SMILES IDX 6 13 8 14 5 15 4 16 2 17 3 18 1 19
REMARK H PARENT
REMARK Flexibility Score: inf
ROOT
ATOM      1  C   UNL     1      53.867  31.068  32.434  1.00  0.00     0.032 C 
ENDROOT
BRANCH   1   2
ATOM      2  C   UNL     1      54.943  31.477  31.459  1.00  0.00    -0.028 C 
ATOM      3  C   UNL     1      55.937  32.336  31.774  1.00  0.00    -0.077 C 
ATOM      4  C   UNL     1      56.046  32.943  33.154  1.00  0.00     0.039 C 
BRANCH   3   5
ATOM      5  C   UNL     1      56.962  32.697  30.722  1.00  0.00     0.034 C 
BRANCH   5   6
ATOM      6  C   UNL     1      58.374  32.707  31.320  1.00  0.00     0.032 C 
BRANCH   6   7
ATOM      7  C   UNL     1      58.962  31.319  31.320  1.00  0.00    -0.028 C 
ATOM      8  C   UNL     1      60.117  29.352  32.235  1.00  0.00     0.039 C 
ATOM      9  C   UNL     1      59.533  30.732  32.396  1.00  0.00    -0.080 C 
ATOM     10  C   UNL     1      59.584  31.410  33.745  1.00  0.00     0.039 C 
ENDBRANCH   6   7
ENDBRANCH   5   6
ENDBRANCH   3   5
ENDBRANCH   1   2
BRANCH   1  11
ATOM     11  C   UNL     1      52.671  32.022  32.370  1.00  0.00     0.034 C 
BRANCH  11  12
ATOM     12  C   UNL     1      51.912  31.846  31.069  1.00  0.00    -0.077 C 
ATOM     13  C   UNL     1      51.391  32.884  30.373  1.00  0.00    -0.028 C 
ATOM     14  C   UNL     1      51.794  30.463  30.482  1.00  0.00     0.039 C 
BRANCH  13  15
ATOM     15  C   UNL     1      51.421  34.323  30.825  1.00  0.00     0.035 C 
BRANCH  15  16
ATOM     16  C   UNL     1      52.803  34.940  30.581  1.00  0.00     0.079 C 
BRANCH  16  17
ATOM     17  C   UNL     1      53.075  36.038  31.572  1.00  0.00     0.130 C 
ATOM     18  O   UNL     1      52.927  37.204  31.239  1.00  0.00    -0.300 OA
ATOM     19  C   UNL     1      53.559  35.725  32.954  1.00  0.00     0.087 C 
ENDBRANCH  16  17
ENDBRANCH  15  16
ENDBRANCH  13  15
ENDBRANCH  11  12
ENDBRANCH   1  11
TORSDOF 9
ENDMDL
MODEL 5
REMARK VINA RESULT:    -5.292      2.843      7.937
REMARK INTER + INTRA:         -10.102
REMARK INTER:                  -9.022
REMARK INTRA:                  -1.080
REMARK UNBOUND:                -2.025
REMARK SMILES CC(=O)CCC=C(C)CCC=C(C)CCC=C(C)C
REMARK SMILES IDX 10 1 11 2 12 3 13 4 14 5 15 6 16 7 18 8 17 9 19 10 9 11 7 12
REMARK SMILES IDX 6 13 8 14 5 15 4 16 2 17 3 18 1 19
REMARK H PARENT
REMARK Flexibility Score: inf
ROOT
ATOM      1  C   UNL     1      50.839  33.104  32.770  1.00  0.00     0.032 C 
ENDROOT
BRANCH   1   2
ATOM      2  C   UNL     1      49.604  33.772  32.215  1.00  0.00    -0.028 C 
ATOM      3  C   UNL     1      49.448  35.114  32.172  1.00  0.00    -0.077 C 
ATOM      4  C   UNL     1      50.524  36.049  32.672  1.00  0.00     0.039 C 
BRANCH   3   5
ATOM      5  C   UNL     1      48.167  35.690  31.611  1.00  0.00     0.034 C 
BRANCH   5   6
ATOM      6  C   UNL     1      47.080  34.612  31.522  1.00  0.00     0.032 C 
BRANCH   6   7
ATOM      7  C   UNL     1      45.790  35.104  32.129  1.00  0.00    -0.028 C 
ATOM      8  C   UNL     1      43.367  35.193  32.526  1.00  0.00     0.039 C 
ATOM      9  C   UNL     1      44.575  34.569  31.877  1.00  0.00    -0.080 C 
ATOM     10  C   UNL     1      44.401  33.362  30.984  1.00  0.00     0.039 C 
ENDBRANCH   6   7
ENDBRANCH   5   6
ENDBRANCH   3   5
ENDBRANCH   1   2
BRANCH   1  11
ATOM     11  C   UNL     1      51.874  32.854  31.670  1.00  0.00     0.034 C 
BRANCH  11  12
ATOM     12  C   UNL     1      51.906  31.387  31.286  1.00  0.00    -0.077 C 
ATOM     13  C   UNL     1      52.865  30.534  31.713  1.00  0.00    -0.028 C 
ATOM     14  C   UNL     1      50.780  30.834  30.450  1.00  0.00     0.039 C 
BRANCH  13  15
ATOM     15  C   UNL     1      54.057  30.930  32.548  1.00  0.00     0.035 C 
BRANCH  15  16
ATOM     16  C   UNL     1      55.307  31.083  31.674  1.00  0.00     0.079 C 
BRANCH  16  17
ATOM     17  C   UNL     1      55.963  32.414  31.916  1.00  0.00     0.130 C 
ATOM     18  O   UNL     1      56.980  32.709  31.307  1.00  0.00    -0.300 OA
ATOM     19  C   UNL     1      55.406  33.375  32.923  1.00  0.00     0.087 C 
ENDBRANCH  16  17
ENDBRANCH  15  16
ENDBRANCH  13  15
ENDBRANCH  11  12
ENDBRANCH   1  11
TORSDOF 9
ENDMDL
MODEL 6
REMARK VINA RESULT:    -5.249      1.884      2.322
REMARK INTER + INTRA:         -10.036
REMARK INTER:                  -8.695
REMARK INTRA:                  -1.342
REMARK UNBOUND:                -2.025
REMARK SMILES CC(=O)CCC=C(C)CCC=C(C)CCC=C(C)C
REMARK SMILES IDX 10 1 11 2 12 3 13 4 14 5 15 6 16 7 18 8 17 9 19 10 9 11 7 12
REMARK SMILES IDX 6 13 8 14 5 15 4 16 2 17 3 18 1 19
REMARK H PARENT
REMARK Flexibility Score: inf
ROOT
ATOM      1  C   UNL     1      49.868  33.919  32.547  1.00  0.00     0.032 C 
ENDROOT
BRANCH   1   2
ATOM      2  C   UNL     1      50.574  32.598  32.364  1.00  0.00    -0.028 C 
ATOM      3  C   UNL     1      51.306  32.299  31.268  1.00  0.00    -0.077 C 
ATOM      4  C   UNL     1      51.480  33.290  30.141  1.00  0.00     0.039 C 
BRANCH   3   5
ATOM      5  C   UNL     1      51.966  30.941  31.169  1.00  0.00     0.034 C 
BRANCH   5   6
ATOM      6  C   UNL     1      53.040  30.779  32.250  1.00  0.00     0.032 C 
BRANCH   6   7
ATOM      7  C   UNL     1      54.413  31.026  31.679  1.00  0.00    -0.028 C 
ATOM      8  C   UNL     1      56.432  32.309  31.117  1.00  0.00     0.039 C 
ATOM      9  C   UNL     1      55.080  32.198  31.773  1.00  0.00    -0.080 C 
ATOM     10  C   UNL     1      54.519  33.379  32.528  1.00  0.00     0.039 C 
ENDBRANCH   6   7
ENDBRANCH   5   6
ENDBRANCH   3   5
ENDBRANCH   1   2
BRANCH   1  11
ATOM     11  C   UNL     1      48.489  33.906  31.879  1.00  0.00     0.034 C 
BRANCH  11  12
ATOM     12  C   UNL     1      48.094  35.301  31.435  1.00  0.00    -0.077 C 
ATOM     13  C   UNL     1      46.857  35.813  31.629  1.00  0.00    -0.028 C 
ATOM     14  C   UNL     1      49.144  36.187  30.815  1.00  0.00     0.039 C 
BRANCH  13  15
ATOM     15  C   UNL     1      45.698  35.057  32.229  1.00  0.00     0.035 C 
BRANCH  15  16
ATOM     16  C   UNL     1      44.443  35.208  31.361  1.00  0.00     0.079 C 
BRANCH  16  17
ATOM     17  C   UNL     1      43.628  33.944  31.384  1.00  0.00     0.130 C 
ATOM     18  O   UNL     1      42.595  33.901  32.034  1.00  0.00    -0.300 OA
ATOM     19  C   UNL     1      44.084  32.721  30.648  1.00  0.00     0.087 C 
ENDBRANCH  16  17
ENDBRANCH  15  16
ENDBRANCH  13  15
ENDBRANCH  11  12
ENDBRANCH   1  11
TORSDOF 9
ENDMDL
MODEL 7
REMARK VINA RESULT:    -5.226      1.913      3.724
REMARK INTER + INTRA:         -10.000
REMARK INTER:                  -8.349
REMARK INTRA:                  -1.651
REMARK UNBOUND:                -2.025
REMARK SMILES CC(=O)CCC=C(C)CCC=C(C)CCC=C(C)C
REMARK SMILES IDX 10 1 11 2 12 3 13 4 14 5 15 6 16 7 18 8 17 9 19 10 9 11 7 12
REMARK SMILES IDX 6 13 8 14 5 15 4 16 2 17 3 18 1 19
REMARK H PARENT
REMARK Flexibility Score: inf
ROOT
ATOM      1  C   UNL     1      52.998  35.800  31.379  1.00  0.00     0.032 C 
ENDROOT
BRANCH   1   2
ATOM      2  C   UNL     1      53.750  34.504  31.560  1.00  0.00    -0.028 C 
ATOM      3  C   UNL     1      54.492  34.229  32.656  1.00  0.00    -0.077 C 
ATOM      4  C   UNL     1      54.606  35.211  33.798  1.00  0.00     0.039 C 
BRANCH   3   5
ATOM      5  C   UNL     1      55.223  32.907  32.739  1.00  0.00     0.034 C 
BRANCH   5   6
ATOM      6  C   UNL     1      55.778  32.507  31.368  1.00  0.00     0.032 C 
BRANCH   6   7
ATOM      7  C   UNL     1      56.972  31.599  31.520  1.00  0.00    -0.028 C 
ATOM      8  C   UNL     1      59.349  30.976  31.572  1.00  0.00     0.039 C 
ATOM      9  C   UNL     1      58.258  32.007  31.439  1.00  0.00    -0.080 C 
ATOM     10  C   UNL     1      58.625  33.459  31.239  1.00  0.00     0.039 C 
ENDBRANCH   6   7
ENDBRANCH   5   6
ENDBRANCH   3   5
ENDBRANCH   1   2
BRANCH   1  11
ATOM     11  C   UNL     1      51.588  35.550  30.835  1.00  0.00     0.034 C 
BRANCH  11  12
ATOM     12  C   UNL     1      50.553  35.702  31.933  1.00  0.00    -0.077 C 
ATOM     13  C   UNL     1      49.727  34.699  32.311  1.00  0.00    -0.028 C 
ATOM     14  C   UNL     1      50.488  37.004  32.690  1.00  0.00     0.039 C 
BRANCH  13  15
ATOM     15  C   UNL     1      49.665  33.343  31.654  1.00  0.00     0.035 C 
BRANCH  15  16
ATOM     16  C   UNL     1      50.691  32.390  32.277  1.00  0.00     0.079 C 
BRANCH  16  17
ATOM     17  C   UNL     1      51.045  31.290  31.314  1.00  0.00     0.130 C 
ATOM     18  O   UNL     1      50.162  30.734  30.678  1.00  0.00    -0.300 OA
ATOM     19  C   UNL     1      52.464  30.839  31.149  1.00  0.00     0.087 C 
ENDBRANCH  16  17
ENDBRANCH  15  16
ENDBRANCH  13  15
ENDBRANCH  11  12
ENDBRANCH   1  11
TORSDOF 9
ENDMDL
MODEL 8
REMARK VINA RESULT:    -5.111      2.959      5.121
REMARK INTER + INTRA:          -9.825
REMARK INTER:                  -8.288
REMARK INTRA:                  -1.537
REMARK UNBOUND:                -2.025
REMARK SMILES CC(=O)CCC=C(C)CCC=C(C)CCC=C(C)C
REMARK SMILES IDX 10 1 11 2 12 3 13 4 14 5 15 6 16 7 18 8 17 9 19 10 9 11 7 12
REMARK SMILES IDX 6 13 8 14 5 15 4 16 2 17 3 18 1 19
REMARK H PARENT
REMARK Flexibility Score: inf
ROOT
ATOM      1  C   UNL     1      54.006  31.757  31.689  1.00  0.00     0.032 C 
ENDROOT
BRANCH   1   2
ATOM      2  C   UNL     1      54.700  32.641  32.695  1.00  0.00    -0.028 C 
ATOM      3  C   UNL     1      56.045  32.718  32.806  1.00  0.00    -0.077 C 
ATOM      4  C   UNL     1      56.957  31.921  31.904  1.00  0.00     0.039 C 
BRANCH   3   5
ATOM      5  C   UNL     1      56.648  33.624  33.858  1.00  0.00     0.034 C 
BRANCH   5   6
ATOM      6  C   UNL     1      55.952  34.989  33.862  1.00  0.00     0.032 C 
BRANCH   6   7
ATOM      7  C   UNL     1      55.318  35.260  35.203  1.00  0.00    -0.028 C 
ATOM      8  C   UNL     1      55.124  36.200  37.465  1.00  0.00     0.039 C 
ATOM      9  C   UNL     1      55.854  36.055  36.155  1.00  0.00    -0.080 C 
ATOM     10  C   UNL     1      57.146  36.808  35.935  1.00  0.00     0.039 C 
ENDBRANCH   6   7
ENDBRANCH   5   6
ENDBRANCH   3   5
ENDBRANCH   1   2
BRANCH   1  11
ATOM     11  C   UNL     1      52.788  31.065  32.307  1.00  0.00     0.034 C 
BRANCH  11  12
ATOM     12  C   UNL     1      51.558  31.272  31.444  1.00  0.00    -0.077 C 
ATOM     13  C   UNL     1      50.636  32.231  31.693  1.00  0.00    -0.028 C 
ATOM     14  C   UNL     1      51.387  30.421  30.212  1.00  0.00     0.039 C 
BRANCH  13  15
ATOM     15  C   UNL     1      50.660  33.158  32.883  1.00  0.00     0.035 C 
BRANCH  15  16
ATOM     16  C   UNL     1      50.561  34.620  32.434  1.00  0.00     0.079 C 
BRANCH  16  17
ATOM     17  C   UNL     1      51.926  35.173  32.127  1.00  0.00     0.130 C 
ATOM     18  O   UNL     1      52.559  35.744  33.001  1.00  0.00    -0.300 OA
ATOM     19  C   UNL     1      52.508  35.066  30.750  1.00  0.00     0.087 C 
ENDBRANCH  16  17
ENDBRANCH  15  16
ENDBRANCH  13  15
ENDBRANCH  11  12
ENDBRANCH   1  11
TORSDOF 9
ENDMDL
MODEL 9
REMARK VINA RESULT:    -5.107      1.333      2.045
REMARK INTER + INTRA:          -9.820
REMARK INTER:                  -8.124
REMARK INTRA:                  -1.696
REMARK UNBOUND:                -2.025
REMARK SMILES CC(=O)CCC=C(C)CCC=C(C)CCC=C(C)C
REMARK SMILES IDX 10 1 11 2 12 3 13 4 14 5 15 6 16 7 18 8 17 9 19 10 9 11 7 12
REMARK SMILES IDX 6 13 8 14 5 15 4 16 2 17 3 18 1 19
REMARK H PARENT
REMARK Flexibility Score: inf
ROOT
ATOM      1  C   UNL     1      51.907  35.521  31.600  1.00  0.00     0.032 C 
ENDROOT
BRANCH   1   2
ATOM      2  C   UNL     1      52.189  34.102  31.171  1.00  0.00    -0.028 C 
ATOM      3  C   UNL     1      51.693  33.024  31.818  1.00  0.00    -0.077 C 
ATOM      4  C   UNL     1      50.796  33.173  33.025  1.00  0.00     0.039 C 
BRANCH   3   5
ATOM      5  C   UNL     1      52.045  31.639  31.321  1.00  0.00     0.034 C 
BRANCH   5   6
ATOM      6  C   UNL     1      53.155  31.021  32.177  1.00  0.00     0.032 C 
BRANCH   6   7
ATOM      7  C   UNL     1      54.498  31.193  31.514  1.00  0.00    -0.028 C 
ATOM      8  C   UNL     1      56.692  32.211  31.079  1.00  0.00     0.039 C 
ATOM      9  C   UNL     1      55.406  32.133  31.860  1.00  0.00    -0.080 C 
ATOM     10  C   UNL     1      55.173  33.086  33.009  1.00  0.00     0.039 C 
ENDBRANCH   6   7
ENDBRANCH   5   6
ENDBRANCH   3   5
ENDBRANCH   1   2
BRANCH   1  11
ATOM     11  C   UNL     1      50.707  36.100  30.845  1.00  0.00     0.034 C 
BRANCH  11  12
ATOM     12  C   UNL     1      49.627  36.543  31.813  1.00  0.00    -0.077 C 
ATOM     13  C   UNL     1      48.448  35.893  31.950  1.00  0.00    -0.028 C 
ATOM     14  C   UNL     1      49.903  37.717  32.717  1.00  0.00     0.039 C 
BRANCH  13  15
ATOM     15  C   UNL     1      48.018  34.708  31.121  1.00  0.00     0.035 C 
BRANCH  15  16
ATOM     16  C   UNL     1      46.738  34.085  31.687  1.00  0.00     0.079 C 
BRANCH  16  17
ATOM     17  C   UNL     1      46.024  33.290  30.629  1.00  0.00     0.130 C 
ATOM     18  O   UNL     1      46.600  33.007  29.590  1.00  0.00    -0.300 OA
ATOM     19  C   UNL     1      44.598  32.867  30.816  1.00  0.00     0.087 C 
ENDBRANCH  16  17
ENDBRANCH  15  16
ENDBRANCH  13  15
ENDBRANCH  11  12
ENDBRANCH   1  11
TORSDOF 9
ENDMDL
