MODEL 1
REMARK VINA RESULT:    -5.032      0.000      0.000
REMARK INTER + INTRA:          -5.348
REMARK INTER:                  -5.326
REMARK INTRA:                  -0.022
REMARK UNBOUND:                -0.022
REMARK SMILES O=C([O-])c1cccnc1
REMARK SMILES IDX 4 1 5 2 9 3 6 4 8 5 7 6 2 7 1 8 3 9
REMARK H PARENT
REMARK Flexibility Score: inf
ROOT
ATOM      1  C   UNL     1     130.898 125.831 127.241  1.00  0.00     0.016 A 
ATOM      2  C   UNL     1     130.970 124.474 126.888  1.00  0.00     0.013 A 
ATOM      3  C   UNL     1     129.693 126.317 127.779  1.00  0.00     0.120 A 
ATOM      4  C   UNL     1     129.866 123.641 127.072  1.00  0.00     0.021 A 
ATOM      5  N   UNL     1     128.632 125.485 127.948  1.00  0.00    -0.264 NA
ATOM      6  C   UNL     1     128.693 124.170 127.610  1.00  0.00     0.111 A 
ENDROOT
BRANCH   1   7
ATOM      7  C   UNL     1     132.063 126.723 127.050  1.00  0.00     0.073 C 
ATOM      8  O   UNL     1     132.935 126.461 126.180  1.00  0.00    -0.545 OA
ATOM      9  O   UNL     1     132.210 127.863 127.832  1.00  0.00    -0.545 OA
ENDBRANCH   1   7
TORSDOF 1
ENDMDL
MODEL 2
REMARK VINA RESULT:    -4.720      2.752      3.576
REMARK INTER + INTRA:          -5.019
REMARK INTER:                  -4.997
REMARK INTRA:                  -0.021
REMARK UNBOUND:                -0.022
REMARK SMILES O=C([O-])c1cccnc1
REMARK SMILES IDX 4 1 5 2 9 3 6 4 8 5 7 6 2 7 1 8 3 9
REMARK H PARENT
REMARK Flexibility Score: inf
ROOT
ATOM      1  C   UNL     1     130.000 125.494 127.257  1.00  0.00     0.016 A 
ATOM      2  C   UNL     1     131.340 125.142 127.030  1.00  0.00     0.013 A 
ATOM      3  C   UNL     1     129.685 126.857 127.407  1.00  0.00     0.120 A 
ATOM      4  C   UNL     1     132.323 126.129 126.958  1.00  0.00     0.021 A 
ATOM      5  N   UNL     1     130.662 127.800 127.332  1.00  0.00    -0.264 NA
ATOM      6  C   UNL     1     131.961 127.467 127.112  1.00  0.00     0.111 A 
ENDROOT
BRANCH   1   7
ATOM      7  C   UNL     1     128.949 124.457 127.336  1.00  0.00     0.073 C 
ATOM      8  O   UNL     1     129.025 123.415 126.632  1.00  0.00    -0.545 OA
ATOM      9  O   UNL     1     127.863 124.619 128.187  1.00  0.00    -0.545 OA
ENDBRANCH   1   7
TORSDOF 1
ENDMDL
MODEL 3
REMARK VINA RESULT:    -4.616      0.905      1.926
REMARK INTER + INTRA:          -4.908
REMARK INTER:                  -4.884
REMARK INTRA:                  -0.024
REMARK UNBOUND:                -0.022
REMARK SMILES O=C([O-])c1cccnc1
REMARK SMILES IDX 4 1 5 2 9 3 6 4 8 5 7 6 2 7 1 8 3 9
REMARK H PARENT
REMARK Flexibility Score: inf
ROOT
ATOM      1  C   UNL     1     130.809 125.879 127.276  1.00  0.00     0.016 A 
ATOM      2  C   UNL     1     129.665 126.320 127.960  1.00  0.00     0.013 A 
ATOM      3  C   UNL     1     130.824 124.563 126.780  1.00  0.00     0.120 A 
ATOM      4  C   UNL     1     128.578 125.463 128.135  1.00  0.00     0.021 A 
ATOM      5  N   UNL     1     129.751 123.748 126.964  1.00  0.00    -0.264 NA
ATOM      6  C   UNL     1     128.640 124.166 127.625  1.00  0.00     0.111 A 
ENDROOT
BRANCH   1   7
ATOM      7  C   UNL     1     131.967 126.779 127.083  1.00  0.00     0.073 C 
ATOM      8  O   UNL     1     132.028 127.882 127.688  1.00  0.00    -0.545 OA
ATOM      9  O   UNL     1     133.003 126.418 126.230  1.00  0.00    -0.545 OA
ENDBRANCH   1   7
TORSDOF 1
ENDMDL
MODEL 4
REMARK VINA RESULT:    -4.522      3.491      4.111
REMARK INTER + INTRA:          -4.808
REMARK INTER:                  -4.785
REMARK INTRA:                  -0.024
REMARK UNBOUND:                -0.022
REMARK SMILES O=C([O-])c1cccnc1
REMARK SMILES IDX 4 1 5 2 9 3 6 4 8 5 7 6 2 7 1 8 3 9
REMARK H PARENT
REMARK Flexibility Score: inf
ROOT
ATOM      1  C   UNL     1     128.318 124.765 127.972  1.00  0.00     0.016 A 
ATOM      2  C   UNL     1     129.041 123.664 127.483  1.00  0.00     0.013 A 
ATOM      3  C   UNL     1     128.682 126.050 127.532  1.00  0.00     0.120 A 
ATOM      4  C   UNL     1     130.090 123.857 126.584  1.00  0.00     0.021 A 
ATOM      5  N   UNL     1     129.709 126.210 126.655  1.00  0.00    -0.264 NA
ATOM      6  C   UNL     1     130.413 125.151 126.177  1.00  0.00     0.111 A 
ENDROOT
BRANCH   1   7
ATOM      7  C   UNL     1     127.204 124.573 128.925  1.00  0.00     0.073 C 
ATOM      8  O   UNL     1     127.055 123.476 129.524  1.00  0.00    -0.545 OA
ATOM      9  O   UNL     1     126.303 125.603 129.170  1.00  0.00    -0.545 OA
ENDBRANCH   1   7
TORSDOF 1
ENDMDL
MODEL 5
REMARK VINA RESULT:    -4.497      3.792      4.267
REMARK INTER + INTRA:          -4.783
REMARK INTER:                  -4.765
REMARK INTRA:                  -0.017
REMARK UNBOUND:                -0.022
REMARK SMILES O=C([O-])c1cccnc1
REMARK SMILES IDX 4 1 5 2 9 3 6 4 8 5 7 6 2 7 1 8 3 9
REMARK H PARENT
REMARK Flexibility Score: inf
ROOT
ATOM      1  C   UNL     1     129.709 127.225 124.572  1.00  0.00     0.016 A 
ATOM      2  C   UNL     1     130.761 126.329 124.325  1.00  0.00     0.013 A 
ATOM      3  C   UNL     1     129.679 127.896 125.808  1.00  0.00     0.120 A 
ATOM      4  C   UNL     1     131.747 126.120 125.292  1.00  0.00     0.021 A 
ATOM      5  N   UNL     1     130.651 127.674 126.732  1.00  0.00    -0.264 NA
ATOM      6  C   UNL     1     131.674 126.809 126.502  1.00  0.00     0.111 A 
ENDROOT
BRANCH   1   7
ATOM      7  C   UNL     1     128.659 127.454 123.555  1.00  0.00     0.073 C 
ATOM      8  O   UNL     1     127.884 126.523 123.214  1.00  0.00    -0.545 OA
ATOM      9  O   UNL     1     128.517 128.703 122.962  1.00  0.00    -0.545 OA
ENDBRANCH   1   7
TORSDOF 1
ENDMDL
MODEL 6
REMARK VINA RESULT:    -4.449      4.839      4.992
REMARK INTER + INTRA:          -4.732
REMARK INTER:                  -4.714
REMARK INTRA:                  -0.017
REMARK UNBOUND:                -0.022
REMARK SMILES O=C([O-])c1cccnc1
REMARK SMILES IDX 4 1 5 2 9 3 6 4 8 5 7 6 2 7 1 8 3 9
REMARK H PARENT
REMARK Flexibility Score: inf
ROOT
ATOM      1  C   UNL     1     129.153 127.322 123.756  1.00  0.00     0.016 A 
ATOM      2  C   UNL     1     128.192 126.421 123.270  1.00  0.00     0.013 A 
ATOM      3  C   UNL     1     129.100 128.656 123.313  1.00  0.00     0.120 A 
ATOM      4  C   UNL     1     127.215 126.852 122.372  1.00  0.00     0.021 A 
ATOM      5  N   UNL     1     128.138 129.051 122.438  1.00  0.00    -0.264 NA
ATOM      6  C   UNL     1     127.204 128.186 121.963  1.00  0.00     0.111 A 
ENDROOT
BRANCH   1   7
ATOM      7  C   UNL     1     130.193 126.877 124.709  1.00  0.00     0.073 C 
ATOM      8  O   UNL     1     131.061 126.033 124.360  1.00  0.00    -0.545 OA
ATOM      9  O   UNL     1     130.224 127.382 126.002  1.00  0.00    -0.545 OA
ENDBRANCH   1   7
TORSDOF 1
ENDMDL
MODEL 7
REMARK VINA RESULT:    -4.328      4.956      5.300
REMARK INTER + INTRA:          -4.603
REMARK INTER:                  -4.587
REMARK INTRA:                  -0.016
REMARK UNBOUND:                -0.022
REMARK SMILES O=C([O-])c1cccnc1
REMARK SMILES IDX 4 1 5 2 9 3 6 4 8 5 7 6 2 7 1 8 3 9
REMARK H PARENT
REMARK Flexibility Score: inf
ROOT
ATOM      1  C   UNL     1     128.936 127.219 123.590  1.00  0.00     0.016 A 
ATOM      2  C   UNL     1     128.974 128.549 123.139  1.00  0.00     0.013 A 
ATOM      3  C   UNL     1     127.884 126.395 123.150  1.00  0.00     0.120 A 
ATOM      4  C   UNL     1     127.986 129.026 122.276  1.00  0.00     0.021 A 
ATOM      5  N   UNL     1     126.934 126.885 122.310  1.00  0.00    -0.264 NA
ATOM      6  C   UNL     1     126.963 128.170 121.868  1.00  0.00     0.111 A 
ENDROOT
BRANCH   1   7
ATOM      7  C   UNL     1     129.978 126.703 124.503  1.00  0.00     0.073 C 
ATOM      8  O   UNL     1     131.090 126.319 124.054  1.00  0.00    -0.545 OA
ATOM      9  O   UNL     1     129.741 126.633 125.871  1.00  0.00    -0.545 OA
ENDBRANCH   1   7
TORSDOF 1
ENDMDL
MODEL 8
REMARK VINA RESULT:    -4.326      2.433      2.584
REMARK INTER + INTRA:          -4.602
REMARK INTER:                  -4.578
REMARK INTRA:                  -0.024
REMARK UNBOUND:                -0.022
REMARK SMILES O=C([O-])c1cccnc1
REMARK SMILES IDX 4 1 5 2 9 3 6 4 8 5 7 6 2 7 1 8 3 9
REMARK H PARENT
REMARK Flexibility Score: inf
ROOT
ATOM      1  C   UNL     1     130.885 127.091 126.062  1.00  0.00     0.016 A 
ATOM      2  C   UNL     1     130.910 126.435 124.820  1.00  0.00     0.013 A 
ATOM      3  C   UNL     1     129.686 127.704 126.468  1.00  0.00     0.120 A 
ATOM      4  C   UNL     1     129.767 126.401 124.021  1.00  0.00     0.021 A 
ATOM      5  N   UNL     1     128.586 127.657 125.670  1.00  0.00    -0.264 NA
ATOM      6  C   UNL     1     128.601 127.024 124.467  1.00  0.00     0.111 A 
ENDROOT
BRANCH   1   7
ATOM      7  C   UNL     1     132.090 127.133 126.918  1.00  0.00     0.073 C 
ATOM      8  O   UNL     1     133.104 126.444 126.630  1.00  0.00    -0.545 OA
ATOM      9  O   UNL     1     132.118 127.933 128.054  1.00  0.00    -0.545 OA
ENDBRANCH   1   7
TORSDOF 1
ENDMDL
MODEL 9
REMARK VINA RESULT:    -4.256      2.970      3.855
REMARK INTER + INTRA:          -4.527
REMARK INTER:                  -4.511
REMARK INTRA:                  -0.016
REMARK UNBOUND:                -0.022
REMARK SMILES O=C([O-])c1cccnc1
REMARK SMILES IDX 4 1 5 2 9 3 6 4 8 5 7 6 2 7 1 8 3 9
REMARK H PARENT
REMARK Flexibility Score: inf
ROOT
ATOM      1  C   UNL     1     129.435 125.541 126.823  1.00  0.00     0.016 A 
ATOM      2  C   UNL     1     130.072 126.556 127.555  1.00  0.00     0.013 A 
ATOM      3  C   UNL     1     128.917 125.858 125.554  1.00  0.00     0.120 A 
ATOM      4  C   UNL     1     130.180 127.842 127.024  1.00  0.00     0.021 A 
ATOM      5  N   UNL     1     129.035 127.119 125.060  1.00  0.00    -0.264 NA
ATOM      6  C   UNL     1     129.650 128.108 125.762  1.00  0.00     0.111 A 
ENDROOT
BRANCH   1   7
ATOM      7  C   UNL     1     129.314 124.174 127.375  1.00  0.00     0.073 C 
ATOM      8  O   UNL     1     128.283 123.828 128.009  1.00  0.00    -0.545 OA
ATOM      9  O   UNL     1     130.340 123.253 127.201  1.00  0.00    -0.545 OA
ENDBRANCH   1   7
TORSDOF 1
ENDMDL
