MODEL 1
REMARK VINA RESULT:    -3.854      0.000      0.000
REMARK INTER + INTRA:          -5.009
REMARK INTER:                  -4.756
REMARK INTRA:                  -0.253
REMARK UNBOUND:                -0.253
REMARK SMILES CCCCC=CC(C)=O
REMARK SMILES IDX 4 1 3 2 2 3 1 4 5 5 6 6 7 7 9 8 8 9
REMARK H PARENT
REMARK Flexibility Score: inf
ROOT
ATOM      1  C   UNL     1      44.209  57.155  29.118  1.00  0.00     0.027 C 
ENDROOT
BRANCH   1   2
ATOM      2  C   UNL     1      45.247  57.118  27.987  1.00  0.00     0.004 C 
BRANCH   2   3
ATOM      3  C   UNL     1      45.634  58.522  27.498  1.00  0.00    -0.003 C 
ATOM      4  C   UNL     1      44.771  59.000  26.330  1.00  0.00     0.004 C 
ENDBRANCH   2   3
ENDBRANCH   1   2
BRANCH   1   5
ATOM      5  C   UNL     1      42.865  56.687  28.637  1.00  0.00    -0.023 C 
ATOM      6  C   UNL     1      42.718  55.524  27.994  1.00  0.00     0.042 C 
BRANCH   6   7
ATOM      7  C   UNL     1      41.406  55.040  27.526  1.00  0.00     0.152 C 
ATOM      8  O   UNL     1      41.066  53.837  27.691  1.00  0.00    -0.295 OA
ATOM      9  C   UNL     1      40.469  55.985  26.848  1.00  0.00     0.093 C 
ENDBRANCH   6   7
ENDBRANCH   1   5
TORSDOF 4
ENDMDL
MODEL 2
REMARK VINA RESULT:    -3.836      0.803      1.180
REMARK INTER + INTRA:          -4.987
REMARK INTER:                  -4.740
REMARK INTRA:                  -0.246
REMARK UNBOUND:                -0.253
REMARK SMILES CCCCC=CC(C)=O
REMARK SMILES IDX 4 1 3 2 2 3 1 4 5 5 6 6 7 7 9 8 8 9
REMARK H PARENT
REMARK Flexibility Score: inf
ROOT
ATOM      1  C   UNL     1      44.313  57.242  29.052  1.00  0.00     0.027 C 
ENDROOT
BRANCH   1   2
ATOM      2  C   UNL     1      44.883  58.213  28.008  1.00  0.00     0.004 C 
BRANCH   2   3
ATOM      3  C   UNL     1      46.400  58.055  27.822  1.00  0.00    -0.003 C 
ATOM      4  C   UNL     1      46.785  56.698  27.233  1.00  0.00     0.004 C 
ENDBRANCH   2   3
ENDBRANCH   1   2
BRANCH   1   5
ATOM      5  C   UNL     1      42.967  56.725  28.633  1.00  0.00    -0.023 C 
ATOM      6  C   UNL     1      42.837  55.573  27.966  1.00  0.00     0.042 C 
BRANCH   6   7
ATOM      7  C   UNL     1      41.524  55.040  27.557  1.00  0.00     0.152 C 
ATOM      8  O   UNL     1      41.243  53.821  27.719  1.00  0.00    -0.295 OA
ATOM      9  C   UNL     1      40.513  55.954  26.945  1.00  0.00     0.093 C 
ENDBRANCH   6   7
ENDBRANCH   1   5
TORSDOF 4
ENDMDL
MODEL 3
REMARK VINA RESULT:    -3.709      3.179      5.305
REMARK INTER + INTRA:          -4.829
REMARK INTER:                  -4.618
REMARK INTRA:                  -0.211
REMARK UNBOUND:                -0.253
REMARK SMILES CCCCC=CC(C)=O
REMARK SMILES IDX 4 1 3 2 2 3 1 4 5 5 6 6 7 7 9 8 8 9
REMARK H PARENT
REMARK Flexibility Score: inf
ROOT
ATOM      1  C   UNL     1      44.189  57.448  29.058  1.00  0.00     0.027 C 
ENDROOT
BRANCH   1   2
ATOM      2  C   UNL     1      42.974  56.603  28.647  1.00  0.00     0.004 C 
BRANCH   2   3
ATOM      3  C   UNL     1      43.302  55.605  27.526  1.00  0.00    -0.003 C 
ATOM      4  C   UNL     1      42.390  54.379  27.540  1.00  0.00     0.004 C 
ENDBRANCH   2   3
ENDBRANCH   1   2
BRANCH   1   5
ATOM      5  C   UNL     1      45.315  57.291  28.077  1.00  0.00    -0.023 C 
ATOM      6  C   UNL     1      46.297  58.195  27.989  1.00  0.00     0.042 C 
BRANCH   6   7
ATOM      7  C   UNL     1      47.419  58.053  27.042  1.00  0.00     0.152 C 
ATOM      8  O   UNL     1      47.872  59.055  26.424  1.00  0.00    -0.295 OA
ATOM      9  C   UNL     1      48.027  56.708  26.812  1.00  0.00     0.093 C 
ENDBRANCH   6   7
ENDBRANCH   1   5
TORSDOF 4
ENDMDL
MODEL 4
REMARK VINA RESULT:    -3.548     16.724     17.582
REMARK INTER + INTRA:          -4.630
REMARK INTER:                  -4.433
REMARK INTRA:                  -0.197
REMARK UNBOUND:                -0.253
REMARK SMILES CCCCC=CC(C)=O
REMARK SMILES IDX 4 1 3 2 2 3 1 4 5 5 6 6 7 7 9 8 8 9
REMARK H PARENT
REMARK Flexibility Score: inf
ROOT
ATOM      1  C   UNL     1      37.211  63.686  42.066  1.00  0.00     0.027 C 
ENDROOT
BRANCH   1   2
ATOM      2  C   UNL     1      36.566  62.294  42.125  1.00  0.00     0.004 C 
BRANCH   2   3
ATOM      3  C   UNL     1      37.601  61.161  42.067  1.00  0.00    -0.003 C 
ATOM      4  C   UNL     1      38.395  61.152  40.761  1.00  0.00     0.004 C 
ENDBRANCH   2   3
ENDBRANCH   1   2
BRANCH   1   5
ATOM      5  C   UNL     1      36.210  64.732  41.668  1.00  0.00    -0.023 C 
ATOM      6  C   UNL     1      34.922  64.429  41.471  1.00  0.00     0.042 C 
BRANCH   6   7
ATOM      7  C   UNL     1      33.921  65.444  41.093  1.00  0.00     0.152 C 
ATOM      8  O   UNL     1      34.088  66.166  40.073  1.00  0.00    -0.295 OA
ATOM      9  C   UNL     1      32.693  65.617  41.927  1.00  0.00     0.093 C 
ENDBRANCH   6   7
ENDBRANCH   1   5
TORSDOF 4
ENDMDL
MODEL 5
REMARK VINA RESULT:    -3.544      3.485      5.310
REMARK INTER + INTRA:          -4.625
REMARK INTER:                  -4.369
REMARK INTRA:                  -0.256
REMARK UNBOUND:                -0.253
REMARK SMILES CCCCC=CC(C)=O
REMARK SMILES IDX 4 1 3 2 2 3 1 4 5 5 6 6 7 7 9 8 8 9
REMARK H PARENT
REMARK Flexibility Score: inf
ROOT
ATOM      1  C   UNL     1      44.796  58.163  28.110  1.00  0.00     0.027 C 
ENDROOT
BRANCH   1   2
ATOM      2  C   UNL     1      44.191  57.171  29.114  1.00  0.00     0.004 C 
BRANCH   2   3
ATOM      3  C   UNL     1      42.941  56.467  28.565  1.00  0.00    -0.003 C 
ATOM      4  C   UNL     1      42.992  56.264  27.051  1.00  0.00     0.004 C 
ENDBRANCH   2   3
ENDBRANCH   1   2
BRANCH   1   5
ATOM      5  C   UNL     1      46.256  57.890  27.890  1.00  0.00    -0.023 C 
ATOM      6  C   UNL     1      46.673  57.002  26.981  1.00  0.00     0.042 C 
BRANCH   6   7
ATOM      7  C   UNL     1      48.102  56.728  26.740  1.00  0.00     0.152 C 
ATOM      8  O   UNL     1      48.861  57.623  26.275  1.00  0.00    -0.295 OA
ATOM      9  C   UNL     1      48.659  55.378  27.051  1.00  0.00     0.093 C 
ENDBRANCH   6   7
ENDBRANCH   1   5
TORSDOF 4
ENDMDL
MODEL 6
REMARK VINA RESULT:    -3.539      2.810      5.031
REMARK INTER + INTRA:          -4.619
REMARK INTER:                  -4.439
REMARK INTRA:                  -0.181
REMARK UNBOUND:                -0.253
REMARK SMILES CCCCC=CC(C)=O
REMARK SMILES IDX 4 1 3 2 2 3 1 4 5 5 6 6 7 7 9 8 8 9
REMARK H PARENT
REMARK Flexibility Score: inf
ROOT
ATOM      1  C   UNL     1      43.771  57.164  29.015  1.00  0.00     0.027 C 
ENDROOT
BRANCH   1   2
ATOM      2  C   UNL     1      42.974  55.930  28.566  1.00  0.00     0.004 C 
BRANCH   2   3
ATOM      3  C   UNL     1      42.246  56.152  27.232  1.00  0.00    -0.003 C 
ATOM      4  C   UNL     1      40.728  56.034  27.359  1.00  0.00     0.004 C 
ENDBRANCH   2   3
ENDBRANCH   1   2
BRANCH   1   5
ATOM      5  C   UNL     1      45.000  57.351  28.173  1.00  0.00    -0.023 C 
ATOM      6  C   UNL     1      45.170  58.441  27.415  1.00  0.00     0.042 C 
BRANCH   6   7
ATOM      7  C   UNL     1      46.375  58.651  26.592  1.00  0.00     0.152 C 
ATOM      8  O   UNL     1      46.319  59.322  25.525  1.00  0.00    -0.295 OA
ATOM      9  C   UNL     1      47.678  58.063  27.025  1.00  0.00     0.093 C 
ENDBRANCH   6   7
ENDBRANCH   1   5
TORSDOF 4
ENDMDL
MODEL 7
REMARK VINA RESULT:    -3.452      3.590      5.736
REMARK INTER + INTRA:          -4.512
REMARK INTER:                  -4.295
REMARK INTRA:                  -0.217
REMARK UNBOUND:                -0.253
REMARK SMILES CCCCC=CC(C)=O
REMARK SMILES IDX 4 1 3 2 2 3 1 4 5 5 6 6 7 7 9 8 8 9
REMARK H PARENT
REMARK Flexibility Score: inf
ROOT
ATOM      1  C   UNL     1      44.380  57.783  26.938  1.00  0.00     0.027 C 
ENDROOT
BRANCH   1   2
ATOM      2  C   UNL     1      44.662  57.682  28.444  1.00  0.00     0.004 C 
BRANCH   2   3
ATOM      3  C   UNL     1      43.613  56.840  29.185  1.00  0.00    -0.003 C 
ATOM      4  C   UNL     1      42.794  55.955  28.246  1.00  0.00     0.004 C 
ENDBRANCH   2   3
ENDBRANCH   1   2
BRANCH   1   5
ATOM      5  C   UNL     1      45.565  58.335  26.199  1.00  0.00    -0.023 C 
ATOM      6  C   UNL     1      46.780  58.375  26.757  1.00  0.00     0.042 C 
BRANCH   6   7
ATOM      7  C   UNL     1      47.960  58.901  26.044  1.00  0.00     0.152 C 
ATOM      8  O   UNL     1      49.124  58.685  26.478  1.00  0.00    -0.295 OA
ATOM      9  C   UNL     1      47.774  59.696  24.794  1.00  0.00     0.093 C 
ENDBRANCH   6   7
ENDBRANCH   1   5
TORSDOF 4
ENDMDL
MODEL 8
REMARK VINA RESULT:    -3.356      1.563      2.531
REMARK INTER + INTRA:          -4.394
REMARK INTER:                  -4.189
REMARK INTRA:                  -0.205
REMARK UNBOUND:                -0.253
REMARK SMILES CCCCC=CC(C)=O
REMARK SMILES IDX 4 1 3 2 2 3 1 4 5 5 6 6 7 7 9 8 8 9
REMARK H PARENT
REMARK Flexibility Score: inf
ROOT
ATOM      1  C   UNL     1      43.212  55.812  27.326  1.00  0.00     0.027 C 
ENDROOT
BRANCH   1   2
ATOM      2  C   UNL     1      42.993  56.586  28.634  1.00  0.00     0.004 C 
BRANCH   2   3
ATOM      3  C   UNL     1      44.249  57.349  29.083  1.00  0.00    -0.003 C 
ATOM      4  C   UNL     1      45.337  57.383  28.010  1.00  0.00     0.004 C 
ENDBRANCH   2   3
ENDBRANCH   1   2
BRANCH   1   5
ATOM      5  C   UNL     1      42.027  55.944  26.413  1.00  0.00    -0.023 C 
ATOM      6  C   UNL     1      40.795  55.607  26.812  1.00  0.00     0.042 C 
BRANCH   6   7
ATOM      7  C   UNL     1      39.616  55.742  25.936  1.00  0.00     0.152 C 
ATOM      8  O   UNL     1      38.473  55.385  26.334  1.00  0.00    -0.295 OA
ATOM      9  C   UNL     1      39.776  56.307  24.563  1.00  0.00     0.093 C 
ENDBRANCH   6   7
ENDBRANCH   1   5
TORSDOF 4
ENDMDL
MODEL 9
REMARK VINA RESULT:    -3.342     16.779     17.544
REMARK INTER + INTRA:          -4.376
REMARK INTER:                  -4.190
REMARK INTRA:                  -0.186
REMARK UNBOUND:                -0.253
REMARK SMILES CCCCC=CC(C)=O
REMARK SMILES IDX 4 1 3 2 2 3 1 4 5 5 6 6 7 7 9 8 8 9
REMARK H PARENT
REMARK Flexibility Score: inf
ROOT
ATOM      1  C   UNL     1      36.119  64.465  41.691  1.00  0.00     0.027 C 
ENDROOT
BRANCH   1   2
ATOM      2  C   UNL     1      37.359  63.565  41.793  1.00  0.00     0.004 C 
BRANCH   2   3
ATOM      3  C   UNL     1      37.006  62.070  41.748  1.00  0.00    -0.003 C 
ATOM      4  C   UNL     1      38.137  61.212  41.181  1.00  0.00     0.004 C 
ENDBRANCH   2   3
ENDBRANCH   1   2
BRANCH   1   5
ATOM      5  C   UNL     1      34.861  63.687  41.947  1.00  0.00    -0.023 C 
ATOM      6  C   UNL     1      33.763  63.868  41.205  1.00  0.00     0.042 C 
BRANCH   6   7
ATOM      7  C   UNL     1      32.521  63.105  41.431  1.00  0.00     0.152 C 
ATOM      8  O   UNL     1      32.534  62.038  42.104  1.00  0.00    -0.295 OA
ATOM      9  C   UNL     1      31.234  63.600  40.858  1.00  0.00     0.093 C 
ENDBRANCH   6   7
ENDBRANCH   1   5
TORSDOF 4
ENDMDL
