MODEL 1
REMARK VINA RESULT:    -5.061      0.000      0.000
REMARK INTER + INTRA:          -8.225
REMARK INTER:                  -7.723
REMARK INTRA:                  -0.502
REMARK UNBOUND:                -0.502
REMARK SMILES CC1=CCC[C@@H](C)C(=O)C[C@@H](C(C)C)C(=O)C1
REMARK SMILES IDX 8 1 9 2 6 3 7 4 5 5 4 6 3 7 2 8 1 9 10 11 11 12 15 13 16 14
REMARK SMILES IDX 17 15 12 17 13 18 14 19
REMARK H PARENT
REMARK Flexibility Score: 70.00
ROOT
ATOM      1  C   UNL     1      -9.369  32.935  22.383  1.00  0.00     0.136 C 
ATOM      2  O   UNL     1     -10.095  32.659  21.440  1.00  0.00    -0.299 OA
ENDROOT
BRANCH   1   3
ATOM      3  C   UNL     1      -7.866  32.957  22.198  1.00  0.00     0.053 C 
ATOM      4  C   UNL     1      -7.513  33.858  21.010  1.00  0.00     0.016 C 
BRANCH   3   5
ATOM      5  C   UNL     1      -7.281  31.541  21.987  1.00  0.00     0.015 C 
BRANCH   5   6
ATOM      6  C   UNL     1      -6.842  30.865  23.292  1.00  0.00     0.028 C 
BRANCH   6   7
ATOM      7  C   UNL     1      -7.945  30.001  23.858  1.00  0.00    -0.028 C 
ATOM      8  C   UNL     1      -8.556  30.166  25.054  1.00  0.00    -0.070 CG0
ATOM      9  C   UNL     1      -9.621  29.171  25.441  1.00  0.00     0.039 C 
ATOM     10  G   UNL     1      -8.216  31.277  26.033  1.00  0.00     0.000 G0
ENDBRANCH   6   7
ENDBRANCH   5   6
ENDBRANCH   3   5
ENDBRANCH   1   3
BRANCH   1  11
ATOM     11  C   UNL     1      -9.984  33.363  23.693  1.00  0.00     0.087 C 
BRANCH  11  12
ATOM     12  C   UNL     1      -8.957  33.573  24.835  1.00  0.00     0.066 C 
BRANCH  12  13
ATOM     13  C   UNL     1      -9.137  32.483  25.891  1.00  0.00     0.140 C 
ATOM     14  O   UNL     1     -10.097  32.579  26.643  1.00  0.00    -0.299 OA
BRANCH  13  15
ATOM     15  C   UNL     1      -8.234  31.277  26.052  1.00  0.00     0.106 CG0
ATOM     16  G   UNL     1      -8.562  30.194  25.039  1.00  0.00     0.000 G0
ENDBRANCH  13  15
ENDBRANCH  12  13
BRANCH  12  17
ATOM     17  C   UNL     1      -8.869  35.040  25.375  1.00  0.00    -0.006 C 
ATOM     18  C   UNL     1      -8.252  36.000  24.339  1.00  0.00     0.008 C 
ATOM     19  C   UNL     1      -8.013  35.112  26.655  1.00  0.00     0.008 C 
ENDBRANCH  12  17
ENDBRANCH  11  12
ENDBRANCH   1  11
TORSDOF 1
ENDMDL
MODEL 2
REMARK VINA RESULT:    -4.988      1.545      3.909
REMARK INTER + INTRA:          -8.114
REMARK INTER:                  -8.164
REMARK INTRA:                   0.049
REMARK UNBOUND:                -0.502
REMARK SMILES CC1=CCC[C@@H](C)C(=O)C[C@@H](C(C)C)C(=O)C1
REMARK SMILES IDX 8 1 9 2 6 3 7 4 5 5 4 6 3 7 2 8 1 9 10 11 11 12 15 13 16 14
REMARK SMILES IDX 17 15 12 17 13 18 14 19
REMARK H PARENT
REMARK Flexibility Score: 70.00
ROOT
ATOM      1  C   UNL     1      -8.301  33.418  22.692  1.00  0.00     0.136 C 
ATOM      2  O   UNL     1      -9.030  32.978  21.815  1.00  0.00    -0.299 OA
ENDROOT
BRANCH   1   3
ATOM      3  C   UNL     1      -8.250  34.908  22.954  1.00  0.00     0.053 C 
ATOM      4  C   UNL     1      -7.451  35.595  21.842  1.00  0.00     0.016 C 
BRANCH   3   5
ATOM      5  C   UNL     1      -7.636  35.239  24.335  1.00  0.00     0.015 C 
BRANCH   5   6
ATOM      6  C   UNL     1      -8.675  35.306  25.461  1.00  0.00     0.028 C 
BRANCH   6   7
ATOM      7  C   UNL     1      -8.244  34.483  26.652  1.00  0.00    -0.028 C 
ATOM      8  C   UNL     1      -8.606  33.207  26.917  1.00  0.00    -0.070 CG0
ATOM      9  C   UNL     1      -8.081  32.575  28.181  1.00  0.00     0.039 C 
ATOM     10  G   UNL     1      -9.526  32.386  26.029  1.00  0.00     0.000 G0
ENDBRANCH   6   7
ENDBRANCH   5   6
ENDBRANCH   3   5
ENDBRANCH   1   3
BRANCH   1  11
ATOM     11  C   UNL     1      -7.547  32.459  23.580  1.00  0.00     0.087 C 
BRANCH  11  12
ATOM     12  C   UNL     1      -8.330  31.165  23.921  1.00  0.00     0.066 C 
BRANCH  12  13
ATOM     13  C   UNL     1      -8.792  31.217  25.377  1.00  0.00     0.140 C 
ATOM     14  O   UNL     1      -8.531  30.255  26.086  1.00  0.00    -0.299 OA
BRANCH  13  15
ATOM     15  C   UNL     1      -9.520  32.384  26.012  1.00  0.00     0.106 CG0
ATOM     16  G   UNL     1      -8.594  33.209  26.890  1.00  0.00     0.000 G0
ENDBRANCH  13  15
ENDBRANCH  12  13
BRANCH  12  17
ATOM     17  C   UNL     1      -7.629  29.839  23.473  1.00  0.00    -0.006 C 
ATOM     18  C   UNL     1      -6.235  30.097  22.871  1.00  0.00     0.008 C 
ATOM     19  C   UNL     1      -8.469  29.094  22.416  1.00  0.00     0.008 C 
ENDBRANCH  12  17
ENDBRANCH  11  12
ENDBRANCH   1  11
TORSDOF 1
ENDMDL
MODEL 3
REMARK VINA RESULT:    -4.650      1.582      2.023
REMARK INTER + INTRA:          -7.599
REMARK INTER:                  -7.590
REMARK INTRA:                  -0.008
REMARK UNBOUND:                -0.502
REMARK SMILES CC1=CCC[C@@H](C)C(=O)C[C@@H](C(C)C)C(=O)C1
REMARK SMILES IDX 8 1 9 2 6 3 7 4 5 5 4 6 3 7 2 8 1 9 10 11 11 12 15 13 16 14
REMARK SMILES IDX 17 15 12 17 13 18 14 19
REMARK H PARENT
REMARK Flexibility Score: 70.00
ROOT
ATOM      1  C   UNL     1      -8.188  34.480  22.130  1.00  0.00     0.136 C 
ATOM      2  O   UNL     1      -7.680  35.587  22.028  1.00  0.00    -0.299 OA
ENDROOT
BRANCH   1   3
ATOM      3  C   UNL     1      -7.812  33.384  21.155  1.00  0.00     0.053 C 
ATOM      4  C   UNL     1      -7.088  33.999  19.952  1.00  0.00     0.016 C 
BRANCH   3   5
ATOM      5  C   UNL     1      -9.041  32.574  20.682  1.00  0.00     0.015 C 
BRANCH   5   6
ATOM      6  C   UNL     1      -9.069  31.140  21.227  1.00  0.00     0.028 C 
BRANCH   6   7
ATOM      7  C   UNL     1      -7.855  30.855  22.079  1.00  0.00    -0.028 C 
ATOM      8  C   UNL     1      -7.779  30.964  23.425  1.00  0.00    -0.070 CG0
ATOM      9  C   UNL     1      -6.457  30.654  24.081  1.00  0.00     0.039 C 
ATOM     10  G   UNL     1      -8.937  31.399  24.307  1.00  0.00     0.000 G0
ENDBRANCH   6   7
ENDBRANCH   5   6
ENDBRANCH   3   5
ENDBRANCH   1   3
BRANCH   1  11
ATOM     11  C   UNL     1      -9.098  34.186  23.296  1.00  0.00     0.087 C 
BRANCH  11  12
ATOM     12  C   UNL     1      -8.358  34.016  24.648  1.00  0.00     0.066 C 
BRANCH  12  13
ATOM     13  C   UNL     1      -8.574  32.598  25.174  1.00  0.00     0.140 C 
ATOM     14  O   UNL     1      -8.477  32.422  26.380  1.00  0.00    -0.299 OA
BRANCH  13  15
ATOM     15  C   UNL     1      -8.930  31.402  24.314  1.00  0.00     0.106 CG0
ATOM     16  G   UNL     1      -7.762  30.974  23.442  1.00  0.00     0.000 G0
ENDBRANCH  13  15
ENDBRANCH  12  13
BRANCH  12  17
ATOM     17  C   UNL     1      -8.603  35.171  25.677  1.00  0.00    -0.006 C 
ATOM     18  C   UNL     1      -9.319  36.375  25.035  1.00  0.00     0.008 C 
ATOM     19  C   UNL     1      -7.274  35.676  26.274  1.00  0.00     0.008 C 
ENDBRANCH  12  17
ENDBRANCH  11  12
ENDBRANCH   1  11
TORSDOF 1
ENDMDL
MODEL 4
REMARK VINA RESULT:    -4.633      2.076      5.069
REMARK INTER + INTRA:          -7.573
REMARK INTER:                  -7.271
REMARK INTRA:                  -0.302
REMARK UNBOUND:                -0.502
REMARK SMILES CC1=CCC[C@@H](C)C(=O)C[C@@H](C(C)C)C(=O)C1
REMARK SMILES IDX 8 1 9 2 6 3 7 4 5 5 4 6 3 7 2 8 1 9 10 11 11 12 15 13 16 14
REMARK SMILES IDX 17 15 12 17 13 18 14 19
REMARK H PARENT
REMARK Flexibility Score: 70.00
ROOT
ATOM      1  C   UNL     1      -9.336  30.617  25.480  1.00  0.00     0.136 C 
ATOM      2  O   UNL     1      -9.726  29.462  25.399  1.00  0.00    -0.299 OA
ENDROOT
BRANCH   1   3
ATOM      3  C   UNL     1      -8.612  31.084  26.725  1.00  0.00     0.053 C 
ATOM      4  C   UNL     1      -8.775  30.037  27.832  1.00  0.00     0.016 C 
BRANCH   3   5
ATOM      5  C   UNL     1      -9.119  32.462  27.214  1.00  0.00     0.015 C 
BRANCH   5   6
ATOM      6  C   UNL     1      -8.052  33.562  27.138  1.00  0.00     0.028 C 
BRANCH   6   7
ATOM      7  C   UNL     1      -8.628  34.844  26.584  1.00  0.00    -0.028 C 
ATOM      8  C   UNL     1      -8.418  35.346  25.346  1.00  0.00    -0.070 CG0
ATOM      9  C   UNL     1      -9.071  36.660  25.000  1.00  0.00     0.039 C 
ATOM     10  G   UNL     1      -7.548  34.675  24.296  1.00  0.00     0.000 G0
ENDBRANCH   6   7
ENDBRANCH   5   6
ENDBRANCH   3   5
ENDBRANCH   1   3
BRANCH   1  11
ATOM     11  C   UNL     1      -9.477  31.533  24.289  1.00  0.00     0.087 C 
BRANCH  11  12
ATOM     12  C   UNL     1      -8.134  32.108  23.771  1.00  0.00     0.066 C 
BRANCH  12  13
ATOM     13  C   UNL     1      -8.284  33.608  23.520  1.00  0.00     0.140 C 
ATOM     14  O   UNL     1      -9.089  33.961  22.669  1.00  0.00    -0.299 OA
BRANCH  13  15
ATOM     15  C   UNL     1      -7.533  34.689  24.270  1.00  0.00     0.106 CG0
ATOM     16  G   UNL     1      -8.402  35.337  25.334  1.00  0.00     0.000 G0
ENDBRANCH  13  15
ENDBRANCH  12  13
BRANCH  12  17
ATOM     17  C   UNL     1      -7.471  31.284  22.616  1.00  0.00    -0.006 C 
ATOM     18  C   UNL     1      -8.476  30.336  21.933  1.00  0.00     0.008 C 
ATOM     19  C   UNL     1      -6.299  30.432  23.141  1.00  0.00     0.008 C 
ENDBRANCH  12  17
ENDBRANCH  11  12
ENDBRANCH   1  11
TORSDOF 1
ENDMDL
MODEL 5
REMARK VINA RESULT:    -4.371      1.849      2.952
REMARK INTER + INTRA:          -7.173
REMARK INTER:                  -7.784
REMARK INTRA:                   0.611
REMARK UNBOUND:                -0.502
REMARK SMILES CC1=CCC[C@@H](C)C(=O)C[C@@H](C(C)C)C(=O)C1
REMARK SMILES IDX 8 1 9 2 6 3 7 4 5 5 4 6 3 7 2 8 1 9 10 11 11 12 15 13 16 14
REMARK SMILES IDX 17 15 12 17 13 18 14 19
REMARK H PARENT
REMARK Flexibility Score: 70.00
ROOT
ATOM      1  C   UNL     1      -8.434  34.310  24.148  1.00  0.00     0.136 C 
ATOM      2  O   UNL     1      -8.002  35.251  24.797  1.00  0.00    -0.299 OA
ENDROOT
BRANCH   1   3
ATOM      3  C   UNL     1      -8.000  34.123  22.709  1.00  0.00     0.053 C 
ATOM      4  C   UNL     1      -7.489  35.456  22.154  1.00  0.00     0.016 C 
BRANCH   3   5
ATOM      5  C   UNL     1      -9.140  33.576  21.820  1.00  0.00     0.015 C 
BRANCH   5   6
ATOM      6  C   UNL     1      -9.004  32.079  21.511  1.00  0.00     0.028 C 
BRANCH   6   7
ATOM      7  C   UNL     1      -7.688  31.535  22.015  1.00  0.00    -0.028 C 
ATOM      8  C   UNL     1      -7.493  30.859  23.170  1.00  0.00    -0.070 CG0
ATOM      9  C   UNL     1      -6.087  30.422  23.500  1.00  0.00     0.039 C 
ATOM     10  G   UNL     1      -8.599  30.536  24.161  1.00  0.00     0.000 G0
ENDBRANCH   6   7
ENDBRANCH   5   6
ENDBRANCH   3   5
ENDBRANCH   1   3
BRANCH   1  11
ATOM     11  C   UNL     1      -9.305  33.279  24.824  1.00  0.00     0.087 C 
BRANCH  11  12
ATOM     12  C   UNL     1      -8.608  32.530  25.988  1.00  0.00     0.066 C 
BRANCH  12  13
ATOM     13  C   UNL     1      -8.292  31.098  25.557  1.00  0.00     0.140 C 
ATOM     14  O   UNL     1      -7.788  30.356  26.389  1.00  0.00    -0.299 OA
BRANCH  13  15
ATOM     15  C   UNL     1      -8.588  30.522  24.187  1.00  0.00     0.106 CG0
ATOM     16  G   UNL     1      -7.498  30.872  23.188  1.00  0.00     0.000 G0
ENDBRANCH  13  15
ENDBRANCH  12  13
BRANCH  12  17
ATOM     17  C   UNL     1      -9.310  32.686  27.379  1.00  0.00    -0.006 C 
ATOM     18  C   UNL     1      -8.303  33.000  28.502  1.00  0.00     0.008 C 
ATOM     19  C   UNL     1     -10.067  31.400  27.769  1.00  0.00     0.008 C 
ENDBRANCH  12  17
ENDBRANCH  11  12
ENDBRANCH   1  11
TORSDOF 1
ENDMDL
MODEL 6
REMARK VINA RESULT:    -4.085      1.961      5.183
REMARK INTER + INTRA:          -6.737
REMARK INTER:                  -6.490
REMARK INTRA:                  -0.247
REMARK UNBOUND:                -0.502
REMARK SMILES CC1=CCC[C@@H](C)C(=O)C[C@@H](C(C)C)C(=O)C1
REMARK SMILES IDX 8 1 9 2 6 3 7 4 5 5 4 6 3 7 2 8 1 9 10 11 11 12 15 13 16 14
REMARK SMILES IDX 17 15 12 17 13 18 14 19
REMARK H PARENT
REMARK Flexibility Score: 70.00
ROOT
ATOM      1  C   UNL     1      -9.476  32.579  26.199  1.00  0.00     0.136 C 
ATOM      2  O   UNL     1     -10.125  32.181  27.154  1.00  0.00    -0.299 OA
ENDROOT
BRANCH   1   3
ATOM      3  C   UNL     1      -8.219  33.392  26.427  1.00  0.00     0.053 C 
ATOM      4  C   UNL     1      -7.552  32.944  27.731  1.00  0.00     0.016 C 
BRANCH   3   5
ATOM      5  C   UNL     1      -8.503  34.912  26.467  1.00  0.00     0.015 C 
BRANCH   5   6
ATOM      6  C   UNL     1      -9.199  35.432  25.203  1.00  0.00     0.028 C 
BRANCH   6   7
ATOM      7  C   UNL     1      -8.212  35.633  24.078  1.00  0.00    -0.028 C 
ATOM      8  C   UNL     1      -8.271  35.067  22.850  1.00  0.00    -0.070 CG0
ATOM      9  C   UNL     1      -7.163  35.382  21.877  1.00  0.00     0.039 C 
ATOM     10  G   UNL     1      -9.373  34.120  22.407  1.00  0.00     0.000 G0
ENDBRANCH   6   7
ENDBRANCH   5   6
ENDBRANCH   3   5
ENDBRANCH   1   3
BRANCH   1  11
ATOM     11  C   UNL     1      -9.872  32.158  24.805  1.00  0.00     0.087 C 
BRANCH  11  12
ATOM     12  C   UNL     1      -8.675  31.956  23.842  1.00  0.00     0.066 C 
BRANCH  12  13
ATOM     13  C   UNL     1      -8.961  32.663  22.517  1.00  0.00     0.140 C 
ATOM     14  O   UNL     1      -8.881  31.999  21.493  1.00  0.00    -0.299 OA
BRANCH  13  15
ATOM     15  C   UNL     1      -9.366  34.117  22.383  1.00  0.00     0.106 CG0
ATOM     16  G   UNL     1      -8.263  35.050  22.852  1.00  0.00     0.000 G0
ENDBRANCH  13  15
ENDBRANCH  12  13
BRANCH  12  17
ATOM     17  C   UNL     1      -8.165  30.480  23.732  1.00  0.00    -0.006 C 
ATOM     18  C   UNL     1      -8.804  29.568  24.797  1.00  0.00     0.008 C 
ATOM     19  C   UNL     1      -6.635  30.405  23.903  1.00  0.00     0.008 C 
ENDBRANCH  12  17
ENDBRANCH  11  12
ENDBRANCH   1  11
TORSDOF 1
ENDMDL
MODEL 7
REMARK VINA RESULT:    -3.764      1.826      3.345
REMARK INTER + INTRA:          -6.247
REMARK INTER:                  -6.983
REMARK INTRA:                   0.736
REMARK UNBOUND:                -0.502
REMARK SMILES CC1=CCC[C@@H](C)C(=O)C[C@@H](C(C)C)C(=O)C1
REMARK SMILES IDX 8 1 9 2 6 3 7 4 5 5 4 6 3 7 2 8 1 9 10 11 11 12 15 13 16 14
REMARK SMILES IDX 17 15 12 17 13 18 14 19
REMARK H PARENT
REMARK Flexibility Score: 70.00
ROOT
ATOM      1  C   UNL     1      -7.610  31.102  23.579  1.00  0.00     0.136 C 
ATOM      2  O   UNL     1      -6.396  31.241  23.552  1.00  0.00    -0.299 OA
ENDROOT
BRANCH   1   3
ATOM      3  C   UNL     1      -8.211  29.817  24.107  1.00  0.00     0.053 C 
ATOM      4  C   UNL     1      -8.522  28.880  22.935  1.00  0.00     0.016 C 
BRANCH   3   5
ATOM      5  C   UNL     1      -9.487  30.068  24.944  1.00  0.00     0.015 C 
BRANCH   5   6
ATOM      6  C   UNL     1      -9.325  29.697  26.423  1.00  0.00     0.028 C 
BRANCH   6   7
ATOM      7  C   UNL     1      -8.666  30.814  27.198  1.00  0.00    -0.028 C 
ATOM      8  C   UNL     1      -8.808  32.139  26.968  1.00  0.00    -0.070 CG0
ATOM      9  C   UNL     1      -8.038  33.092  27.847  1.00  0.00     0.039 C 
ATOM     10  G   UNL     1      -9.678  32.719  25.865  1.00  0.00     0.000 G0
ENDBRANCH   6   7
ENDBRANCH   5   6
ENDBRANCH   3   5
ENDBRANCH   1   3
BRANCH   1  11
ATOM     11  C   UNL     1      -8.497  32.259  23.192  1.00  0.00     0.087 C 
BRANCH  11  12
ATOM     12  C   UNL     1      -8.112  33.603  23.862  1.00  0.00     0.066 C 
BRANCH  12  13
ATOM     13  C   UNL     1      -8.986  33.828  25.095  1.00  0.00     0.140 C 
ATOM     14  O   UNL     1      -9.151  34.981  25.468  1.00  0.00    -0.299 OA
BRANCH  13  15
ATOM     15  C   UNL     1      -9.688  32.730  25.869  1.00  0.00     0.106 CG0
ATOM     16  G   UNL     1      -8.794  32.152  26.953  1.00  0.00     0.000 G0
ENDBRANCH  13  15
ENDBRANCH  12  13
BRANCH  12  17
ATOM     17  C   UNL     1      -7.994  34.815  22.878  1.00  0.00    -0.006 C 
ATOM     18  C   UNL     1      -7.995  34.364  21.404  1.00  0.00     0.008 C 
ATOM     19  C   UNL     1      -6.697  35.611  23.127  1.00  0.00     0.008 C 
ENDBRANCH  12  17
ENDBRANCH  11  12
ENDBRANCH   1  11
TORSDOF 1
ENDMDL
MODEL 8
REMARK VINA RESULT:    -3.631      1.831      3.695
REMARK INTER + INTRA:          -6.044
REMARK INTER:                  -7.100
REMARK INTRA:                   1.056
REMARK UNBOUND:                -0.502
REMARK SMILES CC1=CCC[C@@H](C)C(=O)C[C@@H](C(C)C)C(=O)C1
REMARK SMILES IDX 8 1 9 2 6 3 7 4 5 5 4 6 3 7 2 8 1 9 10 11 11 12 15 13 16 14
REMARK SMILES IDX 17 15 12 17 13 18 14 19
REMARK H PARENT
REMARK Flexibility Score: 70.00
ROOT
ATOM      1  C   UNL     1      -7.793  34.334  23.526  1.00  0.00     0.136 C 
ATOM      2  O   UNL     1      -7.734  35.096  22.573  1.00  0.00    -0.299 OA
ENDROOT
BRANCH   1   3
ATOM      3  C   UNL     1      -8.517  34.757  24.787  1.00  0.00     0.053 C 
ATOM      4  C   UNL     1      -7.770  35.926  25.437  1.00  0.00     0.016 C 
BRANCH   3   5
ATOM      5  C   UNL     1      -8.668  33.593  25.794  1.00  0.00     0.015 C 
BRANCH   5   6
ATOM      6  C   UNL     1      -9.906  32.725  25.537  1.00  0.00     0.028 C 
BRANCH   6   7
ATOM      7  C   UNL     1      -9.827  31.422  26.297  1.00  0.00    -0.028 C 
ATOM      8  C   UNL     1      -8.877  30.469  26.155  1.00  0.00    -0.070 CG0
ATOM      9  C   UNL     1      -8.999  29.224  26.998  1.00  0.00     0.039 C 
ATOM     10  G   UNL     1      -7.714  30.571  25.183  1.00  0.00     0.000 G0
ENDBRANCH   6   7
ENDBRANCH   5   6
ENDBRANCH   3   5
ENDBRANCH   1   3
BRANCH   1  11
ATOM     11  C   UNL     1      -7.242  32.936  23.394  1.00  0.00     0.087 C 
BRANCH  11  12
ATOM     12  C   UNL     1      -8.285  31.887  22.930  1.00  0.00     0.066 C 
BRANCH  12  13
ATOM     13  C   UNL     1      -8.119  30.606  23.747  1.00  0.00     0.140 C 
ATOM     14  O   UNL     1      -8.322  29.543  23.177  1.00  0.00    -0.299 OA
BRANCH  13  15
ATOM     15  C   UNL     1      -7.691  30.557  25.200  1.00  0.00     0.106 CG0
ATOM     16  G   UNL     1      -8.887  30.476  26.132  1.00  0.00     0.000 G0
ENDBRANCH  13  15
ENDBRANCH  12  13
BRANCH  12  17
ATOM     17  C   UNL     1      -8.381  31.701  21.378  1.00  0.00    -0.006 C 
ATOM     18  C   UNL     1      -7.410  32.630  20.624  1.00  0.00     0.008 C 
ATOM     19  C   UNL     1      -9.806  31.993  20.869  1.00  0.00     0.008 C 
ENDBRANCH  12  17
ENDBRANCH  11  12
ENDBRANCH   1  11
TORSDOF 1
ENDMDL
MODEL 9
REMARK VINA RESULT:    -3.368     17.790     20.001
REMARK INTER + INTRA:          -5.641
REMARK INTER:                  -5.645
REMARK INTRA:                   0.004
REMARK UNBOUND:                -0.502
REMARK SMILES CC1=CCC[C@@H](C)C(=O)C[C@@H](C(C)C)C(=O)C1
REMARK SMILES IDX 8 1 9 2 6 3 7 4 5 5 4 6 3 7 2 8 1 9 10 11 11 12 15 13 16 14
REMARK SMILES IDX 17 15 12 17 13 18 14 19
REMARK H PARENT
REMARK Flexibility Score: 70.00
ROOT
ATOM      1  C   UNL     1       3.191  46.878  21.227  1.00  0.00     0.136 C 
ATOM      2  O   UNL     1       3.763  46.749  22.299  1.00  0.00    -0.299 OA
ENDROOT
BRANCH   1   3
ATOM      3  C   UNL     1       2.911  45.661  20.370  1.00  0.00     0.053 C 
ATOM      4  C   UNL     1       2.563  44.472  21.271  1.00  0.00     0.016 C 
BRANCH   3   5
ATOM      5  C   UNL     1       4.104  45.304  19.452  1.00  0.00     0.015 C 
BRANCH   5   6
ATOM      6  C   UNL     1       4.908  46.530  18.998  1.00  0.00     0.028 C 
BRANCH   6   7
ATOM      7  C   UNL     1       4.602  46.883  17.562  1.00  0.00    -0.028 C 
ATOM      8  C   UNL     1       3.887  47.949  17.135  1.00  0.00    -0.070 CG0
ATOM      9  C   UNL     1       3.676  48.105  15.650  1.00  0.00     0.039 C 
ATOM     10  G   UNL     1       3.270  48.982  18.063  1.00  0.00     0.000 G0
ENDBRANCH   6   7
ENDBRANCH   5   6
ENDBRANCH   3   5
ENDBRANCH   1   3
BRANCH   1  11
ATOM     11  C   UNL     1       2.667  48.234  20.823  1.00  0.00     0.087 C 
BRANCH  11  12
ATOM     12  C   UNL     1       1.442  48.181  19.875  1.00  0.00     0.066 C 
BRANCH  12  13
ATOM     13  C   UNL     1       1.861  48.625  18.474  1.00  0.00     0.140 C 
ATOM     14  O   UNL     1       0.985  48.723  17.626  1.00  0.00    -0.299 OA
BRANCH  13  15
ATOM     15  C   UNL     1       3.276  48.984  18.068  1.00  0.00     0.106 CG0
ATOM     16  G   UNL     1       3.867  47.948  17.126  1.00  0.00     0.000 G0
ENDBRANCH  13  15
ENDBRANCH  12  13
BRANCH  12  17
ATOM     17  C   UNL     1       0.145  48.849  20.444  1.00  0.00    -0.006 C 
ATOM     18  C   UNL     1       0.107  48.817  21.984  1.00  0.00     0.008 C 
ATOM     19  C   UNL     1      -1.121  48.139  19.925  1.00  0.00     0.008 C 
ENDBRANCH  12  17
ENDBRANCH  11  12
ENDBRANCH   1  11
TORSDOF 1
ENDMDL
