MODEL 1
REMARK VINA RESULT:    -4.238      0.000      0.000
REMARK INTER + INTRA:          -6.050
REMARK INTER:                  -5.724
REMARK INTRA:                  -0.326
REMARK UNBOUND:                -0.326
REMARK SMILES CCCCCCC=CC(=O)[O-]
REMARK SMILES IDX 5 1 6 2 7 3 8 4 9 5 10 6 11 7 4 8 3 9 2 10 1 11
REMARK H PARENT
REMARK Flexibility Score: inf
ROOT
ATOM      1  C   UNL     1      34.010   5.609  46.568  1.00  0.00     0.004 C 
ENDROOT
BRANCH   1   2
ATOM      2  C   UNL     1      33.993   6.299  45.196  1.00  0.00     0.027 C 
BRANCH   2   3
ATOM      3  C   UNL     1      34.034   7.797  45.307  1.00  0.00    -0.025 C 
ATOM      4  C   UNL     1      34.479   8.562  44.305  1.00  0.00     0.020 C 
BRANCH   4   5
ATOM      5  C   UNL     1      34.530  10.028  44.403  1.00  0.00     0.064 C 
ATOM      6  O   UNL     1      35.309  10.569  45.230  1.00  0.00    -0.545 OA
ATOM      7  O   UNL     1      33.730  10.828  43.595  1.00  0.00    -0.545 OA
ENDBRANCH   4   5
ENDBRANCH   2   3
ENDBRANCH   1   2
BRANCH   1   8
ATOM      8  C   UNL     1      33.204   6.386  47.618  1.00  0.00     0.000 C 
BRANCH   8   9
ATOM      9  C   UNL     1      31.895   5.662  47.953  1.00  0.00    -0.000 C 
BRANCH   9  10
ATOM     10  C   UNL     1      30.683   6.559  47.673  1.00  0.00    -0.003 C 
ATOM     11  C   UNL     1      29.409   5.967  48.269  1.00  0.00     0.004 C 
ENDBRANCH   9  10
ENDBRANCH   8   9
ENDBRANCH   1   8
TORSDOF 6
ENDMDL
MODEL 2
REMARK VINA RESULT:    -4.188      2.353      3.439
REMARK INTER + INTRA:          -5.983
REMARK INTER:                  -5.831
REMARK INTRA:                  -0.151
REMARK UNBOUND:                -0.326
REMARK SMILES CCCCCCC=CC(=O)[O-]
REMARK SMILES IDX 5 1 6 2 7 3 8 4 9 5 10 6 11 7 4 8 3 9 2 10 1 11
REMARK H PARENT
REMARK Flexibility Score: inf
ROOT
ATOM      1  C   UNL     1      31.361   8.792  48.417  1.00  0.00     0.004 C 
ENDROOT
BRANCH   1   2
ATOM      2  C   UNL     1      32.743   8.160  48.643  1.00  0.00     0.027 C 
BRANCH   2   3
ATOM      3  C   UNL     1      33.463   7.882  47.353  1.00  0.00    -0.025 C 
ATOM      4  C   UNL     1      33.301   6.728  46.696  1.00  0.00     0.020 C 
BRANCH   4   5
ATOM      5  C   UNL     1      34.004   6.441  45.438  1.00  0.00     0.064 C 
ATOM      6  O   UNL     1      34.613   5.348  45.301  1.00  0.00    -0.545 OA
ATOM      7  O   UNL     1      34.007   7.358  44.394  1.00  0.00    -0.545 OA
ENDBRANCH   4   5
ENDBRANCH   2   3
ENDBRANCH   1   2
BRANCH   1   8
ATOM      8  C   UNL     1      30.220   7.857  48.844  1.00  0.00     0.000 C 
BRANCH   8   9
ATOM      9  C   UNL     1      30.210   6.580  47.996  1.00  0.00    -0.000 C 
BRANCH   9  10
ATOM     10  C   UNL     1      29.201   5.564  48.545  1.00  0.00    -0.003 C 
ATOM     11  C   UNL     1      28.013   5.402  47.601  1.00  0.00     0.004 C 
ENDBRANCH   9  10
ENDBRANCH   8   9
ENDBRANCH   1   8
TORSDOF 6
ENDMDL
MODEL 3
REMARK VINA RESULT:    -4.136      3.225      5.542
REMARK INTER + INTRA:          -5.913
REMARK INTER:                  -5.647
REMARK INTRA:                  -0.266
REMARK UNBOUND:                -0.326
REMARK SMILES CCCCCCC=CC(=O)[O-]
REMARK SMILES IDX 5 1 6 2 7 3 8 4 9 5 10 6 11 7 4 8 3 9 2 10 1 11
REMARK H PARENT
REMARK Flexibility Score: inf
ROOT
ATOM      1  C   UNL     1      33.665   6.536  45.330  1.00  0.00     0.004 C 
ENDROOT
BRANCH   1   2
ATOM      2  C   UNL     1      33.682   5.945  46.747  1.00  0.00     0.027 C 
BRANCH   2   3
ATOM      3  C   UNL     1      32.530   6.426  47.583  1.00  0.00    -0.025 C 
ATOM      4  C   UNL     1      31.261   6.230  47.207  1.00  0.00     0.020 C 
BRANCH   4   5
ATOM      5  C   UNL     1      30.125   6.701  48.012  1.00  0.00     0.064 C 
ATOM      6  O   UNL     1      29.123   5.957  48.167  1.00  0.00    -0.545 OA
ATOM      7  O   UNL     1      30.141   7.958  48.605  1.00  0.00    -0.545 OA
ENDBRANCH   4   5
ENDBRANCH   2   3
ENDBRANCH   1   2
BRANCH   1   8
ATOM      8  C   UNL     1      34.168   7.987  45.301  1.00  0.00     0.000 C 
BRANCH   8   9
ATOM      9  C   UNL     1      34.254   8.509  43.863  1.00  0.00    -0.000 C 
BRANCH   9  10
ATOM     10  C   UNL     1      34.289  10.042  43.836  1.00  0.00    -0.003 C 
ATOM     11  C   UNL     1      34.947  10.601  45.094  1.00  0.00     0.004 C 
ENDBRANCH   9  10
ENDBRANCH   8   9
ENDBRANCH   1   8
TORSDOF 6
ENDMDL
MODEL 4
REMARK VINA RESULT:    -3.968      2.899      4.365
REMARK INTER + INTRA:          -5.686
REMARK INTER:                  -5.008
REMARK INTRA:                  -0.678
REMARK UNBOUND:                -0.326
REMARK SMILES CCCCCCC=CC(=O)[O-]
REMARK SMILES IDX 5 1 6 2 7 3 8 4 9 5 10 6 11 7 4 8 3 9 2 10 1 11
REMARK H PARENT
REMARK Flexibility Score: inf
ROOT
ATOM      1  C   UNL     1      31.715   7.638  48.963  1.00  0.00     0.004 C 
ENDROOT
BRANCH   1   2
ATOM      2  C   UNL     1      31.162   6.470  48.134  1.00  0.00     0.027 C 
BRANCH   2   3
ATOM      3  C   UNL     1      31.932   6.253  46.863  1.00  0.00    -0.025 C 
ATOM      4  C   UNL     1      33.256   6.435  46.807  1.00  0.00     0.020 C 
BRANCH   4   5
ATOM      5  C   UNL     1      34.021   6.233  45.568  1.00  0.00     0.064 C 
ATOM      6  O   UNL     1      33.995   7.114  44.670  1.00  0.00    -0.545 OA
ATOM      7  O   UNL     1      34.775   5.082  45.372  1.00  0.00    -0.545 OA
ENDBRANCH   4   5
ENDBRANCH   2   3
ENDBRANCH   1   2
BRANCH   1   8
ATOM      8  C   UNL     1      30.900   8.925  48.769  1.00  0.00     0.000 C 
BRANCH   8   9
ATOM      9  C   UNL     1      31.815  10.113  48.456  1.00  0.00    -0.000 C 
BRANCH   9  10
ATOM     10  C   UNL     1      33.291   9.703  48.524  1.00  0.00    -0.003 C 
ATOM     11  C   UNL     1      34.006   9.996  47.208  1.00  0.00     0.004 C 
ENDBRANCH   9  10
ENDBRANCH   8   9
ENDBRANCH   1   8
TORSDOF 6
ENDMDL
MODEL 5
REMARK VINA RESULT:    -3.956     16.457     17.550
REMARK INTER + INTRA:          -5.670
REMARK INTER:                  -5.195
REMARK INTRA:                  -0.475
REMARK UNBOUND:                -0.326
REMARK SMILES CCCCCCC=CC(=O)[O-]
REMARK SMILES IDX 5 1 6 2 7 3 8 4 9 5 10 6 11 7 4 8 3 9 2 10 1 11
REMARK H PARENT
REMARK Flexibility Score: inf
ROOT
ATOM      1  C   UNL     1      22.115  10.321  35.641  1.00  0.00     0.004 C 
ENDROOT
BRANCH   1   2
ATOM      2  C   UNL     1      20.988   9.799  34.737  1.00  0.00     0.027 C 
BRANCH   2   3
ATOM      3  C   UNL     1      20.064   8.858  35.457  1.00  0.00    -0.025 C 
ATOM      4  C   UNL     1      20.126   7.536  35.269  1.00  0.00     0.020 C 
BRANCH   4   5
ATOM      5  C   UNL     1      19.224   6.605  35.962  1.00  0.00     0.064 C 
ATOM      6  O   UNL     1      18.209   6.161  35.364  1.00  0.00    -0.545 OA
ATOM      7  O   UNL     1      19.474   6.207  37.270  1.00  0.00    -0.545 OA
ENDBRANCH   4   5
ENDBRANCH   2   3
ENDBRANCH   1   2
BRANCH   1   8
ATOM      8  C   UNL     1      22.281  11.844  35.540  1.00  0.00     0.000 C 
BRANCH   8   9
ATOM      9  C   UNL     1      21.135  12.470  34.739  1.00  0.00    -0.000 C 
BRANCH   9  10
ATOM     10  C   UNL     1      20.305  13.416  35.614  1.00  0.00    -0.003 C 
ATOM     11  C   UNL     1      18.930  12.826  35.914  1.00  0.00     0.004 C 
ENDBRANCH   9  10
ENDBRANCH   8   9
ENDBRANCH   1   8
TORSDOF 6
ENDMDL
MODEL 6
REMARK VINA RESULT:    -3.926      1.936      2.637
REMARK INTER + INTRA:          -5.629
REMARK INTER:                  -5.239
REMARK INTRA:                  -0.390
REMARK UNBOUND:                -0.326
REMARK SMILES CCCCCCC=CC(=O)[O-]
REMARK SMILES IDX 5 1 6 2 7 3 8 4 9 5 10 6 11 7 4 8 3 9 2 10 1 11
REMARK H PARENT
REMARK Flexibility Score: inf
ROOT
ATOM      1  C   UNL     1      31.701   9.596  48.534  1.00  0.00     0.004 C 
ENDROOT
BRANCH   1   2
ATOM      2  C   UNL     1      33.129   9.036  48.451  1.00  0.00     0.027 C 
BRANCH   2   3
ATOM      3  C   UNL     1      33.947   9.707  47.384  1.00  0.00    -0.025 C 
ATOM      4  C   UNL     1      33.980   9.242  46.131  1.00  0.00     0.020 C 
BRANCH   4   5
ATOM      5  C   UNL     1      34.781   9.885  45.080  1.00  0.00     0.064 C 
ATOM      6  O   UNL     1      35.230  11.046  45.262  1.00  0.00    -0.545 OA
ATOM      7  O   UNL     1      35.052   9.229  43.884  1.00  0.00    -0.545 OA
ENDBRANCH   4   5
ENDBRANCH   2   3
ENDBRANCH   1   2
BRANCH   1   8
ATOM      8  C   UNL     1      30.659   8.495  48.771  1.00  0.00     0.000 C 
BRANCH   8   9
ATOM      9  C   UNL     1      31.282   7.104  48.610  1.00  0.00    -0.000 C 
BRANCH   9  10
ATOM     10  C   UNL     1      30.463   6.243  47.641  1.00  0.00    -0.003 C 
ATOM     11  C   UNL     1      29.095   5.904  48.227  1.00  0.00     0.004 C 
ENDBRANCH   9  10
ENDBRANCH   8   9
ENDBRANCH   1   8
TORSDOF 6
ENDMDL
MODEL 7
REMARK VINA RESULT:    -3.926     16.719     17.747
REMARK INTER + INTRA:          -5.629
REMARK INTER:                  -5.227
REMARK INTRA:                  -0.401
REMARK UNBOUND:                -0.326
REMARK SMILES CCCCCCC=CC(=O)[O-]
REMARK SMILES IDX 5 1 6 2 7 3 8 4 9 5 10 6 11 7 4 8 3 9 2 10 1 11
REMARK H PARENT
REMARK Flexibility Score: inf
ROOT
ATOM      1  C   UNL     1      22.223  10.391  35.364  1.00  0.00     0.004 C 
ENDROOT
BRANCH   1   2
ATOM      2  C   UNL     1      20.931   9.650  35.740  1.00  0.00     0.027 C 
BRANCH   2   3
ATOM      3  C   UNL     1      20.473   8.712  34.659  1.00  0.00    -0.025 C 
ATOM      4  C   UNL     1      20.368   7.396  34.872  1.00  0.00     0.020 C 
BRANCH   4   5
ATOM      5  C   UNL     1      19.927   6.467  33.822  1.00  0.00     0.064 C 
ATOM      6  O   UNL     1      18.717   6.127  33.760  1.00  0.00    -0.545 OA
ATOM      7  O   UNL     1      20.827   5.957  32.893  1.00  0.00    -0.545 OA
ENDBRANCH   4   5
ENDBRANCH   2   3
ENDBRANCH   1   2
BRANCH   1   8
ATOM      8  C   UNL     1      22.123  11.900  35.625  1.00  0.00     0.000 C 
BRANCH   8   9
ATOM      9  C   UNL     1      21.183  12.571  34.617  1.00  0.00    -0.000 C 
BRANCH   9  10
ATOM     10  C   UNL     1      20.235  13.551  35.319  1.00  0.00    -0.003 C 
ATOM     11  C   UNL     1      19.133  12.810  36.070  1.00  0.00     0.004 C 
ENDBRANCH   9  10
ENDBRANCH   8   9
ENDBRANCH   1   8
TORSDOF 6
ENDMDL
MODEL 8
REMARK VINA RESULT:    -3.901     15.862     17.141
REMARK INTER + INTRA:          -5.596
REMARK INTER:                  -5.097
REMARK INTRA:                  -0.499
REMARK UNBOUND:                -0.326
REMARK SMILES CCCCCCC=CC(=O)[O-]
REMARK SMILES IDX 5 1 6 2 7 3 8 4 9 5 10 6 11 7 4 8 3 9 2 10 1 11
REMARK H PARENT
REMARK Flexibility Score: inf
ROOT
ATOM      1  C   UNL     1      20.853  12.196  35.643  1.00  0.00     0.004 C 
ENDROOT
BRANCH   1   2
ATOM      2  C   UNL     1      19.558  11.376  35.546  1.00  0.00     0.027 C 
BRANCH   2   3
ATOM      3  C   UNL     1      19.725   9.976  36.066  1.00  0.00    -0.025 C 
ATOM      4  C   UNL     1      19.733   8.921  35.245  1.00  0.00     0.020 C 
BRANCH   4   5
ATOM      5  C   UNL     1      19.889   7.546  35.742  1.00  0.00     0.064 C 
ATOM      6  O   UNL     1      19.132   7.125  36.654  1.00  0.00    -0.545 OA
ATOM      7  O   UNL     1      20.862   6.702  35.218  1.00  0.00    -0.545 OA
ENDBRANCH   4   5
ENDBRANCH   2   3
ENDBRANCH   1   2
BRANCH   1   8
ATOM      8  C   UNL     1      21.588  12.280  34.297  1.00  0.00     0.000 C 
BRANCH   8   9
ATOM      9  C   UNL     1      22.661  11.191  34.189  1.00  0.00    -0.000 C 
BRANCH   9  10
ATOM     10  C   UNL     1      23.192  10.803  35.574  1.00  0.00    -0.003 C 
ATOM     11  C   UNL     1      24.715  10.887  35.624  1.00  0.00     0.004 C 
ENDBRANCH   9  10
ENDBRANCH   8   9
ENDBRANCH   1   8
TORSDOF 6
ENDMDL
MODEL 9
REMARK VINA RESULT:    -3.868      3.630      5.839
REMARK INTER + INTRA:          -5.551
REMARK INTER:                  -5.181
REMARK INTRA:                  -0.369
REMARK UNBOUND:                -0.326
REMARK SMILES CCCCCCC=CC(=O)[O-]
REMARK SMILES IDX 5 1 6 2 7 3 8 4 9 5 10 6 11 7 4 8 3 9 2 10 1 11
REMARK H PARENT
REMARK Flexibility Score: inf
ROOT
ATOM      1  C   UNL     1      33.806   9.368  47.236  1.00  0.00     0.004 C 
ENDROOT
BRANCH   1   2
ATOM      2  C   UNL     1      32.552   9.759  48.031  1.00  0.00     0.027 C 
BRANCH   2   3
ATOM      3  C   UNL     1      31.630   8.594  48.258  1.00  0.00    -0.025 C 
ATOM      4  C   UNL     1      31.809   7.427  47.630  1.00  0.00     0.020 C 
BRANCH   4   5
ATOM      5  C   UNL     1      30.912   6.282  47.838  1.00  0.00     0.064 C 
ATOM      6  O   UNL     1      31.396   5.128  47.965  1.00  0.00    -0.545 OA
ATOM      7  O   UNL     1      29.534   6.454  47.898  1.00  0.00    -0.545 OA
ENDBRANCH   4   5
ENDBRANCH   2   3
ENDBRANCH   1   2
BRANCH   1   8
ATOM      8  C   UNL     1      34.795  10.535  47.101  1.00  0.00     0.000 C 
BRANCH   8   9
ATOM      9  C   UNL     1      35.095  10.832  45.628  1.00  0.00    -0.000 C 
BRANCH   9  10
ATOM     10  C   UNL     1      34.722   9.640  44.739  1.00  0.00    -0.003 C 
ATOM     11  C   UNL     1      33.947  10.093  43.505  1.00  0.00     0.004 C 
ENDBRANCH   9  10
ENDBRANCH   8   9
ENDBRANCH   1   8
TORSDOF 6
ENDMDL
