MODEL 1
REMARK VINA RESULT:    -5.765      0.000      0.000
REMARK INTER + INTRA:         -11.641
REMARK INTER:                 -10.484
REMARK INTRA:                  -1.157
REMARK UNBOUND:                -1.157
REMARK SMILES CCCCCC=CCC=CCCCCCCCC(=O)[O-]
REMARK SMILES IDX 11 1 12 2 13 3 14 4 15 5 16 6 17 7 18 8 19 9 20 10 10 11
REMARK SMILES IDX 9 12 8 13 7 14 6 15 5 16 4 17 3 18 2 19 1 20
REMARK H PARENT
REMARK Flexibility Score: inf
ROOT
ATOM      1  C   UNL     1       6.760 -19.152  21.137  1.00  0.00     0.027 C 
ENDROOT
BRANCH   1   2
ATOM      2  C   UNL     1       6.338 -18.732  19.726  1.00  0.00     0.004 C 
BRANCH   2   3
ATOM      3  C   UNL     1       4.813 -18.627  19.617  1.00  0.00     0.000 C 
BRANCH   3   4
ATOM      4  C   UNL     1       4.191 -18.168  20.945  1.00  0.00     0.000 C 
BRANCH   4   5
ATOM      5  C   UNL     1       3.590 -16.750  20.845  1.00  0.00     0.000 C 
BRANCH   5   6
ATOM      6  C   UNL     1       4.357 -15.698  21.666  1.00  0.00     0.006 C 
BRANCH   6   7
ATOM      7  C   UNL     1       5.649 -15.234  20.982  1.00  0.00     0.053 C 
BRANCH   7   8
ATOM      8  C   UNL     1       6.746 -15.071  21.986  1.00  0.00     0.041 C 
ATOM      9  O   UNL     1       7.244 -13.936  22.205  1.00  0.00    -0.550 OA
ATOM     10  O   UNL     1       7.198 -16.171  22.702  1.00  0.00    -0.550 OA
ENDBRANCH   7   8
ENDBRANCH   6   7
ENDBRANCH   5   6
ENDBRANCH   4   5
ENDBRANCH   3   4
ENDBRANCH   2   3
ENDBRANCH   1   2
BRANCH   1  11
ATOM     11  C   UNL     1       7.745 -20.286  21.096  1.00  0.00    -0.031 C 
ATOM     12  C   UNL     1       7.373 -21.530  20.758  1.00  0.00    -0.027 C 
BRANCH  12  13
ATOM     13  C   UNL     1       8.373 -22.651  20.705  1.00  0.00     0.054 C 
BRANCH  13  14
ATOM     14  C   UNL     1       9.776 -22.111  20.596  1.00  0.00    -0.027 C 
ATOM     15  C   UNL     1      10.842 -22.676  21.191  1.00  0.00    -0.031 C 
BRANCH  15  16
ATOM     16  C   UNL     1      10.794 -23.967  21.968  1.00  0.00     0.027 C 
BRANCH  16  17
ATOM     17  C   UNL     1      12.140 -24.229  22.661  1.00  0.00     0.004 C 
BRANCH  17  18
ATOM     18  C   UNL     1      12.034 -25.263  23.792  1.00  0.00     0.000 C 
BRANCH  18  19
ATOM     19  C   UNL     1      12.259 -24.644  25.179  1.00  0.00    -0.003 C 
ATOM     20  C   UNL     1      12.348 -25.724  26.252  1.00  0.00     0.004 C 
ENDBRANCH  18  19
ENDBRANCH  17  18
ENDBRANCH  16  17
ENDBRANCH  15  16
ENDBRANCH  13  14
ENDBRANCH  12  13
ENDBRANCH   1  11
TORSDOF 14
ENDMDL
MODEL 2
REMARK VINA RESULT:    -5.636      1.901      5.206
REMARK INTER + INTRA:         -11.405
REMARK INTER:                 -10.137
REMARK INTRA:                  -1.268
REMARK UNBOUND:                -1.157
REMARK SMILES CCCCCC=CCC=CCCCCCCCC(=O)[O-]
REMARK SMILES IDX 11 1 12 2 13 3 14 4 15 5 16 6 17 7 18 8 19 9 20 10 10 11
REMARK SMILES IDX 9 12 8 13 7 14 6 15 5 16 4 17 3 18 2 19 1 20
REMARK H PARENT
REMARK Flexibility Score: inf
ROOT
ATOM      1  C   UNL     1      10.797 -23.341  21.319  1.00  0.00     0.027 C 
ENDROOT
BRANCH   1   2
ATOM      2  C   UNL     1      11.086 -21.867  21.016  1.00  0.00     0.004 C 
BRANCH   2   3
ATOM      3  C   UNL     1       9.792 -21.104  20.714  1.00  0.00     0.000 C 
BRANCH   3   4
ATOM      4  C   UNL     1       8.576 -22.045  20.726  1.00  0.00     0.000 C 
BRANCH   4   5
ATOM      5  C   UNL     1       7.244 -21.271  20.811  1.00  0.00     0.000 C 
BRANCH   5   6
ATOM      6  C   UNL     1       7.413 -19.744  20.713  1.00  0.00     0.006 C 
BRANCH   6   7
ATOM      7  C   UNL     1       6.249 -19.061  19.985  1.00  0.00     0.053 C 
BRANCH   7   8
ATOM      8  C   UNL     1       5.983 -17.710  20.572  1.00  0.00     0.041 C 
ATOM      9  O   UNL     1       6.928 -17.028  21.048  1.00  0.00    -0.550 OA
ATOM     10  O   UNL     1       4.696 -17.193  20.565  1.00  0.00    -0.550 OA
ENDBRANCH   7   8
ENDBRANCH   6   7
ENDBRANCH   5   6
ENDBRANCH   4   5
ENDBRANCH   3   4
ENDBRANCH   2   3
ENDBRANCH   1   2
BRANCH   1  11
ATOM     11  C   UNL     1      11.774 -23.893  22.317  1.00  0.00    -0.031 C 
ATOM     12  C   UNL     1      11.508 -25.002  23.024  1.00  0.00    -0.027 C 
BRANCH  12  13
ATOM     13  C   UNL     1      12.502 -25.553  24.008  1.00  0.00     0.054 C 
BRANCH  13  14
ATOM     14  C   UNL     1      12.069 -25.264  25.423  1.00  0.00    -0.027 C 
ATOM     15  C   UNL     1      12.534 -25.929  26.497  1.00  0.00    -0.031 C 
BRANCH  15  16
ATOM     16  C   UNL     1      13.610 -26.983  26.440  1.00  0.00     0.027 C 
BRANCH  16  17
ATOM     17  C   UNL     1      14.960 -26.398  26.886  1.00  0.00     0.004 C 
BRANCH  17  18
ATOM     18  C   UNL     1      15.757 -25.794  25.720  1.00  0.00     0.000 C 
BRANCH  18  19
ATOM     19  C   UNL     1      15.822 -24.262  25.781  1.00  0.00    -0.003 C 
ATOM     20  C   UNL     1      15.674 -23.651  24.392  1.00  0.00     0.004 C 
ENDBRANCH  18  19
ENDBRANCH  17  18
ENDBRANCH  16  17
ENDBRANCH  15  16
ENDBRANCH  13  14
ENDBRANCH  12  13
ENDBRANCH   1  11
TORSDOF 14
ENDMDL
MODEL 3
REMARK VINA RESULT:    -5.593      9.140     11.972
REMARK INTER + INTRA:         -11.327
REMARK INTER:                  -9.486
REMARK INTRA:                  -1.841
REMARK UNBOUND:                -1.157
REMARK SMILES CCCCCC=CCC=CCCCCCCCC(=O)[O-]
REMARK SMILES IDX 11 1 12 2 13 3 14 4 15 5 16 6 17 7 18 8 19 9 20 10 10 11
REMARK SMILES IDX 9 12 8 13 7 14 6 15 5 16 4 17 3 18 2 19 1 20
REMARK H PARENT
REMARK Flexibility Score: inf
ROOT
ATOM      1  C   UNL     1      14.162 -16.013  30.330  1.00  0.00     0.027 C 
ENDROOT
BRANCH   1   2
ATOM      2  C   UNL     1      13.523 -16.216  31.707  1.00  0.00     0.004 C 
BRANCH   2   3
ATOM      3  C   UNL     1      12.506 -17.363  31.677  1.00  0.00     0.000 C 
BRANCH   3   4
ATOM      4  C   UNL     1      11.066 -16.832  31.750  1.00  0.00     0.000 C 
BRANCH   4   5
ATOM      5  C   UNL     1      10.183 -17.675  32.694  1.00  0.00     0.000 C 
BRANCH   5   6
ATOM      6  C   UNL     1      10.449 -19.188  32.595  1.00  0.00     0.006 C 
BRANCH   6   7
ATOM      7  C   UNL     1       9.855 -19.816  31.329  1.00  0.00     0.053 C 
BRANCH   7   8
ATOM      8  C   UNL     1       9.200 -21.123  31.648  1.00  0.00     0.041 C 
ATOM      9  O   UNL     1       8.093 -21.149  32.246  1.00  0.00    -0.550 OA
ATOM     10  O   UNL     1       9.800 -22.312  31.259  1.00  0.00    -0.550 OA
ENDBRANCH   7   8
ENDBRANCH   6   7
ENDBRANCH   5   6
ENDBRANCH   4   5
ENDBRANCH   3   4
ENDBRANCH   2   3
ENDBRANCH   1   2
BRANCH   1  11
ATOM     11  C   UNL     1      13.837 -14.655  29.775  1.00  0.00    -0.031 C 
ATOM     12  C   UNL     1      12.604 -14.345  29.346  1.00  0.00    -0.027 C 
BRANCH  12  13
ATOM     13  C   UNL     1      12.290 -12.978  28.808  1.00  0.00     0.054 C 
BRANCH  13  14
ATOM     14  C   UNL     1      13.190 -12.641  27.646  1.00  0.00    -0.027 C 
ATOM     15  C   UNL     1      12.861 -12.854  26.360  1.00  0.00    -0.031 C 
BRANCH  15  16
ATOM     16  C   UNL     1      11.520 -13.371  25.902  1.00  0.00     0.027 C 
BRANCH  16  17
ATOM     17  C   UNL     1      11.510 -14.907  25.893  1.00  0.00     0.004 C 
BRANCH  17  18
ATOM     18  C   UNL     1      12.776 -15.504  25.259  1.00  0.00     0.000 C 
BRANCH  18  19
ATOM     19  C   UNL     1      13.403 -16.607  26.123  1.00  0.00    -0.003 C 
ATOM     20  C   UNL     1      14.781 -16.191  26.627  1.00  0.00     0.004 C 
ENDBRANCH  18  19
ENDBRANCH  17  18
ENDBRANCH  16  17
ENDBRANCH  15  16
ENDBRANCH  13  14
ENDBRANCH  12  13
ENDBRANCH   1  11
TORSDOF 14
ENDMDL
MODEL 4
REMARK VINA RESULT:    -5.577      3.790      9.294
REMARK INTER + INTRA:         -11.298
REMARK INTER:                 -10.239
REMARK INTRA:                  -1.059
REMARK UNBOUND:                -1.157
REMARK SMILES CCCCCC=CCC=CCCCCCCCC(=O)[O-]
REMARK SMILES IDX 11 1 12 2 13 3 14 4 15 5 16 6 17 7 18 8 19 9 20 10 10 11
REMARK SMILES IDX 9 12 8 13 7 14 6 15 5 16 4 17 3 18 2 19 1 20
REMARK H PARENT
REMARK Flexibility Score: inf
ROOT
ATOM      1  C   UNL     1       7.132 -22.023  20.813  1.00  0.00     0.027 C 
ENDROOT
BRANCH   1   2
ATOM      2  C   UNL     1       8.437 -22.825  20.861  1.00  0.00     0.004 C 
BRANCH   2   3
ATOM      3  C   UNL     1       9.630 -21.957  20.443  1.00  0.00     0.000 C 
BRANCH   3   4
ATOM      4  C   UNL     1      10.939 -22.762  20.472  1.00  0.00     0.000 C 
BRANCH   4   5
ATOM      5  C   UNL     1      11.483 -22.935  21.906  1.00  0.00     0.000 C 
BRANCH   5   6
ATOM      6  C   UNL     1      11.974 -24.362  22.210  1.00  0.00     0.006 C 
BRANCH   6   7
ATOM      7  C   UNL     1      11.453 -24.899  23.548  1.00  0.00     0.053 C 
BRANCH   7   8
ATOM      8  C   UNL     1      12.435 -24.625  24.642  1.00  0.00     0.041 C 
ATOM      9  O   UNL     1      12.090 -24.736  25.848  1.00  0.00    -0.550 OA
ATOM     10  O   UNL     1      13.741 -24.274  24.330  1.00  0.00    -0.550 OA
ENDBRANCH   7   8
ENDBRANCH   6   7
ENDBRANCH   5   6
ENDBRANCH   4   5
ENDBRANCH   3   4
ENDBRANCH   2   3
ENDBRANCH   1   2
BRANCH   1  11
ATOM     11  C   UNL     1       7.400 -20.545  20.854  1.00  0.00    -0.031 C 
ATOM     12  C   UNL     1       6.515 -19.656  20.380  1.00  0.00    -0.027 C 
BRANCH  12  13
ATOM     13  C   UNL     1       6.789 -18.179  20.442  1.00  0.00     0.054 C 
BRANCH  13  14
ATOM     14  C   UNL     1       6.955 -17.726  21.871  1.00  0.00    -0.027 C 
ATOM     15  C   UNL     1       6.803 -16.452  22.273  1.00  0.00    -0.031 C 
BRANCH  15  16
ATOM     16  C   UNL     1       6.357 -15.327  21.374  1.00  0.00     0.027 C 
BRANCH  16  17
ATOM     17  C   UNL     1       4.825 -15.306  21.257  1.00  0.00     0.004 C 
BRANCH  17  18
ATOM     18  C   UNL     1       4.132 -15.039  22.602  1.00  0.00     0.000 C 
BRANCH  18  19
ATOM     19  C   UNL     1       3.371 -16.264  23.126  1.00  0.00    -0.003 C 
ATOM     20  C   UNL     1       3.540 -16.411  24.634  1.00  0.00     0.004 C 
ENDBRANCH  18  19
ENDBRANCH  17  18
ENDBRANCH  16  17
ENDBRANCH  15  16
ENDBRANCH  13  14
ENDBRANCH  12  13
ENDBRANCH   1  11
TORSDOF 14
ENDMDL
MODEL 5
REMARK VINA RESULT:    -5.532      9.237     11.262
REMARK INTER + INTRA:         -11.217
REMARK INTER:                  -9.266
REMARK INTRA:                  -1.951
REMARK UNBOUND:                -1.157
REMARK SMILES CCCCCC=CCC=CCCCCCCCC(=O)[O-]
REMARK SMILES IDX 11 1 12 2 13 3 14 4 15 5 16 6 17 7 18 8 19 9 20 10 10 11
REMARK SMILES IDX 9 12 8 13 7 14 6 15 5 16 4 17 3 18 2 19 1 20
REMARK H PARENT
REMARK Flexibility Score: inf
ROOT
ATOM      1  C   UNL     1      11.753 -13.082  27.915  1.00  0.00     0.027 C 
ENDROOT
BRANCH   1   2
ATOM      2  C   UNL     1      12.875 -12.352  27.171  1.00  0.00     0.004 C 
BRANCH   2   3
ATOM      3  C   UNL     1      12.550 -12.221  25.679  1.00  0.00     0.000 C 
BRANCH   3   4
ATOM      4  C   UNL     1      13.833 -12.136  24.836  1.00  0.00     0.000 C 
BRANCH   4   5
ATOM      5  C   UNL     1      14.150 -13.469  24.126  1.00  0.00     0.000 C 
BRANCH   5   6
ATOM      6  C   UNL     1      14.745 -14.537  25.060  1.00  0.00     0.006 C 
BRANCH   6   7
ATOM      7  C   UNL     1      13.814 -15.739  25.262  1.00  0.00     0.053 C 
BRANCH   7   8
ATOM      8  C   UNL     1      14.594 -16.941  25.693  1.00  0.00     0.041 C 
ATOM      9  O   UNL     1      15.529 -16.826  26.528  1.00  0.00    -0.550 OA
ATOM     10  O   UNL     1      14.268 -18.193  25.193  1.00  0.00    -0.550 OA
ENDBRANCH   7   8
ENDBRANCH   6   7
ENDBRANCH   5   6
ENDBRANCH   4   5
ENDBRANCH   3   4
ENDBRANCH   2   3
ENDBRANCH   1   2
BRANCH   1  11
ATOM     11  C   UNL     1      12.293 -14.219  28.735  1.00  0.00    -0.031 C 
ATOM     12  C   UNL     1      13.592 -14.553  28.706  1.00  0.00    -0.027 C 
BRANCH  12  13
ATOM     13  C   UNL     1      14.122 -15.683  29.543  1.00  0.00     0.054 C 
BRANCH  13  14
ATOM     14  C   UNL     1      14.012 -15.357  31.011  1.00  0.00    -0.027 C 
ATOM     15  C   UNL     1      13.421 -16.161  31.913  1.00  0.00    -0.031 C 
BRANCH  15  16
ATOM     16  C   UNL     1      12.872 -17.529  31.597  1.00  0.00     0.027 C 
BRANCH  16  17
ATOM     17  C   UNL     1      11.382 -17.441  31.235  1.00  0.00     0.004 C 
BRANCH  17  18
ATOM     18  C   UNL     1      10.463 -17.770  32.421  1.00  0.00     0.000 C 
BRANCH  18  19
ATOM     19  C   UNL     1       9.785 -16.522  33.005  1.00  0.00    -0.003 C 
ATOM     20  C   UNL     1       9.825 -15.363  32.015  1.00  0.00     0.004 C 
ENDBRANCH  18  19
ENDBRANCH  17  18
ENDBRANCH  16  17
ENDBRANCH  15  16
ENDBRANCH  13  14
ENDBRANCH  12  13
ENDBRANCH   1  11
TORSDOF 14
ENDMDL
MODEL 6
REMARK VINA RESULT:    -5.527      9.813     12.214
REMARK INTER + INTRA:         -11.207
REMARK INTER:                  -8.802
REMARK INTRA:                  -2.405
REMARK UNBOUND:                -1.157
REMARK SMILES CCCCCC=CCC=CCCCCCCCC(=O)[O-]
REMARK SMILES IDX 11 1 12 2 13 3 14 4 15 5 16 6 17 7 18 8 19 9 20 10 10 11
REMARK SMILES IDX 9 12 8 13 7 14 6 15 5 16 4 17 3 18 2 19 1 20
REMARK H PARENT
REMARK Flexibility Score: inf
ROOT
ATOM      1  C   UNL     1      12.114 -14.088  28.930  1.00  0.00     0.027 C 
ENDROOT
BRANCH   1   2
ATOM      2  C   UNL     1      12.926 -15.322  28.526  1.00  0.00     0.004 C 
BRANCH   2   3
ATOM      3  C   UNL     1      14.106 -15.540  29.481  1.00  0.00     0.000 C 
BRANCH   3   4
ATOM      4  C   UNL     1      13.652 -15.475  30.948  1.00  0.00     0.000 C 
BRANCH   4   5
ATOM      5  C   UNL     1      13.650 -16.866  31.617  1.00  0.00     0.000 C 
BRANCH   5   6
ATOM      6  C   UNL     1      12.272 -17.553  31.602  1.00  0.00     0.006 C 
BRANCH   6   7
ATOM      7  C   UNL     1      11.111 -16.556  31.511  1.00  0.00     0.053 C 
BRANCH   7   8
ATOM      8  C   UNL     1      10.183 -16.722  32.673  1.00  0.00     0.041 C 
ATOM      9  O   UNL     1       9.621 -15.719  33.185  1.00  0.00    -0.550 OA
ATOM     10  O   UNL     1       9.918 -17.989  33.172  1.00  0.00    -0.550 OA
ENDBRANCH   7   8
ENDBRANCH   6   7
ENDBRANCH   5   6
ENDBRANCH   4   5
ENDBRANCH   3   4
ENDBRANCH   2   3
ENDBRANCH   1   2
BRANCH   1  11
ATOM     11  C   UNL     1      11.715 -13.281  27.728  1.00  0.00    -0.031 C 
ATOM     12  C   UNL     1      11.610 -13.835  26.511  1.00  0.00    -0.027 C 
BRANCH  12  13
ATOM     13  C   UNL     1      11.195 -13.019  25.319  1.00  0.00     0.054 C 
BRANCH  13  14
ATOM     14  C   UNL     1      11.838 -11.656  25.355  1.00  0.00    -0.027 C 
ATOM     15  C   UNL     1      12.981 -11.352  24.713  1.00  0.00    -0.031 C 
BRANCH  15  16
ATOM     16  C   UNL     1      13.720 -12.300  23.803  1.00  0.00     0.027 C 
BRANCH  16  17
ATOM     17  C   UNL     1      14.852 -13.005  24.566  1.00  0.00     0.004 C 
BRANCH  17  18
ATOM     18  C   UNL     1      15.375 -12.175  25.749  1.00  0.00     0.000 C 
BRANCH  18  19
ATOM     19  C   UNL     1      15.380 -12.965  27.066  1.00  0.00    -0.003 C 
ATOM     20  C   UNL     1      15.197 -12.037  28.261  1.00  0.00     0.004 C 
ENDBRANCH  18  19
ENDBRANCH  17  18
ENDBRANCH  16  17
ENDBRANCH  15  16
ENDBRANCH  13  14
ENDBRANCH  12  13
ENDBRANCH   1  11
TORSDOF 14
ENDMDL
MODEL 7
REMARK VINA RESULT:    -5.514      9.005     11.158
REMARK INTER + INTRA:         -11.184
REMARK INTER:                  -9.045
REMARK INTRA:                  -2.140
REMARK UNBOUND:                -1.157
REMARK SMILES CCCCCC=CCC=CCCCCCCCC(=O)[O-]
REMARK SMILES IDX 11 1 12 2 13 3 14 4 15 5 16 6 17 7 18 8 19 9 20 10 10 11
REMARK SMILES IDX 9 12 8 13 7 14 6 15 5 16 4 17 3 18 2 19 1 20
REMARK H PARENT
REMARK Flexibility Score: inf
ROOT
ATOM      1  C   UNL     1      11.446 -12.466  25.486  1.00  0.00     0.027 C 
ENDROOT
BRANCH   1   2
ATOM      2  C   UNL     1      12.775 -11.897  24.980  1.00  0.00     0.004 C 
BRANCH   2   3
ATOM      3  C   UNL     1      13.856 -12.984  24.933  1.00  0.00     0.000 C 
BRANCH   3   4
ATOM      4  C   UNL     1      15.036 -12.633  25.852  1.00  0.00     0.000 C 
BRANCH   4   5
ATOM      5  C   UNL     1      15.662 -13.888  26.497  1.00  0.00     0.000 C 
BRANCH   5   6
ATOM      6  C   UNL     1      15.725 -15.100  25.549  1.00  0.00     0.006 C 
BRANCH   6   7
ATOM      7  C   UNL     1      15.435 -16.427  26.260  1.00  0.00     0.053 C 
BRANCH   7   8
ATOM      8  C   UNL     1      14.317 -17.153  25.580  1.00  0.00     0.041 C 
ATOM      9  O   UNL     1      14.481 -18.334  25.175  1.00  0.00    -0.550 OA
ATOM     10  O   UNL     1      13.086 -16.535  25.419  1.00  0.00    -0.550 OA
ENDBRANCH   7   8
ENDBRANCH   6   7
ENDBRANCH   5   6
ENDBRANCH   4   5
ENDBRANCH   3   4
ENDBRANCH   2   3
ENDBRANCH   1   2
BRANCH   1  11
ATOM     11  C   UNL     1      11.661 -13.414  26.631  1.00  0.00    -0.031 C 
ATOM     12  C   UNL     1      11.841 -12.975  27.886  1.00  0.00    -0.027 C 
BRANCH  12  13
ATOM     13  C   UNL     1      12.039 -13.936  29.024  1.00  0.00     0.054 C 
BRANCH  13  14
ATOM     14  C   UNL     1      12.854 -15.125  28.583  1.00  0.00    -0.027 C 
ATOM     15  C   UNL     1      13.632 -15.846  29.411  1.00  0.00    -0.031 C 
BRANCH  15  16
ATOM     16  C   UNL     1      13.723 -15.621  30.899  1.00  0.00     0.027 C 
BRANCH  16  17
ATOM     17  C   UNL     1      13.343 -16.900  31.661  1.00  0.00     0.004 C 
BRANCH  17  18
ATOM     18  C   UNL     1      11.836 -17.192  31.615  1.00  0.00     0.000 C 
BRANCH  18  19
ATOM     19  C   UNL     1      10.985 -15.945  31.896  1.00  0.00    -0.003 C 
ATOM     20  C   UNL     1       9.817 -16.276  32.819  1.00  0.00     0.004 C 
ENDBRANCH  18  19
ENDBRANCH  17  18
ENDBRANCH  16  17
ENDBRANCH  15  16
ENDBRANCH  13  14
ENDBRANCH  12  13
ENDBRANCH   1  11
TORSDOF 14
ENDMDL
MODEL 8
REMARK VINA RESULT:    -5.499      9.381     11.976
REMARK INTER + INTRA:         -11.156
REMARK INTER:                  -9.266
REMARK INTRA:                  -1.891
REMARK UNBOUND:                -1.157
REMARK SMILES CCCCCC=CCC=CCCCCCCCC(=O)[O-]
REMARK SMILES IDX 11 1 12 2 13 3 14 4 15 5 16 6 17 7 18 8 19 9 20 10 10 11
REMARK SMILES IDX 9 12 8 13 7 14 6 15 5 16 4 17 3 18 2 19 1 20
REMARK H PARENT
REMARK Flexibility Score: inf
ROOT
ATOM      1  C   UNL     1      12.076 -14.462  29.514  1.00  0.00     0.027 C 
ENDROOT
BRANCH   1   2
ATOM      2  C   UNL     1      13.555 -14.761  29.781  1.00  0.00     0.004 C 
BRANCH   2   3
ATOM      3  C   UNL     1      13.724 -15.615  31.042  1.00  0.00     0.000 C 
BRANCH   3   4
ATOM      4  C   UNL     1      12.363 -15.945  31.676  1.00  0.00     0.000 C 
BRANCH   4   5
ATOM      5  C   UNL     1      12.058 -17.458  31.640  1.00  0.00     0.000 C 
BRANCH   5   6
ATOM      6  C   UNL     1      10.640 -17.810  32.124  1.00  0.00     0.006 C 
BRANCH   6   7
ATOM      7  C   UNL     1      10.594 -19.109  32.938  1.00  0.00     0.053 C 
BRANCH   7   8
ATOM      8  C   UNL     1      10.158 -20.253  32.078  1.00  0.00     0.041 C 
ATOM      9  O   UNL     1       9.837 -20.057  30.877  1.00  0.00    -0.550 OA
ATOM     10  O   UNL     1      10.135 -21.540  32.596  1.00  0.00    -0.550 OA
ENDBRANCH   7   8
ENDBRANCH   6   7
ENDBRANCH   5   6
ENDBRANCH   4   5
ENDBRANCH   3   4
ENDBRANCH   2   3
ENDBRANCH   1   2
BRANCH   1  11
ATOM     11  C   UNL     1      11.786 -14.426  28.041  1.00  0.00    -0.031 C 
ATOM     12  C   UNL     1      11.708 -13.269  27.366  1.00  0.00    -0.027 C 
BRANCH  12  13
ATOM     13  C   UNL     1      11.432 -13.248  25.889  1.00  0.00     0.054 C 
BRANCH  13  14
ATOM     14  C   UNL     1      11.754 -11.896  25.304  1.00  0.00    -0.027 C 
ATOM     15  C   UNL     1      12.891 -11.622  24.639  1.00  0.00    -0.031 C 
BRANCH  15  16
ATOM     16  C   UNL     1      13.949 -12.644  24.311  1.00  0.00     0.027 C 
BRANCH  16  17
ATOM     17  C   UNL     1      15.081 -12.600  25.350  1.00  0.00     0.004 C 
BRANCH  17  18
ATOM     18  C   UNL     1      15.125 -13.857  26.232  1.00  0.00     0.000 C 
BRANCH  18  19
ATOM     19  C   UNL     1      14.642 -15.113  25.493  1.00  0.00    -0.003 C 
ATOM     20  C   UNL     1      14.549 -16.304  26.440  1.00  0.00     0.004 C 
ENDBRANCH  18  19
ENDBRANCH  17  18
ENDBRANCH  16  17
ENDBRANCH  15  16
ENDBRANCH  13  14
ENDBRANCH  12  13
ENDBRANCH   1  11
TORSDOF 14
ENDMDL
MODEL 9
REMARK VINA RESULT:    -5.486      9.021     11.890
REMARK INTER + INTRA:         -11.133
REMARK INTER:                  -9.392
REMARK INTRA:                  -1.741
REMARK UNBOUND:                -1.157
REMARK SMILES CCCCCC=CCC=CCCCCCCCC(=O)[O-]
REMARK SMILES IDX 11 1 12 2 13 3 14 4 15 5 16 6 17 7 18 8 19 9 20 10 10 11
REMARK SMILES IDX 9 12 8 13 7 14 6 15 5 16 4 17 3 18 2 19 1 20
REMARK H PARENT
REMARK Flexibility Score: inf
ROOT
ATOM      1  C   UNL     1      14.178 -15.913  29.928  1.00  0.00     0.027 C 
ENDROOT
BRANCH   1   2
ATOM      2  C   UNL     1      13.652 -15.899  31.367  1.00  0.00     0.004 C 
BRANCH   2   3
ATOM      3  C   UNL     1      12.619 -17.010  31.585  1.00  0.00     0.000 C 
BRANCH   3   4
ATOM      4  C   UNL     1      11.278 -16.435  32.069  1.00  0.00     0.000 C 
BRANCH   4   5
ATOM      5  C   UNL     1      10.302 -17.541  32.523  1.00  0.00     0.000 C 
BRANCH   5   6
ATOM      6  C   UNL     1      10.588 -18.913  31.885  1.00  0.00     0.006 C 
BRANCH   6   7
ATOM      7  C   UNL     1       9.376 -19.852  31.924  1.00  0.00     0.053 C 
BRANCH   7   8
ATOM      8  C   UNL     1       9.458 -20.860  30.821  1.00  0.00     0.041 C 
ATOM      9  O   UNL     1       9.772 -22.053  31.074  1.00  0.00    -0.550 OA
ATOM     10  O   UNL     1       9.160 -20.488  29.518  1.00  0.00    -0.550 OA
ENDBRANCH   7   8
ENDBRANCH   6   7
ENDBRANCH   5   6
ENDBRANCH   4   5
ENDBRANCH   3   4
ENDBRANCH   2   3
ENDBRANCH   1   2
BRANCH   1  11
ATOM     11  C   UNL     1      13.817 -14.648  29.204  1.00  0.00    -0.031 C 
ATOM     12  C   UNL     1      12.592 -14.107  29.299  1.00  0.00    -0.027 C 
BRANCH  12  13
ATOM     13  C   UNL     1      12.249 -12.832  28.581  1.00  0.00     0.054 C 
BRANCH  13  14
ATOM     14  C   UNL     1      11.541 -13.124  27.283  1.00  0.00    -0.027 C 
ATOM     15  C   UNL     1      12.081 -12.902  26.071  1.00  0.00    -0.031 C 
BRANCH  15  16
ATOM     16  C   UNL     1      13.492 -12.421  25.847  1.00  0.00     0.027 C 
BRANCH  16  17
ATOM     17  C   UNL     1      14.258 -13.402  24.945  1.00  0.00     0.004 C 
BRANCH  17  18
ATOM     18  C   UNL     1      14.450 -14.779  25.598  1.00  0.00     0.000 C 
BRANCH  18  19
ATOM     19  C   UNL     1      13.511 -15.844  25.014  1.00  0.00    -0.003 C 
ATOM     20  C   UNL     1      12.924 -16.720  26.116  1.00  0.00     0.004 C 
ENDBRANCH  18  19
ENDBRANCH  17  18
ENDBRANCH  16  17
ENDBRANCH  15  16
ENDBRANCH  13  14
ENDBRANCH  12  13
ENDBRANCH   1  11
TORSDOF 14
ENDMDL
