MODEL 1
REMARK VINA RESULT:    32.113      0.000      0.000
REMARK INTER + INTRA:          55.314
REMARK INTER:                  52.764
REMARK INTRA:                   2.551
REMARK UNBOUND:                 2.551
REMARK SMILES COc1ccc([C@@H]2CC(=O)c3c(O)cc(O[C@@H]4O[C@H](CO[C@H]5O[C@H](C)[C@@H](O)[C@@H](O)[C@H]5O)[C@@H](O)[C@H](O)[C@@H]4O)cc3O2)cc1O
REMARK SMILES IDX 19 1 32 2 34 3 36 4 17 5 18 6 20 7 21 8 22 9 25 10 24 11
REMARK SMILES IDX 26 12 23 13 28 14 30 15 27 16 29 18 31 20 33 22 35 24 16 26
REMARK SMILES IDX 15 27 14 28 38 29 12 30 39 31 11 32 40 33 9 34 7 35 10 36
REMARK SMILES IDX 8 37 13 38 6 40 41 41 5 42 42 43 4 44 3 45 43 46 2 48 1 49
REMARK SMILES IDX 37 50
REMARK H PARENT 27 17 29 19 31 21 33 23 35 25 13 39 43 47 37 51
REMARK Flexibility Score: inf
ROOT
ATOM      1  C   UNL     1      22.396  46.577  26.363  1.00  0.00     0.180 C 
ATOM      2  C   UNL     1      21.965  47.331  25.071  1.00  0.00     0.177 C 
ATOM      3  C   UNL     1      21.173  46.413  24.098  1.00  0.00     0.180 C 
ATOM      4  C   UNL     1      21.821  45.006  23.965  1.00  0.00     0.214 C 
ATOM      5  C   UNL     1      22.305  44.434  25.331  1.00  0.00     0.339 C 
ATOM      6  O   UNL     1      23.100  45.372  26.045  1.00  0.00    -0.332 OA
ENDROOT
BRANCH   1   7
ATOM      7  C   UNL     1      21.257  46.409  27.377  1.00  0.00     0.198 C 
BRANCH   7   8
ATOM      8  O   UNL     1      21.433  45.194  28.099  1.00  0.00    -0.347 OA
BRANCH   8   9
ATOM      9  C   UNL     1      22.612  45.236  28.884  1.00  0.00     0.281 C 
ATOM     10  C   UNL     1      21.262  46.554  32.033  1.00  0.00     0.041 C 
ATOM     11  C   UNL     1      21.432  45.546  30.901  1.00  0.00     0.150 C 
ATOM     12  C   UNL     1      21.838  44.163  31.449  1.00  0.00     0.174 C 
ATOM     13  O   UNL     1      22.428  46.067  30.021  1.00  0.00    -0.344 OA
ATOM     14  C   UNL     1      22.046  43.181  30.299  1.00  0.00     0.179 C 
ATOM     15  C   UNL     1      23.036  43.804  29.287  1.00  0.00     0.202 C 
BRANCH  12  16
ATOM     16  O   UNL     1      20.840  43.674  32.311  1.00  0.00    -0.388 OA
ATOM     17  H   UNL     1      20.814  42.688  32.164  1.00  0.00     0.211 HD
ENDBRANCH  12  16
BRANCH  14  18
ATOM     18  O   UNL     1      20.823  42.908  29.659  1.00  0.00    -0.387 OA
ATOM     19  H   UNL     1      21.010  42.883  28.700  1.00  0.00     0.211 HD
ENDBRANCH  14  18
BRANCH  15  20
ATOM     20  O   UNL     1      23.123  42.995  28.140  1.00  0.00    -0.385 OA
ATOM     21  H   UNL     1      22.960  43.600  27.365  1.00  0.00     0.211 HD
ENDBRANCH  15  20
ENDBRANCH   8   9
ENDBRANCH   7   8
ENDBRANCH   1   7
BRANCH   2  22
ATOM     22  O   UNL     1      23.120  47.794  24.419  1.00  0.00    -0.387 OA
ATOM     23  H   UNL     1      22.950  48.746  24.163  1.00  0.00     0.211 HD
ENDBRANCH   2  22
BRANCH   3  24
ATOM     24  O   UNL     1      19.831  46.293  24.480  1.00  0.00    -0.387 OA
ATOM     25  H   UNL     1      19.325  46.063  23.661  1.00  0.00     0.211 HD
ENDBRANCH   3  24
BRANCH   5  26
ATOM     26  O   UNL     1      21.254  43.956  26.177  1.00  0.00    -0.462 OA
BRANCH  26  27
ATOM     27  C   UNL     1      21.059  42.640  26.548  1.00  0.00     0.130 A 
ATOM     28  C   UNL     1      22.107  41.736  26.374  1.00  0.00     0.093 A 
ATOM     29  C   UNL     1      19.865  42.224  27.140  1.00  0.00     0.094 A 
ATOM     30  C   UNL     1      22.026  40.462  26.959  1.00  0.00     0.133 A 
ATOM     31  C   UNL     1      19.744  40.913  27.605  1.00  0.00     0.138 A 
ATOM     32  C   UNL     1      20.852  40.055  27.612  1.00  0.00     0.102 A 
ATOM     33  O   UNL     1      18.506  40.469  28.115  1.00  0.00    -0.484 OA
ATOM     34  C   UNL     1      20.723  38.771  28.322  1.00  0.00     0.174 C 
ATOM     35  C   UNL     1      18.263  39.074  28.359  1.00  0.00     0.211 C 
ATOM     36  O   UNL     1      21.707  37.985  28.432  1.00  0.00    -0.294 OA
ATOM     37  C   UNL     1      19.479  38.462  29.072  1.00  0.00     0.131 C 
BRANCH  30  38
ATOM     38  O   UNL     1      23.121  39.604  26.889  1.00  0.00    -0.507 OA
ATOM     39  H   UNL     1      23.046  38.617  27.175  1.00  0.00     0.293 HD
ENDBRANCH  30  38
BRANCH  35  40
ATOM     40  C   UNL     1      16.961  38.891  29.086  1.00  0.00    -0.003 A 
ATOM     41  C   UNL     1      16.754  37.893  30.074  1.00  0.00     0.057 A 
ATOM     42  C   UNL     1      15.853  39.650  28.673  1.00  0.00     0.011 A 
ATOM     43  C   UNL     1      15.494  37.676  30.621  1.00  0.00     0.158 A 
ATOM     44  C   UNL     1      14.580  39.440  29.230  1.00  0.00     0.051 A 
ATOM     45  C   UNL     1      14.388  38.431  30.201  1.00  0.00     0.160 A 
BRANCH  43  46
ATOM     46  O   UNL     1      15.328  36.661  31.564  1.00  0.00    -0.504 OA
ATOM     47  H   UNL     1      14.566  36.009  31.529  1.00  0.00     0.293 HD
ENDBRANCH  43  46
BRANCH  45  48
ATOM     48  O   UNL     1      13.132  38.148  30.761  1.00  0.00    -0.493 OA
ATOM     49  C   UNL     1      12.504  38.950  31.763  1.00  0.00     0.278 C 
ENDBRANCH  45  48
ENDBRANCH  35  40
ENDBRANCH  26  27
ENDBRANCH   5  26
BRANCH   4  50
ATOM     50  O   UNL     1      20.959  44.073  23.335  1.00  0.00    -0.384 OA
ATOM     51  H   UNL     1      21.462  43.472  22.725  1.00  0.00     0.211 HD
ENDBRANCH   4  50
TORSDOF 15
ENDMDL
MODEL 2
REMARK VINA RESULT:    32.794      1.200      1.793
REMARK INTER + INTRA:          56.433
REMARK INTER:                  55.608
REMARK INTRA:                   0.825
REMARK UNBOUND:                 2.551
REMARK SMILES COc1ccc([C@@H]2CC(=O)c3c(O)cc(O[C@@H]4O[C@H](CO[C@H]5O[C@H](C)[C@@H](O)[C@@H](O)[C@H]5O)[C@@H](O)[C@H](O)[C@@H]4O)cc3O2)cc1O
REMARK SMILES IDX 19 1 32 2 34 3 36 4 17 5 18 6 20 7 21 8 22 9 25 10 24 11
REMARK SMILES IDX 26 12 23 13 28 14 30 15 27 16 29 18 31 20 33 22 35 24 16 26
REMARK SMILES IDX 15 27 14 28 38 29 12 30 39 31 11 32 40 33 9 34 7 35 10 36
REMARK SMILES IDX 8 37 13 38 6 40 41 41 5 42 42 43 4 44 3 45 43 46 2 48 1 49
REMARK SMILES IDX 37 50
REMARK H PARENT 27 17 29 19 31 21 33 23 35 25 13 39 43 47 37 51
REMARK Flexibility Score: inf
ROOT
ATOM      1  C   UNL     1      21.931  45.704  28.369  1.00  0.00     0.180 C 
ATOM      2  C   UNL     1      21.878  47.210  27.981  1.00  0.00     0.177 C 
ATOM      3  C   UNL     1      21.574  47.412  26.470  1.00  0.00     0.180 C 
ATOM      4  C   UNL     1      22.386  46.435  25.575  1.00  0.00     0.214 C 
ATOM      5  C   UNL     1      22.443  44.991  26.156  1.00  0.00     0.339 C 
ATOM      6  O   UNL     1      22.836  44.986  27.523  1.00  0.00    -0.332 OA
ENDROOT
BRANCH   1   7
ATOM      7  C   UNL     1      20.543  45.066  28.518  1.00  0.00     0.198 C 
BRANCH   7   8
ATOM      8  O   UNL     1      20.409  44.510  29.823  1.00  0.00    -0.347 OA
BRANCH   8   9
ATOM      9  C   UNL     1      21.653  44.024  30.297  1.00  0.00     0.281 C 
ATOM     10  C   UNL     1      23.118  47.126  31.604  1.00  0.00     0.041 C 
ATOM     11  C   UNL     1      22.113  45.982  31.528  1.00  0.00     0.150 C 
ATOM     12  C   UNL     1      21.995  45.259  32.884  1.00  0.00     0.174 C 
ATOM     13  O   UNL     1      22.563  45.095  30.504  1.00  0.00    -0.344 OA
ATOM     14  C   UNL     1      21.018  44.090  32.775  1.00  0.00     0.179 C 
ATOM     15  C   UNL     1      21.444  43.196  31.588  1.00  0.00     0.202 C 
BRANCH  12  16
ATOM     16  O   UNL     1      21.549  46.155  33.872  1.00  0.00    -0.388 OA
ATOM     17  H   UNL     1      20.851  45.664  34.389  1.00  0.00     0.211 HD
ENDBRANCH  12  16
BRANCH  14  18
ATOM     18  O   UNL     1      19.710  44.563  32.569  1.00  0.00    -0.387 OA
ATOM     19  H   UNL     1      19.221  44.402  33.400  1.00  0.00     0.211 HD
ENDBRANCH  14  18
BRANCH  15  20
ATOM     20  O   UNL     1      20.474  42.204  31.361  1.00  0.00    -0.385 OA
ATOM     21  H   UNL     1      19.596  42.626  31.570  1.00  0.00     0.211 HD
ENDBRANCH  15  20
ENDBRANCH   8   9
ENDBRANCH   7   8
ENDBRANCH   1   7
BRANCH   2  22
ATOM     22  O   UNL     1      23.125  47.790  28.274  1.00  0.00    -0.387 OA
ATOM     23  H   UNL     1      23.059  48.176  29.196  1.00  0.00     0.211 HD
ENDBRANCH   2  22
BRANCH   3  24
ATOM     24  O   UNL     1      20.205  47.292  26.200  1.00  0.00    -0.387 OA
ATOM     25  H   UNL     1      19.736  47.419  27.063  1.00  0.00     0.211 HD
ENDBRANCH   3  24
BRANCH   5  26
ATOM     26  O   UNL     1      21.230  44.246  26.004  1.00  0.00    -0.462 OA
BRANCH  26  27
ATOM     27  C   UNL     1      21.055  42.919  26.347  1.00  0.00     0.130 A 
ATOM     28  C   UNL     1      22.087  42.020  26.077  1.00  0.00     0.093 A 
ATOM     29  C   UNL     1      19.901  42.487  27.003  1.00  0.00     0.094 A 
ATOM     30  C   UNL     1      22.039  40.728  26.627  1.00  0.00     0.133 A 
ATOM     31  C   UNL     1      19.806  41.163  27.434  1.00  0.00     0.138 A 
ATOM     32  C   UNL     1      20.908  40.303  27.342  1.00  0.00     0.102 A 
ATOM     33  O   UNL     1      18.602  40.705  28.010  1.00  0.00    -0.484 OA
ATOM     34  C   UNL     1      20.821  38.998  28.019  1.00  0.00     0.174 C 
ATOM     35  C   UNL     1      18.371  39.304  28.226  1.00  0.00     0.211 C 
ATOM     36  O   UNL     1      21.807  38.207  28.041  1.00  0.00    -0.294 OA
ATOM     37  C   UNL     1      19.627  38.668  28.839  1.00  0.00     0.131 C 
BRANCH  30  38
ATOM     38  O   UNL     1      23.124  39.871  26.459  1.00  0.00    -0.507 OA
ATOM     39  H   UNL     1      23.979  39.973  27.026  1.00  0.00     0.293 HD
ENDBRANCH  30  38
BRANCH  35  40
ATOM     40  C   UNL     1      17.118  39.101  29.031  1.00  0.00    -0.003 A 
ATOM     41  C   UNL     1      16.892  37.961  29.847  1.00  0.00     0.057 A 
ATOM     42  C   UNL     1      16.060  40.009  28.861  1.00  0.00     0.011 A 
ATOM     43  C   UNL     1      15.664  37.754  30.465  1.00  0.00     0.158 A 
ATOM     44  C   UNL     1      14.821  39.808  29.491  1.00  0.00     0.051 A 
ATOM     45  C   UNL     1      14.607  38.660  30.288  1.00  0.00     0.160 A 
BRANCH  43  46
ATOM     46  O   UNL     1      15.475  36.603  31.231  1.00  0.00    -0.504 OA
ATOM     47  H   UNL     1      16.158  36.268  31.884  1.00  0.00     0.293 HD
ENDBRANCH  43  46
BRANCH  45  48
ATOM     48  O   UNL     1      13.378  38.385  30.906  1.00  0.00    -0.493 OA
ATOM     49  C   UNL     1      12.125  38.364  30.220  1.00  0.00     0.278 C 
ENDBRANCH  45  48
ENDBRANCH  35  40
ENDBRANCH  26  27
ENDBRANCH   5  26
BRANCH   4  50
ATOM     50  O   UNL     1      21.902  46.395  24.243  1.00  0.00    -0.384 OA
ATOM     51  H   UNL     1      21.250  45.657  24.119  1.00  0.00     0.211 HD
ENDBRANCH   4  50
TORSDOF 15
ENDMDL
