MODEL 1
REMARK VINA RESULT:    -2.800      0.000      0.000
REMARK INTER + INTRA:          -3.046
REMARK INTER:                  -3.046
REMARK INTRA:                   0.000
REMARK UNBOUND:                 0.000
REMARK SMILES [NH3+]CC(=O)[O-]
REMARK SMILES IDX 2 1 1 2 3 6 4 7 5 8
REMARK H PARENT 1 3 1 4 1 5
REMARK Flexibility Score: inf
ROOT
ATOM      1  C   UNL     1      23.394  -3.777  -0.603  1.00  0.00     0.312 C 
ENDROOT
BRANCH   1   2
ATOM      2  N   UNL     1      23.117  -3.454  -2.001  1.00  0.00    -0.353 N 
ATOM      3  H   UNL     1      22.565  -2.567  -2.062  1.00  0.00     0.344 HD
ATOM      4  H   UNL     1      22.562  -4.229  -2.428  1.00  0.00     0.344 HD
ATOM      5  H   UNL     1      24.015  -3.349  -2.529  1.00  0.00     0.344 HD
ENDBRANCH   1   2
BRANCH   1   6
ATOM      6  C   UNL     1      24.184  -2.684   0.047  1.00  0.00     0.096 C 
ATOM      7  O   UNL     1      25.248  -2.953   0.663  1.00  0.00    -0.544 OA
ATOM      8  O   UNL     1      23.772  -1.363  -0.073  1.00  0.00    -0.544 OA
ENDBRANCH   1   6
TORSDOF 2
ENDMDL
MODEL 2
REMARK VINA RESULT:    -2.692     14.545     14.896
REMARK INTER + INTRA:          -2.928
REMARK INTER:                  -2.928
REMARK INTRA:                   0.000
REMARK UNBOUND:                 0.000
REMARK SMILES [NH3+]CC(=O)[O-]
REMARK SMILES IDX 2 1 1 2 3 6 4 7 5 8
REMARK H PARENT 1 3 1 4 1 5
REMARK Flexibility Score: inf
ROOT
ATOM      1  C   UNL     1      33.033  -3.476   9.873  1.00  0.00     0.312 C 
ENDROOT
BRANCH   1   2
ATOM      2  N   UNL     1      33.733  -2.949   8.704  1.00  0.00    -0.353 N 
ATOM      3  H   UNL     1      33.214  -3.202   7.831  1.00  0.00     0.344 HD
ATOM      4  H   UNL     1      34.690  -3.365   8.662  1.00  0.00     0.344 HD
ATOM      5  H   UNL     1      33.818  -1.908   8.776  1.00  0.00     0.344 HD
ENDBRANCH   1   2
BRANCH   1   6
ATOM      6  C   UNL     1      33.953  -3.550  11.052  1.00  0.00     0.096 C 
ATOM      7  O   UNL     1      34.141  -2.537  11.775  1.00  0.00    -0.544 OA
ATOM      8  O   UNL     1      34.562  -4.754  11.382  1.00  0.00    -0.544 OA
ENDBRANCH   1   6
TORSDOF 2
ENDMDL
MODEL 3
REMARK VINA RESULT:    -2.514     19.321     19.524
REMARK INTER + INTRA:          -2.734
REMARK INTER:                  -2.734
REMARK INTRA:                   0.000
REMARK UNBOUND:                 0.000
REMARK SMILES [NH3+]CC(=O)[O-]
REMARK SMILES IDX 2 1 1 2 3 6 4 7 5 8
REMARK H PARENT 1 3 1 4 1 5
REMARK Flexibility Score: inf
ROOT
ATOM      1  C   UNL     1      18.411   4.863  15.991  1.00  0.00     0.312 C 
ENDROOT
BRANCH   1   2
ATOM      2  N   UNL     1      17.330   5.607  16.632  1.00  0.00    -0.353 N 
ATOM      3  H   UNL     1      17.233   6.551  16.190  1.00  0.00     0.344 HD
ATOM      4  H   UNL     1      17.552   5.729  17.646  1.00  0.00     0.344 HD
ATOM      5  H   UNL     1      16.430   5.081  16.543  1.00  0.00     0.344 HD
ENDBRANCH   1   2
BRANCH   1   6
ATOM      6  C   UNL     1      19.657   4.921  16.819  1.00  0.00     0.096 C 
ATOM      7  O   UNL     1      19.679   4.407  17.969  1.00  0.00    -0.544 OA
ATOM      8  O   UNL     1      20.810   5.496  16.300  1.00  0.00    -0.544 OA
ENDBRANCH   1   6
TORSDOF 2
ENDMDL
MODEL 4
REMARK VINA RESULT:    -2.485     14.871     15.332
REMARK INTER + INTRA:          -2.703
REMARK INTER:                  -2.703
REMARK INTRA:                   0.000
REMARK UNBOUND:                 0.000
REMARK SMILES [NH3+]CC(=O)[O-]
REMARK SMILES IDX 2 1 1 2 3 6 4 7 5 8
REMARK H PARENT 1 3 1 4 1 5
REMARK Flexibility Score: inf
ROOT
ATOM      1  C   UNL     1      33.627  -2.679  11.774  1.00  0.00     0.312 C 
ENDROOT
BRANCH   1   2
ATOM      2  N   UNL     1      34.712  -3.127  12.644  1.00  0.00    -0.353 N 
ATOM      3  H   UNL     1      34.322  -3.490  13.545  1.00  0.00     0.344 HD
ATOM      4  H   UNL     1      35.343  -2.319  12.849  1.00  0.00     0.344 HD
ATOM      5  H   UNL     1      35.266  -3.878  12.170  1.00  0.00     0.344 HD
ENDBRANCH   1   2
BRANCH   1   6
ATOM      6  C   UNL     1      33.560  -3.519  10.537  1.00  0.00     0.096 C 
ATOM      7  O   UNL     1      33.473  -2.975   9.405  1.00  0.00    -0.544 OA
ATOM      8  O   UNL     1      33.645  -4.903  10.632  1.00  0.00    -0.544 OA
ENDBRANCH   1   6
TORSDOF 2
ENDMDL
MODEL 5
REMARK VINA RESULT:    -2.482      3.087      3.376
REMARK INTER + INTRA:          -2.699
REMARK INTER:                  -2.699
REMARK INTRA:                   0.000
REMARK UNBOUND:                 0.000
REMARK SMILES [NH3+]CC(=O)[O-]
REMARK SMILES IDX 2 1 1 2 3 6 4 7 5 8
REMARK H PARENT 1 3 1 4 1 5
REMARK Flexibility Score: inf
ROOT
ATOM      1  C   UNL     1      25.529  -1.834   2.427  1.00  0.00     0.312 C 
ENDROOT
BRANCH   1   2
ATOM      2  N   UNL     1      26.917  -1.403   2.280  1.00  0.00    -0.353 N 
ATOM      3  H   UNL     1      27.563  -2.145   2.635  1.00  0.00     0.344 HD
ATOM      4  H   UNL     1      27.066  -0.530   2.835  1.00  0.00     0.344 HD
ATOM      5  H   UNL     1      27.127  -1.204   1.274  1.00  0.00     0.344 HD
ENDBRANCH   1   2
BRANCH   1   6
ATOM      6  C   UNL     1      24.920  -2.123   1.091  1.00  0.00     0.096 C 
ATOM      7  O   UNL     1      25.224  -3.174   0.469  1.00  0.00    -0.544 OA
ATOM      8  O   UNL     1      23.976  -1.255   0.556  1.00  0.00    -0.544 OA
ENDBRANCH   1   6
TORSDOF 2
ENDMDL
MODEL 6
REMARK VINA RESULT:    -2.454      2.212      2.410
REMARK INTER + INTRA:          -2.669
REMARK INTER:                  -2.669
REMARK INTRA:                   0.000
REMARK UNBOUND:                 0.000
REMARK SMILES [NH3+]CC(=O)[O-]
REMARK SMILES IDX 2 1 1 2 3 6 4 7 5 8
REMARK H PARENT 1 3 1 4 1 5
REMARK Flexibility Score: inf
ROOT
ATOM      1  C   UNL     1      24.555  -3.728   0.104  1.00  0.00     0.312 C 
ENDROOT
BRANCH   1   2
ATOM      2  N   UNL     1      25.441  -2.652   0.543  1.00  0.00    -0.353 N 
ATOM      3  H   UNL     1      24.899  -1.937   1.081  1.00  0.00     0.344 HD
ATOM      4  H   UNL     1      25.866  -2.195  -0.295  1.00  0.00     0.344 HD
ATOM      5  H   UNL     1      26.207  -3.040   1.142  1.00  0.00     0.344 HD
ENDBRANCH   1   2
BRANCH   1   6
ATOM      6  C   UNL     1      23.279  -3.171  -0.447  1.00  0.00     0.096 C 
ATOM      7  O   UNL     1      22.798  -3.628  -1.517  1.00  0.00    -0.544 OA
ATOM      8  O   UNL     1      22.595  -2.182   0.249  1.00  0.00    -0.544 OA
ENDBRANCH   1   6
TORSDOF 2
ENDMDL
MODEL 7
REMARK VINA RESULT:    -2.426     19.408     19.638
REMARK INTER + INTRA:          -2.639
REMARK INTER:                  -2.639
REMARK INTRA:                   0.000
REMARK UNBOUND:                 0.000
REMARK SMILES [NH3+]CC(=O)[O-]
REMARK SMILES IDX 2 1 1 2 3 6 4 7 5 8
REMARK H PARENT 1 3 1 4 1 5
REMARK Flexibility Score: inf
ROOT
ATOM      1  C   UNL     1      18.668   6.089  16.620  1.00  0.00     0.312 C 
ENDROOT
BRANCH   1   2
ATOM      2  N   UNL     1      17.286   5.618  16.584  1.00  0.00    -0.353 N 
ATOM      3  H   UNL     1      17.004   5.260  17.526  1.00  0.00     0.344 HD
ATOM      4  H   UNL     1      17.206   4.843  15.888  1.00  0.00     0.344 HD
ATOM      5  H   UNL     1      16.648   6.398  16.297  1.00  0.00     0.344 HD
ENDBRANCH   1   2
BRANCH   1   6
ATOM      6  C   UNL     1      19.613   4.945  16.820  1.00  0.00     0.096 C 
ATOM      7  O   UNL     1      20.316   4.529  15.863  1.00  0.00    -0.544 OA
ATOM      8  O   UNL     1      19.752   4.372  18.078  1.00  0.00    -0.544 OA
ENDBRANCH   1   6
TORSDOF 2
ENDMDL
MODEL 8
REMARK VINA RESULT:    -2.410     18.654     18.883
REMARK INTER + INTRA:          -2.622
REMARK INTER:                  -2.622
REMARK INTRA:                   0.000
REMARK UNBOUND:                 0.000
REMARK SMILES [NH3+]CC(=O)[O-]
REMARK SMILES IDX 2 1 1 2 3 6 4 7 5 8
REMARK H PARENT 1 3 1 4 1 5
REMARK Flexibility Score: inf
ROOT
ATOM      1  C   UNL     1      20.639   5.232  15.813  1.00  0.00     0.312 C 
ENDROOT
BRANCH   1   2
ATOM      2  N   UNL     1      21.172   4.133  15.012  1.00  0.00    -0.353 N 
ATOM      3  H   UNL     1      21.032   3.224  15.510  1.00  0.00     0.344 HD
ATOM      4  H   UNL     1      22.196   4.284  14.863  1.00  0.00     0.344 HD
ATOM      5  H   UNL     1      20.695   4.103  14.081  1.00  0.00     0.344 HD
ENDBRANCH   1   2
BRANCH   1   6
ATOM      6  C   UNL     1      19.592   4.735  16.762  1.00  0.00     0.096 C 
ATOM      7  O   UNL     1      19.903   4.421  17.941  1.00  0.00    -0.544 OA
ATOM      8  O   UNL     1      18.265   4.668  16.359  1.00  0.00    -0.544 OA
ENDBRANCH   1   6
TORSDOF 2
ENDMDL
MODEL 9
REMARK VINA RESULT:    -2.388      2.544      3.009
REMARK INTER + INTRA:          -2.597
REMARK INTER:                  -2.597
REMARK INTRA:                   0.000
REMARK UNBOUND:                 0.000
REMARK SMILES [NH3+]CC(=O)[O-]
REMARK SMILES IDX 2 1 1 2 3 6 4 7 5 8
REMARK H PARENT 1 3 1 4 1 5
REMARK Flexibility Score: inf
ROOT
ATOM      1  C   UNL     1      23.085  -3.742  -0.800  1.00  0.00     0.312 C 
ENDROOT
BRANCH   1   2
ATOM      2  N   UNL     1      23.133  -3.129  -2.125  1.00  0.00    -0.353 N 
ATOM      3  H   UNL     1      22.886  -3.835  -2.857  1.00  0.00     0.344 HD
ATOM      4  H   UNL     1      24.101  -2.779  -2.305  1.00  0.00     0.344 HD
ATOM      5  H   UNL     1      22.467  -2.322  -2.172  1.00  0.00     0.344 HD
ENDBRANCH   1   2
BRANCH   1   6
ATOM      6  C   UNL     1      21.688  -3.733  -0.262  1.00  0.00     0.096 C 
ATOM      7  O   UNL     1      21.167  -2.655   0.128  1.00  0.00    -0.544 OA
ATOM      8  O   UNL     1      20.944  -4.905  -0.241  1.00  0.00    -0.544 OA
ENDBRANCH   1   6
TORSDOF 2
ENDMDL
