MODEL 1
REMARK VINA RESULT:    -4.512      0.000      0.000
REMARK INTER + INTRA:          -7.607
REMARK INTER:                  -6.885
REMARK INTRA:                  -0.721
REMARK UNBOUND:                -0.721
REMARK SMILES O=C([O-])CCCCCCCCC(=O)[O-]
REMARK SMILES IDX 7 1 6 2 5 3 4 4 2 5 1 6 3 7 8 8 9 9 10 10 11 11 12 12 13 13
REMARK SMILES IDX 14 14
REMARK H PARENT
REMARK Flexibility Score: inf
ROOT
ATOM      1  C   UNL     1      -6.073  -4.018   5.186  1.00  0.00     0.000 C 
ENDROOT
BRANCH   1   2
ATOM      2  C   UNL     1      -4.712  -3.527   4.664  1.00  0.00     0.000 C 
BRANCH   2   3
ATOM      3  C   UNL     1      -3.956  -2.674   5.697  1.00  0.00     0.006 C 
BRANCH   3   4
ATOM      4  C   UNL     1      -2.577  -3.257   6.031  1.00  0.00     0.053 C 
BRANCH   4   5
ATOM      5  C   UNL     1      -2.653  -4.717   6.359  1.00  0.00     0.041 C 
ATOM      6  O   UNL     1      -3.125  -5.095   7.463  1.00  0.00    -0.550 OA
ATOM      7  O   UNL     1      -2.232  -5.662   5.432  1.00  0.00    -0.550 OA
ENDBRANCH   4   5
ENDBRANCH   3   4
ENDBRANCH   2   3
ENDBRANCH   1   2
BRANCH   1   8
ATOM      8  C   UNL     1      -6.430  -3.421   6.558  1.00  0.00     0.000 C 
BRANCH   8   9
ATOM      9  C   UNL     1      -7.872  -2.892   6.612  1.00  0.00     0.000 C 
BRANCH   9  10
ATOM     10  C   UNL     1      -7.937  -1.383   6.908  1.00  0.00     0.006 C 
BRANCH  10  11
ATOM     11  C   UNL     1      -6.829  -0.603   6.188  1.00  0.00     0.053 C 
BRANCH  11  12
ATOM     12  C   UNL     1      -6.293   0.511   7.034  1.00  0.00     0.041 C 
ATOM     13  O   UNL     1      -7.083   1.322   7.587  1.00  0.00    -0.550 OA
ATOM     14  O   UNL     1      -4.923   0.674   7.184  1.00  0.00    -0.550 OA
ENDBRANCH  11  12
ENDBRANCH  10  11
ENDBRANCH   9  10
ENDBRANCH   8   9
ENDBRANCH   1   8
TORSDOF 9
ENDMDL
MODEL 2
REMARK VINA RESULT:    -4.328      1.523      5.076
REMARK INTER + INTRA:          -7.326
REMARK INTER:                  -6.440
REMARK INTRA:                  -0.885
REMARK UNBOUND:                -0.721
REMARK SMILES O=C([O-])CCCCCCCCC(=O)[O-]
REMARK SMILES IDX 7 1 6 2 5 3 4 4 2 5 1 6 3 7 8 8 9 9 10 10 11 11 12 12 13 13
REMARK SMILES IDX 14 14
REMARK H PARENT
REMARK Flexibility Score: inf
ROOT
ATOM      1  C   UNL     1      -7.107  -3.247   6.499  1.00  0.00     0.000 C 
ENDROOT
BRANCH   1   2
ATOM      2  C   UNL     1      -7.236  -1.896   5.777  1.00  0.00     0.000 C 
BRANCH   2   3
ATOM      3  C   UNL     1      -5.892  -1.156   5.663  1.00  0.00     0.006 C 
BRANCH   3   4
ATOM      4  C   UNL     1      -5.381  -0.670   7.025  1.00  0.00     0.053 C 
BRANCH   4   5
ATOM      5  C   UNL     1      -5.665   0.784   7.243  1.00  0.00     0.041 C 
ATOM      6  O   UNL     1      -4.742   1.634   7.129  1.00  0.00    -0.550 OA
ATOM      7  O   UNL     1      -6.955   1.206   7.539  1.00  0.00    -0.550 OA
ENDBRANCH   4   5
ENDBRANCH   3   4
ENDBRANCH   2   3
ENDBRANCH   1   2
BRANCH   1   8
ATOM      8  C   UNL     1      -6.319  -4.283   5.681  1.00  0.00     0.000 C 
BRANCH   8   9
ATOM      9  C   UNL     1      -5.408  -5.157   6.558  1.00  0.00     0.000 C 
BRANCH   9  10
ATOM     10  C   UNL     1      -4.096  -4.448   6.938  1.00  0.00     0.006 C 
BRANCH  10  11
ATOM     11  C   UNL     1      -3.390  -3.842   5.718  1.00  0.00     0.053 C 
BRANCH  11  12
ATOM     12  C   UNL     1      -2.211  -3.008   6.116  1.00  0.00     0.041 C 
ATOM     13  O   UNL     1      -1.183  -2.978   5.388  1.00  0.00    -0.550 OA
ATOM     14  O   UNL     1      -2.233  -2.293   7.305  1.00  0.00    -0.550 OA
ENDBRANCH  11  12
ENDBRANCH  10  11
ENDBRANCH   9  10
ENDBRANCH   8   9
ENDBRANCH   1   8
TORSDOF 9
ENDMDL
MODEL 3
REMARK VINA RESULT:    -4.315      1.671      5.212
REMARK INTER + INTRA:          -7.306
REMARK INTER:                  -6.447
REMARK INTRA:                  -0.858
REMARK UNBOUND:                -0.721
REMARK SMILES O=C([O-])CCCCCCCCC(=O)[O-]
REMARK SMILES IDX 7 1 6 2 5 3 4 4 2 5 1 6 3 7 8 8 9 9 10 10 11 11 12 12 13 13
REMARK SMILES IDX 14 14
REMARK H PARENT
REMARK Flexibility Score: inf
ROOT
ATOM      1  C   UNL     1      -5.273  -2.250   5.191  1.00  0.00     0.000 C 
ENDROOT
BRANCH   1   2
ATOM      2  C   UNL     1      -6.604  -2.202   5.958  1.00  0.00     0.000 C 
BRANCH   2   3
ATOM      3  C   UNL     1      -6.483  -1.470   7.306  1.00  0.00     0.006 C 
BRANCH   3   4
ATOM      4  C   UNL     1      -5.241  -0.571   7.367  1.00  0.00     0.053 C 
BRANCH   4   5
ATOM      5  C   UNL     1      -5.603   0.883   7.363  1.00  0.00     0.041 C 
ATOM      6  O   UNL     1      -6.804   1.237   7.506  1.00  0.00    -0.550 OA
ATOM      7  O   UNL     1      -4.613   1.848   7.233  1.00  0.00    -0.550 OA
ENDBRANCH   4   5
ENDBRANCH   3   4
ENDBRANCH   2   3
ENDBRANCH   1   2
BRANCH   1   8
ATOM      8  C   UNL     1      -4.890  -3.676   4.760  1.00  0.00     0.000 C 
BRANCH   8   9
ATOM      9  C   UNL     1      -4.666  -4.612   5.957  1.00  0.00     0.000 C 
BRANCH   9  10
ATOM     10  C   UNL     1      -3.174  -4.857   6.245  1.00  0.00     0.006 C 
BRANCH  10  11
ATOM     11  C   UNL     1      -2.660  -3.997   7.408  1.00  0.00     0.053 C 
BRANCH  11  12
ATOM     12  C   UNL     1      -1.858  -2.828   6.921  1.00  0.00     0.041 C 
ATOM     13  O   UNL     1      -1.497  -1.930   7.727  1.00  0.00    -0.550 OA
ATOM     14  O   UNL     1      -1.541  -2.713   5.575  1.00  0.00    -0.550 OA
ENDBRANCH  11  12
ENDBRANCH  10  11
ENDBRANCH   9  10
ENDBRANCH   8   9
ENDBRANCH   1   8
TORSDOF 9
ENDMDL
MODEL 4
REMARK VINA RESULT:    -4.277      1.437      5.325
REMARK INTER + INTRA:          -7.249
REMARK INTER:                  -6.459
REMARK INTRA:                  -0.789
REMARK UNBOUND:                -0.721
REMARK SMILES O=C([O-])CCCCCCCCC(=O)[O-]
REMARK SMILES IDX 7 1 6 2 5 3 4 4 2 5 1 6 3 7 8 8 9 9 10 10 11 11 12 12 13 13
REMARK SMILES IDX 14 14
REMARK H PARENT
REMARK Flexibility Score: inf
ROOT
ATOM      1  C   UNL     1      -7.300  -2.221   6.021  1.00  0.00     0.000 C 
ENDROOT
BRANCH   1   2
ATOM      2  C   UNL     1      -5.975  -1.723   5.421  1.00  0.00     0.000 C 
BRANCH   2   3
ATOM      3  C   UNL     1      -4.936  -1.365   6.498  1.00  0.00     0.006 C 
BRANCH   3   4
ATOM      4  C   UNL     1      -5.574  -0.678   7.713  1.00  0.00     0.053 C 
BRANCH   4   5
ATOM      5  C   UNL     1      -5.797   0.784   7.474  1.00  0.00     0.041 C 
ATOM      6  O   UNL     1      -6.961   1.263   7.518  1.00  0.00    -0.550 OA
ATOM      7  O   UNL     1      -4.716   1.624   7.235  1.00  0.00    -0.550 OA
ENDBRANCH   4   5
ENDBRANCH   3   4
ENDBRANCH   2   3
ENDBRANCH   1   2
BRANCH   1   8
ATOM      8  C   UNL     1      -7.481  -3.741   5.875  1.00  0.00     0.000 C 
BRANCH   8   9
ATOM      9  C   UNL     1      -6.578  -4.536   6.831  1.00  0.00     0.000 C 
BRANCH   9  10
ATOM     10  C   UNL     1      -5.436  -5.262   6.098  1.00  0.00     0.006 C 
BRANCH  10  11
ATOM     11  C   UNL     1      -4.089  -5.095   6.814  1.00  0.00     0.053 C 
BRANCH  11  12
ATOM     12  C   UNL     1      -2.960  -4.927   5.843  1.00  0.00     0.041 C 
ATOM     13  O   UNL     1      -2.394  -5.938   5.350  1.00  0.00    -0.550 OA
ATOM     14  O   UNL     1      -2.512  -3.656   5.511  1.00  0.00    -0.550 OA
ENDBRANCH  11  12
ENDBRANCH  10  11
ENDBRANCH   9  10
ENDBRANCH   8   9
ENDBRANCH   1   8
TORSDOF 9
ENDMDL
MODEL 5
REMARK VINA RESULT:    -4.121      1.532      2.115
REMARK INTER + INTRA:          -7.011
REMARK INTER:                  -6.136
REMARK INTRA:                  -0.875
REMARK UNBOUND:                -0.721
REMARK SMILES O=C([O-])CCCCCCCCC(=O)[O-]
REMARK SMILES IDX 7 1 6 2 5 3 4 4 2 5 1 6 3 7 8 8 9 9 10 10 11 11 12 12 13 13
REMARK SMILES IDX 14 14
REMARK H PARENT
REMARK Flexibility Score: inf
ROOT
ATOM      1  C   UNL     1      -6.243  -4.362   5.440  1.00  0.00     0.000 C 
ENDROOT
BRANCH   1   2
ATOM      2  C   UNL     1      -5.465  -5.156   6.502  1.00  0.00     0.000 C 
BRANCH   2   3
ATOM      3  C   UNL     1      -4.166  -4.452   6.932  1.00  0.00     0.006 C 
BRANCH   3   4
ATOM      4  C   UNL     1      -3.643  -3.494   5.854  1.00  0.00     0.053 C 
BRANCH   4   5
ATOM      5  C   UNL     1      -2.333  -2.880   6.240  1.00  0.00     0.041 C 
ATOM      6  O   UNL     1      -1.324  -3.020   5.499  1.00  0.00    -0.550 OA
ATOM      7  O   UNL     1      -2.232  -2.125   7.403  1.00  0.00    -0.550 OA
ENDBRANCH   4   5
ENDBRANCH   3   4
ENDBRANCH   2   3
ENDBRANCH   1   2
BRANCH   1   8
ATOM      8  C   UNL     1      -7.402  -3.548   6.041  1.00  0.00     0.000 C 
BRANCH   8   9
ATOM      9  C   UNL     1      -7.145  -2.033   5.991  1.00  0.00     0.000 C 
BRANCH   9  10
ATOM     10  C   UNL     1      -6.659  -1.471   7.339  1.00  0.00     0.006 C 
BRANCH  10  11
ATOM     11  C   UNL     1      -5.417  -0.583   7.182  1.00  0.00     0.053 C 
BRANCH  11  12
ATOM     12  C   UNL     1      -5.772   0.872   7.169  1.00  0.00     0.041 C 
ATOM     13  O   UNL     1      -4.875   1.740   7.002  1.00  0.00    -0.550 OA
ATOM     14  O   UNL     1      -7.085   1.270   7.376  1.00  0.00    -0.550 OA
ENDBRANCH  11  12
ENDBRANCH  10  11
ENDBRANCH   9  10
ENDBRANCH   8   9
ENDBRANCH   1   8
TORSDOF 9
ENDMDL
MODEL 6
REMARK VINA RESULT:    -3.677      2.726      3.938
REMARK INTER + INTRA:          -6.333
REMARK INTER:                  -5.470
REMARK INTRA:                  -0.863
REMARK UNBOUND:                -0.721
REMARK SMILES O=C([O-])CCCCCCCCC(=O)[O-]
REMARK SMILES IDX 7 1 6 2 5 3 4 4 2 5 1 6 3 7 8 8 9 9 10 10 11 11 12 12 13 13
REMARK SMILES IDX 14 14
REMARK H PARENT
REMARK Flexibility Score: inf
ROOT
ATOM      1  C   UNL     1      -4.568  -3.980   5.214  1.00  0.00     0.000 C 
ENDROOT
BRANCH   1   2
ATOM      2  C   UNL     1      -5.166  -5.123   6.052  1.00  0.00     0.000 C 
BRANCH   2   3
ATOM      3  C   UNL     1      -6.475  -4.720   6.752  1.00  0.00     0.006 C 
BRANCH   3   4
ATOM      4  C   UNL     1      -7.490  -4.112   5.775  1.00  0.00     0.053 C 
BRANCH   4   5
ATOM      5  C   UNL     1      -8.742  -3.674   6.471  1.00  0.00     0.041 C 
ATOM      6  O   UNL     1      -8.677  -3.099   7.590  1.00  0.00    -0.550 OA
ATOM      7  O   UNL     1      -9.980  -3.872   5.871  1.00  0.00    -0.550 OA
ENDBRANCH   4   5
ENDBRANCH   3   4
ENDBRANCH   2   3
ENDBRANCH   1   2
BRANCH   1   8
ATOM      8  C   UNL     1      -3.412  -3.262   5.931  1.00  0.00     0.000 C 
BRANCH   8   9
ATOM      9  C   UNL     1      -3.894  -2.081   6.787  1.00  0.00     0.000 C 
BRANCH   9  10
ATOM     10  C   UNL     1      -5.081  -1.335   6.153  1.00  0.00     0.006 C 
BRANCH  10  11
ATOM     11  C   UNL     1      -6.067  -0.812   7.207  1.00  0.00     0.053 C 
BRANCH  11  12
ATOM     12  C   UNL     1      -6.022   0.682   7.315  1.00  0.00     0.041 C 
ATOM     13  O   UNL     1      -7.067   1.327   7.594  1.00  0.00    -0.550 OA
ATOM     14  O   UNL     1      -4.836   1.363   7.075  1.00  0.00    -0.550 OA
ENDBRANCH  11  12
ENDBRANCH  10  11
ENDBRANCH   9  10
ENDBRANCH   8   9
ENDBRANCH   1   8
TORSDOF 9
ENDMDL
MODEL 7
REMARK VINA RESULT:    -3.675      2.575      6.420
REMARK INTER + INTRA:          -6.330
REMARK INTER:                  -5.851
REMARK INTRA:                  -0.480
REMARK UNBOUND:                -0.721
REMARK SMILES O=C([O-])CCCCCCCCC(=O)[O-]
REMARK SMILES IDX 7 1 6 2 5 3 4 4 2 5 1 6 3 7 8 8 9 9 10 10 11 11 12 12 13 13
REMARK SMILES IDX 14 14
REMARK H PARENT
REMARK Flexibility Score: inf
ROOT
ATOM      1  C   UNL     1      -5.779  -3.295   5.277  1.00  0.00     0.000 C 
ENDROOT
BRANCH   1   2
ATOM      2  C   UNL     1      -5.693  -1.780   5.519  1.00  0.00     0.000 C 
BRANCH   2   3
ATOM      3  C   UNL     1      -4.851  -1.426   6.758  1.00  0.00     0.006 C 
BRANCH   3   4
ATOM      4  C   UNL     1      -5.672  -0.690   7.824  1.00  0.00     0.053 C 
BRANCH   4   5
ATOM      5  C   UNL     1      -5.870   0.754   7.478  1.00  0.00     0.041 C 
ATOM      6  O   UNL     1      -7.022   1.262   7.518  1.00  0.00    -0.550 OA
ATOM      7  O   UNL     1      -4.780   1.547   7.142  1.00  0.00    -0.550 OA
ENDBRANCH   4   5
ENDBRANCH   3   4
ENDBRANCH   2   3
ENDBRANCH   1   2
BRANCH   1   8
ATOM      8  C   UNL     1      -4.400  -3.937   5.043  1.00  0.00     0.000 C 
BRANCH   8   9
ATOM      9  C   UNL     1      -4.201  -5.220   5.863  1.00  0.00     0.000 C 
BRANCH   9  10
ATOM     10  C   UNL     1      -5.533  -5.864   6.287  1.00  0.00     0.006 C 
BRANCH  10  11
ATOM     11  C   UNL     1      -5.324  -7.175   7.058  1.00  0.00     0.053 C 
BRANCH  11  12
ATOM     12  C   UNL     1      -5.180  -8.345   6.134  1.00  0.00     0.041 C 
ATOM     13  O   UNL     1      -4.039  -8.818   5.885  1.00  0.00    -0.550 OA
ATOM     14  O   UNL     1      -6.300  -8.891   5.520  1.00  0.00    -0.550 OA
ENDBRANCH  11  12
ENDBRANCH  10  11
ENDBRANCH   9  10
ENDBRANCH   8   9
ENDBRANCH   1   8
TORSDOF 9
ENDMDL
MODEL 8
REMARK VINA RESULT:    -3.660      2.444      5.404
REMARK INTER + INTRA:          -6.307
REMARK INTER:                  -5.740
REMARK INTRA:                  -0.568
REMARK UNBOUND:                -0.721
REMARK SMILES O=C([O-])CCCCCCCCC(=O)[O-]
REMARK SMILES IDX 7 1 6 2 5 3 4 4 2 5 1 6 3 7 8 8 9 9 10 10 11 11 12 12 13 13
REMARK SMILES IDX 14 14
REMARK H PARENT
REMARK Flexibility Score: inf
ROOT
ATOM      1  C   UNL     1      -3.078  -2.922   5.873  1.00  0.00     0.000 C 
ENDROOT
BRANCH   1   2
ATOM      2  C   UNL     1      -4.480  -2.336   5.631  1.00  0.00     0.000 C 
BRANCH   2   3
ATOM      3  C   UNL     1      -5.043  -1.621   6.871  1.00  0.00     0.006 C 
BRANCH   3   4
ATOM      4  C   UNL     1      -6.210  -0.688   6.521  1.00  0.00     0.053 C 
BRANCH   4   5
ATOM      5  C   UNL     1      -6.046   0.667   7.137  1.00  0.00     0.041 C 
ATOM      6  O   UNL     1      -7.053   1.299   7.555  1.00  0.00    -0.550 OA
ATOM      7  O   UNL     1      -4.780   1.220   7.280  1.00  0.00    -0.550 OA
ENDBRANCH   4   5
ENDBRANCH   3   4
ENDBRANCH   2   3
ENDBRANCH   1   2
BRANCH   1   8
ATOM      8  C   UNL     1      -3.123  -4.352   6.436  1.00  0.00     0.000 C 
BRANCH   8   9
ATOM      9  C   UNL     1      -4.286  -5.176   5.858  1.00  0.00     0.000 C 
BRANCH   9  10
ATOM     10  C   UNL     1      -5.382  -5.461   6.900  1.00  0.00     0.006 C 
BRANCH  10  11
ATOM     11  C   UNL     1      -6.562  -6.238   6.300  1.00  0.00     0.053 C 
BRANCH  11  12
ATOM     12  C   UNL     1      -7.478  -5.344   5.521  1.00  0.00     0.041 C 
ATOM     13  O   UNL     1      -7.612  -4.136   5.849  1.00  0.00    -0.550 OA
ATOM     14  O   UNL     1      -8.209  -5.854   4.456  1.00  0.00    -0.550 OA
ENDBRANCH  11  12
ENDBRANCH  10  11
ENDBRANCH   9  10
ENDBRANCH   8   9
ENDBRANCH   1   8
TORSDOF 9
ENDMDL
MODEL 9
REMARK VINA RESULT:    -3.611      2.875      3.876
REMARK INTER + INTRA:          -6.232
REMARK INTER:                  -5.582
REMARK INTRA:                  -0.650
REMARK UNBOUND:                -0.721
REMARK SMILES O=C([O-])CCCCCCCCC(=O)[O-]
REMARK SMILES IDX 7 1 6 2 5 3 4 4 2 5 1 6 3 7 8 8 9 9 10 10 11 11 12 12 13 13
REMARK SMILES IDX 14 14
REMARK H PARENT
REMARK Flexibility Score: inf
ROOT
ATOM      1  C   UNL     1      -6.025  -2.226   5.528  1.00  0.00     0.000 C 
ENDROOT
BRANCH   1   2
ATOM      2  C   UNL     1      -4.604  -1.831   5.962  1.00  0.00     0.000 C 
BRANCH   2   3
ATOM      3  C   UNL     1      -3.557  -2.898   5.598  1.00  0.00     0.006 C 
BRANCH   3   4
ATOM      4  C   UNL     1      -4.203  -4.189   5.077  1.00  0.00     0.053 C 
BRANCH   4   5
ATOM      5  C   UNL     1      -3.604  -5.408   5.710  1.00  0.00     0.041 C 
ATOM      6  O   UNL     1      -4.243  -6.042   6.590  1.00  0.00    -0.550 OA
ATOM      7  O   UNL     1      -2.355  -5.862   5.305  1.00  0.00    -0.550 OA
ENDBRANCH   4   5
ENDBRANCH   3   4
ENDBRANCH   2   3
ENDBRANCH   1   2
BRANCH   1   8
ATOM      8  C   UNL     1      -7.086  -1.206   5.975  1.00  0.00     0.000 C 
BRANCH   8   9
ATOM      9  C   UNL     1      -8.300  -1.873   6.640  1.00  0.00     0.000 C 
BRANCH   9  10
ATOM     10  C   UNL     1      -8.056  -3.357   6.964  1.00  0.00     0.006 C 
BRANCH  10  11
ATOM     11  C   UNL     1      -9.198  -4.254   6.466  1.00  0.00     0.053 C 
BRANCH  11  12
ATOM     12  C   UNL     1      -8.747  -5.173   5.373  1.00  0.00     0.041 C 
ATOM     13  O   UNL     1      -7.518  -5.358   5.169  1.00  0.00    -0.550 OA
ATOM     14  O   UNL     1      -9.682  -5.798   4.558  1.00  0.00    -0.550 OA
ENDBRANCH  11  12
ENDBRANCH  10  11
ENDBRANCH   9  10
ENDBRANCH   8   9
ENDBRANCH   1   8
TORSDOF 9
ENDMDL
