MODEL 1
REMARK VINA RESULT:    -4.764      0.000      0.000
REMARK INTER + INTRA:          -6.719
REMARK INTER:                  -6.296
REMARK INTRA:                  -0.423
REMARK UNBOUND:                -0.423
REMARK SMILES CCCCC=CC=CCO
REMARK SMILES IDX 5 1 6 2 4 3 3 4 2 5 1 6 7 7 8 8 9 9 10 10
REMARK H PARENT 10 11
REMARK Flexibility Score: inf
ROOT
ATOM      1  C   UNL     1     -43.043  11.926   1.281  1.00  0.00    -0.027 C 
ATOM      2  C   UNL     1     -42.281  12.844   1.880  1.00  0.00    -0.005 C 
ENDROOT
BRANCH   1   3
ATOM      3  C   UNL     1     -44.482  12.194   0.940  1.00  0.00     0.027 C 
BRANCH   3   4
ATOM      4  C   UNL     1     -44.618  13.309  -0.108  1.00  0.00     0.004 C 
BRANCH   4   5
ATOM      5  C   UNL     1     -44.018  12.958  -1.481  1.00  0.00    -0.003 C 
ATOM      6  C   UNL     1     -42.988  13.982  -1.959  1.00  0.00     0.004 C 
ENDBRANCH   4   5
ENDBRANCH   3   4
ENDBRANCH   1   3
BRANCH   2   7
ATOM      7  C   UNL     1     -40.863  12.576   2.174  1.00  0.00    -0.002 C 
ATOM      8  C   UNL     1     -39.969  12.450   1.190  1.00  0.00     0.001 C 
BRANCH   8   9
ATOM      9  C   UNL     1     -38.529  12.168   1.483  1.00  0.00     0.183 C 
BRANCH   9  10
ATOM     10  O   UNL     1     -37.715  12.946   0.652  1.00  0.00    -0.392 OA
ATOM     11  H   UNL     1     -36.869  12.440   0.544  1.00  0.00     0.210 HD
ENDBRANCH   9  10
ENDBRANCH   8   9
ENDBRANCH   2   7
TORSDOF 6
ENDMDL
MODEL 2
REMARK VINA RESULT:    -4.616      2.867      5.165
REMARK INTER + INTRA:          -6.523
REMARK INTER:                  -6.209
REMARK INTRA:                  -0.314
REMARK UNBOUND:                -0.423
REMARK SMILES CCCCC=CC=CCO
REMARK SMILES IDX 5 1 6 2 4 3 3 4 2 5 1 6 7 7 8 8 9 9 10 10
REMARK H PARENT 10 11
REMARK Flexibility Score: inf
ROOT
ATOM      1  C   UNL     1     -44.382  13.246  -0.179  1.00  0.00    -0.027 C 
ATOM      2  C   UNL     1     -45.330  14.124  -0.518  1.00  0.00    -0.005 C 
ENDROOT
BRANCH   1   3
ATOM      3  C   UNL     1     -44.574  12.274   0.951  1.00  0.00     0.027 C 
BRANCH   3   4
ATOM      4  C   UNL     1     -43.289  11.487   1.248  1.00  0.00     0.004 C 
BRANCH   4   5
ATOM      5  C   UNL     1     -41.995  12.241   0.892  1.00  0.00    -0.003 C 
ATOM      6  C   UNL     1     -41.265  12.782   2.121  1.00  0.00     0.004 C 
ENDBRANCH   4   5
ENDBRANCH   3   4
ENDBRANCH   1   3
BRANCH   2   7
ATOM      7  C   UNL     1     -45.139  15.044  -1.651  1.00  0.00    -0.002 C 
ATOM      8  C   UNL     1     -44.025  15.008  -2.387  1.00  0.00     0.001 C 
BRANCH   8   9
ATOM      9  C   UNL     1     -43.821  15.948  -3.532  1.00  0.00     0.183 C 
BRANCH   9  10
ATOM     10  O   UNL     1     -43.269  15.258  -4.619  1.00  0.00    -0.392 OA
ATOM     11  H   UNL     1     -42.578  14.656  -4.239  1.00  0.00     0.210 HD
ENDBRANCH   9  10
ENDBRANCH   8   9
ENDBRANCH   2   7
TORSDOF 6
ENDMDL
MODEL 3
REMARK VINA RESULT:    -4.525      3.043      5.144
REMARK INTER + INTRA:          -6.402
REMARK INTER:                  -6.088
REMARK INTRA:                  -0.314
REMARK UNBOUND:                -0.423
REMARK SMILES CCCCC=CC=CCO
REMARK SMILES IDX 5 1 6 2 4 3 3 4 2 5 1 6 7 7 8 8 9 9 10 10
REMARK H PARENT 10 11
REMARK Flexibility Score: inf
ROOT
ATOM      1  C   UNL     1     -41.804  12.789   1.443  1.00  0.00    -0.027 C 
ATOM      2  C   UNL     1     -42.934  12.082   1.365  1.00  0.00    -0.005 C 
ENDROOT
BRANCH   1   3
ATOM      3  C   UNL     1     -40.553  12.215   2.046  1.00  0.00     0.027 C 
BRANCH   3   4
ATOM      4  C   UNL     1     -39.306  13.009   1.632  1.00  0.00     0.004 C 
BRANCH   4   5
ATOM      5  C   UNL     1     -39.581  14.491   1.320  1.00  0.00    -0.003 C 
ATOM      6  C   UNL     1     -39.065  14.916  -0.055  1.00  0.00     0.004 C 
ENDBRANCH   4   5
ENDBRANCH   3   4
ENDBRANCH   1   3
BRANCH   2   7
ATOM      7  C   UNL     1     -44.140  12.649   0.738  1.00  0.00    -0.002 C 
ATOM      8  C   UNL     1     -44.046  13.530  -0.261  1.00  0.00     0.001 C 
BRANCH   8   9
ATOM      9  C   UNL     1     -45.268  14.116  -0.895  1.00  0.00     0.183 C 
BRANCH   9  10
ATOM     10  O   UNL     1     -46.305  14.177   0.044  1.00  0.00    -0.392 OA
ATOM     11  H   UNL     1     -47.148  14.093  -0.473  1.00  0.00     0.210 HD
ENDBRANCH   9  10
ENDBRANCH   8   9
ENDBRANCH   2   7
TORSDOF 6
ENDMDL
MODEL 4
REMARK VINA RESULT:    -4.470      2.748      5.068
REMARK INTER + INTRA:          -6.329
REMARK INTER:                  -6.088
REMARK INTRA:                  -0.242
REMARK UNBOUND:                -0.423
REMARK SMILES CCCCC=CC=CCO
REMARK SMILES IDX 5 1 6 2 4 3 3 4 2 5 1 6 7 7 8 8 9 9 10 10
REMARK H PARENT 10 11
REMARK Flexibility Score: inf
ROOT
ATOM      1  C   UNL     1     -41.793  12.724   1.330  1.00  0.00    -0.027 C 
ATOM      2  C   UNL     1     -43.125  12.633   1.324  1.00  0.00    -0.005 C 
ENDROOT
BRANCH   1   3
ATOM      3  C   UNL     1     -41.026  12.994   2.595  1.00  0.00     0.027 C 
BRANCH   3   4
ATOM      4  C   UNL     1     -39.874  13.982   2.360  1.00  0.00     0.004 C 
BRANCH   4   5
ATOM      5  C   UNL     1     -38.923  13.578   1.218  1.00  0.00    -0.003 C 
ATOM      6  C   UNL     1     -38.140  12.301   1.520  1.00  0.00     0.004 C 
ENDBRANCH   4   5
ENDBRANCH   3   4
ENDBRANCH   1   3
BRANCH   2   7
ATOM      7  C   UNL     1     -43.857  12.332   0.082  1.00  0.00    -0.002 C 
ATOM      8  C   UNL     1     -43.665  11.182  -0.568  1.00  0.00     0.001 C 
BRANCH   8   9
ATOM      9  C   UNL     1     -44.399  10.876  -1.835  1.00  0.00     0.183 C 
BRANCH   9  10
ATOM     10  O   UNL     1     -43.913   9.684  -2.387  1.00  0.00    -0.392 OA
ATOM     11  H   UNL     1     -43.752   9.873  -3.348  1.00  0.00     0.210 HD
ENDBRANCH   9  10
ENDBRANCH   8   9
ENDBRANCH   2   7
TORSDOF 6
ENDMDL
MODEL 5
REMARK VINA RESULT:    -4.463      1.805      2.558
REMARK INTER + INTRA:          -6.320
REMARK INTER:                  -6.025
REMARK INTRA:                  -0.295
REMARK UNBOUND:                -0.423
REMARK SMILES CCCCC=CC=CCO
REMARK SMILES IDX 5 1 6 2 4 3 3 4 2 5 1 6 7 7 8 8 9 9 10 10
REMARK H PARENT 10 11
REMARK Flexibility Score: inf
ROOT
ATOM      1  C   UNL     1     -41.082  12.498   0.948  1.00  0.00    -0.027 C 
ATOM      2  C   UNL     1     -40.740  13.612   0.295  1.00  0.00    -0.005 C 
ENDROOT
BRANCH   1   3
ATOM      3  C   UNL     1     -42.356  12.407   1.741  1.00  0.00     0.027 C 
BRANCH   3   4
ATOM      4  C   UNL     1     -43.462  11.686   0.956  1.00  0.00     0.004 C 
BRANCH   4   5
ATOM      5  C   UNL     1     -44.757  12.503   0.802  1.00  0.00    -0.003 C 
ATOM      6  C   UNL     1     -44.709  13.477  -0.375  1.00  0.00     0.004 C 
ENDBRANCH   4   5
ENDBRANCH   3   4
ENDBRANCH   1   3
BRANCH   2   7
ATOM      7  C   UNL     1     -39.506  13.671  -0.506  1.00  0.00    -0.002 C 
ATOM      8  C   UNL     1     -38.435  14.338  -0.071  1.00  0.00     0.001 C 
BRANCH   8   9
ATOM      9  C   UNL     1     -37.182  14.410  -0.885  1.00  0.00     0.183 C 
BRANCH   9  10
ATOM     10  O   UNL     1     -36.303  13.394  -0.493  1.00  0.00    -0.392 OA
ATOM     11  H   UNL     1     -36.550  12.596  -1.027  1.00  0.00     0.210 HD
ENDBRANCH   9  10
ENDBRANCH   8   9
ENDBRANCH   2   7
TORSDOF 6
ENDMDL
MODEL 6
REMARK VINA RESULT:    -4.430     12.617     13.781
REMARK INTER + INTRA:          -6.277
REMARK INTER:                  -5.988
REMARK INTRA:                  -0.289
REMARK UNBOUND:                -0.423
REMARK SMILES CCCCC=CC=CCO
REMARK SMILES IDX 5 1 6 2 4 3 3 4 2 5 1 6 7 7 8 8 9 9 10 10
REMARK H PARENT 10 11
REMARK Flexibility Score: inf
ROOT
ATOM      1  C   UNL     1     -40.375  25.728   0.996  1.00  0.00    -0.027 C 
ATOM      2  C   UNL     1     -41.414  25.533   1.811  1.00  0.00    -0.005 C 
ENDROOT
BRANCH   1   3
ATOM      3  C   UNL     1     -39.137  26.448   1.454  1.00  0.00     0.027 C 
BRANCH   3   4
ATOM      4  C   UNL     1     -37.954  26.202   0.507  1.00  0.00     0.004 C 
BRANCH   4   5
ATOM      5  C   UNL     1     -38.315  26.290  -0.987  1.00  0.00    -0.003 C 
ATOM      6  C   UNL     1     -38.291  27.722  -1.521  1.00  0.00     0.004 C 
ENDBRANCH   4   5
ENDBRANCH   3   4
ENDBRANCH   1   3
BRANCH   2   7
ATOM      7  C   UNL     1     -42.604  24.793   1.356  1.00  0.00    -0.002 C 
ATOM      8  C   UNL     1     -42.831  24.588   0.056  1.00  0.00     0.001 C 
BRANCH   8   9
ATOM      9  C   UNL     1     -44.043  23.847  -0.411  1.00  0.00     0.183 C 
BRANCH   9  10
ATOM     10  O   UNL     1     -45.138  24.717  -0.469  1.00  0.00    -0.392 OA
ATOM     11  H   UNL     1     -45.935  24.146  -0.620  1.00  0.00     0.210 HD
ENDBRANCH   9  10
ENDBRANCH   8   9
ENDBRANCH   2   7
TORSDOF 6
ENDMDL
MODEL 7
REMARK VINA RESULT:    -4.424     12.438     13.759
REMARK INTER + INTRA:          -6.269
REMARK INTER:                  -5.881
REMARK INTRA:                  -0.388
REMARK UNBOUND:                -0.423
REMARK SMILES CCCCC=CC=CCO
REMARK SMILES IDX 5 1 6 2 4 3 3 4 2 5 1 6 7 7 8 8 9 9 10 10
REMARK H PARENT 10 11
REMARK Flexibility Score: inf
ROOT
ATOM      1  C   UNL     1     -40.491  26.445  -0.912  1.00  0.00    -0.027 C 
ATOM      2  C   UNL     1     -40.726  25.167  -1.220  1.00  0.00    -0.005 C 
ENDROOT
BRANCH   1   3
ATOM      3  C   UNL     1     -39.451  27.253  -1.636  1.00  0.00     0.027 C 
BRANCH   3   4
ATOM      4  C   UNL     1     -38.121  27.284  -0.869  1.00  0.00     0.004 C 
BRANCH   4   5
ATOM      5  C   UNL     1     -38.257  26.993   0.636  1.00  0.00    -0.003 C 
ATOM      6  C   UNL     1     -37.563  25.697   1.057  1.00  0.00     0.004 C 
ENDBRANCH   4   5
ENDBRANCH   3   4
ENDBRANCH   1   3
BRANCH   2   7
ATOM      7  C   UNL     1     -41.774  24.401  -0.525  1.00  0.00    -0.002 C 
ATOM      8  C   UNL     1     -41.879  24.431   0.806  1.00  0.00     0.001 C 
BRANCH   8   9
ATOM      9  C   UNL     1     -42.935  23.646   1.518  1.00  0.00     0.183 C 
BRANCH   9  10
ATOM     10  O   UNL     1     -42.919  23.960   2.883  1.00  0.00    -0.392 OA
ATOM     11  H   UNL     1     -41.971  23.896   3.167  1.00  0.00     0.210 HD
ENDBRANCH   9  10
ENDBRANCH   8   9
ENDBRANCH   2   7
TORSDOF 6
ENDMDL
MODEL 8
REMARK VINA RESULT:    -4.358     12.115     13.242
REMARK INTER + INTRA:          -6.182
REMARK INTER:                  -5.779
REMARK INTRA:                  -0.402
REMARK UNBOUND:                -0.423
REMARK SMILES CCCCC=CC=CCO
REMARK SMILES IDX 5 1 6 2 4 3 3 4 2 5 1 6 7 7 8 8 9 9 10 10
REMARK H PARENT 10 11
REMARK Flexibility Score: inf
ROOT
ATOM      1  C   UNL     1     -41.377  24.541  -1.449  1.00  0.00    -0.027 C 
ATOM      2  C   UNL     1     -41.666  25.844  -1.427  1.00  0.00    -0.005 C 
ENDROOT
BRANCH   1   3
ATOM      3  C   UNL     1     -42.453  23.493  -1.502  1.00  0.00     0.027 C 
BRANCH   3   4
ATOM      4  C   UNL     1     -43.489  23.687  -0.385  1.00  0.00     0.004 C 
BRANCH   4   5
ATOM      5  C   UNL     1     -42.944  23.419   1.030  1.00  0.00    -0.003 C 
ATOM      6  C   UNL     1     -42.962  24.661   1.920  1.00  0.00     0.004 C 
ENDBRANCH   4   5
ENDBRANCH   3   4
ENDBRANCH   1   3
BRANCH   2   7
ATOM      7  C   UNL     1     -40.598  26.857  -1.411  1.00  0.00    -0.002 C 
ATOM      8  C   UNL     1     -39.317  26.503  -1.285  1.00  0.00     0.001 C 
BRANCH   8   9
ATOM      9  C   UNL     1     -38.228  27.529  -1.258  1.00  0.00     0.183 C 
BRANCH   9  10
ATOM     10  O   UNL     1     -38.308  28.335  -2.401  1.00  0.00    -0.392 OA
ATOM     11  H   UNL     1     -39.256  28.619  -2.470  1.00  0.00     0.210 HD
ENDBRANCH   9  10
ENDBRANCH   8   9
ENDBRANCH   2   7
TORSDOF 6
ENDMDL
MODEL 9
REMARK VINA RESULT:    -4.261      2.019      3.600
REMARK INTER + INTRA:          -6.054
REMARK INTER:                  -5.685
REMARK INTRA:                  -0.369
REMARK UNBOUND:                -0.423
REMARK SMILES CCCCC=CC=CCO
REMARK SMILES IDX 5 1 6 2 4 3 3 4 2 5 1 6 7 7 8 8 9 9 10 10
REMARK H PARENT 10 11
REMARK Flexibility Score: inf
ROOT
ATOM      1  C   UNL     1     -43.769  13.511  -1.488  1.00  0.00    -0.027 C 
ATOM      2  C   UNL     1     -42.881  14.499  -1.627  1.00  0.00    -0.005 C 
ENDROOT
BRANCH   1   3
ATOM      3  C   UNL     1     -44.948  13.633  -0.563  1.00  0.00     0.027 C 
BRANCH   3   4
ATOM      4  C   UNL     1     -44.793  12.735   0.673  1.00  0.00     0.004 C 
BRANCH   4   5
ATOM      5  C   UNL     1     -43.755  11.612   0.508  1.00  0.00    -0.003 C 
ATOM      6  C   UNL     1     -42.514  11.816   1.377  1.00  0.00     0.004 C 
ENDBRANCH   4   5
ENDBRANCH   3   4
ENDBRANCH   1   3
BRANCH   2   7
ATOM      7  C   UNL     1     -41.752  14.376  -2.565  1.00  0.00    -0.002 C 
ATOM      8  C   UNL     1     -40.718  13.576  -2.295  1.00  0.00     0.001 C 
BRANCH   8   9
ATOM      9  C   UNL     1     -39.564  13.456  -3.239  1.00  0.00     0.183 C 
BRANCH   9  10
ATOM     10  O   UNL     1     -38.387  13.214  -2.520  1.00  0.00    -0.392 OA
ATOM     11  H   UNL     1     -37.789  12.713  -3.134  1.00  0.00     0.210 HD
ENDBRANCH   9  10
ENDBRANCH   8   9
ENDBRANCH   2   7
TORSDOF 6
ENDMDL
