MODEL 1
REMARK VINA RESULT:    -3.248      0.000      0.000
REMARK INTER + INTRA:          -3.748
REMARK INTER:                  -3.722
REMARK INTRA:                  -0.025
REMARK UNBOUND:                -0.025
REMARK SMILES CC(C)[C@@H]([NH3+])C(=O)[O-]
REMARK SMILES IDX 4 1 5 2 6 6 7 7 8 8 2 9 1 10 3 11
REMARK H PARENT 5 3 5 4 5 5
REMARK Flexibility Score: inf
ROOT
ATOM      1  C   UNL     1     207.390 188.846  -2.956  1.00  0.00     0.230 C 
ENDROOT
BRANCH   1   2
ATOM      2  N   UNL     1     208.747 189.025  -3.495  1.00  0.00    -0.350 N 
ATOM      3  H   UNL     1     209.357 189.456  -2.764  1.00  0.00     0.345 HD
ATOM      4  H   UNL     1     208.747 189.648  -4.334  1.00  0.00     0.345 HD
ATOM      5  H   UNL     1     209.163 188.102  -3.749  1.00  0.00     0.345 HD
ENDBRANCH   1   2
BRANCH   1   6
ATOM      6  C   UNL     1     206.721 190.182  -2.740  1.00  0.00     0.099 C 
ATOM      7  O   UNL     1     207.388 191.244  -2.853  1.00  0.00    -0.544 OA
ATOM      8  O   UNL     1     205.382 190.255  -2.369  1.00  0.00    -0.544 OA
ENDBRANCH   1   6
BRANCH   1   9
ATOM      9  C   UNL     1     206.500 187.917  -3.836  1.00  0.00     0.047 C 
ATOM     10  C   UNL     1     205.750 186.875  -2.992  1.00  0.00     0.014 C 
ATOM     11  C   UNL     1     207.271 187.223  -4.972  1.00  0.00     0.014 C 
ENDBRANCH   1   9
TORSDOF 3
ENDMDL
MODEL 2
REMARK VINA RESULT:    -3.233      2.526      3.038
REMARK INTER + INTRA:          -3.731
REMARK INTER:                  -3.666
REMARK INTRA:                  -0.065
REMARK UNBOUND:                -0.025
REMARK SMILES CC(C)[C@@H]([NH3+])C(=O)[O-]
REMARK SMILES IDX 4 1 5 2 6 6 7 7 8 8 2 9 1 10 3 11
REMARK H PARENT 5 3 5 4 5 5
REMARK Flexibility Score: inf
ROOT
ATOM      1  C   UNL     1     208.044 188.670  -3.610  1.00  0.00     0.230 C 
ENDROOT
BRANCH   1   2
ATOM      2  N   UNL     1     207.641 189.371  -2.381  1.00  0.00    -0.350 N 
ATOM      3  H   UNL     1     207.751 188.729  -1.562  1.00  0.00     0.345 HD
ATOM      4  H   UNL     1     206.643 189.681  -2.425  1.00  0.00     0.345 HD
ATOM      5  H   UNL     1     208.254 190.200  -2.216  1.00  0.00     0.345 HD
ENDBRANCH   1   2
BRANCH   1   6
ATOM      6  C   UNL     1     209.545 188.522  -3.673  1.00  0.00     0.099 C 
ATOM      7  O   UNL     1     210.239 189.401  -4.247  1.00  0.00    -0.544 OA
ATOM      8  O   UNL     1     210.170 187.399  -3.142  1.00  0.00    -0.544 OA
ENDBRANCH   1   6
BRANCH   1   9
ATOM      9  C   UNL     1     207.342 187.290  -3.783  1.00  0.00     0.047 C 
ATOM     10  C   UNL     1     207.249 186.875  -5.259  1.00  0.00     0.014 C 
ATOM     11  C   UNL     1     205.954 187.217  -3.124  1.00  0.00     0.014 C 
ENDBRANCH   1   9
TORSDOF 3
ENDMDL
MODEL 3
REMARK VINA RESULT:    -3.168      1.739      2.281
REMARK INTER + INTRA:          -3.656
REMARK INTER:                  -3.608
REMARK INTRA:                  -0.048
REMARK UNBOUND:                -0.025
REMARK SMILES CC(C)[C@@H]([NH3+])C(=O)[O-]
REMARK SMILES IDX 4 1 5 2 6 6 7 7 8 8 2 9 1 10 3 11
REMARK H PARENT 5 3 5 4 5 5
REMARK Flexibility Score: inf
ROOT
ATOM      1  C   UNL     1     207.026 189.108  -3.253  1.00  0.00     0.230 C 
ENDROOT
BRANCH   1   2
ATOM      2  N   UNL     1     205.739 189.656  -2.797  1.00  0.00    -0.350 N 
ATOM      3  H   UNL     1     205.820 189.948  -1.796  1.00  0.00     0.345 HD
ATOM      4  H   UNL     1     204.972 188.949  -2.873  1.00  0.00     0.345 HD
ATOM      5  H   UNL     1     205.486 190.503  -3.352  1.00  0.00     0.345 HD
ENDBRANCH   1   2
BRANCH   1   6
ATOM      6  C   UNL     1     208.146 189.548  -2.341  1.00  0.00     0.099 C 
ATOM      7  O   UNL     1     209.334 189.227  -2.607  1.00  0.00    -0.544 OA
ATOM      8  O   UNL     1     207.877 190.266  -1.181  1.00  0.00    -0.544 OA
ENDBRANCH   1   6
BRANCH   1   9
ATOM      9  C   UNL     1     207.009 187.557  -3.403  1.00  0.00     0.047 C 
ATOM     10  C   UNL     1     207.406 187.115  -4.820  1.00  0.00     0.014 C 
ATOM     11  C   UNL     1     205.671 186.913  -3.003  1.00  0.00     0.014 C 
ENDBRANCH   1   9
TORSDOF 3
ENDMDL
MODEL 4
REMARK VINA RESULT:    -3.156     19.800     20.747
REMARK INTER + INTRA:          -3.642
REMARK INTER:                  -3.572
REMARK INTRA:                  -0.070
REMARK UNBOUND:                -0.025
REMARK SMILES CC(C)[C@@H]([NH3+])C(=O)[O-]
REMARK SMILES IDX 4 1 5 2 6 6 7 7 8 8 2 9 1 10 3 11
REMARK H PARENT 5 3 5 4 5 5
REMARK Flexibility Score: inf
ROOT
ATOM      1  C   UNL     1     219.420 204.546  -5.556  1.00  0.00     0.230 C 
ENDROOT
BRANCH   1   2
ATOM      2  N   UNL     1     220.340 203.730  -4.749  1.00  0.00    -0.350 N 
ATOM      3  H   UNL     1     221.255 203.641  -5.249  1.00  0.00     0.345 HD
ATOM      4  H   UNL     1     219.959 202.771  -4.585  1.00  0.00     0.345 HD
ATOM      5  H   UNL     1     220.527 204.191  -3.831  1.00  0.00     0.345 HD
ENDBRANCH   1   2
BRANCH   1   6
ATOM      6  C   UNL     1     218.392 205.218  -4.678  1.00  0.00     0.099 C 
ATOM      7  O   UNL     1     217.226 204.751  -4.606  1.00  0.00    -0.544 OA
ATOM      8  O   UNL     1     218.706 206.380  -3.980  1.00  0.00    -0.544 OA
ENDBRANCH   1   6
BRANCH   1   9
ATOM      9  C   UNL     1     220.154 205.590  -6.451  1.00  0.00     0.047 C 
ATOM     10  C   UNL     1     219.284 206.044  -7.632  1.00  0.00     0.014 C 
ATOM     11  C   UNL     1     221.526 205.112  -6.957  1.00  0.00     0.014 C 
ENDBRANCH   1   9
TORSDOF 3
ENDMDL
MODEL 5
REMARK VINA RESULT:    -3.130      1.918      2.254
REMARK INTER + INTRA:          -3.612
REMARK INTER:                  -3.568
REMARK INTRA:                  -0.044
REMARK UNBOUND:                -0.025
REMARK SMILES CC(C)[C@@H]([NH3+])C(=O)[O-]
REMARK SMILES IDX 4 1 5 2 6 6 7 7 8 8 2 9 1 10 3 11
REMARK H PARENT 5 3 5 4 5 5
REMARK Flexibility Score: inf
ROOT
ATOM      1  C   UNL     1     208.621 187.911  -3.381  1.00  0.00     0.230 C 
ENDROOT
BRANCH   1   2
ATOM      2  N   UNL     1     209.614 186.889  -3.744  1.00  0.00    -0.350 N 
ATOM      3  H   UNL     1     210.565 187.204  -3.441  1.00  0.00     0.345 HD
ATOM      4  H   UNL     1     209.635 186.724  -4.777  1.00  0.00     0.345 HD
ATOM      5  H   UNL     1     209.409 185.990  -3.254  1.00  0.00     0.345 HD
ENDBRANCH   1   2
BRANCH   1   6
ATOM      6  C   UNL     1     209.163 189.297  -3.635  1.00  0.00     0.099 C 
ATOM      7  O   UNL     1     210.203 189.446  -4.330  1.00  0.00    -0.544 OA
ATOM      8  O   UNL     1     208.554 190.413  -3.071  1.00  0.00    -0.544 OA
ENDBRANCH   1   6
BRANCH   1   9
ATOM      9  C   UNL     1     207.250 187.712  -4.095  1.00  0.00     0.047 C 
ATOM     10  C   UNL     1     206.194 187.116  -3.152  1.00  0.00     0.014 C 
ATOM     11  C   UNL     1     207.342 186.876  -5.383  1.00  0.00     0.014 C 
ENDBRANCH   1   9
TORSDOF 3
ENDMDL
MODEL 6
REMARK VINA RESULT:    -3.073      2.825      3.623
REMARK INTER + INTRA:          -3.548
REMARK INTER:                  -3.507
REMARK INTRA:                  -0.040
REMARK UNBOUND:                -0.025
REMARK SMILES CC(C)[C@@H]([NH3+])C(=O)[O-]
REMARK SMILES IDX 4 1 5 2 6 6 7 7 8 8 2 9 1 10 3 11
REMARK H PARENT 5 3 5 4 5 5
REMARK Flexibility Score: inf
ROOT
ATOM      1  C   UNL     1     207.019 187.782  -3.077  1.00  0.00     0.230 C 
ENDROOT
BRANCH   1   2
ATOM      2  N   UNL     1     205.654 187.236  -3.123  1.00  0.00    -0.350 N 
ATOM      3  H   UNL     1     205.190 187.380  -2.197  1.00  0.00     0.345 HD
ATOM      4  H   UNL     1     205.656 186.213  -3.336  1.00  0.00     0.345 HD
ATOM      5  H   UNL     1     205.085 187.738  -3.841  1.00  0.00     0.345 HD
ENDBRANCH   1   2
BRANCH   1   6
ATOM      6  C   UNL     1     207.849 187.242  -4.217  1.00  0.00     0.099 C 
ATOM      7  O   UNL     1     209.099 187.162  -4.100  1.00  0.00    -0.544 OA
ATOM      8  O   UNL     1     207.251 186.875  -5.418  1.00  0.00    -0.544 OA
ENDBRANCH   1   6
BRANCH   1   9
ATOM      9  C   UNL     1     207.054 189.339  -3.053  1.00  0.00     0.047 C 
ATOM     10  C   UNL     1     208.114 189.874  -2.078  1.00  0.00     0.014 C 
ATOM     11  C   UNL     1     205.689 189.982  -2.756  1.00  0.00     0.014 C 
ENDBRANCH   1   9
TORSDOF 3
ENDMDL
MODEL 7
REMARK VINA RESULT:    -3.040     19.584     20.650
REMARK INTER + INTRA:          -3.509
REMARK INTER:                  -3.448
REMARK INTRA:                  -0.061
REMARK UNBOUND:                -0.025
REMARK SMILES CC(C)[C@@H]([NH3+])C(=O)[O-]
REMARK SMILES IDX 4 1 5 2 6 6 7 7 8 8 2 9 1 10 3 11
REMARK H PARENT 5 3 5 4 5 5
REMARK Flexibility Score: inf
ROOT
ATOM      1  C   UNL     1     219.608 205.148  -5.307  1.00  0.00     0.230 C 
ENDROOT
BRANCH   1   2
ATOM      2  N   UNL     1     218.354 205.884  -5.083  1.00  0.00    -0.350 N 
ATOM      3  H   UNL     1     218.435 206.843  -5.494  1.00  0.00     0.345 HD
ATOM      4  H   UNL     1     218.142 205.979  -4.064  1.00  0.00     0.345 HD
ATOM      5  H   UNL     1     217.558 205.404  -5.560  1.00  0.00     0.345 HD
ENDBRANCH   1   2
BRANCH   1   6
ATOM      6  C   UNL     1     219.530 203.766  -4.705  1.00  0.00     0.099 C 
ATOM      7  O   UNL     1     219.272 202.776  -5.439  1.00  0.00    -0.544 OA
ATOM      8  O   UNL     1     219.694 203.576  -3.337  1.00  0.00    -0.544 OA
ENDBRANCH   1   6
BRANCH   1   9
ATOM      9  C   UNL     1     220.013 205.077  -6.810  1.00  0.00     0.047 C 
ATOM     10  C   UNL     1     221.534 205.193  -6.999  1.00  0.00     0.014 C 
ATOM     11  C   UNL     1     219.290 206.107  -7.693  1.00  0.00     0.014 C 
ENDBRANCH   1   9
TORSDOF 3
ENDMDL
MODEL 8
REMARK VINA RESULT:    -3.009     19.854     20.716
REMARK INTER + INTRA:          -3.474
REMARK INTER:                  -3.426
REMARK INTRA:                  -0.048
REMARK UNBOUND:                -0.025
REMARK SMILES CC(C)[C@@H]([NH3+])C(=O)[O-]
REMARK SMILES IDX 4 1 5 2 6 6 7 7 8 8 2 9 1 10 3 11
REMARK H PARENT 5 3 5 4 5 5
REMARK Flexibility Score: inf
ROOT
ATOM      1  C   UNL     1     220.005 203.772  -6.218  1.00  0.00     0.230 C 
ENDROOT
BRANCH   1   2
ATOM      2  N   UNL     1     220.639 202.751  -7.066  1.00  0.00    -0.350 N 
ATOM      3  H   UNL     1     220.685 203.097  -8.052  1.00  0.00     0.345 HD
ATOM      4  H   UNL     1     220.100 201.855  -7.056  1.00  0.00     0.345 HD
ATOM      5  H   UNL     1     221.618 202.570  -6.750  1.00  0.00     0.345 HD
ENDBRANCH   1   2
BRANCH   1   6
ATOM      6  C   UNL     1     220.282 203.502  -4.759  1.00  0.00     0.099 C 
ATOM      7  O   UNL     1     221.222 202.730  -4.431  1.00  0.00    -0.544 OA
ATOM      8  O   UNL     1     219.481 204.059  -3.768  1.00  0.00    -0.544 OA
ENDBRANCH   1   6
BRANCH   1   9
ATOM      9  C   UNL     1     220.417 205.225  -6.601  1.00  0.00     0.047 C 
ATOM     10  C   UNL     1     219.443 205.850  -7.611  1.00  0.00     0.014 C 
ATOM     11  C   UNL     1     221.862 205.340  -7.118  1.00  0.00     0.014 C 
ENDBRANCH   1   9
TORSDOF 3
ENDMDL
MODEL 9
REMARK VINA RESULT:    -2.979     20.316     20.865
REMARK INTER + INTRA:          -3.439
REMARK INTER:                  -3.391
REMARK INTRA:                  -0.049
REMARK UNBOUND:                -0.025
REMARK SMILES CC(C)[C@@H]([NH3+])C(=O)[O-]
REMARK SMILES IDX 4 1 5 2 6 6 7 7 8 8 2 9 1 10 3 11
REMARK H PARENT 5 3 5 4 5 5
REMARK Flexibility Score: inf
ROOT
ATOM      1  C   UNL     1     220.635 204.958  -6.229  1.00  0.00     0.230 C 
ENDROOT
BRANCH   1   2
ATOM      2  N   UNL     1     221.704 205.278  -7.189  1.00  0.00    -0.350 N 
ATOM      3  H   UNL     1     221.799 206.317  -7.269  1.00  0.00     0.345 HD
ATOM      4  H   UNL     1     221.495 204.892  -8.138  1.00  0.00     0.345 HD
ATOM      5  H   UNL     1     222.619 204.903  -6.855  1.00  0.00     0.345 HD
ENDBRANCH   1   2
BRANCH   1   6
ATOM      6  C   UNL     1     219.415 205.809  -6.485  1.00  0.00     0.099 C 
ATOM      7  O   UNL     1     218.615 206.057  -5.545  1.00  0.00    -0.544 OA
ATOM      8  O   UNL     1     219.136 206.286  -7.761  1.00  0.00    -0.544 OA
ENDBRANCH   1   6
BRANCH   1   9
ATOM      9  C   UNL     1     220.263 203.444  -6.214  1.00  0.00     0.047 C 
ATOM     10  C   UNL     1     220.802 202.735  -4.962  1.00  0.00     0.014 C 
ATOM     11  C   UNL     1     220.700 202.689  -7.480  1.00  0.00     0.014 C 
ENDBRANCH   1   9
TORSDOF 3
ENDMDL
