MODEL 1
REMARK VINA RESULT:    -5.636      0.000      0.000
REMARK INTER + INTRA:          -6.763
REMARK INTER:                  -6.624
REMARK INTRA:                  -0.138
REMARK UNBOUND:                -0.138
REMARK SMILES O=C([O-])C=Cc1ccc(O)c(O)c1
REMARK SMILES IDX 6 1 13 2 7 3 11 4 8 5 9 6 5 7 4 8 2 9 1 10 3 11 12 12 10 14
REMARK H PARENT 12 13 10 15
REMARK Flexibility Score: inf
ROOT
ATOM      1  C   UNL     1     -18.810   3.914  46.258  1.00  0.00    -0.022 A 
ATOM      2  C   UNL     1     -19.145   5.196  45.788  1.00  0.00     0.058 A 
ATOM      3  C   UNL     1     -18.242   2.989  45.361  1.00  0.00     0.012 A 
ATOM      4  C   UNL     1     -18.894   5.559  44.457  1.00  0.00     0.157 A 
ATOM      5  C   UNL     1     -17.993   3.350  44.035  1.00  0.00     0.051 A 
ATOM      6  C   UNL     1     -18.315   4.635  43.580  1.00  0.00     0.157 A 
ENDROOT
BRANCH   1   7
ATOM      7  C   UNL     1     -19.107   3.577  47.672  1.00  0.00     0.010 C 
ATOM      8  C   UNL     1     -18.640   2.484  48.291  1.00  0.00     0.025 C 
BRANCH   8   9
ATOM      9  C   UNL     1     -18.949   2.195  49.700  1.00  0.00     0.064 C 
ATOM     10  O   UNL     1     -19.097   1.002  50.072  1.00  0.00    -0.545 OA
ATOM     11  O   UNL     1     -19.083   3.220  50.630  1.00  0.00    -0.545 OA
ENDBRANCH   8   9
ENDBRANCH   1   7
BRANCH   4  12
ATOM     12  O   UNL     1     -19.218   6.835  44.001  1.00  0.00    -0.504 OA
ATOM     13  H   UNL     1     -18.513   7.458  43.621  1.00  0.00     0.293 HD
ENDBRANCH   4  12
BRANCH   6  14
ATOM     14  O   UNL     1     -18.066   4.999  42.257  1.00  0.00    -0.504 OA
ATOM     15  H   UNL     1     -17.962   4.305  41.527  1.00  0.00     0.293 HD
ENDBRANCH   6  14
TORSDOF 4
ENDMDL
MODEL 2
REMARK VINA RESULT:    -5.422      1.636      2.650
REMARK INTER + INTRA:          -6.511
REMARK INTER:                  -6.369
REMARK INTRA:                  -0.143
REMARK UNBOUND:                -0.138
REMARK SMILES O=C([O-])C=Cc1ccc(O)c(O)c1
REMARK SMILES IDX 6 1 13 2 7 3 11 4 8 5 9 6 5 7 4 8 2 9 1 10 3 11 12 12 10 14
REMARK H PARENT 12 13 10 15
REMARK Flexibility Score: inf
ROOT
ATOM      1  C   UNL     1     -18.487   3.753  44.459  1.00  0.00    -0.022 A 
ATOM      2  C   UNL     1     -17.716   3.061  43.509  1.00  0.00     0.058 A 
ATOM      3  C   UNL     1     -19.012   5.016  44.121  1.00  0.00     0.012 A 
ATOM      4  C   UNL     1     -17.494   3.605  42.235  1.00  0.00     0.157 A 
ATOM      5  C   UNL     1     -18.789   5.557  42.852  1.00  0.00     0.051 A 
ATOM      6  C   UNL     1     -18.033   4.854  41.906  1.00  0.00     0.157 A 
ENDROOT
BRANCH   1   7
ATOM      7  C   UNL     1     -18.684   3.138  45.795  1.00  0.00     0.010 C 
ATOM      8  C   UNL     1     -19.066   3.824  46.882  1.00  0.00     0.025 C 
BRANCH   8   9
ATOM      9  C   UNL     1     -19.261   3.171  48.186  1.00  0.00     0.064 C 
ATOM     10  O   UNL     1     -19.252   1.915  48.259  1.00  0.00    -0.545 OA
ATOM     11  O   UNL     1     -19.459   3.920  49.340  1.00  0.00    -0.545 OA
ENDBRANCH   8   9
ENDBRANCH   1   7
BRANCH   4  12
ATOM     12  O   UNL     1     -16.738   2.910  41.294  1.00  0.00    -0.504 OA
ATOM     13  H   UNL     1     -16.306   2.019  41.513  1.00  0.00     0.293 HD
ENDBRANCH   4  12
BRANCH   6  14
ATOM     14  O   UNL     1     -17.810   5.392  40.639  1.00  0.00    -0.504 OA
ATOM     15  H   UNL     1     -16.971   5.182  40.114  1.00  0.00     0.293 HD
ENDBRANCH   6  14
TORSDOF 4
ENDMDL
MODEL 3
REMARK VINA RESULT:    -5.396      1.451      5.969
REMARK INTER + INTRA:          -6.481
REMARK INTER:                  -6.356
REMARK INTRA:                  -0.125
REMARK UNBOUND:                -0.138
REMARK SMILES O=C([O-])C=Cc1ccc(O)c(O)c1
REMARK SMILES IDX 6 1 13 2 7 3 11 4 8 5 9 6 5 7 4 8 2 9 1 10 3 11 12 12 10 14
REMARK H PARENT 12 13 10 15
REMARK Flexibility Score: inf
ROOT
ATOM      1  C   UNL     1     -19.403   3.178  47.713  1.00  0.00    -0.022 A 
ATOM      2  C   UNL     1     -19.203   3.646  49.023  1.00  0.00     0.058 A 
ATOM      3  C   UNL     1     -19.321   1.794  47.466  1.00  0.00     0.012 A 
ATOM      4  C   UNL     1     -18.954   2.750  50.073  1.00  0.00     0.157 A 
ATOM      5  C   UNL     1     -19.071   0.902  48.511  1.00  0.00     0.051 A 
ATOM      6  C   UNL     1     -18.890   1.376  49.817  1.00  0.00     0.157 A 
ENDROOT
BRANCH   1   7
ATOM      7  C   UNL     1     -19.653   4.168  46.636  1.00  0.00     0.010 C 
ATOM      8  C   UNL     1     -18.698   4.936  46.093  1.00  0.00     0.025 C 
BRANCH   8   9
ATOM      9  C   UNL     1     -18.989   5.897  45.018  1.00  0.00     0.064 C 
ATOM     10  O   UNL     1     -18.891   7.131  45.245  1.00  0.00    -0.545 OA
ATOM     11  O   UNL     1     -19.373   5.464  43.754  1.00  0.00    -0.545 OA
ENDBRANCH   8   9
ENDBRANCH   1   7
BRANCH   4  12
ATOM     12  O   UNL     1     -18.768   3.219  51.372  1.00  0.00    -0.504 OA
ATOM     13  H   UNL     1     -18.871   2.610  52.176  1.00  0.00     0.293 HD
ENDBRANCH   4  12
BRANCH   6  14
ATOM     14  O   UNL     1     -18.643   0.487  50.862  1.00  0.00    -0.504 OA
ATOM     15  H   UNL     1     -17.879  -0.177  50.824  1.00  0.00     0.293 HD
ENDBRANCH   6  14
TORSDOF 4
ENDMDL
MODEL 4
REMARK VINA RESULT:    -5.359      2.453      6.703
REMARK INTER + INTRA:          -6.437
REMARK INTER:                  -6.297
REMARK INTRA:                  -0.140
REMARK UNBOUND:                -0.138
REMARK SMILES O=C([O-])C=Cc1ccc(O)c(O)c1
REMARK SMILES IDX 6 1 13 2 7 3 11 4 8 5 9 6 5 7 4 8 2 9 1 10 3 11 12 12 10 14
REMARK H PARENT 12 13 10 15
REMARK Flexibility Score: inf
ROOT
ATOM      1  C   UNL     1     -18.313   4.517  43.579  1.00  0.00    -0.022 A 
ATOM      2  C   UNL     1     -17.992   3.278  44.160  1.00  0.00     0.058 A 
ATOM      3  C   UNL     1     -18.959   5.490  44.367  1.00  0.00     0.012 A 
ATOM      4  C   UNL     1     -18.284   3.022  45.508  1.00  0.00     0.157 A 
ATOM      5  C   UNL     1     -19.251   5.234  45.709  1.00  0.00     0.051 A 
ATOM      6  C   UNL     1     -18.913   4.002  46.283  1.00  0.00     0.157 A 
ENDROOT
BRANCH   1   7
ATOM      7  C   UNL     1     -17.992   4.734  42.147  1.00  0.00     0.010 C 
ATOM      8  C   UNL     1     -18.722   5.503  41.328  1.00  0.00     0.025 C 
BRANCH   8   9
ATOM      9  C   UNL     1     -18.360   5.700  39.916  1.00  0.00     0.064 C 
ATOM     10  O   UNL     1     -17.869   4.743  39.261  1.00  0.00    -0.545 OA
ATOM     11  O   UNL     1     -18.547   6.928  39.291  1.00  0.00    -0.545 OA
ENDBRANCH   8   9
ENDBRANCH   1   7
BRANCH   4  12
ATOM     12  O   UNL     1     -17.954   1.795  46.080  1.00  0.00    -0.504 OA
ATOM     13  H   UNL     1     -17.103   1.304  45.828  1.00  0.00     0.293 HD
ENDBRANCH   4  12
BRANCH   6  14
ATOM     14  O   UNL     1     -19.202   3.745  47.623  1.00  0.00    -0.504 OA
ATOM     15  H   UNL     1     -19.868   4.306  48.139  1.00  0.00     0.293 HD
ENDBRANCH   6  14
TORSDOF 4
ENDMDL
MODEL 5
REMARK VINA RESULT:    -5.345      1.079      1.992
REMARK INTER + INTRA:          -6.421
REMARK INTER:                  -6.288
REMARK INTRA:                  -0.134
REMARK UNBOUND:                -0.138
REMARK SMILES O=C([O-])C=Cc1ccc(O)c(O)c1
REMARK SMILES IDX 6 1 13 2 7 3 11 4 8 5 9 6 5 7 4 8 2 9 1 10 3 11 12 12 10 14
REMARK H PARENT 12 13 10 15
REMARK Flexibility Score: inf
ROOT
ATOM      1  C   UNL     1     -18.825   4.279  45.740  1.00  0.00    -0.022 A 
ATOM      2  C   UNL     1     -18.213   3.286  44.956  1.00  0.00     0.058 A 
ATOM      3  C   UNL     1     -19.113   5.527  45.152  1.00  0.00     0.012 A 
ATOM      4  C   UNL     1     -17.918   3.520  43.605  1.00  0.00     0.157 A 
ATOM      5  C   UNL     1     -18.817   5.760  43.807  1.00  0.00     0.051 A 
ATOM      6  C   UNL     1     -18.222   4.759  43.030  1.00  0.00     0.157 A 
ENDROOT
BRANCH   1   7
ATOM      7  C   UNL     1     -19.108   3.984  47.166  1.00  0.00     0.010 C 
ATOM      8  C   UNL     1     -18.766   2.838  47.771  1.00  0.00     0.025 C 
BRANCH   8   9
ATOM      9  C   UNL     1     -19.055   2.592  49.193  1.00  0.00     0.064 C 
ATOM     10  O   UNL     1     -19.060   1.412  49.631  1.00  0.00    -0.545 OA
ATOM     11  O   UNL     1     -19.325   3.643  50.062  1.00  0.00    -0.545 OA
ENDBRANCH   8   9
ENDBRANCH   1   7
BRANCH   4  12
ATOM     12  O   UNL     1     -17.321   2.528  42.831  1.00  0.00    -0.504 OA
ATOM     13  H   UNL     1     -16.873   2.742  41.947  1.00  0.00     0.293 HD
ENDBRANCH   4  12
BRANCH   6  14
ATOM     14  O   UNL     1     -17.927   4.990  41.687  1.00  0.00    -0.504 OA
ATOM     15  H   UNL     1     -16.988   4.882  41.324  1.00  0.00     0.293 HD
ENDBRANCH   6  14
TORSDOF 4
ENDMDL
MODEL 6
REMARK VINA RESULT:    -5.309      2.967      6.166
REMARK INTER + INTRA:          -6.379
REMARK INTER:                  -6.238
REMARK INTRA:                  -0.141
REMARK UNBOUND:                -0.138
REMARK SMILES O=C([O-])C=Cc1ccc(O)c(O)c1
REMARK SMILES IDX 6 1 13 2 7 3 11 4 8 5 9 6 5 7 4 8 2 9 1 10 3 11 12 12 10 14
REMARK H PARENT 12 13 10 15
REMARK Flexibility Score: inf
ROOT
ATOM      1  C   UNL     1     -17.696   3.452  42.758  1.00  0.00    -0.022 A 
ATOM      2  C   UNL     1     -18.166   4.774  42.672  1.00  0.00     0.058 A 
ATOM      3  C   UNL     1     -17.841   2.757  43.975  1.00  0.00     0.012 A 
ATOM      4  C   UNL     1     -18.792   5.384  43.769  1.00  0.00     0.157 A 
ATOM      5  C   UNL     1     -18.463   3.366  45.067  1.00  0.00     0.051 A 
ATOM      6  C   UNL     1     -18.943   4.678  44.967  1.00  0.00     0.157 A 
ENDROOT
BRANCH   1   7
ATOM      7  C   UNL     1     -17.032   2.857  41.572  1.00  0.00     0.010 C 
ATOM      8  C   UNL     1     -16.115   1.882  41.643  1.00  0.00     0.025 C 
BRANCH   8   9
ATOM      9  C   UNL     1     -15.490   1.312  40.439  1.00  0.00     0.064 C 
ATOM     10  O   UNL     1     -14.566   0.467  40.560  1.00  0.00    -0.545 OA
ATOM     11  O   UNL     1     -15.902   1.694  39.168  1.00  0.00    -0.545 OA
ENDBRANCH   8   9
ENDBRANCH   1   7
BRANCH   4  12
ATOM     12  O   UNL     1     -19.265   6.691  43.674  1.00  0.00    -0.504 OA
ATOM     13  H   UNL     1     -19.724   7.147  44.455  1.00  0.00     0.293 HD
ENDBRANCH   4  12
BRANCH   6  14
ATOM     14  O   UNL     1     -19.566   5.286  46.056  1.00  0.00    -0.504 OA
ATOM     15  H   UNL     1     -19.372   6.247  46.309  1.00  0.00     0.293 HD
ENDBRANCH   6  14
TORSDOF 4
ENDMDL
MODEL 7
REMARK VINA RESULT:    -5.302      1.564      2.197
REMARK INTER + INTRA:          -6.371
REMARK INTER:                  -6.229
REMARK INTRA:                  -0.141
REMARK UNBOUND:                -0.138
REMARK SMILES O=C([O-])C=Cc1ccc(O)c(O)c1
REMARK SMILES IDX 6 1 13 2 7 3 11 4 8 5 9 6 5 7 4 8 2 9 1 10 3 11 12 12 10 14
REMARK H PARENT 12 13 10 15
REMARK Flexibility Score: inf
ROOT
ATOM      1  C   UNL     1     -18.643   4.558  44.381  1.00  0.00    -0.022 A 
ATOM      2  C   UNL     1     -19.331   5.666  43.856  1.00  0.00     0.058 A 
ATOM      3  C   UNL     1     -17.905   3.739  43.504  1.00  0.00     0.012 A 
ATOM      4  C   UNL     1     -19.264   5.968  42.489  1.00  0.00     0.157 A 
ATOM      5  C   UNL     1     -17.840   4.040  42.141  1.00  0.00     0.051 A 
ATOM      6  C   UNL     1     -18.516   5.155  41.631  1.00  0.00     0.157 A 
ENDROOT
BRANCH   1   7
ATOM      7  C   UNL     1     -18.755   4.276  45.833  1.00  0.00     0.010 C 
ATOM      8  C   UNL     1     -18.664   3.048  46.363  1.00  0.00     0.025 C 
BRANCH   8   9
ATOM      9  C   UNL     1     -18.769   2.816  47.812  1.00  0.00     0.064 C 
ATOM     10  O   UNL     1     -19.455   3.599  48.519  1.00  0.00    -0.545 OA
ATOM     11  O   UNL     1     -18.118   1.746  48.416  1.00  0.00    -0.545 OA
ENDBRANCH   8   9
ENDBRANCH   1   7
BRANCH   4  12
ATOM     12  O   UNL     1     -19.940   7.073  41.977  1.00  0.00    -0.504 OA
ATOM     13  H   UNL     1     -19.542   7.645  41.240  1.00  0.00     0.293 HD
ENDBRANCH   4  12
BRANCH   6  14
ATOM     14  O   UNL     1     -18.451   5.458  40.271  1.00  0.00    -0.504 OA
ATOM     15  H   UNL     1     -19.201   5.213  39.637  1.00  0.00     0.293 HD
ENDBRANCH   6  14
TORSDOF 4
ENDMDL
MODEL 8
REMARK VINA RESULT:    -5.171      1.413      6.153
REMARK INTER + INTRA:          -6.217
REMARK INTER:                  -6.084
REMARK INTRA:                  -0.133
REMARK UNBOUND:                -0.138
REMARK SMILES O=C([O-])C=Cc1ccc(O)c(O)c1
REMARK SMILES IDX 6 1 13 2 7 3 11 4 8 5 9 6 5 7 4 8 2 9 1 10 3 11 12 12 10 14
REMARK H PARENT 12 13 10 15
REMARK Flexibility Score: inf
ROOT
ATOM      1  C   UNL     1     -18.276   2.668  46.588  1.00  0.00    -0.022 A 
ATOM      2  C   UNL     1     -17.283   1.905  47.225  1.00  0.00     0.058 A 
ATOM      3  C   UNL     1     -19.300   3.240  47.368  1.00  0.00     0.012 A 
ATOM      4  C   UNL     1     -17.293   1.736  48.617  1.00  0.00     0.157 A 
ATOM      5  C   UNL     1     -19.310   3.070  48.755  1.00  0.00     0.051 A 
ATOM      6  C   UNL     1     -18.307   2.322  49.383  1.00  0.00     0.157 A 
ENDROOT
BRANCH   1   7
ATOM      7  C   UNL     1     -18.226   2.807  45.111  1.00  0.00     0.010 C 
ATOM      8  C   UNL     1     -18.561   3.927  44.456  1.00  0.00     0.025 C 
BRANCH   8   9
ATOM      9  C   UNL     1     -18.484   4.025  42.990  1.00  0.00     0.064 C 
ATOM     10  O   UNL     1     -17.954   5.037  42.462  1.00  0.00    -0.545 OA
ATOM     11  O   UNL     1     -18.989   3.017  42.177  1.00  0.00    -0.545 OA
ENDBRANCH   8   9
ENDBRANCH   1   7
BRANCH   4  12
ATOM     12  O   UNL     1     -16.300   0.987  49.245  1.00  0.00    -0.504 OA
ATOM     13  H   UNL     1     -15.406   1.395  49.494  1.00  0.00     0.293 HD
ENDBRANCH   4  12
BRANCH   6  14
ATOM     14  O   UNL     1     -18.315   2.153  50.767  1.00  0.00    -0.504 OA
ATOM     15  H   UNL     1     -18.266   2.943  51.398  1.00  0.00     0.293 HD
ENDBRANCH   6  14
TORSDOF 4
ENDMDL
MODEL 9
REMARK VINA RESULT:    -5.146      2.686      4.072
REMARK INTER + INTRA:          -6.187
REMARK INTER:                  -6.047
REMARK INTRA:                  -0.140
REMARK UNBOUND:                -0.138
REMARK SMILES O=C([O-])C=Cc1ccc(O)c(O)c1
REMARK SMILES IDX 6 1 13 2 7 3 11 4 8 5 9 6 5 7 4 8 2 9 1 10 3 11 12 12 10 14
REMARK H PARENT 12 13 10 15
REMARK Flexibility Score: inf
ROOT
ATOM      1  C   UNL     1     -18.659   4.842  42.821  1.00  0.00    -0.022 A 
ATOM      2  C   UNL     1     -17.874   4.488  41.711  1.00  0.00     0.058 A 
ATOM      3  C   UNL     1     -19.605   5.876  42.683  1.00  0.00     0.012 A 
ATOM      4  C   UNL     1     -18.045   5.133  40.478  1.00  0.00     0.157 A 
ATOM      5  C   UNL     1     -19.775   6.520  41.454  1.00  0.00     0.051 A 
ATOM      6  C   UNL     1     -18.999   6.149  40.349  1.00  0.00     0.157 A 
ENDROOT
BRANCH   1   7
ATOM      7  C   UNL     1     -18.430   4.136  44.106  1.00  0.00     0.010 C 
ATOM      8  C   UNL     1     -18.979   4.510  45.270  1.00  0.00     0.025 C 
BRANCH   8   9
ATOM      9  C   UNL     1     -18.735   3.772  46.519  1.00  0.00     0.064 C 
ATOM     10  O   UNL     1     -19.453   4.002  47.527  1.00  0.00    -0.545 OA
ATOM     11  O   UNL     1     -17.721   2.825  46.606  1.00  0.00    -0.545 OA
ENDBRANCH   8   9
ENDBRANCH   1   7
BRANCH   4  12
ATOM     12  O   UNL     1     -17.271   4.769  39.377  1.00  0.00    -0.504 OA
ATOM     13  H   UNL     1     -17.519   3.980  38.791  1.00  0.00     0.293 HD
ENDBRANCH   4  12
BRANCH   6  14
ATOM     14  O   UNL     1     -19.168   6.788  39.122  1.00  0.00    -0.504 OA
ATOM     15  H   UNL     1     -18.406   7.279  38.670  1.00  0.00     0.293 HD
ENDBRANCH   6  14
TORSDOF 4
ENDMDL
