MODEL 1
REMARK VINA RESULT:    -4.621      0.000      0.000
REMARK INTER + INTRA:          -5.569
REMARK INTER:                  -5.567
REMARK INTRA:                  -0.002
REMARK UNBOUND:                -0.002
REMARK SMILES OCC(O)CO
REMARK SMILES IDX 3 1 5 2 6 3 2 5 1 6 4 8
REMARK H PARENT 6 4 1 7 4 9
REMARK Flexibility Score: inf
ROOT
ATOM      1  C   UNL     1      11.386  33.346  25.218  1.00  0.00     0.165 C 
ENDROOT
BRANCH   1   2
ATOM      2  C   UNL     1      12.043  34.729  25.380  1.00  0.00     0.190 C 
BRANCH   2   3
ATOM      3  O   UNL     1      11.672  35.306  26.602  1.00  0.00    -0.394 OA
ATOM      4  H   UNL     1      10.709  35.536  26.530  1.00  0.00     0.210 HD
ENDBRANCH   2   3
ENDBRANCH   1   2
BRANCH   1   5
ATOM      5  C   UNL     1      10.566  33.254  23.922  1.00  0.00     0.190 C 
BRANCH   5   6
ATOM      6  O   UNL     1       9.507  32.351  24.086  1.00  0.00    -0.394 OA
ATOM      7  H   UNL     1       9.834  31.655  24.713  1.00  0.00     0.210 HD
ENDBRANCH   5   6
ENDBRANCH   1   5
BRANCH   1   8
ATOM      8  O   UNL     1      10.577  33.048  26.328  1.00  0.00    -0.388 OA
ATOM      9  H   UNL     1      10.819  33.681  27.055  1.00  0.00     0.211 HD
ENDBRANCH   1   8
TORSDOF 5
ENDMDL
MODEL 2
REMARK VINA RESULT:    -4.592      5.134      6.180
REMARK INTER + INTRA:          -5.533
REMARK INTER:                  -5.531
REMARK INTRA:                  -0.003
REMARK UNBOUND:                -0.002
REMARK SMILES OCC(O)CO
REMARK SMILES IDX 3 1 5 2 6 3 2 5 1 6 4 8
REMARK H PARENT 6 4 1 7 4 9
REMARK Flexibility Score: inf
ROOT
ATOM      1  C   UNL     1      13.214  36.968  21.621  1.00  0.00     0.165 C 
ENDROOT
BRANCH   1   2
ATOM      2  C   UNL     1      12.801  35.488  21.711  1.00  0.00     0.190 C 
BRANCH   2   3
ATOM      3  O   UNL     1      12.461  34.997  20.443  1.00  0.00    -0.394 OA
ATOM      4  H   UNL     1      13.198  35.253  19.830  1.00  0.00     0.210 HD
ENDBRANCH   2   3
ENDBRANCH   1   2
BRANCH   1   5
ATOM      5  C   UNL     1      12.626  37.794  22.775  1.00  0.00     0.190 C 
BRANCH   5   6
ATOM      6  O   UNL     1      12.860  39.159  22.559  1.00  0.00    -0.394 OA
ATOM      7  H   UNL     1      12.673  39.321  21.598  1.00  0.00     0.210 HD
ENDBRANCH   5   6
ENDBRANCH   1   5
BRANCH   1   8
ATOM      8  O   UNL     1      12.828  37.517  20.385  1.00  0.00    -0.388 OA
ATOM      9  H   UNL     1      12.174  36.893  19.971  1.00  0.00     0.211 HD
ENDBRANCH   1   8
TORSDOF 5
ENDMDL
MODEL 3
REMARK VINA RESULT:    -4.501      5.071      5.475
REMARK INTER + INTRA:          -5.424
REMARK INTER:                  -5.421
REMARK INTRA:                  -0.003
REMARK UNBOUND:                -0.002
REMARK SMILES OCC(O)CO
REMARK SMILES IDX 3 1 5 2 6 3 2 5 1 6 4 8
REMARK H PARENT 6 4 1 7 4 9
REMARK Flexibility Score: inf
ROOT
ATOM      1  C   UNL     1      12.598  36.949  21.635  1.00  0.00     0.165 C 
ENDROOT
BRANCH   1   2
ATOM      2  C   UNL     1      12.930  37.822  22.859  1.00  0.00     0.190 C 
BRANCH   2   3
ATOM      3  O   UNL     1      12.777  39.180  22.548  1.00  0.00    -0.394 OA
ATOM      4  H   UNL     1      12.987  39.278  21.583  1.00  0.00     0.210 HD
ENDBRANCH   2   3
ENDBRANCH   1   2
BRANCH   1   5
ATOM      5  C   UNL     1      13.052  35.495  21.833  1.00  0.00     0.190 C 
BRANCH   5   6
ATOM      6  O   UNL     1      12.668  34.717  20.732  1.00  0.00    -0.394 OA
ATOM      7  H   UNL     1      11.688  34.586  20.816  1.00  0.00     0.210 HD
ENDBRANCH   5   6
ENDBRANCH   1   5
BRANCH   1   8
ATOM      8  O   UNL     1      13.178  37.485  20.472  1.00  0.00    -0.388 OA
ATOM      9  H   UNL     1      13.303  36.739  19.827  1.00  0.00     0.211 HD
ENDBRANCH   1   8
TORSDOF 5
ENDMDL
MODEL 4
REMARK VINA RESULT:    -4.457      0.788      3.085
REMARK INTER + INTRA:          -5.371
REMARK INTER:                  -5.368
REMARK INTRA:                  -0.003
REMARK UNBOUND:                -0.002
REMARK SMILES OCC(O)CO
REMARK SMILES IDX 3 1 5 2 6 3 2 5 1 6 4 8
REMARK H PARENT 6 4 1 7 4 9
REMARK Flexibility Score: inf
ROOT
ATOM      1  C   UNL     1      11.015  33.708  24.894  1.00  0.00     0.165 C 
ENDROOT
BRANCH   1   2
ATOM      2  C   UNL     1      10.657  32.725  23.764  1.00  0.00     0.190 C 
BRANCH   2   3
ATOM      3  O   UNL     1       9.302  32.374  23.832  1.00  0.00    -0.394 OA
ATOM      4  H   UNL     1       8.849  33.083  24.359  1.00  0.00     0.210 HD
ENDBRANCH   2   3
ENDBRANCH   1   2
BRANCH   1   5
ATOM      5  C   UNL     1      12.409  34.321  24.694  1.00  0.00     0.190 C 
BRANCH   5   6
ATOM      6  O   UNL     1      12.828  34.959  25.869  1.00  0.00    -0.394 OA
ATOM      7  H   UNL     1      13.760  34.658  26.028  1.00  0.00     0.210 HD
ENDBRANCH   5   6
ENDBRANCH   1   5
BRANCH   1   8
ATOM      8  O   UNL     1      10.938  33.073  26.146  1.00  0.00    -0.388 OA
ATOM      9  H   UNL     1      11.050  32.097  25.995  1.00  0.00     0.211 HD
ENDBRANCH   1   8
TORSDOF 5
ENDMDL
MODEL 5
REMARK VINA RESULT:    -4.379      4.959      5.567
REMARK INTER + INTRA:          -5.277
REMARK INTER:                  -5.065
REMARK INTRA:                  -0.212
REMARK UNBOUND:                -0.002
REMARK SMILES OCC(O)CO
REMARK SMILES IDX 3 1 5 2 6 3 2 5 1 6 4 8
REMARK H PARENT 6 4 1 7 4 9
REMARK Flexibility Score: inf
ROOT
ATOM      1  C   UNL     1      12.700  37.623  22.709  1.00  0.00     0.165 C 
ENDROOT
BRANCH   1   2
ATOM      2  C   UNL     1      13.200  36.886  21.452  1.00  0.00     0.190 C 
BRANCH   2   3
ATOM      3  O   UNL     1      12.814  37.576  20.295  1.00  0.00    -0.394 OA
ATOM      4  H   UNL     1      11.874  37.316  20.108  1.00  0.00     0.210 HD
ENDBRANCH   2   3
ENDBRANCH   1   2
BRANCH   1   5
ATOM      5  C   UNL     1      11.286  37.172  23.107  1.00  0.00     0.190 C 
BRANCH   5   6
ATOM      6  O   UNL     1      10.787  36.264  22.164  1.00  0.00    -0.394 OA
ATOM      7  H   UNL     1      11.225  36.492  21.304  1.00  0.00     0.210 HD
ENDBRANCH   5   6
ENDBRANCH   1   5
BRANCH   1   8
ATOM      8  O   UNL     1      12.730  39.014  22.513  1.00  0.00    -0.388 OA
ATOM      9  H   UNL     1      12.443  39.192  21.578  1.00  0.00     0.211 HD
ENDBRANCH   1   8
TORSDOF 5
ENDMDL
MODEL 6
REMARK VINA RESULT:    -4.362      1.238      2.221
REMARK INTER + INTRA:          -5.257
REMARK INTER:                  -5.063
REMARK INTRA:                  -0.194
REMARK UNBOUND:                -0.002
REMARK SMILES OCC(O)CO
REMARK SMILES IDX 3 1 5 2 6 3 2 5 1 6 4 8
REMARK H PARENT 6 4 1 7 4 9
REMARK Flexibility Score: inf
ROOT
ATOM      1  C   UNL     1      10.819  33.284  23.931  1.00  0.00     0.165 C 
ENDROOT
BRANCH   1   2
ATOM      2  C   UNL     1      11.570  33.451  25.266  1.00  0.00     0.190 C 
BRANCH   2   3
ATOM      3  O   UNL     1      10.677  33.363  26.343  1.00  0.00    -0.394 OA
ATOM      4  H   UNL     1      10.182  34.222  26.375  1.00  0.00     0.210 HD
ENDBRANCH   2   3
ENDBRANCH   1   2
BRANCH   1   5
ATOM      5  C   UNL     1      10.393  34.639  23.345  1.00  0.00     0.190 C 
BRANCH   5   6
ATOM      6  O   UNL     1      10.717  35.672  24.235  1.00  0.00    -0.394 OA
ATOM      7  H   UNL     1      10.032  36.376  24.100  1.00  0.00     0.210 HD
ENDBRANCH   5   6
ENDBRANCH   1   5
BRANCH   1   8
ATOM      8  O   UNL     1       9.699  32.450  24.093  1.00  0.00    -0.388 OA
ATOM      9  H   UNL     1       9.417  32.507  25.044  1.00  0.00     0.211 HD
ENDBRANCH   1   8
TORSDOF 5
ENDMDL
MODEL 7
REMARK VINA RESULT:    -4.362      1.482      2.051
REMARK INTER + INTRA:          -5.257
REMARK INTER:                  -5.050
REMARK INTRA:                  -0.207
REMARK UNBOUND:                -0.002
REMARK SMILES OCC(O)CO
REMARK SMILES IDX 3 1 5 2 6 3 2 5 1 6 4 8
REMARK H PARENT 6 4 1 7 4 9
REMARK Flexibility Score: inf
ROOT
ATOM      1  C   UNL     1      10.855  33.927  23.752  1.00  0.00     0.165 C 
ENDROOT
BRANCH   1   2
ATOM      2  C   UNL     1      11.518  34.090  25.132  1.00  0.00     0.190 C 
BRANCH   2   3
ATOM      3  O   UNL     1      10.800  33.384  26.107  1.00  0.00    -0.394 OA
ATOM      4  H   UNL     1      10.799  33.946  26.925  1.00  0.00     0.210 HD
ENDBRANCH   2   3
ENDBRANCH   1   2
BRANCH   1   5
ATOM      5  C   UNL     1      10.401  32.480  23.507  1.00  0.00     0.190 C 
BRANCH   5   6
ATOM      6  O   UNL     1       9.038  32.346  23.805  1.00  0.00    -0.394 OA
ATOM      7  H   UNL     1       8.722  33.252  24.059  1.00  0.00     0.210 HD
ENDBRANCH   5   6
ENDBRANCH   1   5
BRANCH   1   8
ATOM      8  O   UNL     1      11.727  34.342  22.731  1.00  0.00    -0.388 OA
ATOM      9  H   UNL     1      12.617  34.502  23.142  1.00  0.00     0.211 HD
ENDBRANCH   1   8
TORSDOF 5
ENDMDL
MODEL 8
REMARK VINA RESULT:    -4.247      1.401      2.220
REMARK INTER + INTRA:          -5.119
REMARK INTER:                  -5.083
REMARK INTRA:                  -0.036
REMARK UNBOUND:                -0.002
REMARK SMILES OCC(O)CO
REMARK SMILES IDX 3 1 5 2 6 3 2 5 1 6 4 8
REMARK H PARENT 6 4 1 7 4 9
REMARK Flexibility Score: inf
ROOT
ATOM      1  C   UNL     1      12.335  34.441  24.773  1.00  0.00     0.165 C 
ENDROOT
BRANCH   1   2
ATOM      2  C   UNL     1      11.845  35.559  23.834  1.00  0.00     0.190 C 
BRANCH   2   3
ATOM      3  O   UNL     1      10.873  36.341  24.471  1.00  0.00    -0.394 OA
ATOM      4  H   UNL     1      11.285  36.689  25.304  1.00  0.00     0.210 HD
ENDBRANCH   2   3
ENDBRANCH   1   2
BRANCH   1   5
ATOM      5  C   UNL     1      11.258  33.368  24.991  1.00  0.00     0.190 C 
BRANCH   5   6
ATOM      6  O   UNL     1      10.794  33.413  26.313  1.00  0.00    -0.394 OA
ATOM      7  H   UNL     1      11.321  32.737  26.812  1.00  0.00     0.210 HD
ENDBRANCH   5   6
ENDBRANCH   1   5
BRANCH   1   8
ATOM      8  O   UNL     1      12.746  34.975  26.007  1.00  0.00    -0.388 OA
ATOM      9  H   UNL     1      12.774  35.964  25.912  1.00  0.00     0.211 HD
ENDBRANCH   1   8
TORSDOF 5
ENDMDL
MODEL 9
REMARK VINA RESULT:    -4.218      4.908      5.519
REMARK INTER + INTRA:          -5.084
REMARK INTER:                  -5.050
REMARK INTRA:                  -0.033
REMARK UNBOUND:                -0.002
REMARK SMILES OCC(O)CO
REMARK SMILES IDX 3 1 5 2 6 3 2 5 1 6 4 8
REMARK H PARENT 6 4 1 7 4 9
REMARK Flexibility Score: inf
ROOT
ATOM      1  C   UNL     1      12.602  35.709  21.607  1.00  0.00     0.165 C 
ENDROOT
BRANCH   1   2
ATOM      2  C   UNL     1      11.306  35.786  22.435  1.00  0.00     0.190 C 
BRANCH   2   3
ATOM      3  O   UNL     1      10.185  35.746  21.593  1.00  0.00    -0.394 OA
ATOM      4  H   UNL     1      10.051  34.796  21.340  1.00  0.00     0.210 HD
ENDBRANCH   2   3
ENDBRANCH   1   2
BRANCH   1   5
ATOM      5  C   UNL     1      13.181  37.104  21.327  1.00  0.00     0.190 C 
BRANCH   5   6
ATOM      6  O   UNL     1      12.824  37.523  20.038  1.00  0.00    -0.394 OA
ATOM      7  H   UNL     1      12.189  36.843  19.694  1.00  0.00     0.210 HD
ENDBRANCH   5   6
ENDBRANCH   1   5
BRANCH   1   8
ATOM      8  O   UNL     1      12.381  35.023  20.401  1.00  0.00    -0.388 OA
ATOM      9  H   UNL     1      12.053  35.684  19.735  1.00  0.00     0.211 HD
ENDBRANCH   1   8
TORSDOF 5
ENDMDL
