MODEL 1
REMARK VINA RESULT:    -3.838      0.000      0.000
REMARK INTER + INTRA:          -8.991
REMARK INTER:                  -6.979
REMARK INTRA:                  -2.012
REMARK UNBOUND:                -2.012
REMARK SMILES CCCCCCCCCCCCCCCC(=O)[O-]
REMARK SMILES IDX 9 1 10 2 11 3 12 4 13 5 14 6 15 7 16 8 17 9 18 10 8 11 7 12
REMARK SMILES IDX 6 13 5 14 4 15 3 16 2 17 1 18
REMARK H PARENT
REMARK Flexibility Score: inf
ROOT
ATOM      1  C   UNL     1     299.688 323.902 647.361  1.00  0.00     0.000 C 
ENDROOT
BRANCH   1   2
ATOM      2  C   UNL     1     301.077 323.290 647.601  1.00  0.00     0.000 C 
BRANCH   2   3
ATOM      3  C   UNL     1     302.127 324.340 648.002  1.00  0.00     0.000 C 
BRANCH   3   4
ATOM      4  C   UNL     1     303.481 323.715 648.387  1.00  0.00     0.000 C 
BRANCH   4   5
ATOM      5  C   UNL     1     303.809 322.391 647.671  1.00  0.00     0.000 C 
BRANCH   5   6
ATOM      6  C   UNL     1     305.075 321.712 648.220  1.00  0.00     0.006 C 
BRANCH   6   7
ATOM      7  C   UNL     1     304.811 320.981 649.545  1.00  0.00     0.053 C 
BRANCH   7   8
ATOM      8  C   UNL     1     306.002 321.032 650.452  1.00  0.00     0.041 C 
ATOM      9  O   UNL     1     307.026 321.684 650.117  1.00  0.00    -0.550 OA
ATOM     10  O   UNL     1     305.994 320.329 651.650  1.00  0.00    -0.550 OA
ENDBRANCH   7   8
ENDBRANCH   6   7
ENDBRANCH   5   6
ENDBRANCH   4   5
ENDBRANCH   3   4
ENDBRANCH   2   3
ENDBRANCH   1   2
BRANCH   1  11
ATOM     11  C   UNL     1     299.710 325.441 647.391  1.00  0.00     0.000 C 
BRANCH  11  12
ATOM     12  C   UNL     1     299.115 326.063 646.117  1.00  0.00    -0.000 C 
BRANCH  12  13
ATOM     13  C   UNL     1     299.360 325.196 644.869  1.00  0.00    -0.000 C 
BRANCH  13  14
ATOM     14  C   UNL     1     300.792 325.328 644.319  1.00  0.00    -0.000 C 
BRANCH  14  15
ATOM     15  C   UNL     1     301.384 324.040 643.716  1.00  0.00    -0.000 C 
BRANCH  15  16
ATOM     16  C   UNL     1     302.739 323.656 644.334  1.00  0.00    -0.000 C 
BRANCH  16  17
ATOM     17  C   UNL     1     303.620 324.880 644.627  1.00  0.00    -0.003 C 
ATOM     18  C   UNL     1     305.076 324.509 644.910  1.00  0.00     0.004 C 
ENDBRANCH  16  17
ENDBRANCH  15  16
ENDBRANCH  14  15
ENDBRANCH  13  14
ENDBRANCH  12  13
ENDBRANCH  11  12
ENDBRANCH   1  11
TORSDOF 14
ENDMDL
MODEL 2
REMARK VINA RESULT:    -3.773      1.145      1.803
REMARK INTER + INTRA:          -8.874
REMARK INTER:                  -6.830
REMARK INTRA:                  -2.044
REMARK UNBOUND:                -2.012
REMARK SMILES CCCCCCCCCCCCCCCC(=O)[O-]
REMARK SMILES IDX 9 1 10 2 11 3 12 4 13 5 14 6 15 7 16 8 17 9 18 10 8 11 7 12
REMARK SMILES IDX 6 13 5 14 4 15 3 16 2 17 1 18
REMARK H PARENT
REMARK Flexibility Score: inf
ROOT
ATOM      1  C   UNL     1     299.537 325.739 646.659  1.00  0.00     0.000 C 
ENDROOT
BRANCH   1   2
ATOM      2  C   UNL     1     299.606 324.666 647.757  1.00  0.00     0.000 C 
BRANCH   2   3
ATOM      3  C   UNL     1     300.716 323.631 647.507  1.00  0.00     0.000 C 
BRANCH   3   4
ATOM      4  C   UNL     1     302.104 324.121 647.961  1.00  0.00     0.000 C 
BRANCH   4   5
ATOM      5  C   UNL     1     303.224 323.068 647.868  1.00  0.00     0.000 C 
BRANCH   5   6
ATOM      6  C   UNL     1     304.270 323.207 648.987  1.00  0.00     0.006 C 
BRANCH   6   7
ATOM      7  C   UNL     1     305.006 321.888 649.258  1.00  0.00     0.053 C 
BRANCH   7   8
ATOM      8  C   UNL     1     306.164 322.080 650.188  1.00  0.00     0.041 C 
ATOM      9  O   UNL     1     307.219 322.635 649.780  1.00  0.00    -0.550 OA
ATOM     10  O   UNL     1     306.093 321.614 651.494  1.00  0.00    -0.550 OA
ENDBRANCH   7   8
ENDBRANCH   6   7
ENDBRANCH   5   6
ENDBRANCH   4   5
ENDBRANCH   3   4
ENDBRANCH   2   3
ENDBRANCH   1   2
BRANCH   1  11
ATOM     11  C   UNL     1     298.989 325.188 645.331  1.00  0.00     0.000 C 
BRANCH  11  12
ATOM     12  C   UNL     1     299.365 326.068 644.128  1.00  0.00    -0.000 C 
BRANCH  12  13
ATOM     13  C   UNL     1     300.382 325.387 643.196  1.00  0.00    -0.000 C 
BRANCH  13  14
ATOM     14  C   UNL     1     300.949 324.079 643.779  1.00  0.00    -0.000 C 
BRANCH  14  15
ATOM     15  C   UNL     1     302.448 324.112 644.129  1.00  0.00    -0.000 C 
BRANCH  15  16
ATOM     16  C   UNL     1     303.062 325.518 644.007  1.00  0.00    -0.000 C 
BRANCH  16  17
ATOM     17  C   UNL     1     303.452 326.109 645.370  1.00  0.00    -0.003 C 
ATOM     18  C   UNL     1     302.637 327.349 645.735  1.00  0.00     0.004 C 
ENDBRANCH  16  17
ENDBRANCH  15  16
ENDBRANCH  14  15
ENDBRANCH  13  14
ENDBRANCH  12  13
ENDBRANCH  11  12
ENDBRANCH   1  11
TORSDOF 14
ENDMDL
MODEL 3
REMARK VINA RESULT:    -3.727      1.319      2.487
REMARK INTER + INTRA:          -8.790
REMARK INTER:                  -7.340
REMARK INTRA:                  -1.450
REMARK UNBOUND:                -2.012
REMARK SMILES CCCCCCCCCCCCCCCC(=O)[O-]
REMARK SMILES IDX 9 1 10 2 11 3 12 4 13 5 14 6 15 7 16 8 17 9 18 10 8 11 7 12
REMARK SMILES IDX 6 13 5 14 4 15 3 16 2 17 1 18
REMARK H PARENT
REMARK Flexibility Score: inf
ROOT
ATOM      1  C   UNL     1     302.032 323.238 647.427  1.00  0.00     0.000 C 
ENDROOT
BRANCH   1   2
ATOM      2  C   UNL     1     303.371 322.960 648.128  1.00  0.00     0.000 C 
BRANCH   2   3
ATOM      3  C   UNL     1     304.487 322.571 647.144  1.00  0.00     0.000 C 
BRANCH   3   4
ATOM      4  C   UNL     1     305.870 323.102 647.568  1.00  0.00     0.000 C 
BRANCH   4   5
ATOM      5  C   UNL     1     306.063 323.260 649.088  1.00  0.00     0.000 C 
BRANCH   5   6
ATOM      6  C   UNL     1     307.095 322.277 649.665  1.00  0.00     0.006 C 
BRANCH   6   7
ATOM      7  C   UNL     1     306.741 320.817 649.350  1.00  0.00     0.053 C 
BRANCH   7   8
ATOM      8  C   UNL     1     305.724 320.274 650.307  1.00  0.00     0.041 C 
ATOM      9  O   UNL     1     304.606 319.876 649.886  1.00  0.00    -0.550 OA
ATOM     10  O   UNL     1     305.997 320.242 651.669  1.00  0.00    -0.550 OA
ENDBRANCH   7   8
ENDBRANCH   6   7
ENDBRANCH   5   6
ENDBRANCH   4   5
ENDBRANCH   3   4
ENDBRANCH   2   3
ENDBRANCH   1   2
BRANCH   1  11
ATOM     11  C   UNL     1     301.347 324.513 647.950  1.00  0.00     0.000 C 
BRANCH  11  12
ATOM     12  C   UNL     1     299.814 324.431 647.877  1.00  0.00    -0.000 C 
BRANCH  12  13
ATOM     13  C   UNL     1     299.308 324.143 646.453  1.00  0.00    -0.000 C 
BRANCH  13  14
ATOM     14  C   UNL     1     298.879 325.416 645.700  1.00  0.00    -0.000 C 
BRANCH  14  15
ATOM     15  C   UNL     1     299.637 325.690 644.388  1.00  0.00    -0.000 C 
BRANCH  15  16
ATOM     16  C   UNL     1     301.155 325.840 644.593  1.00  0.00    -0.000 C 
BRANCH  16  17
ATOM     17  C   UNL     1     301.944 324.642 644.043  1.00  0.00    -0.003 C 
ATOM     18  C   UNL     1     301.102 323.740 643.141  1.00  0.00     0.004 C 
ENDBRANCH  16  17
ENDBRANCH  15  16
ENDBRANCH  14  15
ENDBRANCH  13  14
ENDBRANCH  12  13
ENDBRANCH  11  12
ENDBRANCH   1  11
TORSDOF 14
ENDMDL
MODEL 4
REMARK VINA RESULT:    -3.688      1.513      3.480
REMARK INTER + INTRA:          -8.719
REMARK INTER:                  -7.093
REMARK INTRA:                  -1.626
REMARK UNBOUND:                -2.012
REMARK SMILES CCCCCCCCCCCCCCCC(=O)[O-]
REMARK SMILES IDX 9 1 10 2 11 3 12 4 13 5 14 6 15 7 16 8 17 9 18 10 8 11 7 12
REMARK SMILES IDX 6 13 5 14 4 15 3 16 2 17 1 18
REMARK H PARENT
REMARK Flexibility Score: inf
ROOT
ATOM      1  C   UNL     1     304.070 325.223 646.240  1.00  0.00     0.000 C 
ENDROOT
BRANCH   1   2
ATOM      2  C   UNL     1     305.031 324.584 647.255  1.00  0.00     0.000 C 
BRANCH   2   3
ATOM      3  C   UNL     1     305.980 323.560 646.610  1.00  0.00     0.000 C 
BRANCH   3   4
ATOM      4  C   UNL     1     305.564 322.103 646.885  1.00  0.00     0.000 C 
BRANCH   4   5
ATOM      5  C   UNL     1     304.485 321.933 647.971  1.00  0.00     0.000 C 
BRANCH   5   6
ATOM      6  C   UNL     1     304.956 321.067 649.151  1.00  0.00     0.006 C 
BRANCH   6   7
ATOM      7  C   UNL     1     306.484 321.073 649.300  1.00  0.00     0.053 C 
BRANCH   7   8
ATOM      8  C   UNL     1     306.934 322.031 650.358  1.00  0.00     0.041 C 
ATOM      9  O   UNL     1     307.865 322.846 650.122  1.00  0.00    -0.550 OA
ATOM     10  O   UNL     1     306.351 322.001 651.618  1.00  0.00    -0.550 OA
ENDBRANCH   7   8
ENDBRANCH   6   7
ENDBRANCH   5   6
ENDBRANCH   4   5
ENDBRANCH   3   4
ENDBRANCH   2   3
ENDBRANCH   1   2
BRANCH   1  11
ATOM     11  C   UNL     1     302.749 325.677 646.885  1.00  0.00     0.000 C 
BRANCH  11  12
ATOM     12  C   UNL     1     302.197 324.647 647.884  1.00  0.00    -0.000 C 
BRANCH  12  13
ATOM     13  C   UNL     1     301.194 323.677 647.237  1.00  0.00    -0.000 C 
BRANCH  13  14
ATOM     14  C   UNL     1     299.728 324.089 647.464  1.00  0.00    -0.000 C 
BRANCH  14  15
ATOM     15  C   UNL     1     298.877 324.221 646.187  1.00  0.00    -0.000 C 
BRANCH  15  16
ATOM     16  C   UNL     1     299.204 325.487 645.377  1.00  0.00    -0.000 C 
BRANCH  16  17
ATOM     17  C   UNL     1     299.282 326.744 646.257  1.00  0.00    -0.003 C 
ATOM     18  C   UNL     1     300.003 327.905 645.571  1.00  0.00     0.004 C 
ENDBRANCH  16  17
ENDBRANCH  15  16
ENDBRANCH  14  15
ENDBRANCH  13  14
ENDBRANCH  12  13
ENDBRANCH  11  12
ENDBRANCH   1  11
TORSDOF 14
ENDMDL
MODEL 5
REMARK VINA RESULT:    -3.683      3.705      6.310
REMARK INTER + INTRA:          -8.710
REMARK INTER:                  -6.979
REMARK INTRA:                  -1.731
REMARK UNBOUND:                -2.012
REMARK SMILES CCCCCCCCCCCCCCCC(=O)[O-]
REMARK SMILES IDX 9 1 10 2 11 3 12 4 13 5 14 6 15 7 16 8 17 9 18 10 8 11 7 12
REMARK SMILES IDX 6 13 5 14 4 15 3 16 2 17 1 18
REMARK H PARENT
REMARK Flexibility Score: inf
ROOT
ATOM      1  C   UNL     1     299.149 325.427 646.302  1.00  0.00     0.000 C 
ENDROOT
BRANCH   1   2
ATOM      2  C   UNL     1     299.432 326.936 646.237  1.00  0.00     0.000 C 
BRANCH   2   3
ATOM      3  C   UNL     1     300.829 327.254 645.677  1.00  0.00     0.000 C 
BRANCH   3   4
ATOM      4  C   UNL     1     301.203 326.375 644.469  1.00  0.00     0.000 C 
BRANCH   4   5
ATOM      5  C   UNL     1     302.542 325.624 644.606  1.00  0.00     0.000 C 
BRANCH   5   6
ATOM      6  C   UNL     1     302.456 324.159 644.145  1.00  0.00     0.006 C 
BRANCH   6   7
ATOM      7  C   UNL     1     301.130 323.854 643.434  1.00  0.00     0.053 C 
BRANCH   7   8
ATOM      8  C   UNL     1     301.340 323.035 642.198  1.00  0.00     0.041 C 
ATOM      9  O   UNL     1     300.519 322.132 641.888  1.00  0.00    -0.550 OA
ATOM     10  O   UNL     1     302.463 323.244 641.407  1.00  0.00    -0.550 OA
ENDBRANCH   7   8
ENDBRANCH   6   7
ENDBRANCH   5   6
ENDBRANCH   4   5
ENDBRANCH   3   4
ENDBRANCH   2   3
ENDBRANCH   1   2
BRANCH   1  11
ATOM     11  C   UNL     1     299.621 324.796 647.625  1.00  0.00     0.000 C 
BRANCH  11  12
ATOM     12  C   UNL     1     300.680 323.704 647.411  1.00  0.00    -0.000 C 
BRANCH  12  13
ATOM     13  C   UNL     1     302.067 324.118 647.935  1.00  0.00    -0.000 C 
BRANCH  13  14
ATOM     14  C   UNL     1     303.124 323.010 647.774  1.00  0.00    -0.000 C 
BRANCH  14  15
ATOM     15  C   UNL     1     304.509 323.334 648.364  1.00  0.00    -0.000 C 
BRANCH  15  16
ATOM     16  C   UNL     1     304.633 322.949 649.849  1.00  0.00    -0.000 C 
BRANCH  16  17
ATOM     17  C   UNL     1     305.258 321.559 650.046  1.00  0.00    -0.003 C 
ATOM     18  C   UNL     1     306.087 321.457 651.326  1.00  0.00     0.004 C 
ENDBRANCH  16  17
ENDBRANCH  15  16
ENDBRANCH  14  15
ENDBRANCH  13  14
ENDBRANCH  12  13
ENDBRANCH  11  12
ENDBRANCH   1  11
TORSDOF 14
ENDMDL
MODEL 6
REMARK VINA RESULT:    -3.680      6.522      9.078
REMARK INTER + INTRA:          -8.703
REMARK INTER:                  -7.377
REMARK INTRA:                  -1.327
REMARK UNBOUND:                -2.012
REMARK SMILES CCCCCCCCCCCCCCCC(=O)[O-]
REMARK SMILES IDX 9 1 10 2 11 3 12 4 13 5 14 6 15 7 16 8 17 9 18 10 8 11 7 12
REMARK SMILES IDX 6 13 5 14 4 15 3 16 2 17 1 18
REMARK H PARENT
REMARK Flexibility Score: inf
ROOT
ATOM      1  C   UNL     1     300.111 326.990 645.153  1.00  0.00     0.000 C 
ENDROOT
BRANCH   1   2
ATOM      2  C   UNL     1     300.112 328.521 645.288  1.00  0.00     0.000 C 
BRANCH   2   3
ATOM      3  C   UNL     1     299.412 329.221 644.112  1.00  0.00     0.000 C 
BRANCH   3   4
ATOM      4  C   UNL     1     299.359 330.752 644.272  1.00  0.00     0.000 C 
BRANCH   4   5
ATOM      5  C   UNL     1     300.731 331.452 644.246  1.00  0.00     0.000 C 
BRANCH   5   6
ATOM      6  C   UNL     1     300.681 332.844 643.594  1.00  0.00     0.006 C 
BRANCH   6   7
ATOM      7  C   UNL     1     299.848 333.838 644.417  1.00  0.00     0.053 C 
BRANCH   7   8
ATOM      8  C   UNL     1     300.716 334.769 645.205  1.00  0.00     0.041 C 
ATOM      9  O   UNL     1     300.696 336.006 644.971  1.00  0.00    -0.550 OA
ATOM     10  O   UNL     1     301.575 334.267 646.174  1.00  0.00    -0.550 OA
ENDBRANCH   7   8
ENDBRANCH   6   7
ENDBRANCH   5   6
ENDBRANCH   4   5
ENDBRANCH   3   4
ENDBRANCH   2   3
ENDBRANCH   1   2
BRANCH   1  11
ATOM     11  C   UNL     1     299.000 326.326 645.985  1.00  0.00     0.000 C 
BRANCH  11  12
ATOM     12  C   UNL     1     298.888 324.816 645.721  1.00  0.00    -0.000 C 
BRANCH  12  13
ATOM     13  C   UNL     1     299.070 323.980 646.999  1.00  0.00    -0.000 C 
BRANCH  13  14
ATOM     14  C   UNL     1     300.135 324.560 647.949  1.00  0.00    -0.000 C 
BRANCH  14  15
ATOM     15  C   UNL     1     301.575 324.078 647.692  1.00  0.00    -0.000 C 
BRANCH  15  16
ATOM     16  C   UNL     1     302.529 325.221 647.303  1.00  0.00    -0.000 C 
BRANCH  16  17
ATOM     17  C   UNL     1     303.225 324.972 645.956  1.00  0.00    -0.003 C 
ATOM     18  C   UNL     1     302.429 324.043 645.039  1.00  0.00     0.004 C 
ENDBRANCH  16  17
ENDBRANCH  15  16
ENDBRANCH  14  15
ENDBRANCH  13  14
ENDBRANCH  12  13
ENDBRANCH  11  12
ENDBRANCH   1  11
TORSDOF 14
ENDMDL
MODEL 7
REMARK VINA RESULT:    -3.675      1.563      2.182
REMARK INTER + INTRA:          -8.695
REMARK INTER:                  -7.049
REMARK INTRA:                  -1.646
REMARK UNBOUND:                -2.012
REMARK SMILES CCCCCCCCCCCCCCCC(=O)[O-]
REMARK SMILES IDX 9 1 10 2 11 3 12 4 13 5 14 6 15 7 16 8 17 9 18 10 8 11 7 12
REMARK SMILES IDX 6 13 5 14 4 15 3 16 2 17 1 18
REMARK H PARENT
REMARK Flexibility Score: inf
ROOT
ATOM      1  C   UNL     1     301.124 323.639 647.444  1.00  0.00     0.000 C 
ENDROOT
BRANCH   1   2
ATOM      2  C   UNL     1     302.363 324.480 647.787  1.00  0.00     0.000 C 
BRANCH   2   3
ATOM      3  C   UNL     1     303.403 323.698 648.607  1.00  0.00     0.000 C 
BRANCH   3   4
ATOM      4  C   UNL     1     303.874 322.411 647.906  1.00  0.00     0.000 C 
BRANCH   4   5
ATOM      5  C   UNL     1     304.635 321.423 648.810  1.00  0.00     0.000 C 
BRANCH   5   6
ATOM      6  C   UNL     1     305.332 322.112 649.995  1.00  0.00     0.006 C 
BRANCH   6   7
ATOM      7  C   UNL     1     306.856 321.936 649.952  1.00  0.00     0.053 C 
BRANCH   7   8
ATOM      8  C   UNL     1     307.548 323.195 649.531  1.00  0.00     0.041 C 
ATOM      9  O   UNL     1     308.757 323.386 649.830  1.00  0.00    -0.550 OA
ATOM     10  O   UNL     1     306.849 324.176 648.839  1.00  0.00    -0.550 OA
ENDBRANCH   7   8
ENDBRANCH   6   7
ENDBRANCH   5   6
ENDBRANCH   4   5
ENDBRANCH   3   4
ENDBRANCH   2   3
ENDBRANCH   1   2
BRANCH   1  11
ATOM     11  C   UNL     1     299.813 324.319 647.876  1.00  0.00     0.000 C 
BRANCH  11  12
ATOM     12  C   UNL     1     299.200 325.179 646.758  1.00  0.00    -0.000 C 
BRANCH  12  13
ATOM     13  C   UNL     1     299.285 324.500 645.380  1.00  0.00    -0.000 C 
BRANCH  13  14
ATOM     14  C   UNL     1     299.595 325.490 644.242  1.00  0.00    -0.000 C 
BRANCH  14  15
ATOM     15  C   UNL     1     300.683 326.533 644.558  1.00  0.00    -0.000 C 
BRANCH  15  16
ATOM     16  C   UNL     1     302.104 325.945 644.535  1.00  0.00    -0.000 C 
BRANCH  16  17
ATOM     17  C   UNL     1     302.242 324.781 643.541  1.00  0.00    -0.003 C 
ATOM     18  C   UNL     1     302.956 323.569 644.141  1.00  0.00     0.004 C 
ENDBRANCH  16  17
ENDBRANCH  15  16
ENDBRANCH  14  15
ENDBRANCH  13  14
ENDBRANCH  12  13
ENDBRANCH  11  12
ENDBRANCH   1  11
TORSDOF 14
ENDMDL
MODEL 8
REMARK VINA RESULT:    -3.666      1.394      2.381
REMARK INTER + INTRA:          -8.680
REMARK INTER:                  -6.625
REMARK INTRA:                  -2.054
REMARK UNBOUND:                -2.012
REMARK SMILES CCCCCCCCCCCCCCCC(=O)[O-]
REMARK SMILES IDX 9 1 10 2 11 3 12 4 13 5 14 6 15 7 16 8 17 9 18 10 8 11 7 12
REMARK SMILES IDX 6 13 5 14 4 15 3 16 2 17 1 18
REMARK H PARENT
REMARK Flexibility Score: inf
ROOT
ATOM      1  C   UNL     1     298.935 324.379 645.795  1.00  0.00     0.000 C 
ENDROOT
BRANCH   1   2
ATOM      2  C   UNL     1     299.221 324.067 647.272  1.00  0.00     0.000 C 
BRANCH   2   3
ATOM      3  C   UNL     1     300.624 323.474 647.492  1.00  0.00     0.000 C 
BRANCH   3   4
ATOM      4  C   UNL     1     301.653 324.525 647.949  1.00  0.00     0.000 C 
BRANCH   4   5
ATOM      5  C   UNL     1     303.008 323.948 648.400  1.00  0.00     0.000 C 
BRANCH   5   6
ATOM      6  C   UNL     1     303.339 322.604 647.730  1.00  0.00     0.006 C 
BRANCH   6   7
ATOM      7  C   UNL     1     304.832 322.477 647.396  1.00  0.00     0.053 C 
BRANCH   7   8
ATOM      8  C   UNL     1     305.563 321.672 648.426  1.00  0.00     0.041 C 
ATOM      9  O   UNL     1     304.937 320.863 649.160  1.00  0.00    -0.550 OA
ATOM     10  O   UNL     1     306.931 321.841 648.600  1.00  0.00    -0.550 OA
ENDBRANCH   7   8
ENDBRANCH   6   7
ENDBRANCH   5   6
ENDBRANCH   4   5
ENDBRANCH   3   4
ENDBRANCH   2   3
ENDBRANCH   1   2
BRANCH   1  11
ATOM     11  C   UNL     1     298.927 325.891 645.504  1.00  0.00     0.000 C 
BRANCH  11  12
ATOM     12  C   UNL     1     299.097 326.203 644.008  1.00  0.00    -0.000 C 
BRANCH  12  13
ATOM     13  C   UNL     1     300.452 326.861 643.694  1.00  0.00    -0.000 C 
BRANCH  13  14
ATOM     14  C   UNL     1     301.524 326.565 644.760  1.00  0.00    -0.000 C 
BRANCH  14  15
ATOM     15  C   UNL     1     302.723 325.732 644.271  1.00  0.00    -0.000 C 
BRANCH  15  16
ATOM     16  C   UNL     1     302.542 324.222 644.509  1.00  0.00    -0.000 C 
BRANCH  16  17
ATOM     17  C   UNL     1     302.527 323.418 643.201  1.00  0.00    -0.003 C 
ATOM     18  C   UNL     1     301.137 323.338 642.569  1.00  0.00     0.004 C 
ENDBRANCH  16  17
ENDBRANCH  15  16
ENDBRANCH  14  15
ENDBRANCH  13  14
ENDBRANCH  12  13
ENDBRANCH  11  12
ENDBRANCH   1  11
TORSDOF 14
ENDMDL
