MODEL 1
REMARK VINA RESULT:    -5.341      0.000      0.000
REMARK INTER + INTRA:          -6.429
REMARK INTER:                  -6.278
REMARK INTRA:                  -0.151
REMARK UNBOUND:                -0.151
REMARK SMILES O=C([O-])C=Cc1ccc(O)c(O)c1
REMARK SMILES IDX 6 1 13 2 7 3 11 4 8 5 9 6 5 7 4 8 2 9 1 10 3 11 12 12 10 14
REMARK H PARENT 12 13 10 15
REMARK Flexibility Score: inf
ROOT
ATOM      1  C   UNL     1       7.129   4.350  10.157  1.00  0.00    -0.022 A 
ATOM      2  C   UNL     1       6.589   3.115   9.745  1.00  0.00     0.058 A 
ATOM      3  C   UNL     1       8.146   4.357  11.125  1.00  0.00     0.012 A 
ATOM      4  C   UNL     1       7.079   1.913  10.275  1.00  0.00     0.157 A 
ATOM      5  C   UNL     1       8.635   3.159  11.651  1.00  0.00     0.051 A 
ATOM      6  C   UNL     1       8.106   1.934  11.227  1.00  0.00     0.157 A 
ENDROOT
BRANCH   1   7
ATOM      7  C   UNL     1       6.637   5.650   9.635  1.00  0.00     0.010 C 
ATOM      8  C   UNL     1       6.822   6.822  10.262  1.00  0.00     0.025 C 
BRANCH   8   9
ATOM      9  C   UNL     1       6.309   8.091   9.720  1.00  0.00     0.064 C 
ATOM     10  O   UNL     1       6.227   9.123  10.440  1.00  0.00    -0.545 OA
ATOM     11  O   UNL     1       5.904   8.152   8.393  1.00  0.00    -0.545 OA
ENDBRANCH   8   9
ENDBRANCH   1   7
BRANCH   4  12
ATOM     12  O   UNL     1       6.547   0.691   9.864  1.00  0.00    -0.504 OA
ATOM     13  H   UNL     1       5.901   0.172  10.446  1.00  0.00     0.293 HD
ENDBRANCH   4  12
BRANCH   6  14
ATOM     14  O   UNL     1       8.592   0.736  11.748  1.00  0.00    -0.504 OA
ATOM     15  H   UNL     1       8.953   0.004  11.147  1.00  0.00     0.293 HD
ENDBRANCH   6  14
TORSDOF 4
ENDMDL
MODEL 2
REMARK VINA RESULT:    -5.227     12.743     14.127
REMARK INTER + INTRA:          -6.294
REMARK INTER:                  -6.144
REMARK INTRA:                  -0.150
REMARK UNBOUND:                -0.151
REMARK SMILES O=C([O-])C=Cc1ccc(O)c(O)c1
REMARK SMILES IDX 6 1 13 2 7 3 11 4 8 5 9 6 5 7 4 8 2 9 1 10 3 11 12 12 10 14
REMARK H PARENT 12 13 10 15
REMARK Flexibility Score: inf
ROOT
ATOM      1  C   UNL     1      10.790  -5.226  19.736  1.00  0.00    -0.022 A 
ATOM      2  C   UNL     1      10.835  -6.621  19.935  1.00  0.00     0.058 A 
ATOM      3  C   UNL     1       9.548  -4.614  19.501  1.00  0.00     0.012 A 
ATOM      4  C   UNL     1       9.655  -7.379  19.924  1.00  0.00     0.157 A 
ATOM      5  C   UNL     1       8.373  -5.370  19.492  1.00  0.00     0.051 A 
ATOM      6  C   UNL     1       8.422  -6.752  19.705  1.00  0.00     0.157 A 
ENDROOT
BRANCH   1   7
ATOM      7  C   UNL     1      12.010  -4.381  19.727  1.00  0.00     0.010 C 
ATOM      8  C   UNL     1      12.111  -3.226  19.053  1.00  0.00     0.025 C 
BRANCH   8   9
ATOM      9  C   UNL     1      13.343  -2.419  19.057  1.00  0.00     0.064 C 
ATOM     10  O   UNL     1      14.445  -2.912  19.420  1.00  0.00    -0.545 OA
ATOM     11  O   UNL     1      13.289  -1.091  18.657  1.00  0.00    -0.545 OA
ENDBRANCH   8   9
ENDBRANCH   1   7
BRANCH   4  12
ATOM     12  O   UNL     1       9.700  -8.758  20.125  1.00  0.00    -0.504 OA
ATOM     13  H   UNL     1      10.511  -9.207  20.534  1.00  0.00     0.293 HD
ENDBRANCH   4  12
BRANCH   6  14
ATOM     14  O   UNL     1       7.252  -7.510  19.698  1.00  0.00    -0.504 OA
ATOM     15  H   UNL     1       7.130  -8.302  20.319  1.00  0.00     0.293 HD
ENDBRANCH   6  14
TORSDOF 4
ENDMDL
MODEL 3
REMARK VINA RESULT:    -5.144     10.486     12.997
REMARK INTER + INTRA:          -6.197
REMARK INTER:                  -6.067
REMARK INTRA:                  -0.129
REMARK UNBOUND:                -0.151
REMARK SMILES O=C([O-])C=Cc1ccc(O)c(O)c1
REMARK SMILES IDX 6 1 13 2 7 3 11 4 8 5 9 6 5 7 4 8 2 9 1 10 3 11 12 12 10 14
REMARK H PARENT 12 13 10 15
REMARK Flexibility Score: inf
ROOT
ATOM      1  C   UNL     1       9.831  -4.606  19.385  1.00  0.00    -0.022 A 
ATOM      2  C   UNL     1       8.610  -5.300  19.264  1.00  0.00     0.058 A 
ATOM      3  C   UNL     1      10.978  -5.315  19.780  1.00  0.00     0.012 A 
ATOM      4  C   UNL     1       8.549  -6.679  19.509  1.00  0.00     0.157 A 
ATOM      5  C   UNL     1      10.915  -6.689  20.023  1.00  0.00     0.051 A 
ATOM      6  C   UNL     1       9.703  -7.376  19.886  1.00  0.00     0.157 A 
ENDROOT
BRANCH   1   7
ATOM      7  C   UNL     1       9.947  -3.145  19.148  1.00  0.00     0.010 C 
ATOM      8  C   UNL     1      10.537  -2.611  18.070  1.00  0.00     0.025 C 
BRANCH   8   9
ATOM      9  C   UNL     1      10.645  -1.155  17.874  1.00  0.00     0.064 C 
ATOM     10  O   UNL     1      11.768  -0.587  17.803  1.00  0.00    -0.545 OA
ATOM     11  O   UNL     1       9.489  -0.394  17.770  1.00  0.00    -0.545 OA
ENDBRANCH   8   9
ENDBRANCH   1   7
BRANCH   4  12
ATOM     12  O   UNL     1       7.341  -7.365  19.384  1.00  0.00    -0.504 OA
ATOM     13  H   UNL     1       6.606  -7.273  20.075  1.00  0.00     0.293 HD
ENDBRANCH   4  12
BRANCH   6  14
ATOM     14  O   UNL     1       9.637  -8.747  20.125  1.00  0.00    -0.504 OA
ATOM     15  H   UNL     1       8.749  -9.233  20.186  1.00  0.00     0.293 HD
ENDBRANCH   6  14
TORSDOF 4
ENDMDL
MODEL 4
REMARK VINA RESULT:    -5.112      1.296      6.104
REMARK INTER + INTRA:          -6.159
REMARK INTER:                  -6.017
REMARK INTRA:                  -0.142
REMARK UNBOUND:                -0.151
REMARK SMILES O=C([O-])C=Cc1ccc(O)c(O)c1
REMARK SMILES IDX 6 1 13 2 7 3 11 4 8 5 9 6 5 7 4 8 2 9 1 10 3 11 12 12 10 14
REMARK H PARENT 12 13 10 15
REMARK Flexibility Score: inf
ROOT
ATOM      1  C   UNL     1       7.303   5.383  10.776  1.00  0.00    -0.022 A 
ATOM      2  C   UNL     1       7.792   6.603  11.286  1.00  0.00     0.058 A 
ATOM      3  C   UNL     1       6.331   5.411   9.763  1.00  0.00     0.012 A 
ATOM      4  C   UNL     1       7.332   7.824  10.771  1.00  0.00     0.157 A 
ATOM      5  C   UNL     1       5.875   6.628   9.250  1.00  0.00     0.051 A 
ATOM      6  C   UNL     1       6.375   7.836   9.750  1.00  0.00     0.157 A 
ENDROOT
BRANCH   1   7
ATOM      7  C   UNL     1       7.749   4.065  11.295  1.00  0.00     0.010 C 
ATOM      8  C   UNL     1       8.081   3.030  10.510  1.00  0.00     0.025 C 
BRANCH   8   9
ATOM      9  C   UNL     1       8.507   1.732  11.060  1.00  0.00     0.064 C 
ATOM     10  O   UNL     1       8.211   1.394  12.238  1.00  0.00    -0.545 OA
ATOM     11  O   UNL     1       9.251   0.867  10.269  1.00  0.00    -0.545 OA
ENDBRANCH   8   9
ENDBRANCH   1   7
BRANCH   4  12
ATOM     12  O   UNL     1       7.819   9.029  11.273  1.00  0.00    -0.504 OA
ATOM     13  H   UNL     1       7.797   9.880  10.723  1.00  0.00     0.293 HD
ENDBRANCH   4  12
BRANCH   6  14
ATOM     14  O   UNL     1       5.924   9.053   9.239  1.00  0.00    -0.504 OA
ATOM     15  H   UNL     1       6.294   9.936   9.569  1.00  0.00     0.293 HD
ENDBRANCH   6  14
TORSDOF 4
ENDMDL
MODEL 5
REMARK VINA RESULT:    -5.075      0.887      2.028
REMARK INTER + INTRA:          -6.116
REMARK INTER:                  -5.962
REMARK INTRA:                  -0.153
REMARK UNBOUND:                -0.151
REMARK SMILES O=C([O-])C=Cc1ccc(O)c(O)c1
REMARK SMILES IDX 6 1 13 2 7 3 11 4 8 5 9 6 5 7 4 8 2 9 1 10 3 11 12 12 10 14
REMARK H PARENT 12 13 10 15
REMARK Flexibility Score: inf
ROOT
ATOM      1  C   UNL     1       7.378   4.668  10.591  1.00  0.00    -0.022 A 
ATOM      2  C   UNL     1       8.086   3.853  11.497  1.00  0.00     0.058 A 
ATOM      3  C   UNL     1       6.771   4.072   9.473  1.00  0.00     0.012 A 
ATOM      4  C   UNL     1       8.161   2.467  11.297  1.00  0.00     0.157 A 
ATOM      5  C   UNL     1       6.846   2.692   9.276  1.00  0.00     0.051 A 
ATOM      6  C   UNL     1       7.538   1.885  10.187  1.00  0.00     0.157 A 
ENDROOT
BRANCH   1   7
ATOM      7  C   UNL     1       7.278   6.141  10.752  1.00  0.00     0.010 C 
ATOM      8  C   UNL     1       6.612   6.938   9.904  1.00  0.00     0.025 C 
BRANCH   8   9
ATOM      9  C   UNL     1       6.545   8.398  10.088  1.00  0.00     0.064 C 
ATOM     10  O   UNL     1       5.876   9.125   9.304  1.00  0.00    -0.545 OA
ATOM     11  O   UNL     1       7.233   8.985  11.141  1.00  0.00    -0.545 OA
ENDBRANCH   8   9
ENDBRANCH   1   7
BRANCH   4  12
ATOM     12  O   UNL     1       8.858   1.661  12.196  1.00  0.00    -0.504 OA
ATOM     13  H   UNL     1       8.382   0.987  12.784  1.00  0.00     0.293 HD
ENDBRANCH   4  12
BRANCH   6  14
ATOM     14  O   UNL     1       7.613   0.506   9.995  1.00  0.00    -0.504 OA
ATOM     15  H   UNL     1       7.161  -0.143  10.629  1.00  0.00     0.293 HD
ENDBRANCH   6  14
TORSDOF 4
ENDMDL
MODEL 6
REMARK VINA RESULT:    -4.832      9.723     13.123
REMARK INTER + INTRA:          -5.831
REMARK INTER:                  -5.692
REMARK INTRA:                  -0.138
REMARK UNBOUND:                -0.151
REMARK SMILES O=C([O-])C=Cc1ccc(O)c(O)c1
REMARK SMILES IDX 6 1 13 2 7 3 11 4 8 5 9 6 5 7 4 8 2 9 1 10 3 11 12 12 10 14
REMARK H PARENT 12 13 10 15
REMARK Flexibility Score: inf
ROOT
ATOM      1  C   UNL     1       9.876  -3.325  18.615  1.00  0.00    -0.022 A 
ATOM      2  C   UNL     1       9.828  -2.783  17.314  1.00  0.00     0.058 A 
ATOM      3  C   UNL     1      10.582  -2.633  19.613  1.00  0.00     0.012 A 
ATOM      4  C   UNL     1      10.452  -1.560  17.030  1.00  0.00     0.157 A 
ATOM      5  C   UNL     1      11.202  -1.414  19.329  1.00  0.00     0.051 A 
ATOM      6  C   UNL     1      11.137  -0.873  18.039  1.00  0.00     0.157 A 
ENDROOT
BRANCH   1   7
ATOM      7  C   UNL     1       9.242  -4.622  18.964  1.00  0.00     0.010 C 
ATOM      8  C   UNL     1       9.917  -5.673  19.452  1.00  0.00     0.025 C 
BRANCH   8   9
ATOM      9  C   UNL     1       9.256  -6.948  19.775  1.00  0.00     0.064 C 
ATOM     10  O   UNL     1       8.000  -7.053  19.768  1.00  0.00    -0.545 OA
ATOM     11  O   UNL     1      10.030  -8.054  20.098  1.00  0.00    -0.545 OA
ENDBRANCH   8   9
ENDBRANCH   1   7
BRANCH   4  12
ATOM     12  O   UNL     1      10.399  -1.023  15.745  1.00  0.00    -0.504 OA
ATOM     13  H   UNL     1       9.519  -0.763  15.315  1.00  0.00     0.293 HD
ENDBRANCH   4  12
BRANCH   6  14
ATOM     14  O   UNL     1      11.753   0.345  17.752  1.00  0.00    -0.504 OA
ATOM     15  H   UNL     1      12.759   0.455  17.806  1.00  0.00     0.293 HD
ENDBRANCH   6  14
TORSDOF 4
ENDMDL
MODEL 7
REMARK VINA RESULT:    -4.714      2.446      6.533
REMARK INTER + INTRA:          -5.692
REMARK INTER:                  -5.571
REMARK INTRA:                  -0.121
REMARK UNBOUND:                -0.151
REMARK SMILES O=C([O-])C=Cc1ccc(O)c(O)c1
REMARK SMILES IDX 6 1 13 2 7 3 11 4 8 5 9 6 5 7 4 8 2 9 1 10 3 11 12 12 10 14
REMARK H PARENT 12 13 10 15
REMARK Flexibility Score: inf
ROOT
ATOM      1  C   UNL     1       8.117   2.175  11.073  1.00  0.00    -0.022 A 
ATOM      2  C   UNL     1       8.475   3.462  11.521  1.00  0.00     0.058 A 
ATOM      3  C   UNL     1       7.252   2.055   9.972  1.00  0.00     0.012 A 
ATOM      4  C   UNL     1       7.996   4.604  10.861  1.00  0.00     0.157 A 
ATOM      5  C   UNL     1       6.777   3.193   9.315  1.00  0.00     0.051 A 
ATOM      6  C   UNL     1       7.149   4.469   9.755  1.00  0.00     0.157 A 
ENDROOT
BRANCH   1   7
ATOM      7  C   UNL     1       8.587   0.936  11.742  1.00  0.00     0.010 C 
ATOM      8  C   UNL     1       9.863   0.524  11.734  1.00  0.00     0.025 C 
BRANCH   8   9
ATOM      9  C   UNL     1      10.291  -0.718  12.399  1.00  0.00     0.064 C 
ATOM     10  O   UNL     1      10.219  -0.846  13.652  1.00  0.00    -0.545 OA
ATOM     11  O   UNL     1      10.787  -1.765  11.635  1.00  0.00    -0.545 OA
ENDBRANCH   8   9
ENDBRANCH   1   7
BRANCH   4  12
ATOM     12  O   UNL     1       8.355   5.876  11.303  1.00  0.00    -0.504 OA
ATOM     13  H   UNL     1       8.283   6.138  12.279  1.00  0.00     0.293 HD
ENDBRANCH   4  12
BRANCH   6  14
ATOM     14  O   UNL     1       6.678   5.607   9.101  1.00  0.00    -0.504 OA
ATOM     15  H   UNL     1       5.840   5.582   8.532  1.00  0.00     0.293 HD
ENDBRANCH   6  14
TORSDOF 4
ENDMDL
MODEL 8
REMARK VINA RESULT:    -4.475     11.695     13.347
REMARK INTER + INTRA:          -5.410
REMARK INTER:                  -5.289
REMARK INTRA:                  -0.121
REMARK UNBOUND:                -0.151
REMARK SMILES O=C([O-])C=Cc1ccc(O)c(O)c1
REMARK SMILES IDX 6 1 13 2 7 3 11 4 8 5 9 6 5 7 4 8 2 9 1 10 3 11 12 12 10 14
REMARK H PARENT 12 13 10 15
REMARK Flexibility Score: inf
ROOT
ATOM      1  C   UNL     1      10.131  -4.718  19.561  1.00  0.00    -0.022 A 
ATOM      2  C   UNL     1       8.801  -4.257  19.644  1.00  0.00     0.058 A 
ATOM      3  C   UNL     1      10.381  -6.094  19.693  1.00  0.00     0.012 A 
ATOM      4  C   UNL     1       7.745  -5.162  19.830  1.00  0.00     0.157 A 
ATOM      5  C   UNL     1       9.329  -6.993  19.877  1.00  0.00     0.051 A 
ATOM      6  C   UNL     1       8.009  -6.532  19.943  1.00  0.00     0.157 A 
ENDROOT
BRANCH   1   7
ATOM      7  C   UNL     1      11.283  -3.802  19.377  1.00  0.00     0.010 C 
ATOM      8  C   UNL     1      11.315  -2.820  18.464  1.00  0.00     0.025 C 
BRANCH   8   9
ATOM      9  C   UNL     1      12.483  -1.937  18.301  1.00  0.00     0.064 C 
ATOM     10  O   UNL     1      13.645  -2.408  18.174  1.00  0.00    -0.545 OA
ATOM     11  O   UNL     1      12.300  -0.561  18.291  1.00  0.00    -0.545 OA
ENDBRANCH   8   9
ENDBRANCH   1   7
BRANCH   4  12
ATOM     12  O   UNL     1       6.430  -4.705  19.907  1.00  0.00    -0.504 OA
ATOM     13  H   UNL     1       6.066  -4.278  20.751  1.00  0.00     0.293 HD
ENDBRANCH   4  12
BRANCH   6  14
ATOM     14  O   UNL     1       6.955  -7.427  20.124  1.00  0.00    -0.504 OA
ATOM     15  H   UNL     1       6.086  -7.333  19.612  1.00  0.00     0.293 HD
ENDBRANCH   6  14
TORSDOF 4
ENDMDL
MODEL 9
REMARK VINA RESULT:    -4.447      8.682     11.522
REMARK INTER + INTRA:          -5.377
REMARK INTER:                  -5.242
REMARK INTRA:                  -0.136
REMARK UNBOUND:                -0.151
REMARK SMILES O=C([O-])C=Cc1ccc(O)c(O)c1
REMARK SMILES IDX 6 1 13 2 7 3 11 4 8 5 9 6 5 7 4 8 2 9 1 10 3 11 12 12 10 14
REMARK H PARENT 12 13 10 15
REMARK Flexibility Score: inf
ROOT
ATOM      1  C   UNL     1      10.692  -2.114  17.474  1.00  0.00    -0.022 A 
ATOM      2  C   UNL     1      10.330  -1.561  16.229  1.00  0.00     0.058 A 
ATOM      3  C   UNL     1       9.786  -2.966  18.127  1.00  0.00     0.012 A 
ATOM      4  C   UNL     1       9.096  -1.876  15.643  1.00  0.00     0.157 A 
ATOM      5  C   UNL     1       8.558  -3.280  17.541  1.00  0.00     0.051 A 
ATOM      6  C   UNL     1       8.210  -2.740  16.298  1.00  0.00     0.157 A 
ENDROOT
BRANCH   1   7
ATOM      7  C   UNL     1      11.981  -1.803  18.142  1.00  0.00     0.010 C 
ATOM      8  C   UNL     1      12.908  -2.726  18.438  1.00  0.00     0.025 C 
BRANCH   8   9
ATOM      9  C   UNL     1      14.171  -2.382  19.113  1.00  0.00     0.064 C 
ATOM     10  O   UNL     1      14.960  -3.278  19.519  1.00  0.00    -0.545 OA
ATOM     11  O   UNL     1      14.497  -1.047  19.309  1.00  0.00    -0.545 OA
ENDBRANCH   8   9
ENDBRANCH   1   7
BRANCH   4  12
ATOM     12  O   UNL     1       8.741  -1.331  14.410  1.00  0.00    -0.504 OA
ATOM     13  H   UNL     1       9.385  -0.755  13.880  1.00  0.00     0.293 HD
ENDBRANCH   4  12
BRANCH   6  14
ATOM     14  O   UNL     1       6.986  -3.053  15.709  1.00  0.00    -0.504 OA
ATOM     15  H   UNL     1       6.107  -2.846  16.170  1.00  0.00     0.293 HD
ENDBRANCH   6  14
TORSDOF 4
ENDMDL
