MODEL 1
REMARK VINA RESULT:    -4.806      0.000      0.000
REMARK INTER + INTRA:         -10.805
REMARK INTER:                  -8.740
REMARK INTRA:                  -2.066
REMARK UNBOUND:                -2.066
REMARK SMILES CCCCCCCCCCCCCCCC(=O)[O-]
REMARK SMILES IDX 9 1 10 2 11 3 12 4 13 5 14 6 15 7 16 8 17 9 18 10 8 11 7 12
REMARK SMILES IDX 6 13 5 14 4 15 3 16 2 17 1 18
REMARK H PARENT
REMARK Flexibility Score: inf
ROOT
ATOM      1  C   UNL     1      21.031  18.217  49.104  1.00  0.00     0.000 C 
ENDROOT
BRANCH   1   2
ATOM      2  C   UNL     1      20.191  19.502  49.209  1.00  0.00     0.000 C 
BRANCH   2   3
ATOM      3  C   UNL     1      20.077  20.325  47.913  1.00  0.00     0.000 C 
BRANCH   3   4
ATOM      4  C   UNL     1      18.627  20.710  47.570  1.00  0.00     0.000 C 
BRANCH   4   5
ATOM      5  C   UNL     1      18.469  21.177  46.115  1.00  0.00     0.000 C 
BRANCH   5   6
ATOM      6  C   UNL     1      19.402  20.425  45.148  1.00  0.00     0.006 C 
BRANCH   6   7
ATOM      7  C   UNL     1      18.625  19.708  44.036  1.00  0.00     0.053 C 
BRANCH   7   8
ATOM      8  C   UNL     1      18.012  20.677  43.072  1.00  0.00     0.041 C 
ATOM      9  O   UNL     1      18.617  21.738  42.768  1.00  0.00    -0.550 OA
ATOM     10  O   UNL     1      16.758  20.421  42.533  1.00  0.00    -0.550 OA
ENDBRANCH   7   8
ENDBRANCH   6   7
ENDBRANCH   5   6
ENDBRANCH   4   5
ENDBRANCH   3   4
ENDBRANCH   2   3
ENDBRANCH   1   2
BRANCH   1  11
ATOM     11  C   UNL     1      21.265  17.767  47.653  1.00  0.00     0.000 C 
BRANCH  11  12
ATOM     12  C   UNL     1      20.421  16.540  47.265  1.00  0.00    -0.000 C 
BRANCH  12  13
ATOM     13  C   UNL     1      19.155  16.890  46.456  1.00  0.00    -0.000 C 
BRANCH  13  14
ATOM     14  C   UNL     1      17.918  17.054  47.357  1.00  0.00    -0.000 C 
BRANCH  14  15
ATOM     15  C   UNL     1      16.726  17.681  46.618  1.00  0.00    -0.000 C 
BRANCH  15  16
ATOM     16  C   UNL     1      15.823  16.628  45.953  1.00  0.00    -0.000 C 
BRANCH  16  17
ATOM     17  C   UNL     1      16.003  15.229  46.562  1.00  0.00    -0.003 C 
ATOM     18  C   UNL     1      14.925  14.245  46.111  1.00  0.00     0.004 C 
ENDBRANCH  16  17
ENDBRANCH  15  16
ENDBRANCH  14  15
ENDBRANCH  13  14
ENDBRANCH  12  13
ENDBRANCH  11  12
ENDBRANCH   1  11
TORSDOF 14
ENDMDL
MODEL 2
REMARK VINA RESULT:    -4.781      1.622      4.251
REMARK INTER + INTRA:         -10.759
REMARK INTER:                  -8.446
REMARK INTRA:                  -2.312
REMARK UNBOUND:                -2.066
REMARK SMILES CCCCCCCCCCCCCCCC(=O)[O-]
REMARK SMILES IDX 9 1 10 2 11 3 12 4 13 5 14 6 15 7 16 8 17 9 18 10 8 11 7 12
REMARK SMILES IDX 6 13 5 14 4 15 3 16 2 17 1 18
REMARK H PARENT
REMARK Flexibility Score: inf
ROOT
ATOM      1  C   UNL     1      20.344  16.080  47.132  1.00  0.00     0.000 C 
ENDROOT
BRANCH   1   2
ATOM      2  C   UNL     1      18.918  16.067  46.551  1.00  0.00     0.000 C 
BRANCH   2   3
ATOM      3  C   UNL     1      17.898  16.956  47.284  1.00  0.00     0.000 C 
BRANCH   3   4
ATOM      4  C   UNL     1      16.865  17.592  46.336  1.00  0.00     0.000 C 
BRANCH   4   5
ATOM      5  C   UNL     1      17.473  17.990  44.982  1.00  0.00     0.000 C 
BRANCH   5   6
ATOM      6  C   UNL     1      17.078  19.415  44.552  1.00  0.00     0.006 C 
BRANCH   6   7
ATOM      7  C   UNL     1      18.099  20.029  43.584  1.00  0.00     0.053 C 
BRANCH   7   8
ATOM      8  C   UNL     1      18.201  21.514  43.752  1.00  0.00     0.041 C 
ATOM      9  O   UNL     1      18.661  22.227  42.822  1.00  0.00    -0.550 OA
ATOM     10  O   UNL     1      17.814  22.106  44.947  1.00  0.00    -0.550 OA
ENDBRANCH   7   8
ENDBRANCH   6   7
ENDBRANCH   5   6
ENDBRANCH   4   5
ENDBRANCH   3   4
ENDBRANCH   2   3
ENDBRANCH   1   2
BRANCH   1  11
ATOM     11  C   UNL     1      20.632  17.320  47.992  1.00  0.00     0.000 C 
BRANCH  11  12
ATOM     12  C   UNL     1      21.441  18.392  47.242  1.00  0.00    -0.000 C 
BRANCH  12  13
ATOM     13  C   UNL     1      20.581  19.292  46.329  1.00  0.00    -0.000 C 
BRANCH  13  14
ATOM     14  C   UNL     1      20.178  20.605  47.024  1.00  0.00    -0.000 C 
BRANCH  14  15
ATOM     15  C   UNL     1      18.919  20.454  47.891  1.00  0.00    -0.000 C 
BRANCH  15  16
ATOM     16  C   UNL     1      19.089  21.070  49.291  1.00  0.00    -0.000 C 
BRANCH  16  17
ATOM     17  C   UNL     1      20.527  20.946  49.817  1.00  0.00    -0.003 C 
ATOM     18  C   UNL     1      20.750  19.670  50.630  1.00  0.00     0.004 C 
ENDBRANCH  16  17
ENDBRANCH  15  16
ENDBRANCH  14  15
ENDBRANCH  13  14
ENDBRANCH  12  13
ENDBRANCH  11  12
ENDBRANCH   1  11
TORSDOF 14
ENDMDL
MODEL 3
REMARK VINA RESULT:    -4.727      2.058      4.497
REMARK INTER + INTRA:         -10.661
REMARK INTER:                  -8.134
REMARK INTRA:                  -2.527
REMARK UNBOUND:                -2.066
REMARK SMILES CCCCCCCCCCCCCCCC(=O)[O-]
REMARK SMILES IDX 9 1 10 2 11 3 12 4 13 5 14 6 15 7 16 8 17 9 18 10 8 11 7 12
REMARK SMILES IDX 6 13 5 14 4 15 3 16 2 17 1 18
REMARK H PARENT
REMARK Flexibility Score: inf
ROOT
ATOM      1  C   UNL     1      20.442  16.468  47.274  1.00  0.00     0.000 C 
ENDROOT
BRANCH   1   2
ATOM      2  C   UNL     1      19.119  16.548  46.490  1.00  0.00     0.000 C 
BRANCH   2   3
ATOM      3  C   UNL     1      17.906  17.052  47.292  1.00  0.00     0.000 C 
BRANCH   3   4
ATOM      4  C   UNL     1      16.641  17.215  46.430  1.00  0.00     0.000 C 
BRANCH   4   5
ATOM      5  C   UNL     1      16.826  16.675  45.003  1.00  0.00     0.000 C 
BRANCH   5   6
ATOM      6  C   UNL     1      15.950  17.411  43.974  1.00  0.00     0.006 C 
BRANCH   6   7
ATOM      7  C   UNL     1      15.200  18.597  44.597  1.00  0.00     0.053 C 
BRANCH   7   8
ATOM      8  C   UNL     1      13.735  18.552  44.290  1.00  0.00     0.041 C 
ATOM      9  O   UNL     1      13.340  18.344  43.113  1.00  0.00    -0.550 OA
ATOM     10  O   UNL     1      12.806  18.770  45.300  1.00  0.00    -0.550 OA
ENDBRANCH   7   8
ENDBRANCH   6   7
ENDBRANCH   5   6
ENDBRANCH   4   5
ENDBRANCH   3   4
ENDBRANCH   2   3
ENDBRANCH   1   2
BRANCH   1  11
ATOM     11  C   UNL     1      21.109  17.838  47.471  1.00  0.00     0.000 C 
BRANCH  11  12
ATOM     12  C   UNL     1      20.900  18.405  48.886  1.00  0.00    -0.000 C 
BRANCH  12  13
ATOM     13  C   UNL     1      20.167  19.763  48.908  1.00  0.00    -0.000 C 
BRANCH  13  14
ATOM     14  C   UNL     1      19.990  20.348  47.496  1.00  0.00    -0.000 C 
BRANCH  14  15
ATOM     15  C   UNL     1      18.563  20.857  47.239  1.00  0.00    -0.000 C 
BRANCH  15  16
ATOM     16  C   UNL     1      18.066  20.530  45.820  1.00  0.00    -0.000 C 
BRANCH  16  17
ATOM     17  C   UNL     1      19.125  19.804  44.978  1.00  0.00    -0.003 C 
ATOM     18  C   UNL     1      18.802  19.818  43.484  1.00  0.00     0.004 C 
ENDBRANCH  16  17
ENDBRANCH  15  16
ENDBRANCH  14  15
ENDBRANCH  13  14
ENDBRANCH  12  13
ENDBRANCH  11  12
ENDBRANCH   1  11
TORSDOF 14
ENDMDL
MODEL 4
REMARK VINA RESULT:    -4.718      2.390      4.675
REMARK INTER + INTRA:         -10.645
REMARK INTER:                  -8.276
REMARK INTRA:                  -2.370
REMARK UNBOUND:                -2.066
REMARK SMILES CCCCCCCCCCCCCCCC(=O)[O-]
REMARK SMILES IDX 9 1 10 2 11 3 12 4 13 5 14 6 15 7 16 8 17 9 18 10 8 11 7 12
REMARK SMILES IDX 6 13 5 14 4 15 3 16 2 17 1 18
REMARK H PARENT
REMARK Flexibility Score: inf
ROOT
ATOM      1  C   UNL     1      21.493  18.105  47.919  1.00  0.00     0.000 C 
ENDROOT
BRANCH   1   2
ATOM      2  C   UNL     1      21.530  16.582  47.700  1.00  0.00     0.000 C 
BRANCH   2   3
ATOM      3  C   UNL     1      20.215  15.953  47.205  1.00  0.00     0.000 C 
BRANCH   3   4
ATOM      4  C   UNL     1      19.310  16.956  46.467  1.00  0.00     0.000 C 
BRANCH   4   5
ATOM      5  C   UNL     1      17.971  17.183  47.186  1.00  0.00     0.000 C 
BRANCH   5   6
ATOM      6  C   UNL     1      16.788  17.302  46.208  1.00  0.00     0.006 C 
BRANCH   6   7
ATOM      7  C   UNL     1      17.105  16.684  44.840  1.00  0.00     0.053 C 
BRANCH   7   8
ATOM      8  C   UNL     1      16.243  15.492  44.554  1.00  0.00     0.041 C 
ATOM      9  O   UNL     1      16.555  14.690  43.634  1.00  0.00    -0.550 OA
ATOM     10  O   UNL     1      15.081  15.284  45.284  1.00  0.00    -0.550 OA
ENDBRANCH   7   8
ENDBRANCH   6   7
ENDBRANCH   5   6
ENDBRANCH   4   5
ENDBRANCH   3   4
ENDBRANCH   2   3
ENDBRANCH   1   2
BRANCH   1  11
ATOM     11  C   UNL     1      20.846  18.506  49.254  1.00  0.00     0.000 C 
BRANCH  11  12
ATOM     12  C   UNL     1      20.117  19.858  49.182  1.00  0.00    -0.000 C 
BRANCH  12  13
ATOM     13  C   UNL     1      20.019  20.434  47.753  1.00  0.00    -0.000 C 
BRANCH  13  14
ATOM     14  C   UNL     1      18.609  20.962  47.437  1.00  0.00    -0.000 C 
BRANCH  14  15
ATOM     15  C   UNL     1      18.176  20.666  45.993  1.00  0.00    -0.000 C 
BRANCH  15  16
ATOM     16  C   UNL     1      19.364  20.315  45.080  1.00  0.00    -0.000 C 
BRANCH  16  17
ATOM     17  C   UNL     1      18.916  19.784  43.710  1.00  0.00    -0.003 C 
ATOM     18  C   UNL     1      17.464  20.135  43.386  1.00  0.00     0.004 C 
ENDBRANCH  16  17
ENDBRANCH  15  16
ENDBRANCH  14  15
ENDBRANCH  13  14
ENDBRANCH  12  13
ENDBRANCH  11  12
ENDBRANCH   1  11
TORSDOF 14
ENDMDL
MODEL 5
REMARK VINA RESULT:    -4.708      3.802      6.480
REMARK INTER + INTRA:         -10.626
REMARK INTER:                  -8.595
REMARK INTRA:                  -2.031
REMARK UNBOUND:                -2.066
REMARK SMILES CCCCCCCCCCCCCCCC(=O)[O-]
REMARK SMILES IDX 9 1 10 2 11 3 12 4 13 5 14 6 15 7 16 8 17 9 18 10 8 11 7 12
REMARK SMILES IDX 6 13 5 14 4 15 3 16 2 17 1 18
REMARK H PARENT
REMARK Flexibility Score: inf
ROOT
ATOM      1  C   UNL     1      16.780  17.820  46.425  1.00  0.00     0.000 C 
ENDROOT
BRANCH   1   2
ATOM      2  C   UNL     1      17.591  16.775  47.212  1.00  0.00     0.000 C 
BRANCH   2   3
ATOM      3  C   UNL     1      18.810  16.192  46.474  1.00  0.00     0.000 C 
BRANCH   3   4
ATOM      4  C   UNL     1      20.141  16.824  46.919  1.00  0.00     0.000 C 
BRANCH   4   5
ATOM      5  C   UNL     1      20.107  17.306  48.378  1.00  0.00     0.000 C 
BRANCH   5   6
ATOM      6  C   UNL     1      21.357  16.882  49.170  1.00  0.00     0.006 C 
BRANCH   6   7
ATOM      7  C   UNL     1      22.509  16.460  48.248  1.00  0.00     0.053 C 
BRANCH   7   8
ATOM      8  C   UNL     1      23.274  15.300  48.808  1.00  0.00     0.041 C 
ATOM      9  O   UNL     1      24.048  14.635  48.070  1.00  0.00    -0.550 OA
ATOM     10  O   UNL     1      23.109  14.936  50.138  1.00  0.00    -0.550 OA
ENDBRANCH   7   8
ENDBRANCH   6   7
ENDBRANCH   5   6
ENDBRANCH   4   5
ENDBRANCH   3   4
ENDBRANCH   2   3
ENDBRANCH   1   2
BRANCH   1  11
ATOM     11  C   UNL     1      17.161  17.882  44.937  1.00  0.00     0.000 C 
BRANCH  11  12
ATOM     12  C   UNL     1      17.568  19.294  44.483  1.00  0.00    -0.000 C 
BRANCH  12  13
ATOM     13  C   UNL     1      19.093  19.532  44.490  1.00  0.00    -0.000 C 
BRANCH  13  14
ATOM     14  C   UNL     1      19.497  20.665  45.449  1.00  0.00    -0.000 C 
BRANCH  14  15
ATOM     15  C   UNL     1      18.299  21.258  46.206  1.00  0.00    -0.000 C 
BRANCH  15  16
ATOM     16  C   UNL     1      18.374  21.005  47.721  1.00  0.00    -0.000 C 
BRANCH  16  17
ATOM     17  C   UNL     1      19.790  20.636  48.187  1.00  0.00    -0.003 C 
ATOM     18  C   UNL     1      19.968  20.768  49.699  1.00  0.00     0.004 C 
ENDBRANCH  16  17
ENDBRANCH  15  16
ENDBRANCH  14  15
ENDBRANCH  13  14
ENDBRANCH  12  13
ENDBRANCH  11  12
ENDBRANCH   1  11
TORSDOF 14
ENDMDL
MODEL 6
REMARK VINA RESULT:    -4.697      4.029      6.702
REMARK INTER + INTRA:         -10.607
REMARK INTER:                  -8.688
REMARK INTRA:                  -1.919
REMARK UNBOUND:                -2.066
REMARK SMILES CCCCCCCCCCCCCCCC(=O)[O-]
REMARK SMILES IDX 9 1 10 2 11 3 12 4 13 5 14 6 15 7 16 8 17 9 18 10 8 11 7 12
REMARK SMILES IDX 6 13 5 14 4 15 3 16 2 17 1 18
REMARK H PARENT
REMARK Flexibility Score: inf
ROOT
ATOM      1  C   UNL     1      17.831  17.424  46.980  1.00  0.00     0.000 C 
ENDROOT
BRANCH   1   2
ATOM      2  C   UNL     1      18.501  16.125  46.496  1.00  0.00     0.000 C 
BRANCH   2   3
ATOM      3  C   UNL     1      19.987  15.970  46.868  1.00  0.00     0.000 C 
BRANCH   3   4
ATOM      4  C   UNL     1      20.675  17.314  47.168  1.00  0.00     0.000 C 
BRANCH   4   5
ATOM      5  C   UNL     1      21.807  17.180  48.198  1.00  0.00     0.000 C 
BRANCH   5   6
ATOM      6  C   UNL     1      21.999  15.730  48.680  1.00  0.00     0.006 C 
BRANCH   6   7
ATOM      7  C   UNL     1      23.345  15.146  48.231  1.00  0.00     0.053 C 
BRANCH   7   8
ATOM      8  C   UNL     1      23.244  13.681  47.932  1.00  0.00     0.041 C 
ATOM      9  O   UNL     1      22.215  13.218  47.376  1.00  0.00    -0.550 OA
ATOM     10  O   UNL     1      24.275  12.825  48.296  1.00  0.00    -0.550 OA
ENDBRANCH   7   8
ENDBRANCH   6   7
ENDBRANCH   5   6
ENDBRANCH   4   5
ENDBRANCH   3   4
ENDBRANCH   2   3
ENDBRANCH   1   2
BRANCH   1  11
ATOM     11  C   UNL     1      16.759  17.946  46.011  1.00  0.00     0.000 C 
BRANCH  11  12
ATOM     12  C   UNL     1      17.163  19.264  45.328  1.00  0.00    -0.000 C 
BRANCH  12  13
ATOM     13  C   UNL     1      18.416  19.141  44.436  1.00  0.00    -0.000 C 
BRANCH  13  14
ATOM     14  C   UNL     1      19.548  20.078  44.893  1.00  0.00    -0.000 C 
BRANCH  14  15
ATOM     15  C   UNL     1      19.180  20.882  46.151  1.00  0.00    -0.000 C 
BRANCH  15  16
ATOM     16  C   UNL     1      20.113  20.582  47.337  1.00  0.00    -0.000 C 
BRANCH  16  17
ATOM     17  C   UNL     1      19.364  20.537  48.677  1.00  0.00    -0.003 C 
ATOM     18  C   UNL     1      20.293  20.278  49.863  1.00  0.00     0.004 C 
ENDBRANCH  16  17
ENDBRANCH  15  16
ENDBRANCH  14  15
ENDBRANCH  13  14
ENDBRANCH  12  13
ENDBRANCH  11  12
ENDBRANCH   1  11
TORSDOF 14
ENDMDL
MODEL 7
REMARK VINA RESULT:    -4.679      4.562      7.156
REMARK INTER + INTRA:         -10.574
REMARK INTER:                  -8.712
REMARK INTRA:                  -1.862
REMARK UNBOUND:                -2.066
REMARK SMILES CCCCCCCCCCCCCCCC(=O)[O-]
REMARK SMILES IDX 9 1 10 2 11 3 12 4 13 5 14 6 15 7 16 8 17 9 18 10 8 11 7 12
REMARK SMILES IDX 6 13 5 14 4 15 3 16 2 17 1 18
REMARK H PARENT
REMARK Flexibility Score: inf
ROOT
ATOM      1  C   UNL     1      19.544  16.924  46.667  1.00  0.00     0.000 C 
ENDROOT
BRANCH   1   2
ATOM      2  C   UNL     1      20.376  15.770  47.257  1.00  0.00     0.000 C 
BRANCH   2   3
ATOM      3  C   UNL     1      21.651  16.192  48.008  1.00  0.00     0.000 C 
BRANCH   3   4
ATOM      4  C   UNL     1      21.413  17.349  48.995  1.00  0.00     0.000 C 
BRANCH   4   5
ATOM      5  C   UNL     1      21.121  16.858  50.421  1.00  0.00     0.000 C 
BRANCH   5   6
ATOM      6  C   UNL     1      21.908  15.584  50.781  1.00  0.00     0.006 C 
BRANCH   6   7
ATOM      7  C   UNL     1      23.247  15.906  51.459  1.00  0.00     0.053 C 
BRANCH   7   8
ATOM      8  C   UNL     1      24.356  15.043  50.938  1.00  0.00     0.041 C 
ATOM      9  O   UNL     1      24.221  14.427  49.848  1.00  0.00    -0.550 OA
ATOM     10  O   UNL     1      25.526  14.897  51.671  1.00  0.00    -0.550 OA
ENDBRANCH   7   8
ENDBRANCH   6   7
ENDBRANCH   5   6
ENDBRANCH   4   5
ENDBRANCH   3   4
ENDBRANCH   2   3
ENDBRANCH   1   2
BRANCH   1  11
ATOM     11  C   UNL     1      18.121  16.996  47.242  1.00  0.00     0.000 C 
BRANCH  11  12
ATOM     12  C   UNL     1      17.204  17.943  46.449  1.00  0.00    -0.000 C 
BRANCH  12  13
ATOM     13  C   UNL     1      17.611  18.105  44.969  1.00  0.00    -0.000 C 
BRANCH  13  14
ATOM     14  C   UNL     1      17.826  19.580  44.586  1.00  0.00    -0.000 C 
BRANCH  14  15
ATOM     15  C   UNL     1      19.261  20.059  44.854  1.00  0.00    -0.000 C 
BRANCH  15  16
ATOM     16  C   UNL     1      19.350  21.009  46.061  1.00  0.00    -0.000 C 
BRANCH  16  17
ATOM     17  C   UNL     1      20.128  20.398  47.235  1.00  0.00    -0.003 C 
ATOM     18  C   UNL     1      19.310  20.352  48.525  1.00  0.00     0.004 C 
ENDBRANCH  16  17
ENDBRANCH  15  16
ENDBRANCH  14  15
ENDBRANCH  13  14
ENDBRANCH  12  13
ENDBRANCH  11  12
ENDBRANCH   1  11
TORSDOF 14
ENDMDL
MODEL 8
REMARK VINA RESULT:    -4.627      1.352      1.956
REMARK INTER + INTRA:         -10.480
REMARK INTER:                  -7.979
REMARK INTRA:                  -2.502
REMARK UNBOUND:                -2.066
REMARK SMILES CCCCCCCCCCCCCCCC(=O)[O-]
REMARK SMILES IDX 9 1 10 2 11 3 12 4 13 5 14 6 15 7 16 8 17 9 18 10 8 11 7 12
REMARK SMILES IDX 6 13 5 14 4 15 3 16 2 17 1 18
REMARK H PARENT
REMARK Flexibility Score: inf
ROOT
ATOM      1  C   UNL     1      20.306  17.605  48.481  1.00  0.00     0.000 C 
ENDROOT
BRANCH   1   2
ATOM      2  C   UNL     1      20.610  19.071  48.124  1.00  0.00     0.000 C 
BRANCH   2   3
ATOM      3  C   UNL     1      19.443  20.055  48.325  1.00  0.00     0.000 C 
BRANCH   3   4
ATOM      4  C   UNL     1      18.826  20.535  46.999  1.00  0.00     0.000 C 
BRANCH   4   5
ATOM      5  C   UNL     1      19.783  20.365  45.808  1.00  0.00     0.000 C 
BRANCH   5   6
ATOM      6  C   UNL     1      19.104  19.707  44.593  1.00  0.00     0.006 C 
BRANCH   6   7
ATOM      7  C   UNL     1      18.670  20.741  43.544  1.00  0.00     0.053 C 
BRANCH   7   8
ATOM      8  C   UNL     1      17.178  20.824  43.429  1.00  0.00     0.041 C 
ATOM      9  O   UNL     1      16.600  20.427  42.384  1.00  0.00    -0.550 OA
ATOM     10  O   UNL     1      16.431  21.368  44.466  1.00  0.00    -0.550 OA
ENDBRANCH   7   8
ENDBRANCH   6   7
ENDBRANCH   5   6
ENDBRANCH   4   5
ENDBRANCH   3   4
ENDBRANCH   2   3
ENDBRANCH   1   2
BRANCH   1  11
ATOM     11  C   UNL     1      20.402  16.659  47.273  1.00  0.00     0.000 C 
BRANCH  11  12
ATOM     12  C   UNL     1      19.076  16.539  46.502  1.00  0.00    -0.000 C 
BRANCH  12  13
ATOM     13  C   UNL     1      17.833  16.883  47.350  1.00  0.00    -0.000 C 
BRANCH  13  14
ATOM     14  C   UNL     1      16.525  16.694  46.562  1.00  0.00    -0.000 C 
BRANCH  14  15
ATOM     15  C   UNL     1      16.117  17.952  45.779  1.00  0.00    -0.000 C 
BRANCH  15  16
ATOM     16  C   UNL     1      15.437  17.620  44.440  1.00  0.00    -0.000 C 
BRANCH  16  17
ATOM     17  C   UNL     1      16.160  16.501  43.674  1.00  0.00    -0.003 C 
ATOM     18  C   UNL     1      17.263  17.030  42.758  1.00  0.00     0.004 C 
ENDBRANCH  16  17
ENDBRANCH  15  16
ENDBRANCH  14  15
ENDBRANCH  13  14
ENDBRANCH  12  13
ENDBRANCH  11  12
ENDBRANCH   1  11
TORSDOF 14
ENDMDL
MODEL 9
REMARK VINA RESULT:    -4.607      1.353      3.168
REMARK INTER + INTRA:         -10.443
REMARK INTER:                  -8.127
REMARK INTRA:                  -2.316
REMARK UNBOUND:                -2.066
REMARK SMILES CCCCCCCCCCCCCCCC(=O)[O-]
REMARK SMILES IDX 9 1 10 2 11 3 12 4 13 5 14 6 15 7 16 8 17 9 18 10 8 11 7 12
REMARK SMILES IDX 6 13 5 14 4 15 3 16 2 17 1 18
REMARK H PARENT
REMARK Flexibility Score: inf
ROOT
ATOM      1  C   UNL     1      18.531  20.975  47.649  1.00  0.00     0.000 C 
ENDROOT
BRANCH   1   2
ATOM      2  C   UNL     1      18.213  21.285  46.175  1.00  0.00     0.000 C 
BRANCH   2   3
ATOM      3  C   UNL     1      19.240  20.763  45.154  1.00  0.00     0.000 C 
BRANCH   3   4
ATOM      4  C   UNL     1      18.754  19.514  44.398  1.00  0.00     0.000 C 
BRANCH   4   5
ATOM      5  C   UNL     1      17.221  19.399  44.373  1.00  0.00     0.000 C 
BRANCH   5   6
ATOM      6  C   UNL     1      16.609  19.950  43.072  1.00  0.00     0.006 C 
BRANCH   6   7
ATOM      7  C   UNL     1      15.898  21.292  43.292  1.00  0.00     0.053 C 
BRANCH   7   8
ATOM      8  C   UNL     1      16.537  22.396  42.506  1.00  0.00     0.041 C 
ATOM      9  O   UNL     1      16.046  22.757  41.405  1.00  0.00    -0.550 OA
ATOM     10  O   UNL     1      17.693  23.005  42.977  1.00  0.00    -0.550 OA
ENDBRANCH   7   8
ENDBRANCH   6   7
ENDBRANCH   5   6
ENDBRANCH   4   5
ENDBRANCH   3   4
ENDBRANCH   2   3
ENDBRANCH   1   2
BRANCH   1  11
ATOM     11  C   UNL     1      20.003  20.602  47.883  1.00  0.00     0.000 C 
BRANCH  11  12
ATOM     12  C   UNL     1      20.209  19.742  49.141  1.00  0.00    -0.000 C 
BRANCH  12  13
ATOM     13  C   UNL     1      20.726  18.319  48.841  1.00  0.00    -0.000 C 
BRANCH  13  14
ATOM     14  C   UNL     1      20.755  18.019  47.332  1.00  0.00    -0.000 C 
BRANCH  14  15
ATOM     15  C   UNL     1      19.724  16.957  46.919  1.00  0.00    -0.000 C 
BRANCH  15  16
ATOM     16  C   UNL     1      18.312  17.267  47.445  1.00  0.00    -0.000 C 
BRANCH  16  17
ATOM     17  C   UNL     1      17.222  16.472  46.711  1.00  0.00    -0.003 C 
ATOM     18  C   UNL     1      17.724  15.846  45.410  1.00  0.00     0.004 C 
ENDBRANCH  16  17
ENDBRANCH  15  16
ENDBRANCH  14  15
ENDBRANCH  13  14
ENDBRANCH  12  13
ENDBRANCH  11  12
ENDBRANCH   1  11
TORSDOF 14
ENDMDL
