MODEL 1
REMARK VINA RESULT:     6.093      0.000      0.000
REMARK INTER + INTRA:           8.319
REMARK INTER:                   8.942
REMARK INTRA:                  -0.624
REMARK UNBOUND:                -0.624
REMARK SMILES O=c1c(O[C@@H]2O[C@H](CO)[C@@H](O)[C@@H](O)[C@@H]2O)c(-c2ccc(O)c(O)c2)oc2cc(O)cc(O)c12
REMARK SMILES IDX 4 1 3 2 16 3 25 4 2 5 26 6 1 7 33 8 27 9 31 10 28 11 30 12
REMARK SMILES IDX 17 13 18 14 19 15 20 16 24 17 22 18 21 19 23 21 32 23 29 25
REMARK SMILES IDX 5 27 14 28 6 29 12 30 7 31 10 32 15 33 13 35 8 37 9 38 11 40
REMARK H PARENT 21 20 23 22 32 24 29 26 15 34 13 36 9 39 11 41
REMARK Flexibility Score: inf
ROOT
ATOM      1  O   UNL     1      93.495 103.163  98.295  1.00  0.00    -0.454 OA
ENDROOT
BRANCH   1   2
ATOM      2  C   UNL     1      92.986 101.864  98.089  1.00  0.00     0.214 A 
ATOM      3  C   UNL     1      92.378 101.216  99.180  1.00  0.00     0.180 A 
ATOM      4  O   UNL     1      91.921  99.978  99.050  1.00  0.00    -0.452 OA
ATOM      5  C   UNL     1      93.071 101.170  96.860  1.00  0.00     0.239 A 
ATOM      6  C   UNL     1      91.996  99.283  97.925  1.00  0.00     0.146 A 
ATOM      7  O   UNL     1      93.520 101.756  95.844  1.00  0.00    -0.285 OA
ATOM      8  C   UNL     1      92.610  99.832  96.771  1.00  0.00     0.111 A 
ATOM      9  C   UNL     1      91.442  98.000  97.895  1.00  0.00     0.094 A 
ATOM     10  C   UNL     1      92.692  99.023  95.597  1.00  0.00     0.134 A 
ATOM     11  C   UNL     1      91.468  97.246  96.724  1.00  0.00     0.123 A 
ATOM     12  C   UNL     1      92.086  97.762  95.582  1.00  0.00     0.093 A 
BRANCH   3  13
ATOM     13  C   UNL     1      92.239 101.870 100.504  1.00  0.00     0.025 A 
ATOM     14  C   UNL     1      90.978 102.165 101.051  1.00  0.00     0.016 A 
ATOM     15  C   UNL     1      90.875 102.782 102.300  1.00  0.00     0.051 A 
ATOM     16  C   UNL     1      92.026 103.093 103.031  1.00  0.00     0.157 A 
ATOM     17  C   UNL     1      93.392 102.165 101.251  1.00  0.00     0.062 A 
ATOM     18  C   UNL     1      93.291 102.780 102.507  1.00  0.00     0.158 A 
BRANCH  16  19
ATOM     19  O   UNL     1      91.892 103.703 104.278  1.00  0.00    -0.504 OA
ATOM     20  H   UNL     1      92.418 103.395 105.087  1.00  0.00     0.293 HD
ENDBRANCH  16  19
BRANCH  18  21
ATOM     21  O   UNL     1      94.442 103.074 103.236  1.00  0.00    -0.504 OA
ATOM     22  H   UNL     1      95.288 102.527 103.134  1.00  0.00     0.293 HD
ENDBRANCH  18  21
ENDBRANCH   3  13
BRANCH  10  23
ATOM     23  O   UNL     1      93.380  99.396  94.437  1.00  0.00    -0.507 OA
ATOM     24  H   UNL     1      94.206  98.936  94.085  1.00  0.00     0.293 HD
ENDBRANCH  10  23
BRANCH  11  25
ATOM     25  O   UNL     1      90.882  95.982  96.707  1.00  0.00    -0.508 OA
ATOM     26  H   UNL     1      90.352  95.656  95.908  1.00  0.00     0.293 HD
ENDBRANCH  11  25
ENDBRANCH   1   2
BRANCH   1  27
ATOM     27  C   UNL     1      93.121 104.370  97.630  1.00  0.00     0.339 C 
ATOM     28  C   UNL     1      92.403 105.318  98.609  1.00  0.00     0.214 C 
ATOM     29  O   UNL     1      94.236 104.982  96.989  1.00  0.00    -0.332 OA
ATOM     30  C   UNL     1      93.392 105.867  99.635  1.00  0.00     0.180 C 
ATOM     31  C   UNL     1      95.199 105.536  97.882  1.00  0.00     0.179 C 
ATOM     32  C   UNL     1      94.581 106.517  98.906  1.00  0.00     0.177 C 
BRANCH  28  33
ATOM     33  O   UNL     1      91.373 104.637  99.276  1.00  0.00    -0.384 OA
ATOM     34  H   UNL     1      91.023 105.257  99.968  1.00  0.00     0.211 HD
ENDBRANCH  28  33
BRANCH  30  35
ATOM     35  O   UNL     1      92.744 106.808 100.452  1.00  0.00    -0.387 OA
ATOM     36  H   UNL     1      92.951 107.704 100.079  1.00  0.00     0.211 HD
ENDBRANCH  30  35
BRANCH  31  37
ATOM     37  C   UNL     1      96.107 104.458  98.515  1.00  0.00     0.191 C 
BRANCH  37  38
ATOM     38  O   UNL     1      96.034 104.515  99.916  1.00  0.00    -0.394 OA
ATOM     39  H   UNL     1      96.713 105.174 100.218  1.00  0.00     0.210 HD
ENDBRANCH  37  38
ENDBRANCH  31  37
BRANCH  32  40
ATOM     40  O   UNL     1      94.162 107.675  98.226  1.00  0.00    -0.387 OA
ATOM     41  H   UNL     1      94.975 108.105  97.851  1.00  0.00     0.211 HD
ENDBRANCH  32  40
ENDBRANCH   1  27
TORSDOF 12
ENDMDL
MODEL 2
REMARK VINA RESULT:     8.628      1.270      2.159
REMARK INTER + INTRA:          12.040
REMARK INTER:                  11.241
REMARK INTRA:                   0.799
REMARK UNBOUND:                -0.624
REMARK SMILES O=c1c(O[C@@H]2O[C@H](CO)[C@@H](O)[C@@H](O)[C@@H]2O)c(-c2ccc(O)c(O)c2)oc2cc(O)cc(O)c12
REMARK SMILES IDX 4 1 3 2 16 3 25 4 2 5 26 6 1 7 33 8 27 9 31 10 28 11 30 12
REMARK SMILES IDX 17 13 18 14 19 15 20 16 24 17 22 18 21 19 23 21 32 23 29 25
REMARK SMILES IDX 5 27 14 28 6 29 12 30 7 31 10 32 15 33 13 35 8 37 9 38 11 40
REMARK H PARENT 21 20 23 22 32 24 29 26 15 34 13 36 9 39 11 41
REMARK Flexibility Score: inf
ROOT
ATOM      1  O   UNL     1      93.367 103.621  98.317  1.00  0.00    -0.454 OA
ENDROOT
BRANCH   1   2
ATOM      2  C   UNL     1      92.869 102.320  98.098  1.00  0.00     0.214 A 
ATOM      3  C   UNL     1      92.097 101.732  99.117  1.00  0.00     0.180 A 
ATOM      4  O   UNL     1      91.640 100.495  98.978  1.00  0.00    -0.452 OA
ATOM      5  C   UNL     1      93.117 101.568  96.926  1.00  0.00     0.239 A 
ATOM      6  C   UNL     1      91.863  99.747  97.908  1.00  0.00     0.146 A 
ATOM      7  O   UNL     1      93.719 102.100  95.961  1.00  0.00    -0.285 OA
ATOM      8  C   UNL     1      92.649 100.233  96.832  1.00  0.00     0.111 A 
ATOM      9  C   UNL     1      91.296  98.471  97.856  1.00  0.00     0.094 A 
ATOM     10  C   UNL     1      92.884  99.369  95.720  1.00  0.00     0.134 A 
ATOM     11  C   UNL     1      91.476  97.662  96.737  1.00  0.00     0.123 A 
ATOM     12  C   UNL     1      92.262  98.116  95.674  1.00  0.00     0.093 A 
BRANCH   3  13
ATOM     13  C   UNL     1      91.781 102.451 100.376  1.00  0.00     0.025 A 
ATOM     14  C   UNL     1      91.167 103.716 100.367  1.00  0.00     0.016 A 
ATOM     15  C   UNL     1      90.880 104.370 101.567  1.00  0.00     0.051 A 
ATOM     16  C   UNL     1      91.179 103.764 102.792  1.00  0.00     0.157 A 
ATOM     17  C   UNL     1      92.060 101.836 101.608  1.00  0.00     0.062 A 
ATOM     18  C   UNL     1      91.769 102.490 102.813  1.00  0.00     0.158 A 
BRANCH  16  19
ATOM     19  O   UNL     1      90.875 104.439 103.973  1.00  0.00    -0.504 OA
ATOM     20  H   UNL     1      89.923 104.666 104.235  1.00  0.00     0.293 HD
ENDBRANCH  16  19
BRANCH  18  21
ATOM     21  O   UNL     1      92.056 101.874 104.030  1.00  0.00    -0.504 OA
ATOM     22  H   UNL     1      91.669 102.213 104.902  1.00  0.00     0.293 HD
ENDBRANCH  18  21
ENDBRANCH   3  13
BRANCH  10  23
ATOM     23  O   UNL     1      93.739  99.677  94.657  1.00  0.00    -0.507 OA
ATOM     24  H   UNL     1      93.728  99.220  93.757  1.00  0.00     0.293 HD
ENDBRANCH  10  23
BRANCH  11  25
ATOM     25  O   UNL     1      90.875  96.406  96.691  1.00  0.00    -0.508 OA
ATOM     26  H   UNL     1      91.357  95.603  96.306  1.00  0.00     0.293 HD
ENDBRANCH  11  25
ENDBRANCH   1   2
BRANCH   1  27
ATOM     27  C   UNL     1      93.884 104.174  99.528  1.00  0.00     0.339 C 
ATOM     28  C   UNL     1      95.312 103.655  99.783  1.00  0.00     0.214 C 
ATOM     29  O   UNL     1      93.807 105.596  99.530  1.00  0.00    -0.332 OA
ATOM     30  C   UNL     1      96.283 104.259  98.770  1.00  0.00     0.180 C 
ATOM     31  C   UNL     1      94.698 106.237  98.621  1.00  0.00     0.179 C 
ATOM     32  C   UNL     1      96.169 105.793  98.801  1.00  0.00     0.177 C 
BRANCH  28  33
ATOM     33  O   UNL     1      95.345 102.256  99.679  1.00  0.00    -0.384 OA
ATOM     34  H   UNL     1      94.783 102.015  98.897  1.00  0.00     0.211 HD
ENDBRANCH  28  33
BRANCH  30  35
ATOM     35  O   UNL     1      97.593 103.858  99.082  1.00  0.00    -0.387 OA
ATOM     36  H   UNL     1      97.517 103.057  99.664  1.00  0.00     0.211 HD
ENDBRANCH  30  35
BRANCH  31  37
ATOM     37  C   UNL     1      94.198 106.176  97.160  1.00  0.00     0.191 C 
BRANCH  37  38
ATOM     38  O   UNL     1      94.880 105.175  96.450  1.00  0.00    -0.394 OA
ATOM     39  H   UNL     1      95.541 105.630  95.865  1.00  0.00     0.210 HD
ENDBRANCH  37  38
ENDBRANCH  31  37
BRANCH  32  40
ATOM     40  O   UNL     1      96.645 106.294 100.027  1.00  0.00    -0.387 OA
ATOM     41  H   UNL     1      95.911 106.828 100.430  1.00  0.00     0.211 HD
ENDBRANCH  32  40
ENDBRANCH   1  27
TORSDOF 12
ENDMDL
