MODEL 1
REMARK VINA RESULT:     2.271      0.000      0.000
REMARK INTER + INTRA:           3.051
REMARK INTER:                   2.470
REMARK INTRA:                   0.581
REMARK UNBOUND:                 0.581
REMARK SMILES COc1cc2ccc(=O)oc2cc1O
REMARK SMILES IDX 3 1 13 2 12 3 11 4 5 5 4 6 6 7 7 8 8 9 9 10 10 11 2 12 1 13
REMARK SMILES IDX 14 14
REMARK H PARENT 14 15
REMARK Flexibility Score: inf
ROOT
ATOM      1  C   UNL     1       8.530   7.812  13.737  1.00  0.00     0.161 A 
ATOM      2  C   UNL     1       7.570   8.369  14.604  1.00  0.00     0.161 A 
ATOM      3  C   UNL     1       6.249   7.908  14.584  1.00  0.00     0.098 A 
ATOM      4  C   UNL     1       5.868   6.892  13.706  1.00  0.00     0.142 A 
ATOM      5  C   UNL     1       6.820   6.326  12.833  1.00  0.00     0.022 A 
ATOM      6  C   UNL     1       8.145   6.785  12.849  1.00  0.00     0.062 A 
ATOM      7  C   UNL     1       6.408   5.310  11.964  1.00  0.00     0.019 A 
ATOM      8  C   UNL     1       5.080   4.889  11.986  1.00  0.00     0.094 A 
ATOM      9  C   UNL     1       4.191   5.495  12.879  1.00  0.00     0.336 A 
ATOM     10  O   UNL     1       2.986   5.128  12.914  1.00  0.00    -0.246 OA
ATOM     11  O   UNL     1       4.609   6.460  13.695  1.00  0.00    -0.423 OA
ENDROOT
BRANCH   1  12
ATOM     12  O   UNL     1       9.846   8.297  13.782  1.00  0.00    -0.493 OA
ATOM     13  C   UNL     1      10.517   8.707  14.970  1.00  0.00     0.278 C 
ENDBRANCH   1  12
BRANCH   2  14
ATOM     14  O   UNL     1       7.913   9.385  15.496  1.00  0.00    -0.504 OA
ATOM     15  H   UNL     1       8.549   9.235  16.269  1.00  0.00     0.293 HD
ENDBRANCH   2  14
TORSDOF 2
ENDMDL
MODEL 2
REMARK VINA RESULT:     2.407      1.581      2.673
REMARK INTER + INTRA:           3.199
REMARK INTER:                   3.249
REMARK INTRA:                  -0.050
REMARK UNBOUND:                 0.581
REMARK SMILES COc1cc2ccc(=O)oc2cc1O
REMARK SMILES IDX 3 1 13 2 12 3 11 4 5 5 4 6 6 7 7 8 8 9 9 10 10 11 2 12 1 13
REMARK SMILES IDX 14 14
REMARK H PARENT 14 15
REMARK Flexibility Score: inf
ROOT
ATOM      1  C   UNL     1       7.755   7.009  12.839  1.00  0.00     0.161 A 
ATOM      2  C   UNL     1       7.725   5.627  12.570  1.00  0.00     0.161 A 
ATOM      3  C   UNL     1       6.505   4.943  12.529  1.00  0.00     0.098 A 
ATOM      4  C   UNL     1       5.305   5.621  12.754  1.00  0.00     0.142 A 
ATOM      5  C   UNL     1       5.323   7.005  13.024  1.00  0.00     0.022 A 
ATOM      6  C   UNL     1       6.543   7.695  13.067  1.00  0.00     0.062 A 
ATOM      7  C   UNL     1       4.106   7.657  13.245  1.00  0.00     0.019 A 
ATOM      8  C   UNL     1       2.919   6.927  13.193  1.00  0.00     0.094 A 
ATOM      9  C   UNL     1       2.979   5.557  12.918  1.00  0.00     0.336 A 
ATOM     10  O   UNL     1       1.918   4.880  12.866  1.00  0.00    -0.246 OA
ATOM     11  O   UNL     1       4.151   4.961  12.712  1.00  0.00    -0.423 OA
ENDROOT
BRANCH   1  12
ATOM     12  O   UNL     1       8.995   7.665  12.873  1.00  0.00    -0.493 OA
ATOM     13  C   UNL     1       9.392   8.594  13.878  1.00  0.00     0.278 C 
ENDBRANCH   1  12
BRANCH   2  14
ATOM     14  O   UNL     1       8.902   4.915  12.340  1.00  0.00    -0.504 OA
ATOM     15  H   UNL     1       8.991   4.246  11.585  1.00  0.00     0.293 HD
ENDBRANCH   2  14
TORSDOF 2
ENDMDL
MODEL 3
REMARK VINA RESULT:     3.021      0.357      0.357
REMARK INTER + INTRA:           3.867
REMARK INTER:                   3.740
REMARK INTRA:                   0.127
REMARK UNBOUND:                 0.581
REMARK SMILES COc1cc2ccc(=O)oc2cc1O
REMARK SMILES IDX 3 1 13 2 12 3 11 4 5 5 4 6 6 7 7 8 8 9 9 10 10 11 2 12 1 13
REMARK SMILES IDX 14 14
REMARK H PARENT 14 15
REMARK Flexibility Score: inf
ROOT
ATOM      1  C   UNL     1       8.711   7.871  13.500  1.00  0.00     0.161 A 
ATOM      2  C   UNL     1       7.761   8.581  14.260  1.00  0.00     0.161 A 
ATOM      3  C   UNL     1       6.422   8.175  14.272  1.00  0.00     0.098 A 
ATOM      4  C   UNL     1       6.013   7.064  13.533  1.00  0.00     0.142 A 
ATOM      5  C   UNL     1       6.956   6.345  12.768  1.00  0.00     0.022 A 
ATOM      6  C   UNL     1       8.299   6.749  12.753  1.00  0.00     0.062 A 
ATOM      7  C   UNL     1       6.516   5.236  12.038  1.00  0.00     0.019 A 
ATOM      8  C   UNL     1       5.171   4.875  12.086  1.00  0.00     0.094 A 
ATOM      9  C   UNL     1       4.293   5.634  12.866  1.00  0.00     0.336 A 
ATOM     10  O   UNL     1       3.074   5.324  12.923  1.00  0.00    -0.246 OA
ATOM     11  O   UNL     1       4.738   6.685  13.551  1.00  0.00    -0.423 OA
ENDROOT
BRANCH   1  12
ATOM     12  O   UNL     1      10.046   8.306  13.509  1.00  0.00    -0.493 OA
ATOM     13  C   UNL     1      10.903   8.261  14.646  1.00  0.00     0.278 C 
ENDBRANCH   1  12
BRANCH   2  14
ATOM     14  O   UNL     1       8.131   9.697  15.011  1.00  0.00    -0.504 OA
ATOM     15  H   UNL     1       8.958  10.242  14.800  1.00  0.00     0.293 HD
ENDBRANCH   2  14
TORSDOF 2
ENDMDL
MODEL 4
REMARK VINA RESULT:     3.894      1.533      5.280
REMARK INTER + INTRA:           4.816
REMARK INTER:                   4.860
REMARK INTRA:                  -0.044
REMARK UNBOUND:                 0.581
REMARK SMILES COc1cc2ccc(=O)oc2cc1O
REMARK SMILES IDX 3 1 13 2 12 3 11 4 5 5 4 6 6 7 7 8 8 9 9 10 10 11 2 12 1 13
REMARK SMILES IDX 14 14
REMARK H PARENT 14 15
REMARK Flexibility Score: inf
ROOT
ATOM      1  C   UNL     1       4.759   6.940  13.333  1.00  0.00     0.161 A 
ATOM      2  C   UNL     1       5.400   5.920  12.604  1.00  0.00     0.161 A 
ATOM      3  C   UNL     1       6.789   5.939  12.437  1.00  0.00     0.098 A 
ATOM      4  C   UNL     1       7.554   6.968  12.989  1.00  0.00     0.142 A 
ATOM      5  C   UNL     1       6.923   7.995  13.721  1.00  0.00     0.022 A 
ATOM      6  C   UNL     1       5.531   7.980  13.891  1.00  0.00     0.062 A 
ATOM      7  C   UNL     1       7.716   9.012  14.262  1.00  0.00     0.019 A 
ATOM      8  C   UNL     1       9.095   8.983  14.065  1.00  0.00     0.094 A 
ATOM      9  C   UNL     1       9.652   7.932  13.328  1.00  0.00     0.336 A 
ATOM     10  O   UNL     1      10.896   7.888  13.139  1.00  0.00    -0.246 OA
ATOM     11  O   UNL     1       8.874   6.977  12.824  1.00  0.00    -0.423 OA
ENDROOT
BRANCH   1  12
ATOM     12  O   UNL     1       3.364   6.891  13.483  1.00  0.00    -0.493 OA
ATOM     13  C   UNL     1       2.552   7.996  13.870  1.00  0.00     0.278 C 
ENDBRANCH   1  12
BRANCH   2  14
ATOM     14  O   UNL     1       4.670   4.875  12.037  1.00  0.00    -0.504 OA
ATOM     15  H   UNL     1       3.681   4.955  11.832  1.00  0.00     0.293 HD
ENDBRANCH   2  14
TORSDOF 2
ENDMDL
MODEL 5
REMARK VINA RESULT:     5.151      1.518      2.494
REMARK INTER + INTRA:           6.184
REMARK INTER:                   5.508
REMARK INTRA:                   0.676
REMARK UNBOUND:                 0.581
REMARK SMILES COc1cc2ccc(=O)oc2cc1O
REMARK SMILES IDX 3 1 13 2 12 3 11 4 5 5 4 6 6 7 7 8 8 9 9 10 10 11 2 12 1 13
REMARK SMILES IDX 14 14
REMARK H PARENT 14 15
REMARK Flexibility Score: inf
ROOT
ATOM      1  C   UNL     1       9.251   8.333  14.317  1.00  0.00     0.161 A 
ATOM      2  C   UNL     1       9.564   7.773  13.063  1.00  0.00     0.161 A 
ATOM      3  C   UNL     1       8.557   7.207  12.273  1.00  0.00     0.098 A 
ATOM      4  C   UNL     1       7.234   7.191  12.717  1.00  0.00     0.142 A 
ATOM      5  C   UNL     1       6.909   7.750  13.971  1.00  0.00     0.022 A 
ATOM      6  C   UNL     1       7.914   8.318  14.766  1.00  0.00     0.062 A 
ATOM      7  C   UNL     1       5.574   7.719  14.389  1.00  0.00     0.019 A 
ATOM      8  C   UNL     1       4.612   7.143  13.563  1.00  0.00     0.094 A 
ATOM      9  C   UNL     1       5.007   6.608  12.332  1.00  0.00     0.336 A 
ATOM     10  O   UNL     1       4.152   6.083  11.570  1.00  0.00    -0.246 OA
ATOM     11  O   UNL     1       6.284   6.651  11.958  1.00  0.00    -0.423 OA
ENDROOT
BRANCH   1  12
ATOM     12  O   UNL     1      10.284   8.893  15.085  1.00  0.00    -0.493 OA
ATOM     13  C   UNL     1      11.639   8.454  15.061  1.00  0.00     0.278 C 
ENDBRANCH   1  12
BRANCH   2  14
ATOM     14  O   UNL     1      10.874   7.769  12.586  1.00  0.00    -0.504 OA
ATOM     15  H   UNL     1      11.276   8.564  12.103  1.00  0.00     0.293 HD
ENDBRANCH   2  14
TORSDOF 2
ENDMDL
