MODEL 1
REMARK VINA RESULT:    -0.372      0.000      0.000
REMARK INTER + INTRA:          -0.168
REMARK INTER:                  -0.568
REMARK INTRA:                   0.399
REMARK UNBOUND:                 0.399
REMARK SMILES CCCCCCCCCCC(=O)[O-]
REMARK SMILES IDX 7 1 8 2 9 3 10 4 11 5 12 6 13 7 6 8 5 9 4 10 3 11 2 12 1 13
REMARK H PARENT
REMARK Flexibility Score: inf
ROOT
ATOM      1  C   UNL     1     -17.766  26.413  -3.580  1.00  0.00     0.000 C 
ENDROOT
BRANCH   1   2
ATOM      2  C   UNL     1     -18.231  27.722  -2.919  1.00  0.00     0.000 C 
BRANCH   2   3
ATOM      3  C   UNL     1     -19.768  27.854  -2.894  1.00  0.00     0.006 C 
BRANCH   3   4
ATOM      4  C   UNL     1     -20.261  29.301  -3.056  1.00  0.00     0.053 C 
BRANCH   4   5
ATOM      5  C   UNL     1     -20.207  29.766  -4.476  1.00  0.00     0.041 C 
ATOM      6  O   UNL     1     -21.124  30.495  -4.939  1.00  0.00    -0.550 OA
ATOM      7  O   UNL     1     -19.158  29.375  -5.298  1.00  0.00    -0.550 OA
ENDBRANCH   4   5
ENDBRANCH   3   4
ENDBRANCH   2   3
ENDBRANCH   1   2
BRANCH   1   8
ATOM      8  C   UNL     1     -18.318  25.164  -2.875  1.00  0.00     0.000 C 
BRANCH   8   9
ATOM      9  C   UNL     1     -19.799  24.910  -3.194  1.00  0.00    -0.000 C 
BRANCH   9  10
ATOM     10  C   UNL     1     -20.039  24.895  -4.709  1.00  0.00    -0.000 C 
BRANCH  10  11
ATOM     11  C   UNL     1     -20.951  26.057  -5.133  1.00  0.00    -0.000 C 
BRANCH  11  12
ATOM     12  C   UNL     1     -20.597  26.608  -6.523  1.00  0.00    -0.003 C 
ATOM     13  C   UNL     1     -21.038  25.682  -7.656  1.00  0.00     0.004 C 
ENDBRANCH  11  12
ENDBRANCH  10  11
ENDBRANCH   9  10
ENDBRANCH   8   9
ENDBRANCH   1   8
TORSDOF 9
ENDMDL
MODEL 2
REMARK VINA RESULT:     0.042     12.541     15.021
REMARK INTER + INTRA:           0.463
REMARK INTER:                  -0.145
REMARK INTRA:                   0.608
REMARK UNBOUND:                 0.399
REMARK SMILES CCCCCCCCCCC(=O)[O-]
REMARK SMILES IDX 7 1 8 2 9 3 10 4 11 5 12 6 13 7 6 8 5 9 4 10 3 11 2 12 1 13
REMARK H PARENT
REMARK Flexibility Score: inf
ROOT
ATOM      1  C   UNL     1     -17.816  42.765  -3.747  1.00  0.00     0.000 C 
ENDROOT
BRANCH   1   2
ATOM      2  C   UNL     1     -17.885  44.032  -2.879  1.00  0.00     0.000 C 
BRANCH   2   3
ATOM      3  C   UNL     1     -18.808  45.111  -3.484  1.00  0.00     0.006 C 
BRANCH   3   4
ATOM      4  C   UNL     1     -20.302  44.769  -3.380  1.00  0.00     0.053 C 
BRANCH   4   5
ATOM      5  C   UNL     1     -20.806  44.043  -4.587  1.00  0.00     0.041 C 
ATOM      6  O   UNL     1     -20.983  42.797  -4.550  1.00  0.00    -0.550 OA
ATOM      7  O   UNL     1     -21.057  44.738  -5.763  1.00  0.00    -0.550 OA
ENDBRANCH   4   5
ENDBRANCH   3   4
ENDBRANCH   2   3
ENDBRANCH   1   2
BRANCH   1   8
ATOM      8  C   UNL     1     -17.272  41.549  -2.981  1.00  0.00     0.000 C 
BRANCH   8   9
ATOM      9  C   UNL     1     -18.294  40.408  -2.875  1.00  0.00    -0.000 C 
BRANCH   9  10
ATOM     10  C   UNL     1     -19.706  40.904  -3.211  1.00  0.00    -0.000 C 
BRANCH  10  11
ATOM     11  C   UNL     1     -20.506  39.825  -3.956  1.00  0.00    -0.000 C 
BRANCH  11  12
ATOM     12  C   UNL     1     -20.745  38.570  -3.101  1.00  0.00    -0.003 C 
ATOM     13  C   UNL     1     -20.911  37.304  -3.942  1.00  0.00     0.004 C 
ENDBRANCH  11  12
ENDBRANCH  10  11
ENDBRANCH   9  10
ENDBRANCH   8   9
ENDBRANCH   1   8
TORSDOF 9
ENDMDL
