MODEL 1
REMARK VINA RESULT:    -4.478      0.000      0.000
REMARK INTER + INTRA:          -5.294
REMARK INTER:                  -5.264
REMARK INTRA:                  -0.030
REMARK UNBOUND:                -0.030
REMARK SMILES O=C([O-])CCC(=O)[O-]
REMARK SMILES IDX 4 1 2 2 1 3 3 4 5 5 6 6 7 7 8 8
REMARK H PARENT
REMARK Flexibility Score: inf
ROOT
ATOM      1  C   UNL     1       3.371  -2.541  -1.890  1.00  0.00     0.059 C 
ENDROOT
BRANCH   1   2
ATOM      2  C   UNL     1       3.706  -2.044  -3.261  1.00  0.00     0.042 C 
ATOM      3  O   UNL     1       4.145  -2.839  -4.134  1.00  0.00    -0.550 OA
ATOM      4  O   UNL     1       3.581  -0.693  -3.561  1.00  0.00    -0.550 OA
ENDBRANCH   1   2
BRANCH   1   5
ATOM      5  C   UNL     1       1.857  -2.686  -1.730  1.00  0.00     0.059 C 
BRANCH   5   6
ATOM      6  C   UNL     1       1.466  -2.531  -0.294  1.00  0.00     0.042 C 
ATOM      7  O   UNL     1       0.422  -1.899   0.014  1.00  0.00    -0.550 OA
ATOM      8  O   UNL     1       2.229  -3.127   0.703  1.00  0.00    -0.550 OA
ENDBRANCH   5   6
ENDBRANCH   1   5
TORSDOF 3
ENDMDL
MODEL 2
REMARK VINA RESULT:    -4.467      0.070      4.301
REMARK INTER + INTRA:          -5.281
REMARK INTER:                  -5.249
REMARK INTRA:                  -0.031
REMARK UNBOUND:                -0.030
REMARK SMILES O=C([O-])CCC(=O)[O-]
REMARK SMILES IDX 4 1 2 2 1 3 3 4 5 5 6 6 7 7 8 8
REMARK H PARENT
REMARK Flexibility Score: inf
ROOT
ATOM      1  C   UNL     1       1.823  -2.659  -1.727  1.00  0.00     0.059 C 
ENDROOT
BRANCH   1   2
ATOM      2  C   UNL     1       1.417  -2.570  -0.290  1.00  0.00     0.042 C 
ATOM      3  O   UNL     1       0.407  -1.895   0.043  1.00  0.00    -0.550 OA
ATOM      4  O   UNL     1       2.183  -3.191   0.689  1.00  0.00    -0.550 OA
ENDBRANCH   1   2
BRANCH   1   5
ATOM      5  C   UNL     1       3.346  -2.595  -1.857  1.00  0.00     0.059 C 
BRANCH   5   6
ATOM      6  C   UNL     1       3.734  -2.050  -3.195  1.00  0.00     0.042 C 
ATOM      7  O   UNL     1       4.115  -2.826  -4.110  1.00  0.00    -0.550 OA
ATOM      8  O   UNL     1       3.627  -0.688  -3.448  1.00  0.00    -0.550 OA
ENDBRANCH   5   6
ENDBRANCH   1   5
TORSDOF 3
ENDMDL
MODEL 3
REMARK VINA RESULT:    -4.055      1.398      2.028
REMARK INTER + INTRA:          -4.796
REMARK INTER:                  -4.702
REMARK INTRA:                  -0.094
REMARK UNBOUND:                -0.030
REMARK SMILES O=C([O-])CCC(=O)[O-]
REMARK SMILES IDX 4 1 2 2 1 3 3 4 5 5 6 6 7 7 8 8
REMARK H PARENT
REMARK Flexibility Score: inf
ROOT
ATOM      1  C   UNL     1       2.767  -2.968  -1.292  1.00  0.00     0.059 C 
ENDROOT
BRANCH   1   2
ATOM      2  C   UNL     1       3.539  -2.288  -2.379  1.00  0.00     0.042 C 
ATOM      3  O   UNL     1       3.415  -1.048  -2.565  1.00  0.00    -0.550 OA
ATOM      4  O   UNL     1       4.357  -3.032  -3.220  1.00  0.00    -0.550 OA
ENDBRANCH   1   2
BRANCH   1   5
ATOM      5  C   UNL     1       1.927  -1.952  -0.518  1.00  0.00     0.059 C 
BRANCH   5   6
ATOM      6  C   UNL     1       0.472  -2.156  -0.796  1.00  0.00     0.042 C 
ATOM      7  O   UNL     1       0.092  -3.116  -1.516  1.00  0.00    -0.550 OA
ATOM      8  O   UNL     1      -0.471  -1.314  -0.219  1.00  0.00    -0.550 OA
ENDBRANCH   5   6
ENDBRANCH   1   5
TORSDOF 3
ENDMDL
MODEL 4
REMARK VINA RESULT:    -3.124     11.464     12.647
REMARK INTER + INTRA:          -3.703
REMARK INTER:                  -3.666
REMARK INTRA:                  -0.036
REMARK UNBOUND:                -0.030
REMARK SMILES O=C([O-])CCC(=O)[O-]
REMARK SMILES IDX 4 1 2 2 1 3 3 4 5 5 6 6 7 7 8 8
REMARK H PARENT
REMARK Flexibility Score: inf
ROOT
ATOM      1  C   UNL     1       0.396   8.867  -6.872  1.00  0.00     0.059 C 
ENDROOT
BRANCH   1   2
ATOM      2  C   UNL     1      -0.581   8.301  -5.891  1.00  0.00     0.042 C 
ATOM      3  O   UNL     1      -0.207   8.000  -4.726  1.00  0.00    -0.550 OA
ATOM      4  O   UNL     1      -1.893   8.059  -6.277  1.00  0.00    -0.550 OA
ENDBRANCH   1   2
BRANCH   1   5
ATOM      5  C   UNL     1       1.607   7.944  -7.015  1.00  0.00     0.059 C 
BRANCH   5   6
ATOM      6  C   UNL     1       2.408   8.314  -8.223  1.00  0.00     0.042 C 
ATOM      7  O   UNL     1       2.081   9.311  -8.920  1.00  0.00    -0.550 OA
ATOM      8  O   UNL     1       3.546   7.589  -8.552  1.00  0.00    -0.550 OA
ENDBRANCH   5   6
ENDBRANCH   1   5
TORSDOF 3
ENDMDL
MODEL 5
REMARK VINA RESULT:    -3.066     11.406     11.970
REMARK INTER + INTRA:          -3.635
REMARK INTER:                  -3.598
REMARK INTRA:                  -0.036
REMARK UNBOUND:                -0.030
REMARK SMILES O=C([O-])CCC(=O)[O-]
REMARK SMILES IDX 4 1 2 2 1 3 3 4 5 5 6 6 7 7 8 8
REMARK H PARENT
REMARK Flexibility Score: inf
ROOT
ATOM      1  C   UNL     1       1.530   7.868  -6.887  1.00  0.00     0.059 C 
ENDROOT
BRANCH   1   2
ATOM      2  C   UNL     1       2.291   8.252  -8.117  1.00  0.00     0.042 C 
ATOM      3  O   UNL     1       1.858   9.163  -8.872  1.00  0.00    -0.550 OA
ATOM      4  O   UNL     1       3.453   7.571  -8.456  1.00  0.00    -0.550 OA
ENDBRANCH   1   2
BRANCH   1   5
ATOM      5  C   UNL     1       0.353   8.820  -6.668  1.00  0.00     0.059 C 
BRANCH   5   6
ATOM      6  C   UNL     1      -0.644   8.211  -5.734  1.00  0.00     0.042 C 
ATOM      7  O   UNL     1      -0.375   8.091  -4.509  1.00  0.00    -0.550 OA
ATOM      8  O   UNL     1      -1.892   7.822  -6.205  1.00  0.00    -0.550 OA
ENDBRANCH   5   6
ENDBRANCH   1   5
TORSDOF 3
ENDMDL
MODEL 6
REMARK VINA RESULT:    -3.047      9.285     10.840
REMARK INTER + INTRA:          -3.612
REMARK INTER:                  -3.582
REMARK INTRA:                  -0.030
REMARK UNBOUND:                -0.030
REMARK SMILES O=C([O-])CCC(=O)[O-]
REMARK SMILES IDX 4 1 2 2 1 3 3 4 5 5 6 6 7 7 8 8
REMARK H PARENT
REMARK Flexibility Score: inf
ROOT
ATOM      1  C   UNL     1      -2.654  -7.424   6.039  1.00  0.00     0.059 C 
ENDROOT
BRANCH   1   2
ATOM      2  C   UNL     1      -2.097  -7.586   4.660  1.00  0.00     0.042 C 
ATOM      3  O   UNL     1      -1.474  -8.635   4.347  1.00  0.00    -0.550 OA
ATOM      4  O   UNL     1      -2.224  -6.558   3.734  1.00  0.00    -0.550 OA
ENDBRANCH   1   2
BRANCH   1   5
ATOM      5  C   UNL     1      -1.616  -7.832   7.086  1.00  0.00     0.059 C 
BRANCH   5   6
ATOM      6  C   UNL     1      -1.806  -7.047   8.345  1.00  0.00     0.042 C 
ATOM      7  O   UNL     1      -1.047  -6.077   8.607  1.00  0.00    -0.550 OA
ATOM      8  O   UNL     1      -2.851  -7.355   9.206  1.00  0.00    -0.550 OA
ENDBRANCH   5   6
ENDBRANCH   1   5
TORSDOF 3
ENDMDL
MODEL 7
REMARK VINA RESULT:    -2.992     12.205     13.247
REMARK INTER + INTRA:          -3.548
REMARK INTER:                  -3.432
REMARK INTRA:                  -0.116
REMARK UNBOUND:                -0.030
REMARK SMILES O=C([O-])CCC(=O)[O-]
REMARK SMILES IDX 4 1 2 2 1 3 3 4 5 5 6 6 7 7 8 8
REMARK H PARENT
REMARK Flexibility Score: inf
ROOT
ATOM      1  C   UNL     1      -2.528   9.008  -3.517  1.00  0.00     0.059 C 
ENDROOT
BRANCH   1   2
ATOM      2  C   UNL     1      -3.943   9.469  -3.672  1.00  0.00     0.042 C 
ATOM      3  O   UNL     1      -4.501  10.125  -2.752  1.00  0.00    -0.550 OA
ATOM      4  O   UNL     1      -4.662   9.135  -4.812  1.00  0.00    -0.550 OA
ENDBRANCH   1   2
BRANCH   1   5
ATOM      5  C   UNL     1      -1.660   9.555  -4.650  1.00  0.00     0.059 C 
BRANCH   5   6
ATOM      6  C   UNL     1      -1.135   8.437  -5.494  1.00  0.00     0.042 C 
ATOM      7  O   UNL     1      -1.789   8.035  -6.493  1.00  0.00    -0.550 OA
ATOM      8  O   UNL     1       0.100   7.870  -5.207  1.00  0.00    -0.550 OA
ENDBRANCH   5   6
ENDBRANCH   1   5
TORSDOF 3
ENDMDL
MODEL 8
REMARK VINA RESULT:    -2.984     12.928     13.629
REMARK INTER + INTRA:          -3.538
REMARK INTER:                  -3.400
REMARK INTRA:                  -0.138
REMARK UNBOUND:                -0.030
REMARK SMILES O=C([O-])CCC(=O)[O-]
REMARK SMILES IDX 4 1 2 2 1 3 3 4 5 5 6 6 7 7 8 8
REMARK H PARENT
REMARK Flexibility Score: inf
ROOT
ATOM      1  C   UNL     1      -2.927   8.999  -3.369  1.00  0.00     0.059 C 
ENDROOT
BRANCH   1   2
ATOM      2  C   UNL     1      -1.840   9.049  -4.395  1.00  0.00     0.042 C 
ATOM      3  O   UNL     1      -1.131  10.083  -4.519  1.00  0.00    -0.550 OA
ATOM      4  O   UNL     1      -1.641   7.972  -5.250  1.00  0.00    -0.550 OA
ENDBRANCH   1   2
BRANCH   1   5
ATOM      5  C   UNL     1      -3.969  10.085  -3.639  1.00  0.00     0.059 C 
BRANCH   5   6
ATOM      6  C   UNL     1      -4.883   9.668  -4.748  1.00  0.00     0.042 C 
ATOM      7  O   UNL     1      -5.881   8.940  -4.507  1.00  0.00    -0.550 OA
ATOM      8  O   UNL     1      -4.661  10.125  -6.041  1.00  0.00    -0.550 OA
ENDBRANCH   5   6
ENDBRANCH   1   5
TORSDOF 3
ENDMDL
