MODEL 1
REMARK VINA RESULT:    -6.506      0.000      0.000
REMARK INTER + INTRA:          -8.407
REMARK INTER:                  -8.027
REMARK INTRA:                  -0.380
REMARK UNBOUND:                -0.380
REMARK SMILES COc1cc(-c2oc3cc(O)cc(O)c3c(=O)c2O)ccc1O
REMARK SMILES IDX 6 1 18 2 16 3 17 4 15 5 13 6 12 7 10 8 9 9 8 10 7 11 5 12
REMARK SMILES IDX 3 13 22 14 4 15 21 16 20 17 2 18 1 19 23 20 19 22 14 24
REMARK SMILES IDX 11 26
REMARK H PARENT 23 21 19 23 14 25 11 27
REMARK Flexibility Score: inf
ROOT
ATOM      1  C   UNL     1     -14.427 -15.914  -5.582  1.00  0.00     0.180 A 
ATOM      2  C   UNL     1     -14.780 -15.979  -4.220  1.00  0.00     0.208 A 
ATOM      3  C   UNL     1     -16.034 -16.504  -3.870  1.00  0.00     0.238 A 
ATOM      4  O   UNL     1     -16.358 -16.579  -2.653  1.00  0.00    -0.285 OA
ATOM      5  C   UNL     1     -16.918 -16.933  -4.882  1.00  0.00     0.111 A 
ATOM      6  C   UNL     1     -18.200 -17.469  -4.613  1.00  0.00     0.134 A 
ATOM      7  C   UNL     1     -19.025 -17.864  -5.678  1.00  0.00     0.093 A 
ATOM      8  C   UNL     1     -18.593 -17.733  -7.002  1.00  0.00     0.123 A 
ATOM      9  C   UNL     1     -17.329 -17.205  -7.270  1.00  0.00     0.094 A 
ATOM     10  C   UNL     1     -16.491 -16.807  -6.225  1.00  0.00     0.146 A 
ATOM     11  O   UNL     1     -15.292 -16.312  -6.510  1.00  0.00    -0.452 OA
ENDROOT
BRANCH   1  12
ATOM     12  C   UNL     1     -13.115 -15.391  -6.029  1.00  0.00     0.025 A 
ATOM     13  C   UNL     1     -11.700 -13.561  -6.827  1.00  0.00     0.161 A 
ATOM     14  C   UNL     1     -10.592 -14.428  -6.819  1.00  0.00     0.157 A 
ATOM     15  C   UNL     1     -12.959 -14.049  -6.423  1.00  0.00     0.062 A 
ATOM     16  C   UNL     1     -10.744 -15.755  -6.404  1.00  0.00     0.051 A 
ATOM     17  C   UNL     1     -11.994 -16.231  -6.006  1.00  0.00     0.016 A 
BRANCH  13  18
ATOM     18  O   UNL     1     -11.515 -12.231  -7.236  1.00  0.00    -0.493 OA
ATOM     19  C   UNL     1     -11.697 -11.761  -8.567  1.00  0.00     0.278 C 
ENDBRANCH  13  18
BRANCH  14  20
ATOM     20  O   UNL     1      -9.329 -13.988  -7.213  1.00  0.00    -0.504 OA
ATOM     21  H   UNL     1      -9.046 -13.960  -8.185  1.00  0.00     0.293 HD
ENDBRANCH  14  20
ENDBRANCH   1  12
BRANCH   2  22
ATOM     22  O   UNL     1     -13.906 -15.503  -3.240  1.00  0.00    -0.502 OA
ATOM     23  H   UNL     1     -13.088 -16.021  -2.943  1.00  0.00     0.293 HD
ENDBRANCH   2  22
BRANCH   6  24
ATOM     24  O   UNL     1     -18.660 -17.612  -3.304  1.00  0.00    -0.507 OA
ATOM     25  H   UNL     1     -19.575 -17.281  -3.021  1.00  0.00     0.293 HD
ENDBRANCH   6  24
BRANCH   8  26
ATOM     26  O   UNL     1     -19.411 -18.125  -8.059  1.00  0.00    -0.508 OA
ATOM     27  H   UNL     1     -19.139 -17.976  -9.023  1.00  0.00     0.293 HD
ENDBRANCH   8  26
TORSDOF 6
ENDMDL
MODEL 2
REMARK VINA RESULT:    -6.482      1.570      7.243
REMARK INTER + INTRA:          -8.377
REMARK INTER:                  -8.119
REMARK INTRA:                  -0.258
REMARK UNBOUND:                -0.380
REMARK SMILES COc1cc(-c2oc3cc(O)cc(O)c3c(=O)c2O)ccc1O
REMARK SMILES IDX 6 1 18 2 16 3 17 4 15 5 13 6 12 7 10 8 9 9 8 10 7 11 5 12
REMARK SMILES IDX 3 13 22 14 4 15 21 16 20 17 2 18 1 19 23 20 19 22 14 24
REMARK SMILES IDX 11 26
REMARK H PARENT 23 21 19 23 14 25 11 27
REMARK Flexibility Score: inf
ROOT
ATOM      1  C   UNL     1     -13.223 -14.610  -5.867  1.00  0.00     0.180 A 
ATOM      2  C   UNL     1     -11.908 -15.111  -5.838  1.00  0.00     0.208 A 
ATOM      3  C   UNL     1     -10.903 -14.415  -6.527  1.00  0.00     0.238 A 
ATOM      4  O   UNL     1      -9.717 -14.847  -6.499  1.00  0.00    -0.285 OA
ATOM      5  C   UNL     1     -11.230 -13.246  -7.246  1.00  0.00     0.111 A 
ATOM      6  C   UNL     1     -10.277 -12.489  -7.968  1.00  0.00     0.134 A 
ATOM      7  C   UNL     1     -10.685 -11.343  -8.667  1.00  0.00     0.093 A 
ATOM      8  C   UNL     1     -12.026 -10.940  -8.656  1.00  0.00     0.123 A 
ATOM      9  C   UNL     1     -12.967 -11.684  -7.944  1.00  0.00     0.094 A 
ATOM     10  C   UNL     1     -12.582 -12.828  -7.241  1.00  0.00     0.146 A 
ATOM     11  O   UNL     1     -13.499 -13.514  -6.568  1.00  0.00    -0.452 OA
ENDROOT
BRANCH   1  12
ATOM     12  C   UNL     1     -14.335 -15.278  -5.151  1.00  0.00     0.025 A 
ATOM     13  C   UNL     1     -16.418 -16.561  -5.153  1.00  0.00     0.161 A 
ATOM     14  C   UNL     1     -16.395 -16.581  -3.746  1.00  0.00     0.157 A 
ATOM     15  C   UNL     1     -15.378 -15.913  -5.849  1.00  0.00     0.062 A 
ATOM     16  C   UNL     1     -15.345 -15.970  -3.055  1.00  0.00     0.051 A 
ATOM     17  C   UNL     1     -14.320 -15.329  -3.750  1.00  0.00     0.016 A 
BRANCH  13  18
ATOM     18  O   UNL     1     -17.478 -17.194  -5.822  1.00  0.00    -0.493 OA
ATOM     19  C   UNL     1     -18.568 -16.514  -6.435  1.00  0.00     0.278 C 
ENDBRANCH  13  18
BRANCH  14  20
ATOM     20  O   UNL     1     -17.405 -17.210  -3.018  1.00  0.00    -0.504 OA
ATOM     21  H   UNL     1     -18.283 -17.486  -3.441  1.00  0.00     0.293 HD
ENDBRANCH  14  20
ENDBRANCH   1  12
BRANCH   2  22
ATOM     22  O   UNL     1     -11.618 -16.297  -5.159  1.00  0.00    -0.502 OA
ATOM     23  H   UNL     1     -11.780 -17.210  -5.568  1.00  0.00     0.293 HD
ENDBRANCH   2  22
BRANCH   6  24
ATOM     24  O   UNL     1      -8.934 -12.865  -7.998  1.00  0.00    -0.507 OA
ATOM     25  H   UNL     1      -8.431 -12.981  -8.871  1.00  0.00     0.293 HD
ENDBRANCH   6  24
BRANCH   8  26
ATOM     26  O   UNL     1     -12.431  -9.803  -9.350  1.00  0.00    -0.508 OA
ATOM     27  H   UNL     1     -12.740  -8.969  -8.864  1.00  0.00     0.293 HD
ENDBRANCH   8  26
TORSDOF 6
ENDMDL
MODEL 3
REMARK VINA RESULT:    -6.450      1.960      7.289
REMARK INTER + INTRA:          -8.338
REMARK INTER:                  -8.071
REMARK INTRA:                  -0.267
REMARK UNBOUND:                -0.380
REMARK SMILES COc1cc(-c2oc3cc(O)cc(O)c3c(=O)c2O)ccc1O
REMARK SMILES IDX 6 1 18 2 16 3 17 4 15 5 13 6 12 7 10 8 9 9 8 10 7 11 5 12
REMARK SMILES IDX 3 13 22 14 4 15 21 16 20 17 2 18 1 19 23 20 19 22 14 24
REMARK SMILES IDX 11 26
REMARK H PARENT 23 21 19 23 14 25 11 27
REMARK Flexibility Score: inf
ROOT
ATOM      1  C   UNL     1     -13.287 -14.665  -5.884  1.00  0.00     0.180 A 
ATOM      2  C   UNL     1     -11.978 -15.183  -5.857  1.00  0.00     0.208 A 
ATOM      3  C   UNL     1     -10.962 -14.492  -6.534  1.00  0.00     0.238 A 
ATOM      4  O   UNL     1      -9.782 -14.939  -6.507  1.00  0.00    -0.285 OA
ATOM      5  C   UNL     1     -11.272 -13.312  -7.241  1.00  0.00     0.111 A 
ATOM      6  C   UNL     1     -10.307 -12.558  -7.952  1.00  0.00     0.134 A 
ATOM      7  C   UNL     1     -10.699 -11.399  -8.639  1.00  0.00     0.093 A 
ATOM      8  C   UNL     1     -12.034 -10.981  -8.629  1.00  0.00     0.123 A 
ATOM      9  C   UNL     1     -12.988 -11.721  -7.928  1.00  0.00     0.094 A 
ATOM     10  C   UNL     1     -12.618 -12.877  -7.236  1.00  0.00     0.146 A 
ATOM     11  O   UNL     1     -13.546 -13.559  -6.574  1.00  0.00    -0.452 OA
ENDROOT
BRANCH   1  12
ATOM     12  C   UNL     1     -14.409 -15.327  -5.179  1.00  0.00     0.025 A 
ATOM     13  C   UNL     1     -15.538 -16.008  -3.117  1.00  0.00     0.161 A 
ATOM     14  C   UNL     1     -16.588 -16.547  -3.883  1.00  0.00     0.157 A 
ATOM     15  C   UNL     1     -14.453 -15.392  -3.774  1.00  0.00     0.062 A 
ATOM     16  C   UNL     1     -16.554 -16.461  -5.277  1.00  0.00     0.051 A 
ATOM     17  C   UNL     1     -15.477 -15.851  -5.921  1.00  0.00     0.016 A 
BRANCH  13  18
ATOM     18  O   UNL     1     -15.604 -16.098  -1.718  1.00  0.00    -0.493 OA
ATOM     19  C   UNL     1     -16.234 -15.139  -0.875  1.00  0.00     0.278 C 
ENDBRANCH  13  18
BRANCH  14  20
ATOM     20  O   UNL     1     -17.679 -17.167  -3.274  1.00  0.00    -0.504 OA
ATOM     21  H   UNL     1     -17.904 -17.025  -2.296  1.00  0.00     0.293 HD
ENDBRANCH  14  20
ENDBRANCH   1  12
BRANCH   2  22
ATOM     22  O   UNL     1     -11.705 -16.381  -5.190  1.00  0.00    -0.502 OA
ATOM     23  H   UNL     1     -12.394 -17.117  -5.092  1.00  0.00     0.293 HD
ENDBRANCH   2  22
BRANCH   6  24
ATOM     24  O   UNL     1      -8.969 -12.950  -7.981  1.00  0.00    -0.507 OA
ATOM     25  H   UNL     1      -8.414 -12.893  -8.828  1.00  0.00     0.293 HD
ENDBRANCH   6  24
BRANCH   8  26
ATOM     26  O   UNL     1     -12.423  -9.830  -9.311  1.00  0.00    -0.508 OA
ATOM     27  H   UNL     1     -13.071  -9.870 -10.089  1.00  0.00     0.293 HD
ENDBRANCH   8  26
TORSDOF 6
ENDMDL
MODEL 4
REMARK VINA RESULT:    -5.343      2.043      3.666
REMARK INTER + INTRA:          -6.972
REMARK INTER:                  -7.035
REMARK INTRA:                   0.062
REMARK UNBOUND:                -0.380
REMARK SMILES COc1cc(-c2oc3cc(O)cc(O)c3c(=O)c2O)ccc1O
REMARK SMILES IDX 6 1 18 2 16 3 17 4 15 5 13 6 12 7 10 8 9 9 8 10 7 11 5 12
REMARK SMILES IDX 3 13 22 14 4 15 21 16 20 17 2 18 1 19 23 20 19 22 14 24
REMARK SMILES IDX 11 26
REMARK H PARENT 23 21 19 23 14 25 11 27
REMARK Flexibility Score: inf
ROOT
ATOM      1  C   UNL     1     -12.871 -14.169  -5.925  1.00  0.00     0.180 A 
ATOM      2  C   UNL     1     -11.961 -14.832  -5.081  1.00  0.00     0.208 A 
ATOM      3  C   UNL     1     -12.416 -15.912  -4.309  1.00  0.00     0.238 A 
ATOM      4  O   UNL     1     -11.608 -16.522  -3.557  1.00  0.00    -0.285 OA
ATOM      5  C   UNL     1     -13.772 -16.296  -4.377  1.00  0.00     0.111 A 
ATOM      6  C   UNL     1     -14.311 -17.370  -3.629  1.00  0.00     0.134 A 
ATOM      7  C   UNL     1     -15.674 -17.683  -3.745  1.00  0.00     0.093 A 
ATOM      8  C   UNL     1     -16.505 -16.943  -4.594  1.00  0.00     0.123 A 
ATOM      9  C   UNL     1     -15.977 -15.885  -5.333  1.00  0.00     0.094 A 
ATOM     10  C   UNL     1     -14.622 -15.557  -5.233  1.00  0.00     0.146 A 
ATOM     11  O   UNL     1     -14.145 -14.548  -5.952  1.00  0.00    -0.452 OA
ENDROOT
BRANCH   1  12
ATOM     12  C   UNL     1     -12.463 -13.033  -6.784  1.00  0.00     0.025 A 
ATOM     13  C   UNL     1     -10.860 -11.953  -8.285  1.00  0.00     0.161 A 
ATOM     14  C   UNL     1     -11.753 -10.878  -8.449  1.00  0.00     0.157 A 
ATOM     15  C   UNL     1     -11.226 -13.032  -7.455  1.00  0.00     0.062 A 
ATOM     16  C   UNL     1     -12.991 -10.892  -7.800  1.00  0.00     0.051 A 
ATOM     17  C   UNL     1     -13.347 -11.963  -6.980  1.00  0.00     0.016 A 
BRANCH  13  18
ATOM     18  O   UNL     1      -9.628 -11.918  -8.958  1.00  0.00    -0.493 OA
ATOM     19  C   UNL     1      -8.381 -12.289  -8.382  1.00  0.00     0.278 C 
ENDBRANCH  13  18
BRANCH  14  20
ATOM     20  O   UNL     1     -11.430  -9.790  -9.259  1.00  0.00    -0.504 OA
ATOM     21  H   UNL     1     -11.363  -8.847  -8.893  1.00  0.00     0.293 HD
ENDBRANCH  14  20
ENDBRANCH   1  12
BRANCH   2  22
ATOM     22  O   UNL     1     -10.634 -14.401  -4.994  1.00  0.00    -0.502 OA
ATOM     23  H   UNL     1     -10.362 -13.587  -4.458  1.00  0.00     0.293 HD
ENDBRANCH   2  22
BRANCH   6  24
ATOM     24  O   UNL     1     -13.507 -18.124  -2.773  1.00  0.00    -0.507 OA
ATOM     25  H   UNL     1     -13.823 -19.005  -2.383  1.00  0.00     0.293 HD
ENDBRANCH   6  24
BRANCH   8  26
ATOM     26  O   UNL     1     -17.858 -17.254  -4.709  1.00  0.00    -0.508 OA
ATOM     27  H   UNL     1     -18.476 -17.236  -3.906  1.00  0.00     0.293 HD
ENDBRANCH   8  26
TORSDOF 6
ENDMDL
MODEL 5
REMARK VINA RESULT:    -5.220      2.227      3.959
REMARK INTER + INTRA:          -6.820
REMARK INTER:                  -6.984
REMARK INTRA:                   0.164
REMARK UNBOUND:                -0.380
REMARK SMILES COc1cc(-c2oc3cc(O)cc(O)c3c(=O)c2O)ccc1O
REMARK SMILES IDX 6 1 18 2 16 3 17 4 15 5 13 6 12 7 10 8 9 9 8 10 7 11 5 12
REMARK SMILES IDX 3 13 22 14 4 15 21 16 20 17 2 18 1 19 23 20 19 22 14 24
REMARK SMILES IDX 11 26
REMARK H PARENT 23 21 19 23 14 25 11 27
REMARK Flexibility Score: inf
ROOT
ATOM      1  C   UNL     1     -12.265 -14.250  -6.144  1.00  0.00     0.180 A 
ATOM      2  C   UNL     1     -11.305 -14.908  -5.351  1.00  0.00     0.208 A 
ATOM      3  C   UNL     1     -11.719 -15.963  -4.523  1.00  0.00     0.238 A 
ATOM      4  O   UNL     1     -10.867 -16.569  -3.816  1.00  0.00    -0.285 OA
ATOM      5  C   UNL     1     -13.081 -16.328  -4.485  1.00  0.00     0.111 A 
ATOM      6  C   UNL     1     -13.580 -17.376  -3.675  1.00  0.00     0.134 A 
ATOM      7  C   UNL     1     -14.952 -17.671  -3.687  1.00  0.00     0.093 A 
ATOM      8  C   UNL     1     -15.832 -16.938  -4.491  1.00  0.00     0.123 A 
ATOM      9  C   UNL     1     -15.343 -15.905  -5.291  1.00  0.00     0.094 A 
ATOM     10  C   UNL     1     -13.981 -15.596  -5.296  1.00  0.00     0.146 A 
ATOM     11  O   UNL     1     -13.543 -14.610  -6.071  1.00  0.00    -0.452 OA
ENDROOT
BRANCH   1  12
ATOM     12  C   UNL     1     -11.903 -13.141  -7.056  1.00  0.00     0.025 A 
ATOM     13  C   UNL     1     -12.385 -10.975  -8.089  1.00  0.00     0.161 A 
ATOM     14  C   UNL     1     -11.148 -11.031  -8.758  1.00  0.00     0.157 A 
ATOM     15  C   UNL     1     -12.752 -12.032  -7.232  1.00  0.00     0.062 A 
ATOM     16  C   UNL     1     -10.296 -12.122  -8.564  1.00  0.00     0.051 A 
ATOM     17  C   UNL     1     -10.666 -13.166  -7.715  1.00  0.00     0.016 A 
BRANCH  13  18
ATOM     18  O   UNL     1     -13.215  -9.862  -8.292  1.00  0.00    -0.493 OA
ATOM     19  C   UNL     1     -13.806  -9.092  -7.251  1.00  0.00     0.278 C 
ENDBRANCH  13  18
BRANCH  14  20
ATOM     20  O   UNL     1     -10.746 -10.008  -9.616  1.00  0.00    -0.504 OA
ATOM     21  H   UNL     1      -9.808  -9.626  -9.598  1.00  0.00     0.293 HD
ENDBRANCH  14  20
ENDBRANCH   1  12
BRANCH   2  22
ATOM     22  O   UNL     1      -9.971 -14.496  -5.369  1.00  0.00    -0.502 OA
ATOM     23  H   UNL     1      -9.547 -13.992  -4.599  1.00  0.00     0.293 HD
ENDBRANCH   2  22
BRANCH   6  24
ATOM     24  O   UNL     1     -12.728 -18.124  -2.862  1.00  0.00    -0.507 OA
ATOM     25  H   UNL     1     -13.041 -18.965  -2.391  1.00  0.00     0.293 HD
ENDBRANCH   6  24
BRANCH   8  26
ATOM     26  O   UNL     1     -17.194 -17.231  -4.502  1.00  0.00    -0.508 OA
ATOM     27  H   UNL     1     -17.789 -16.953  -5.274  1.00  0.00     0.293 HD
ENDBRANCH   8  26
TORSDOF 6
ENDMDL
MODEL 6
REMARK VINA RESULT:    -5.103      3.002      5.069
REMARK INTER + INTRA:          -6.676
REMARK INTER:                  -6.853
REMARK INTRA:                   0.177
REMARK UNBOUND:                -0.380
REMARK SMILES COc1cc(-c2oc3cc(O)cc(O)c3c(=O)c2O)ccc1O
REMARK SMILES IDX 6 1 18 2 16 3 17 4 15 5 13 6 12 7 10 8 9 9 8 10 7 11 5 12
REMARK SMILES IDX 3 13 22 14 4 15 21 16 20 17 2 18 1 19 23 20 19 22 14 24
REMARK SMILES IDX 11 26
REMARK H PARENT 23 21 19 23 14 25 11 27
REMARK Flexibility Score: inf
ROOT
ATOM      1  C   UNL     1     -12.661 -14.355  -5.506  1.00  0.00     0.180 A 
ATOM      2  C   UNL     1     -13.960 -14.879  -5.365  1.00  0.00     0.208 A 
ATOM      3  C   UNL     1     -14.170 -15.938  -4.467  1.00  0.00     0.238 A 
ATOM      4  O   UNL     1     -15.331 -16.408  -4.323  1.00  0.00    -0.285 OA
ATOM      5  C   UNL     1     -13.079 -16.466  -3.745  1.00  0.00     0.111 A 
ATOM      6  C   UNL     1     -13.206 -17.534  -2.825  1.00  0.00     0.134 A 
ATOM      7  C   UNL     1     -12.069 -18.010  -2.153  1.00  0.00     0.093 A 
ATOM      8  C   UNL     1     -10.813 -17.439  -2.383  1.00  0.00     0.123 A 
ATOM      9  C   UNL     1     -10.686 -16.385  -3.289  1.00  0.00     0.094 A 
ATOM     10  C   UNL     1     -11.804 -15.896  -3.968  1.00  0.00     0.146 A 
ATOM     11  O   UNL     1     -11.654 -14.889  -4.821  1.00  0.00    -0.452 OA
ENDROOT
BRANCH   1  12
ATOM     12  C   UNL     1     -12.363 -13.227  -6.419  1.00  0.00     0.025 A 
ATOM     13  C   UNL     1     -10.906 -12.108  -8.035  1.00  0.00     0.161 A 
ATOM     14  C   UNL     1     -11.867 -11.091  -8.182  1.00  0.00     0.157 A 
ATOM     15  C   UNL     1     -11.166 -13.178  -7.155  1.00  0.00     0.062 A 
ATOM     16  C   UNL     1     -13.067 -11.153  -7.467  1.00  0.00     0.051 A 
ATOM     17  C   UNL     1     -13.317 -12.215  -6.597  1.00  0.00     0.016 A 
BRANCH  13  18
ATOM     18  O   UNL     1      -9.716 -12.027  -8.774  1.00  0.00    -0.493 OA
ATOM     19  C   UNL     1      -8.437 -12.427  -8.295  1.00  0.00     0.278 C 
ENDBRANCH  13  18
BRANCH  14  20
ATOM     20  O   UNL     1     -11.651 -10.013  -9.039  1.00  0.00    -0.504 OA
ATOM     21  H   UNL     1     -10.894 -10.002  -9.713  1.00  0.00     0.293 HD
ENDBRANCH  14  20
ENDBRANCH   1  12
BRANCH   2  22
ATOM     22  O   UNL     1     -15.014 -14.370  -6.128  1.00  0.00    -0.502 OA
ATOM     23  H   UNL     1     -14.863 -13.843  -6.980  1.00  0.00     0.293 HD
ENDBRANCH   2  22
BRANCH   6  24
ATOM     24  O   UNL     1     -14.445 -18.125  -2.574  1.00  0.00    -0.507 OA
ATOM     25  H   UNL     1     -14.576 -19.129  -2.617  1.00  0.00     0.293 HD
ENDBRANCH   6  24
BRANCH   8  26
ATOM     26  O   UNL     1      -9.685 -17.912  -1.716  1.00  0.00    -0.508 OA
ATOM     27  H   UNL     1      -9.686 -18.060  -0.713  1.00  0.00     0.293 HD
ENDBRANCH   8  26
TORSDOF 6
ENDMDL
MODEL 7
REMARK VINA RESULT:    -5.036      2.624      7.259
REMARK INTER + INTRA:          -6.593
REMARK INTER:                  -6.834
REMARK INTRA:                   0.241
REMARK UNBOUND:                -0.380
REMARK SMILES COc1cc(-c2oc3cc(O)cc(O)c3c(=O)c2O)ccc1O
REMARK SMILES IDX 6 1 18 2 16 3 17 4 15 5 13 6 12 7 10 8 9 9 8 10 7 11 5 12
REMARK SMILES IDX 3 13 22 14 4 15 21 16 20 17 2 18 1 19 23 20 19 22 14 24
REMARK SMILES IDX 11 26
REMARK H PARENT 23 21 19 23 14 25 11 27
REMARK Flexibility Score: inf
ROOT
ATOM      1  C   UNL     1     -12.715 -14.696  -5.543  1.00  0.00     0.180 A 
ATOM      2  C   UNL     1     -11.363 -15.014  -5.773  1.00  0.00     0.208 A 
ATOM      3  C   UNL     1     -10.611 -14.195  -6.630  1.00  0.00     0.238 A 
ATOM      4  O   UNL     1      -9.395 -14.462  -6.835  1.00  0.00    -0.285 OA
ATOM      5  C   UNL     1     -11.225 -13.090  -7.256  1.00  0.00     0.111 A 
ATOM      6  C   UNL     1     -10.539 -12.219  -8.136  1.00  0.00     0.134 A 
ATOM      7  C   UNL     1     -11.224 -11.146  -8.726  1.00  0.00     0.093 A 
ATOM      8  C   UNL     1     -12.580 -10.930  -8.455  1.00  0.00     0.123 A 
ATOM      9  C   UNL     1     -13.259 -11.787  -7.587  1.00  0.00     0.094 A 
ATOM     10  C   UNL     1     -12.595 -12.860  -6.988  1.00  0.00     0.146 A 
ATOM     11  O   UNL     1     -13.265 -13.656  -6.163  1.00  0.00    -0.452 OA
ENDROOT
BRANCH   1  12
ATOM     12  C   UNL     1     -13.568 -15.501  -4.638  1.00  0.00     0.025 A 
ATOM     13  C   UNL     1     -13.840 -17.001  -2.724  1.00  0.00     0.161 A 
ATOM     14  C   UNL     1     -15.234 -16.970  -2.911  1.00  0.00     0.157 A 
ATOM     15  C   UNL     1     -13.013 -16.256  -3.589  1.00  0.00     0.062 A 
ATOM     16  C   UNL     1     -15.786 -16.199  -3.939  1.00  0.00     0.051 A 
ATOM     17  C   UNL     1     -14.961 -15.465  -4.792  1.00  0.00     0.016 A 
BRANCH  13  18
ATOM     18  O   UNL     1     -13.314 -17.773  -1.676  1.00  0.00    -0.493 OA
ATOM     19  C   UNL     1     -12.199 -17.397  -0.875  1.00  0.00     0.278 C 
ENDBRANCH  13  18
BRANCH  14  20
ATOM     20  O   UNL     1     -16.089 -17.693  -2.080  1.00  0.00    -0.504 OA
ATOM     21  H   UNL     1     -16.257 -17.428  -1.116  1.00  0.00     0.293 HD
ENDBRANCH  14  20
ENDBRANCH   1  12
BRANCH   2  22
ATOM     22  O   UNL     1     -10.791 -16.142  -5.180  1.00  0.00    -0.502 OA
ATOM     23  H   UNL     1     -10.066 -16.076  -4.476  1.00  0.00     0.293 HD
ENDBRANCH   2  22
BRANCH   6  24
ATOM     24  O   UNL     1      -9.188 -12.409  -8.427  1.00  0.00    -0.507 OA
ATOM     25  H   UNL     1      -8.705 -13.267  -8.185  1.00  0.00     0.293 HD
ENDBRANCH   6  24
BRANCH   8  26
ATOM     26  O   UNL     1     -13.260  -9.866  -9.042  1.00  0.00    -0.508 OA
ATOM     27  H   UNL     1     -12.930  -8.912  -8.951  1.00  0.00     0.293 HD
ENDBRANCH   8  26
TORSDOF 6
ENDMDL
MODEL 8
REMARK VINA RESULT:    -5.024      1.464      2.163
REMARK INTER + INTRA:          -6.579
REMARK INTER:                  -6.566
REMARK INTRA:                  -0.012
REMARK UNBOUND:                -0.380
REMARK SMILES COc1cc(-c2oc3cc(O)cc(O)c3c(=O)c2O)ccc1O
REMARK SMILES IDX 6 1 18 2 16 3 17 4 15 5 13 6 12 7 10 8 9 9 8 10 7 11 5 12
REMARK SMILES IDX 3 13 22 14 4 15 21 16 20 17 2 18 1 19 23 20 19 22 14 24
REMARK SMILES IDX 11 26
REMARK H PARENT 23 21 19 23 14 25 11 27
REMARK Flexibility Score: inf
ROOT
ATOM      1  C   UNL     1     -15.219 -15.976  -5.079  1.00  0.00     0.180 A 
ATOM      2  C   UNL     1     -15.734 -15.872  -3.773  1.00  0.00     0.208 A 
ATOM      3  C   UNL     1     -17.076 -16.212  -3.545  1.00  0.00     0.238 A 
ATOM      4  O   UNL     1     -17.547 -16.134  -2.377  1.00  0.00    -0.285 OA
ATOM      5  C   UNL     1     -17.883 -16.628  -4.625  1.00  0.00     0.111 A 
ATOM      6  C   UNL     1     -19.246 -16.984  -4.480  1.00  0.00     0.134 A 
ATOM      7  C   UNL     1     -19.984 -17.379  -5.606  1.00  0.00     0.093 A 
ATOM      8  C   UNL     1     -19.387 -17.424  -6.871  1.00  0.00     0.123 A 
ATOM      9  C   UNL     1     -18.044 -17.074  -7.016  1.00  0.00     0.094 A 
ATOM     10  C   UNL     1     -17.290 -16.680  -5.908  1.00  0.00     0.146 A 
ATOM     11  O   UNL     1     -16.013 -16.357  -6.075  1.00  0.00    -0.452 OA
ENDROOT
BRANCH   1  12
ATOM     12  C   UNL     1     -13.808 -15.653  -5.395  1.00  0.00     0.025 A 
ATOM     13  C   UNL     1     -11.684 -16.184  -6.489  1.00  0.00     0.161 A 
ATOM     14  C   UNL     1     -11.150 -14.971  -6.016  1.00  0.00     0.157 A 
ATOM     15  C   UNL     1     -13.019 -16.514  -6.180  1.00  0.00     0.062 A 
ATOM     16  C   UNL     1     -11.942 -14.105  -5.256  1.00  0.00     0.051 A 
ATOM     17  C   UNL     1     -13.263 -14.440  -4.953  1.00  0.00     0.016 A 
BRANCH  13  18
ATOM     18  O   UNL     1     -10.869 -17.028  -7.260  1.00  0.00    -0.493 OA
ATOM     19  C   UNL     1     -11.345 -18.117  -8.043  1.00  0.00     0.278 C 
ENDBRANCH  13  18
BRANCH  14  20
ATOM     20  O   UNL     1      -9.833 -14.605  -6.296  1.00  0.00    -0.504 OA
ATOM     21  H   UNL     1      -9.193 -14.298  -5.573  1.00  0.00     0.293 HD
ENDBRANCH  14  20
ENDBRANCH   1  12
BRANCH   2  22
ATOM     22  O   UNL     1     -14.927 -15.410  -2.730  1.00  0.00    -0.502 OA
ATOM     23  H   UNL     1     -14.275 -16.011  -2.241  1.00  0.00     0.293 HD
ENDBRANCH   2  22
BRANCH   6  24
ATOM     24  O   UNL     1     -19.870 -16.949  -3.233  1.00  0.00    -0.507 OA
ATOM     25  H   UNL     1     -19.477 -16.432  -2.454  1.00  0.00     0.293 HD
ENDBRANCH   6  24
BRANCH   8  26
ATOM     26  O   UNL     1     -20.119 -17.815  -7.989  1.00  0.00    -0.508 OA
ATOM     27  H   UNL     1     -20.940 -18.403  -7.904  1.00  0.00     0.293 HD
ENDBRANCH   8  26
TORSDOF 6
ENDMDL
MODEL 9
REMARK VINA RESULT:    -4.932      3.005      4.838
REMARK INTER + INTRA:          -6.465
REMARK INTER:                  -6.542
REMARK INTRA:                   0.078
REMARK UNBOUND:                -0.380
REMARK SMILES COc1cc(-c2oc3cc(O)cc(O)c3c(=O)c2O)ccc1O
REMARK SMILES IDX 6 1 18 2 16 3 17 4 15 5 13 6 12 7 10 8 9 9 8 10 7 11 5 12
REMARK SMILES IDX 3 13 22 14 4 15 21 16 20 17 2 18 1 19 23 20 19 22 14 24
REMARK SMILES IDX 11 26
REMARK H PARENT 23 21 19 23 14 25 11 27
REMARK Flexibility Score: inf
ROOT
ATOM      1  C   UNL     1     -12.542 -14.552  -5.524  1.00  0.00     0.180 A 
ATOM      2  C   UNL     1     -13.896 -14.918  -5.396  1.00  0.00     0.208 A 
ATOM      3  C   UNL     1     -14.253 -15.864  -4.423  1.00  0.00     0.238 A 
ATOM      4  O   UNL     1     -15.465 -16.191  -4.291  1.00  0.00    -0.285 OA
ATOM      5  C   UNL     1     -13.255 -16.442  -3.612  1.00  0.00     0.111 A 
ATOM      6  C   UNL     1     -13.531 -17.404  -2.611  1.00  0.00     0.134 A 
ATOM      7  C   UNL     1     -12.479 -17.939  -1.852  1.00  0.00     0.093 A 
ATOM      8  C   UNL     1     -11.159 -17.530  -2.074  1.00  0.00     0.123 A 
ATOM      9  C   UNL     1     -10.884 -16.581  -3.059  1.00  0.00     0.094 A 
ATOM     10  C   UNL     1     -11.917 -16.035  -3.825  1.00  0.00     0.146 A 
ATOM     11  O   UNL     1     -11.626 -15.129  -4.753  1.00  0.00    -0.452 OA
ENDROOT
BRANCH   1  12
ATOM     12  C   UNL     1     -12.090 -13.548  -6.514  1.00  0.00     0.025 A 
ATOM     13  C   UNL     1     -12.397 -11.441  -7.719  1.00  0.00     0.161 A 
ATOM     14  C   UNL     1     -11.162 -11.641  -8.363  1.00  0.00     0.157 A 
ATOM     15  C   UNL     1     -12.851 -12.397  -6.789  1.00  0.00     0.062 A 
ATOM     16  C   UNL     1     -10.396 -12.773  -8.071  1.00  0.00     0.051 A 
ATOM     17  C   UNL     1     -10.851 -13.716  -7.149  1.00  0.00     0.016 A 
BRANCH  13  18
ATOM     18  O   UNL     1     -13.140 -10.288  -8.022  1.00  0.00    -0.493 OA
ATOM     19  C   UNL     1     -13.972  -9.597  -7.098  1.00  0.00     0.278 C 
ENDBRANCH  13  18
BRANCH  14  20
ATOM     20  O   UNL     1     -10.676 -10.721  -9.292  1.00  0.00    -0.504 OA
ATOM     21  H   UNL     1     -10.432  -9.772  -9.035  1.00  0.00     0.293 HD
ENDBRANCH  14  20
ENDBRANCH   1  12
BRANCH   2  22
ATOM     22  O   UNL     1     -14.860 -14.367  -6.245  1.00  0.00    -0.502 OA
ATOM     23  H   UNL     1     -15.600 -14.922  -6.658  1.00  0.00     0.293 HD
ENDBRANCH   2  22
BRANCH   6  24
ATOM     24  O   UNL     1     -14.836 -17.833  -2.367  1.00  0.00    -0.507 OA
ATOM     25  H   UNL     1     -15.249 -17.786  -1.442  1.00  0.00     0.293 HD
ENDBRANCH   6  24
BRANCH   8  26
ATOM     26  O   UNL     1     -10.115 -18.061  -1.321  1.00  0.00    -0.508 OA
ATOM     27  H   UNL     1      -9.951 -17.770  -0.364  1.00  0.00     0.293 HD
ENDBRANCH   8  26
TORSDOF 6
ENDMDL
