MODEL 1
REMARK VINA RESULT:    -5.337      0.000      0.000
REMARK INTER + INTRA:          -8.664
REMARK INTER:                  -8.145
REMARK INTRA:                  -0.519
REMARK UNBOUND:                -0.519
REMARK SMILES CCCCCCCCCCC(=O)[O-]
REMARK SMILES IDX 7 1 8 2 9 3 10 4 11 5 12 6 13 7 6 8 5 9 4 10 3 11 2 12 1 13
REMARK H PARENT
REMARK Flexibility Score: inf
ROOT
ATOM      1  C   UNL     1      16.206   7.571  49.969  1.00  0.00     0.000 C 
ENDROOT
BRANCH   1   2
ATOM      2  C   UNL     1      15.344   6.463  49.336  1.00  0.00     0.000 C 
BRANCH   2   3
ATOM      3  C   UNL     1      14.543   6.950  48.116  1.00  0.00     0.006 C 
BRANCH   3   4
ATOM      4  C   UNL     1      15.160   8.203  47.481  1.00  0.00     0.053 C 
BRANCH   4   5
ATOM      5  C   UNL     1      16.006   7.863  46.293  1.00  0.00     0.041 C 
ATOM      6  O   UNL     1      15.671   8.255  45.144  1.00  0.00    -0.550 OA
ATOM      7  O   UNL     1      17.182   7.144  46.459  1.00  0.00    -0.550 OA
ENDBRANCH   4   5
ENDBRANCH   3   4
ENDBRANCH   2   3
ENDBRANCH   1   2
BRANCH   1   8
ATOM      8  C   UNL     1      17.722   7.425  49.744  1.00  0.00     0.000 C 
BRANCH   8   9
ATOM      9  C   UNL     1      18.452   8.777  49.685  1.00  0.00    -0.000 C 
BRANCH   9  10
ATOM     10  C   UNL     1      17.824   9.828  50.614  1.00  0.00    -0.000 C 
BRANCH  10  11
ATOM     11  C   UNL     1      18.642  10.043  51.899  1.00  0.00    -0.000 C 
BRANCH  11  12
ATOM     12  C   UNL     1      18.841   8.744  52.695  1.00  0.00    -0.003 C 
ATOM     13  C   UNL     1      19.615   8.957  53.996  1.00  0.00     0.004 C 
ENDBRANCH  11  12
ENDBRANCH  10  11
ENDBRANCH   9  10
ENDBRANCH   8   9
ENDBRANCH   1   8
TORSDOF 9
ENDMDL
MODEL 2
REMARK VINA RESULT:    -5.287      2.894      6.033
REMARK INTER + INTRA:          -8.588
REMARK INTER:                  -7.839
REMARK INTRA:                  -0.749
REMARK UNBOUND:                -0.519
REMARK SMILES CCCCCCCCCCC(=O)[O-]
REMARK SMILES IDX 7 1 8 2 9 3 10 4 11 5 12 6 13 7 6 8 5 9 4 10 3 11 2 12 1 13
REMARK H PARENT
REMARK Flexibility Score: inf
ROOT
ATOM      1  C   UNL     1      16.958   8.589  49.969  1.00  0.00     0.000 C 
ENDROOT
BRANCH   1   2
ATOM      2  C   UNL     1      18.050   9.618  49.623  1.00  0.00     0.000 C 
BRANCH   2   3
ATOM      3  C   UNL     1      18.612  10.335  50.862  1.00  0.00     0.006 C 
BRANCH   3   4
ATOM      4  C   UNL     1      18.313   9.571  52.158  1.00  0.00     0.053 C 
BRANCH   4   5
ATOM      5  C   UNL     1      19.490   8.763  52.609  1.00  0.00     0.041 C 
ATOM      6  O   UNL     1      19.803   8.723  53.828  1.00  0.00    -0.550 OA
ATOM      7  O   UNL     1      20.221   8.025  51.687  1.00  0.00    -0.550 OA
ENDBRANCH   4   5
ENDBRANCH   3   4
ENDBRANCH   2   3
ENDBRANCH   1   2
BRANCH   1   8
ATOM      8  C   UNL     1      17.344   7.120  49.716  1.00  0.00     0.000 C 
BRANCH   8   9
ATOM      9  C   UNL     1      16.158   6.261  49.246  1.00  0.00    -0.000 C 
BRANCH   9  10
ATOM     10  C   UNL     1      14.836   7.046  49.219  1.00  0.00    -0.000 C 
BRANCH  10  11
ATOM     11  C   UNL     1      14.167   7.024  47.833  1.00  0.00    -0.000 C 
BRANCH  11  12
ATOM     12  C   UNL     1      14.554   8.237  46.973  1.00  0.00    -0.003 C 
ATOM     13  C   UNL     1      15.896   8.058  46.264  1.00  0.00     0.004 C 
ENDBRANCH  11  12
ENDBRANCH  10  11
ENDBRANCH   9  10
ENDBRANCH   8   9
ENDBRANCH   1   8
TORSDOF 9
ENDMDL
MODEL 3
REMARK VINA RESULT:    -5.262      2.378      5.409
REMARK INTER + INTRA:          -8.549
REMARK INTER:                  -7.889
REMARK INTRA:                  -0.660
REMARK UNBOUND:                -0.519
REMARK SMILES CCCCCCCCCCC(=O)[O-]
REMARK SMILES IDX 7 1 8 2 9 3 10 4 11 5 12 6 13 7 6 8 5 9 4 10 3 11 2 12 1 13
REMARK H PARENT
REMARK Flexibility Score: inf
ROOT
ATOM      1  C   UNL     1      16.840   8.238  50.160  1.00  0.00     0.000 C 
ENDROOT
BRANCH   1   2
ATOM      2  C   UNL     1      17.838   8.339  51.328  1.00  0.00     0.000 C 
BRANCH   2   3
ATOM      3  C   UNL     1      18.519   9.716  51.417  1.00  0.00     0.006 C 
BRANCH   3   4
ATOM      4  C   UNL     1      18.690  10.367  50.039  1.00  0.00     0.053 C 
BRANCH   4   5
ATOM      5  C   UNL     1      20.029  10.059  49.444  1.00  0.00     0.041 C 
ATOM      6  O   UNL     1      20.931  10.937  49.423  1.00  0.00    -0.550 OA
ATOM      7  O   UNL     1      20.293   8.790  48.944  1.00  0.00    -0.550 OA
ENDBRANCH   4   5
ENDBRANCH   3   4
ENDBRANCH   2   3
ENDBRANCH   1   2
BRANCH   1   8
ATOM      8  C   UNL     1      16.051   6.918  50.089  1.00  0.00     0.000 C 
BRANCH   8   9
ATOM      9  C   UNL     1      14.655   7.085  49.466  1.00  0.00    -0.000 C 
BRANCH   9  10
ATOM     10  C   UNL     1      14.641   6.775  47.960  1.00  0.00    -0.000 C 
BRANCH  10  11
ATOM     11  C   UNL     1      14.650   8.048  47.097  1.00  0.00    -0.000 C 
BRANCH  11  12
ATOM     12  C   UNL     1      15.920   8.170  46.240  1.00  0.00    -0.003 C 
ATOM     13  C   UNL     1      16.992   7.148  46.619  1.00  0.00     0.004 C 
ENDBRANCH  11  12
ENDBRANCH  10  11
ENDBRANCH   9  10
ENDBRANCH   8   9
ENDBRANCH   1   8
TORSDOF 9
ENDMDL
MODEL 4
REMARK VINA RESULT:    -5.246      1.867      2.474
REMARK INTER + INTRA:          -8.526
REMARK INTER:                  -7.631
REMARK INTRA:                  -0.895
REMARK UNBOUND:                -0.519
REMARK SMILES CCCCCCCCCCC(=O)[O-]
REMARK SMILES IDX 7 1 8 2 9 3 10 4 11 5 12 6 13 7 6 8 5 9 4 10 3 11 2 12 1 13
REMARK H PARENT
REMARK Flexibility Score: inf
ROOT
ATOM      1  C   UNL     1      18.659   7.756  49.360  1.00  0.00     0.000 C 
ENDROOT
BRANCH   1   2
ATOM      2  C   UNL     1      17.810   7.662  48.079  1.00  0.00     0.000 C 
BRANCH   2   3
ATOM      3  C   UNL     1      16.393   8.234  48.256  1.00  0.00     0.006 C 
BRANCH   3   4
ATOM      4  C   UNL     1      15.665   7.614  49.456  1.00  0.00     0.053 C 
BRANCH   4   5
ATOM      5  C   UNL     1      14.974   6.339  49.087  1.00  0.00     0.041 C 
ATOM      6  O   UNL     1      13.789   6.360  48.660  1.00  0.00    -0.550 OA
ATOM      7  O   UNL     1      15.650   5.129  49.179  1.00  0.00    -0.550 OA
ENDBRANCH   4   5
ENDBRANCH   3   4
ENDBRANCH   2   3
ENDBRANCH   1   2
BRANCH   1   8
ATOM      8  C   UNL     1      19.704   8.886  49.369  1.00  0.00     0.000 C 
BRANCH   8   9
ATOM      9  C   UNL     1      19.153  10.209  49.926  1.00  0.00    -0.000 C 
BRANCH   9  10
ATOM     10  C   UNL     1      18.074   9.992  51.000  1.00  0.00    -0.000 C 
BRANCH  10  11
ATOM     11  C   UNL     1      18.657   9.957  52.423  1.00  0.00    -0.000 C 
BRANCH  11  12
ATOM     12  C   UNL     1      18.806   8.525  52.963  1.00  0.00    -0.003 C 
ATOM     13  C   UNL     1      20.002   8.367  53.902  1.00  0.00     0.004 C 
ENDBRANCH  11  12
ENDBRANCH  10  11
ENDBRANCH   9  10
ENDBRANCH   8   9
ENDBRANCH   1   8
TORSDOF 9
ENDMDL
MODEL 5
REMARK VINA RESULT:    -4.887      3.004      5.906
REMARK INTER + INTRA:          -7.977
REMARK INTER:                  -7.306
REMARK INTRA:                  -0.671
REMARK UNBOUND:                -0.519
REMARK SMILES CCCCCCCCCCC(=O)[O-]
REMARK SMILES IDX 7 1 8 2 9 3 10 4 11 5 12 6 13 7 6 8 5 9 4 10 3 11 2 12 1 13
REMARK H PARENT
REMARK Flexibility Score: inf
ROOT
ATOM      1  C   UNL     1      17.764   7.649  49.480  1.00  0.00     0.000 C 
ENDROOT
BRANCH   1   2
ATOM      2  C   UNL     1      17.266   8.980  50.074  1.00  0.00     0.000 C 
BRANCH   2   3
ATOM      3  C   UNL     1      18.399   9.829  50.676  1.00  0.00     0.006 C 
BRANCH   3   4
ATOM      4  C   UNL     1      18.395   9.795  52.210  1.00  0.00     0.053 C 
BRANCH   4   5
ATOM      5  C   UNL     1      19.424   8.848  52.746  1.00  0.00     0.041 C 
ATOM      6  O   UNL     1      20.018   8.053  51.971  1.00  0.00    -0.550 OA
ATOM      7  O   UNL     1      19.753   8.869  54.095  1.00  0.00    -0.550 OA
ENDBRANCH   4   5
ENDBRANCH   3   4
ENDBRANCH   2   3
ENDBRANCH   1   2
BRANCH   1   8
ATOM      8  C   UNL     1      18.197   7.717  48.004  1.00  0.00     0.000 C 
BRANCH   8   9
ATOM      9  C   UNL     1      17.222   6.995  47.059  1.00  0.00    -0.000 C 
BRANCH   9  10
ATOM     10  C   UNL     1      16.281   7.967  46.329  1.00  0.00    -0.000 C 
BRANCH  10  11
ATOM     11  C   UNL     1      15.102   8.418  47.209  1.00  0.00    -0.000 C 
BRANCH  11  12
ATOM     12  C   UNL     1      14.113   7.277  47.497  1.00  0.00    -0.003 C 
ATOM     13  C   UNL     1      14.268   6.700  48.904  1.00  0.00     0.004 C 
ENDBRANCH  11  12
ENDBRANCH  10  11
ENDBRANCH   9  10
ENDBRANCH   8   9
ENDBRANCH   1   8
TORSDOF 9
ENDMDL
MODEL 6
REMARK VINA RESULT:    -4.725      1.079      1.954
REMARK INTER + INTRA:          -7.729
REMARK INTER:                  -7.154
REMARK INTRA:                  -0.575
REMARK UNBOUND:                -0.519
REMARK SMILES CCCCCCCCCCC(=O)[O-]
REMARK SMILES IDX 7 1 8 2 9 3 10 4 11 5 12 6 13 7 6 8 5 9 4 10 3 11 2 12 1 13
REMARK H PARENT
REMARK Flexibility Score: inf
ROOT
ATOM      1  C   UNL     1      16.307   7.045  49.855  1.00  0.00     0.000 C 
ENDROOT
BRANCH   1   2
ATOM      2  C   UNL     1      14.793   6.963  49.591  1.00  0.00     0.000 C 
BRANCH   2   3
ATOM      3  C   UNL     1      14.441   7.033  48.094  1.00  0.00     0.006 C 
BRANCH   3   4
ATOM      4  C   UNL     1      15.051   8.265  47.414  1.00  0.00     0.053 C 
BRANCH   4   5
ATOM      5  C   UNL     1      15.891   7.886  46.233  1.00  0.00     0.041 C 
ATOM      6  O   UNL     1      15.519   8.188  45.068  1.00  0.00    -0.550 OA
ATOM      7  O   UNL     1      17.102   7.233  46.422  1.00  0.00    -0.550 OA
ENDBRANCH   4   5
ENDBRANCH   3   4
ENDBRANCH   2   3
ENDBRANCH   1   2
BRANCH   1   8
ATOM      8  C   UNL     1      16.778   8.337  50.547  1.00  0.00     0.000 C 
BRANCH   8   9
ATOM      9  C   UNL     1      17.888   8.092  51.584  1.00  0.00    -0.000 C 
BRANCH   9  10
ATOM     10  C   UNL     1      18.719   9.355  51.867  1.00  0.00    -0.000 C 
BRANCH  10  11
ATOM     11  C   UNL     1      18.772  10.308  50.660  1.00  0.00    -0.000 C 
BRANCH  11  12
ATOM     12  C   UNL     1      20.116  10.244  49.918  1.00  0.00    -0.003 C 
ATOM     13  C   UNL     1      20.191   9.085  48.924  1.00  0.00     0.004 C 
ENDBRANCH  11  12
ENDBRANCH  10  11
ENDBRANCH   9  10
ENDBRANCH   8   9
ENDBRANCH   1   8
TORSDOF 9
ENDMDL
MODEL 7
REMARK VINA RESULT:    -4.434      1.356      2.447
REMARK INTER + INTRA:          -7.285
REMARK INTER:                  -7.112
REMARK INTRA:                  -0.173
REMARK UNBOUND:                -0.519
REMARK SMILES CCCCCCCCCCC(=O)[O-]
REMARK SMILES IDX 7 1 8 2 9 3 10 4 11 5 12 6 13 7 6 8 5 9 4 10 3 11 2 12 1 13
REMARK H PARENT
REMARK Flexibility Score: inf
ROOT
ATOM      1  C   UNL     1      19.815   8.976  49.471  1.00  0.00     0.000 C 
ENDROOT
BRANCH   1   2
ATOM      2  C   UNL     1      18.889   7.805  49.097  1.00  0.00     0.000 C 
BRANCH   2   3
ATOM      3  C   UNL     1      17.510   8.268  48.594  1.00  0.00     0.006 C 
BRANCH   3   4
ATOM      4  C   UNL     1      16.642   7.095  48.122  1.00  0.00     0.053 C 
BRANCH   4   5
ATOM      5  C   UNL     1      15.593   7.538  47.150  1.00  0.00     0.041 C 
ATOM      6  O   UNL     1      14.372   7.404  47.429  1.00  0.00    -0.550 OA
ATOM      7  O   UNL     1      15.963   8.133  45.951  1.00  0.00    -0.550 OA
ENDBRANCH   4   5
ENDBRANCH   3   4
ENDBRANCH   2   3
ENDBRANCH   1   2
BRANCH   1   8
ATOM      8  C   UNL     1      19.105  10.323  49.698  1.00  0.00     0.000 C 
BRANCH   8   9
ATOM      9  C   UNL     1      18.011  10.250  50.777  1.00  0.00    -0.000 C 
BRANCH   9  10
ATOM     10  C   UNL     1      18.577   9.919  52.168  1.00  0.00    -0.000 C 
BRANCH  10  11
ATOM     11  C   UNL     1      18.280   8.472  52.595  1.00  0.00    -0.000 C 
BRANCH  11  12
ATOM     12  C   UNL     1      19.522   7.754  53.147  1.00  0.00    -0.003 C 
ATOM     13  C   UNL     1      20.206   8.531  54.272  1.00  0.00     0.004 C 
ENDBRANCH  11  12
ENDBRANCH  10  11
ENDBRANCH   9  10
ENDBRANCH   8   9
ENDBRANCH   1   8
TORSDOF 9
ENDMDL
MODEL 8
REMARK VINA RESULT:    -4.280      8.083      9.798
REMARK INTER + INTRA:          -7.050
REMARK INTER:                  -5.931
REMARK INTRA:                  -1.119
REMARK UNBOUND:                -0.519
REMARK SMILES CCCCCCCCCCC(=O)[O-]
REMARK SMILES IDX 7 1 8 2 9 3 10 4 11 5 12 6 13 7 6 8 5 9 4 10 3 11 2 12 1 13
REMARK H PARENT
REMARK Flexibility Score: inf
ROOT
ATOM      1  C   UNL     1      14.422   1.075  48.398  1.00  0.00     0.000 C 
ENDROOT
BRANCH   1   2
ATOM      2  C   UNL     1      13.067   1.186  47.676  1.00  0.00     0.000 C 
BRANCH   2   3
ATOM      3  C   UNL     1      13.205   1.619  46.206  1.00  0.00     0.006 C 
BRANCH   3   4
ATOM      4  C   UNL     1      11.889   1.465  45.432  1.00  0.00     0.053 C 
BRANCH   4   5
ATOM      5  C   UNL     1      12.053   1.818  43.986  1.00  0.00     0.041 C 
ATOM      6  O   UNL     1      11.621   2.917  43.548  1.00  0.00    -0.550 OA
ATOM      7  O   UNL     1      12.716   0.950  43.128  1.00  0.00    -0.550 OA
ENDBRANCH   4   5
ENDBRANCH   3   4
ENDBRANCH   2   3
ENDBRANCH   1   2
BRANCH   1   8
ATOM      8  C   UNL     1      15.655   1.093  47.477  1.00  0.00     0.000 C 
BRANCH   8   9
ATOM      9  C   UNL     1      16.308  -0.291  47.322  1.00  0.00    -0.000 C 
BRANCH   9  10
ATOM     10  C   UNL     1      15.463  -1.414  47.945  1.00  0.00    -0.000 C 
BRANCH  10  11
ATOM     11  C   UNL     1      15.022  -2.463  46.908  1.00  0.00    -0.000 C 
BRANCH  11  12
ATOM     12  C   UNL     1      14.506  -1.824  45.608  1.00  0.00    -0.003 C 
ATOM     13  C   UNL     1      13.018  -2.081  45.371  1.00  0.00     0.004 C 
ENDBRANCH  11  12
ENDBRANCH  10  11
ENDBRANCH   9  10
ENDBRANCH   8   9
ENDBRANCH   1   8
TORSDOF 9
ENDMDL
MODEL 9
REMARK VINA RESULT:    -4.251      5.044      6.725
REMARK INTER + INTRA:          -7.007
REMARK INTER:                  -6.494
REMARK INTRA:                  -0.513
REMARK UNBOUND:                -0.519
REMARK SMILES CCCCCCCCCCC(=O)[O-]
REMARK SMILES IDX 7 1 8 2 9 3 10 4 11 5 12 6 13 7 6 8 5 9 4 10 3 11 2 12 1 13
REMARK H PARENT
REMARK Flexibility Score: inf
ROOT
ATOM      1  C   UNL     1      20.617  10.437  49.911  1.00  0.00     0.000 C 
ENDROOT
BRANCH   1   2
ATOM      2  C   UNL     1      21.305  11.457  48.986  1.00  0.00     0.000 C 
BRANCH   2   3
ATOM      3  C   UNL     1      22.307  12.358  49.729  1.00  0.00     0.006 C 
BRANCH   3   4
ATOM      4  C   UNL     1      22.842  13.487  48.837  1.00  0.00     0.053 C 
BRANCH   4   5
ATOM      5  C   UNL     1      24.120  13.099  48.160  1.00  0.00     0.041 C 
ATOM      6  O   UNL     1      24.718  12.041  48.492  1.00  0.00    -0.550 OA
ATOM      7  O   UNL     1      24.633  13.888  47.138  1.00  0.00    -0.550 OA
ENDBRANCH   4   5
ENDBRANCH   3   4
ENDBRANCH   2   3
ENDBRANCH   1   2
BRANCH   1   8
ATOM      8  C   UNL     1      20.201   9.119  49.232  1.00  0.00     0.000 C 
BRANCH   8   9
ATOM      9  C   UNL     1      18.805   8.637  49.662  1.00  0.00    -0.000 C 
BRANCH   9  10
ATOM     10  C   UNL     1      18.248   9.434  50.853  1.00  0.00    -0.000 C 
BRANCH  10  11
ATOM     11  C   UNL     1      18.032   8.557  52.099  1.00  0.00    -0.000 C 
BRANCH  11  12
ATOM     12  C   UNL     1      19.355   8.109  52.740  1.00  0.00    -0.003 C 
ATOM     13  C   UNL     1      19.700   8.901  54.002  1.00  0.00     0.004 C 
ENDBRANCH  11  12
ENDBRANCH  10  11
ENDBRANCH   9  10
ENDBRANCH   8   9
ENDBRANCH   1   8
TORSDOF 9
ENDMDL
