MODEL 1
REMARK VINA RESULT:    -2.943      0.000      0.000
REMARK INTER + INTRA:          -3.577
REMARK INTER:                  -3.459
REMARK INTRA:                  -0.118
REMARK UNBOUND:                -0.118
REMARK SMILES O=C([O-])CCC(=O)[O-]
REMARK SMILES IDX 4 1 2 2 1 3 3 4 5 5 6 6 7 7 8 8
REMARK H PARENT
REMARK Flexibility Score: inf
ROOT
ATOM      1  C   UNL     1       0.583  60.279  -6.456  1.00  0.00     0.059 C 
ENDROOT
BRANCH   1   2
ATOM      2  C   UNL     1       0.925  61.399  -5.526  1.00  0.00     0.042 C 
ATOM      3  O   UNL     1       0.990  62.581  -5.953  1.00  0.00    -0.550 OA
ATOM      4  O   UNL     1       1.125  61.144  -4.174  1.00  0.00    -0.550 OA
ENDBRANCH   1   2
BRANCH   1   5
ATOM      5  C   UNL     1       1.853  59.677  -7.059  1.00  0.00     0.059 C 
BRANCH   5   6
ATOM      6  C   UNL     1       1.956  60.019  -8.511  1.00  0.00     0.042 C 
ATOM      7  O   UNL     1       2.030  59.105  -9.374  1.00  0.00    -0.550 OA
ATOM      8  O   UNL     1       2.018  61.348  -8.910  1.00  0.00    -0.550 OA
ENDBRANCH   5   6
ENDBRANCH   1   5
TORSDOF 3
ENDMDL
MODEL 2
REMARK VINA RESULT:    -2.917      8.570      9.987
REMARK INTER + INTRA:          -3.547
REMARK INTER:                  -3.387
REMARK INTRA:                  -0.160
REMARK UNBOUND:                -0.118
REMARK SMILES O=C([O-])CCC(=O)[O-]
REMARK SMILES IDX 4 1 2 2 1 3 3 4 5 5 6 6 7 7 8 8
REMARK H PARENT
REMARK Flexibility Score: inf
ROOT
ATOM      1  C   UNL     1      -4.302  67.057  -7.511  1.00  0.00     0.059 C 
ENDROOT
BRANCH   1   2
ATOM      2  C   UNL     1      -4.212  66.442  -6.151  1.00  0.00     0.042 C 
ATOM      3  O   UNL     1      -4.681  65.292  -5.942  1.00  0.00    -0.550 OA
ATOM      4  O   UNL     1      -3.566  67.118  -5.123  1.00  0.00    -0.550 OA
ENDBRANCH   1   2
BRANCH   1   5
ATOM      5  C   UNL     1      -4.734  68.520  -7.410  1.00  0.00     0.059 C 
BRANCH   5   6
ATOM      6  C   UNL     1      -6.167  68.616  -6.994  1.00  0.00     0.042 C 
ATOM      7  O   UNL     1      -7.084  68.352  -7.816  1.00  0.00    -0.550 OA
ATOM      8  O   UNL     1      -6.492  69.041  -5.712  1.00  0.00    -0.550 OA
ENDBRANCH   5   6
ENDBRANCH   1   5
TORSDOF 3
ENDMDL
MODEL 3
REMARK VINA RESULT:    -2.891      8.601      9.931
REMARK INTER + INTRA:          -3.516
REMARK INTER:                  -3.369
REMARK INTRA:                  -0.147
REMARK UNBOUND:                -0.118
REMARK SMILES O=C([O-])CCC(=O)[O-]
REMARK SMILES IDX 4 1 2 2 1 3 3 4 5 5 6 6 7 7 8 8
REMARK H PARENT
REMARK Flexibility Score: inf
ROOT
ATOM      1  C   UNL     1      -4.708  68.557  -7.417  1.00  0.00     0.059 C 
ENDROOT
BRANCH   1   2
ATOM      2  C   UNL     1      -6.152  68.669  -7.041  1.00  0.00     0.042 C 
ATOM      3  O   UNL     1      -6.479  69.050  -5.887  1.00  0.00    -0.550 OA
ATOM      4  O   UNL     1      -7.138  68.399  -7.983  1.00  0.00    -0.550 OA
ENDBRANCH   1   2
BRANCH   1   5
ATOM      5  C   UNL     1      -4.294  67.088  -7.523  1.00  0.00     0.059 C 
BRANCH   5   6
ATOM      6  C   UNL     1      -4.187  66.475  -6.163  1.00  0.00     0.042 C 
ATOM      7  O   UNL     1      -4.696  65.346  -5.935  1.00  0.00    -0.550 OA
ATOM      8  O   UNL     1      -3.566  67.170  -5.133  1.00  0.00    -0.550 OA
ENDBRANCH   5   6
ENDBRANCH   1   5
TORSDOF 3
ENDMDL
MODEL 4
REMARK VINA RESULT:    -2.874     20.131     20.935
REMARK INTER + INTRA:          -3.496
REMARK INTER:                  -3.381
REMARK INTRA:                  -0.116
REMARK UNBOUND:                -0.118
REMARK SMILES O=C([O-])CCC(=O)[O-]
REMARK SMILES IDX 4 1 2 2 1 3 3 4 5 5 6 6 7 7 8 8
REMARK H PARENT
REMARK Flexibility Score: inf
ROOT
ATOM      1  C   UNL     1      -8.756  52.862   8.690  1.00  0.00     0.059 C 
ENDROOT
BRANCH   1   2
ATOM      2  C   UNL     1      -7.580  53.390   9.449  1.00  0.00     0.042 C 
ATOM      3  O   UNL     1      -6.494  52.753   9.459  1.00  0.00    -0.550 OA
ATOM      4  O   UNL     1      -7.668  54.611  10.106  1.00  0.00    -0.550 OA
ENDBRANCH   1   2
BRANCH   1   5
ATOM      5  C   UNL     1      -9.405  51.702   9.446  1.00  0.00     0.059 C 
BRANCH   5   6
ATOM      6  C   UNL     1      -9.390  50.460   8.612  1.00  0.00     0.042 C 
ATOM      7  O   UNL     1      -8.296  49.945   8.262  1.00  0.00    -0.550 OA
ATOM      8  O   UNL     1     -10.585  49.897   8.182  1.00  0.00    -0.550 OA
ENDBRANCH   5   6
ENDBRANCH   1   5
TORSDOF 3
ENDMDL
MODEL 5
REMARK VINA RESULT:    -2.861     20.288     21.558
REMARK INTER + INTRA:          -3.481
REMARK INTER:                  -3.361
REMARK INTRA:                  -0.120
REMARK UNBOUND:                -0.118
REMARK SMILES O=C([O-])CCC(=O)[O-]
REMARK SMILES IDX 4 1 2 2 1 3 3 4 5 5 6 6 7 7 8 8
REMARK H PARENT
REMARK Flexibility Score: inf
ROOT
ATOM      1  C   UNL     1      -8.896  49.162   8.275  1.00  0.00     0.059 C 
ENDROOT
BRANCH   1   2
ATOM      2  C   UNL     1     -10.177  49.893   8.516  1.00  0.00     0.042 C 
ATOM      3  O   UNL     1     -10.176  50.987   9.140  1.00  0.00    -0.550 OA
ATOM      4  O   UNL     1     -11.370  49.392   8.010  1.00  0.00    -0.550 OA
ENDBRANCH   1   2
BRANCH   1   5
ATOM      5  C   UNL     1      -7.892  49.456   9.390  1.00  0.00     0.059 C 
BRANCH   5   6
ATOM      6  C   UNL     1      -6.721  50.216   8.853  1.00  0.00     0.042 C 
ATOM      7  O   UNL     1      -6.901  51.237   8.139  1.00  0.00    -0.550 OA
ATOM      8  O   UNL     1      -5.429  49.771   9.103  1.00  0.00    -0.550 OA
ENDBRANCH   5   6
ENDBRANCH   1   5
TORSDOF 3
ENDMDL
MODEL 6
REMARK VINA RESULT:    -2.849     19.758     21.216
REMARK INTER + INTRA:          -3.466
REMARK INTER:                  -3.359
REMARK INTRA:                  -0.108
REMARK UNBOUND:                -0.118
REMARK SMILES O=C([O-])CCC(=O)[O-]
REMARK SMILES IDX 4 1 2 2 1 3 3 4 5 5 6 6 7 7 8 8
REMARK H PARENT
REMARK Flexibility Score: inf
ROOT
ATOM      1  C   UNL     1      -9.145  51.775   8.955  1.00  0.00     0.059 C 
ENDROOT
BRANCH   1   2
ATOM      2  C   UNL     1      -7.733  52.078   8.567  1.00  0.00     0.042 C 
ATOM      3  O   UNL     1      -6.977  51.159   8.155  1.00  0.00    -0.550 OA
ATOM      4  O   UNL     1      -7.265  53.385   8.612  1.00  0.00    -0.550 OA
ENDBRANCH   1   2
BRANCH   1   5
ATOM      5  C   UNL     1      -9.293  50.299   9.328  1.00  0.00     0.059 C 
BRANCH   5   6
ATOM      6  C   UNL     1     -10.084  49.573   8.287  1.00  0.00     0.042 C 
ATOM      7  O   UNL     1      -9.495  48.945   7.367  1.00  0.00    -0.550 OA
ATOM      8  O   UNL     1     -11.472  49.626   8.303  1.00  0.00    -0.550 OA
ENDBRANCH   5   6
ENDBRANCH   1   5
TORSDOF 3
ENDMDL
MODEL 7
REMARK VINA RESULT:    -2.846     20.105     21.057
REMARK INTER + INTRA:          -3.463
REMARK INTER:                  -3.344
REMARK INTRA:                  -0.120
REMARK UNBOUND:                -0.118
REMARK SMILES O=C([O-])CCC(=O)[O-]
REMARK SMILES IDX 4 1 2 2 1 3 3 4 5 5 6 6 7 7 8 8
REMARK H PARENT
REMARK Flexibility Score: inf
ROOT
ATOM      1  C   UNL     1      -9.482  51.765   9.415  1.00  0.00     0.059 C 
ENDROOT
BRANCH   1   2
ATOM      2  C   UNL     1      -9.490  50.492   8.631  1.00  0.00     0.042 C 
ATOM      3  O   UNL     1     -10.580  49.979   8.265  1.00  0.00    -0.550 OA
ATOM      4  O   UNL     1      -8.290  49.897   8.261  1.00  0.00    -0.550 OA
ENDBRANCH   1   2
BRANCH   1   5
ATOM      5  C   UNL     1      -8.763  52.869   8.639  1.00  0.00     0.059 C 
BRANCH   5   6
ATOM      6  C   UNL     1      -7.551  53.329   9.386  1.00  0.00     0.042 C 
ATOM      7  O   UNL     1      -6.502  52.633   9.382  1.00  0.00    -0.550 OA
ATOM      8  O   UNL     1      -7.594  54.504  10.125  1.00  0.00    -0.550 OA
ENDBRANCH   5   6
ENDBRANCH   1   5
TORSDOF 3
ENDMDL
MODEL 8
REMARK VINA RESULT:    -2.831     19.749     21.283
REMARK INTER + INTRA:          -3.445
REMARK INTER:                  -3.338
REMARK INTRA:                  -0.107
REMARK UNBOUND:                -0.118
REMARK SMILES O=C([O-])CCC(=O)[O-]
REMARK SMILES IDX 4 1 2 2 1 3 3 4 5 5 6 6 7 7 8 8
REMARK H PARENT
REMARK Flexibility Score: inf
ROOT
ATOM      1  C   UNL     1      -9.309  50.419   9.393  1.00  0.00     0.059 C 
ENDROOT
BRANCH   1   2
ATOM      2  C   UNL     1     -10.036  49.642   8.343  1.00  0.00     0.042 C 
ATOM      3  O   UNL     1      -9.395  48.972   7.491  1.00  0.00    -0.550 OA
ATOM      4  O   UNL     1     -11.426  49.616   8.334  1.00  0.00    -0.550 OA
ENDBRANCH   1   2
BRANCH   1   5
ATOM      5  C   UNL     1      -9.119  51.871   8.950  1.00  0.00     0.059 C 
BRANCH   5   6
ATOM      6  C   UNL     1      -7.689  52.128   8.598  1.00  0.00     0.042 C 
ATOM      7  O   UNL     1      -7.241  53.305   8.583  1.00  0.00    -0.550 OA
ATOM      8  O   UNL     1      -6.860  51.073   8.239  1.00  0.00    -0.550 OA
ENDBRANCH   5   6
ENDBRANCH   1   5
TORSDOF 3
ENDMDL
MODEL 9
REMARK VINA RESULT:    -2.785      8.828     10.080
REMARK INTER + INTRA:          -3.391
REMARK INTER:                  -3.269
REMARK INTRA:                  -0.122
REMARK UNBOUND:                -0.118
REMARK SMILES O=C([O-])CCC(=O)[O-]
REMARK SMILES IDX 4 1 2 2 1 3 3 4 5 5 6 6 7 7 8 8
REMARK H PARENT
REMARK Flexibility Score: inf
ROOT
ATOM      1  C   UNL     1      -5.927  67.267  -5.950  1.00  0.00     0.059 C 
ENDROOT
BRANCH   1   2
ATOM      2  C   UNL     1      -4.615  66.550  -5.937  1.00  0.00     0.042 C 
ATOM      3  O   UNL     1      -4.580  65.291  -5.921  1.00  0.00    -0.550 OA
ATOM      4  O   UNL     1      -3.428  67.270  -5.993  1.00  0.00    -0.550 OA
ENDBRANCH   1   2
BRANCH   1   5
ATOM      5  C   UNL     1      -5.779  68.645  -6.597  1.00  0.00     0.059 C 
BRANCH   5   6
ATOM      6  C   UNL     1      -6.151  68.587  -8.044  1.00  0.00     0.042 C 
ATOM      7  O   UNL     1      -5.255  68.528  -8.927  1.00  0.00    -0.550 OA
ATOM      8  O   UNL     1      -7.486  68.645  -8.422  1.00  0.00    -0.550 OA
ENDBRANCH   5   6
ENDBRANCH   1   5
TORSDOF 3
ENDMDL
