MODEL 1
REMARK VINA RESULT:    -5.165      0.000      0.000
REMARK INTER + INTRA:          -5.739
REMARK INTER:                  -5.618
REMARK INTRA:                  -0.121
REMARK UNBOUND:                -0.121
REMARK SMILES Cc1ccc(C(C)C)cc1O
REMARK SMILES IDX 1 1 2 2 10 3 9 4 5 5 4 6 3 7 11 8 6 10 7 11 8 12
REMARK H PARENT 11 9
REMARK Flexibility Score: inf
ROOT
ATOM      1  C   UNL     1      45.433   6.619  15.519  1.00  0.00     0.048 C 
ATOM      2  C   UNL     1      45.558   7.119  16.930  1.00  0.00    -0.009 A 
ATOM      3  C   UNL     1      46.569   6.621  17.771  1.00  0.00     0.118 A 
ATOM      4  C   UNL     1      46.680   7.091  19.087  1.00  0.00     0.050 A 
ATOM      5  C   UNL     1      45.790   8.061  19.580  1.00  0.00    -0.042 A 
ATOM      6  C   UNL     1      44.782   8.554  18.731  1.00  0.00     0.004 A 
ATOM      7  C   UNL     1      44.669   8.086  17.420  1.00  0.00     0.007 A 
ENDROOT
BRANCH   3   8
ATOM      8  O   UNL     1      47.461   5.659  17.296  1.00  0.00    -0.508 OA
ATOM      9  H   UNL     1      47.756   4.878  17.871  1.00  0.00     0.293 HD
ENDBRANCH   3   8
BRANCH   5  10
ATOM     10  C   UNL     1      45.924   8.559  21.007  1.00  0.00     0.013 C 
ATOM     11  C   UNL     1      44.576   8.511  21.738  1.00  0.00     0.012 C 
ATOM     12  C   UNL     1      46.994   7.769  21.771  1.00  0.00     0.012 C 
ENDBRANCH   5  10
TORSDOF 2
ENDMDL
MODEL 2
REMARK VINA RESULT:    -5.150      1.652      4.314
REMARK INTER + INTRA:          -5.723
REMARK INTER:                  -5.609
REMARK INTRA:                  -0.114
REMARK UNBOUND:                -0.121
REMARK SMILES Cc1ccc(C(C)C)cc1O
REMARK SMILES IDX 1 1 2 2 10 3 9 4 5 5 4 6 3 7 11 8 6 10 7 11 8 12
REMARK H PARENT 11 9
REMARK Flexibility Score: inf
ROOT
ATOM      1  C   UNL     1      46.376   8.397  22.763  1.00  0.00     0.048 C 
ATOM      2  C   UNL     1      46.288   8.181  21.280  1.00  0.00    -0.009 A 
ATOM      3  C   UNL     1      46.836   7.024  20.698  1.00  0.00     0.118 A 
ATOM      4  C   UNL     1      46.751   6.829  19.312  1.00  0.00     0.050 A 
ATOM      5  C   UNL     1      46.121   7.779  18.491  1.00  0.00    -0.042 A 
ATOM      6  C   UNL     1      45.574   8.933  19.081  1.00  0.00     0.004 A 
ATOM      7  C   UNL     1      45.658   9.131  20.461  1.00  0.00     0.007 A 
ENDROOT
BRANCH   3   8
ATOM      8  O   UNL     1      47.465   6.071  21.500  1.00  0.00    -0.508 OA
ATOM      9  H   UNL     1      46.941   5.488  22.142  1.00  0.00     0.293 HD
ENDBRANCH   3   8
BRANCH   5  10
ATOM     10  C   UNL     1      46.037   7.552  16.993  1.00  0.00     0.013 C 
ATOM     11  C   UNL     1      46.899   6.357  16.566  1.00  0.00     0.012 C 
ATOM     12  C   UNL     1      44.583   7.372  16.541  1.00  0.00     0.012 C 
ENDBRANCH   5  10
TORSDOF 2
ENDMDL
MODEL 3
REMARK VINA RESULT:    -5.098      1.226      2.142
REMARK INTER + INTRA:          -5.667
REMARK INTER:                  -5.553
REMARK INTRA:                  -0.114
REMARK UNBOUND:                -0.121
REMARK SMILES Cc1ccc(C(C)C)cc1O
REMARK SMILES IDX 1 1 2 2 10 3 9 4 5 5 4 6 3 7 11 8 6 10 7 11 8 12
REMARK H PARENT 11 9
REMARK Flexibility Score: inf
ROOT
ATOM      1  C   UNL     1      46.555   5.339  14.200  1.00  0.00     0.048 C 
ATOM      2  C   UNL     1      46.292   6.083  15.478  1.00  0.00    -0.009 A 
ATOM      3  C   UNL     1      47.166   5.947  16.571  1.00  0.00     0.118 A 
ATOM      4  C   UNL     1      46.915   6.644  17.761  1.00  0.00     0.050 A 
ATOM      5  C   UNL     1      45.795   7.484  17.878  1.00  0.00    -0.042 A 
ATOM      6  C   UNL     1      44.925   7.616  16.779  1.00  0.00     0.004 A 
ATOM      7  C   UNL     1      45.173   6.922  15.593  1.00  0.00     0.007 A 
ENDROOT
BRANCH   3   8
ATOM      8  O   UNL     1      48.283   5.117  16.470  1.00  0.00    -0.508 OA
ATOM      9  H   UNL     1      48.389   4.457  15.708  1.00  0.00     0.293 HD
ENDBRANCH   3   8
BRANCH   5  10
ATOM     10  C   UNL     1      45.538   8.232  19.173  1.00  0.00     0.013 C 
ATOM     11  C   UNL     1      46.457   7.729  20.292  1.00  0.00     0.012 C 
ATOM     12  C   UNL     1      45.684   9.745  18.976  1.00  0.00     0.012 C 
ENDBRANCH   5  10
TORSDOF 2
ENDMDL
MODEL 4
REMARK VINA RESULT:    -5.074      1.048      1.985
REMARK INTER + INTRA:          -5.640
REMARK INTER:                  -5.517
REMARK INTRA:                  -0.122
REMARK UNBOUND:                -0.121
REMARK SMILES Cc1ccc(C(C)C)cc1O
REMARK SMILES IDX 1 1 2 2 10 3 9 4 5 5 4 6 3 7 11 8 6 10 7 11 8 12
REMARK H PARENT 11 9
REMARK Flexibility Score: inf
ROOT
ATOM      1  C   UNL     1      44.828   7.879  16.973  1.00  0.00     0.048 C 
ATOM      2  C   UNL     1      45.363   7.875  18.376  1.00  0.00    -0.009 A 
ATOM      3  C   UNL     1      46.419   7.016  18.729  1.00  0.00     0.118 A 
ATOM      4  C   UNL     1      46.915   7.017  20.041  1.00  0.00     0.050 A 
ATOM      5  C   UNL     1      46.368   7.871  21.014  1.00  0.00    -0.042 A 
ATOM      6  C   UNL     1      45.312   8.728  20.652  1.00  0.00     0.004 A 
ATOM      7  C   UNL     1      44.816   8.728  19.346  1.00  0.00     0.007 A 
ENDROOT
BRANCH   3   8
ATOM      8  O   UNL     1      46.973   6.163  17.775  1.00  0.00    -0.508 OA
ATOM      9  H   UNL     1      47.840   5.666  17.945  1.00  0.00     0.293 HD
ENDBRANCH   3   8
BRANCH   5  10
ATOM     10  C   UNL     1      46.916   7.860  22.429  1.00  0.00     0.013 C 
ATOM     11  C   UNL     1      48.220   7.057  22.509  1.00  0.00     0.012 C 
ATOM     12  C   UNL     1      47.112   9.286  22.957  1.00  0.00     0.012 C 
ENDBRANCH   5  10
TORSDOF 2
ENDMDL
MODEL 5
REMARK VINA RESULT:    -5.057      1.456      2.063
REMARK INTER + INTRA:          -5.622
REMARK INTER:                  -5.495
REMARK INTRA:                  -0.127
REMARK UNBOUND:                -0.121
REMARK SMILES Cc1ccc(C(C)C)cc1O
REMARK SMILES IDX 1 1 2 2 10 3 9 4 5 5 4 6 3 7 11 8 6 10 7 11 8 12
REMARK H PARENT 11 9
REMARK Flexibility Score: inf
ROOT
ATOM      1  C   UNL     1      45.509   6.649  15.489  1.00  0.00     0.048 C 
ATOM      2  C   UNL     1      45.614   7.142  16.904  1.00  0.00    -0.009 A 
ATOM      3  C   UNL     1      44.701   8.092  17.394  1.00  0.00     0.118 A 
ATOM      4  C   UNL     1      44.805   8.547  18.716  1.00  0.00     0.050 A 
ATOM      5  C   UNL     1      45.816   8.064  19.564  1.00  0.00    -0.042 A 
ATOM      6  C   UNL     1      46.725   7.113  19.065  1.00  0.00     0.004 A 
ATOM      7  C   UNL     1      46.624   6.658  17.749  1.00  0.00     0.007 A 
ENDROOT
BRANCH   3   8
ATOM      8  O   UNL     1      43.691   8.580  16.564  1.00  0.00    -0.508 OA
ATOM      9  H   UNL     1      43.104   7.960  16.020  1.00  0.00     0.293 HD
ENDBRANCH   3   8
BRANCH   5  10
ATOM     10  C   UNL     1      45.914   8.567  20.992  1.00  0.00     0.013 C 
ATOM     11  C   UNL     1      44.552   8.504  21.695  1.00  0.00     0.012 C 
ATOM     12  C   UNL     1      46.978   7.794  21.779  1.00  0.00     0.012 C 
ENDBRANCH   5  10
TORSDOF 2
ENDMDL
MODEL 6
REMARK VINA RESULT:    -4.991      2.932      5.668
REMARK INTER + INTRA:          -5.550
REMARK INTER:                  -5.429
REMARK INTRA:                  -0.120
REMARK UNBOUND:                -0.121
REMARK SMILES Cc1ccc(C(C)C)cc1O
REMARK SMILES IDX 1 1 2 2 10 3 9 4 5 5 4 6 3 7 11 8 6 10 7 11 8 12
REMARK H PARENT 11 9
REMARK Flexibility Score: inf
ROOT
ATOM      1  C   UNL     1      45.105   8.814  25.243  1.00  0.00     0.048 C 
ATOM      2  C   UNL     1      45.298   8.700  23.758  1.00  0.00    -0.009 A 
ATOM      3  C   UNL     1      44.203   8.843  22.888  1.00  0.00     0.118 A 
ATOM      4  C   UNL     1      44.391   8.736  21.502  1.00  0.00     0.050 A 
ATOM      5  C   UNL     1      45.666   8.488  20.968  1.00  0.00    -0.042 A 
ATOM      6  C   UNL     1      46.757   8.347  21.847  1.00  0.00     0.004 A 
ATOM      7  C   UNL     1      46.572   8.452  23.227  1.00  0.00     0.007 A 
ENDROOT
BRANCH   3   8
ATOM      8  O   UNL     1      42.930   9.091  23.403  1.00  0.00    -0.508 OA
ATOM      9  H   UNL     1      42.577   8.590  24.210  1.00  0.00     0.293 HD
ENDBRANCH   3   8
BRANCH   5  10
ATOM     10  C   UNL     1      45.852   8.375  19.466  1.00  0.00     0.013 C 
ATOM     11  C   UNL     1      46.615   7.096  19.099  1.00  0.00     0.012 C 
ATOM     12  C   UNL     1      44.506   8.443  18.736  1.00  0.00     0.012 C 
ENDBRANCH   5  10
TORSDOF 2
ENDMDL
MODEL 7
REMARK VINA RESULT:    -4.846      2.071      4.854
REMARK INTER + INTRA:          -5.392
REMARK INTER:                  -5.265
REMARK INTRA:                  -0.127
REMARK UNBOUND:                -0.121
REMARK SMILES Cc1ccc(C(C)C)cc1O
REMARK SMILES IDX 1 1 2 2 10 3 9 4 5 5 4 6 3 7 11 8 6 10 7 11 8 12
REMARK H PARENT 11 9
REMARK Flexibility Score: inf
ROOT
ATOM      1  C   UNL     1      44.866   8.908  19.913  1.00  0.00     0.048 C 
ATOM      2  C   UNL     1      45.257   8.124  18.693  1.00  0.00    -0.009 A 
ATOM      3  C   UNL     1      44.487   8.208  17.519  1.00  0.00     0.118 A 
ATOM      4  C   UNL     1      44.858   7.473  16.384  1.00  0.00     0.050 A 
ATOM      5  C   UNL     1      45.997   6.650  16.402  1.00  0.00    -0.042 A 
ATOM      6  C   UNL     1      46.762   6.573  17.581  1.00  0.00     0.004 A 
ATOM      7  C   UNL     1      46.394   7.303  18.713  1.00  0.00     0.007 A 
ENDROOT
BRANCH   3   8
ATOM      8  O   UNL     1      43.355   9.022  17.485  1.00  0.00    -0.508 OA
ATOM      9  H   UNL     1      42.558   8.849  18.086  1.00  0.00     0.293 HD
ENDBRANCH   3   8
BRANCH   5  10
ATOM     10  C   UNL     1      46.384   5.861  15.165  1.00  0.00     0.013 C 
ATOM     11  C   UNL     1      46.358   6.749  13.914  1.00  0.00     0.012 C 
ATOM     12  C   UNL     1      47.753   5.194  15.340  1.00  0.00     0.012 C 
ENDBRANCH   5  10
TORSDOF 2
ENDMDL
MODEL 8
REMARK VINA RESULT:    -4.843      2.349      4.925
REMARK INTER + INTRA:          -5.389
REMARK INTER:                  -5.262
REMARK INTRA:                  -0.127
REMARK UNBOUND:                -0.121
REMARK SMILES Cc1ccc(C(C)C)cc1O
REMARK SMILES IDX 1 1 2 2 10 3 9 4 5 5 4 6 3 7 11 8 6 10 7 11 8 12
REMARK H PARENT 11 9
REMARK Flexibility Score: inf
ROOT
ATOM      1  C   UNL     1      45.602   8.546  23.475  1.00  0.00     0.048 C 
ATOM      2  C   UNL     1      45.668   8.355  21.987  1.00  0.00    -0.009 A 
ATOM      3  C   UNL     1      44.708   8.954  21.152  1.00  0.00     0.118 A 
ATOM      4  C   UNL     1      44.776   8.772  19.763  1.00  0.00     0.050 A 
ATOM      5  C   UNL     1      45.797   7.996  19.190  1.00  0.00    -0.042 A 
ATOM      6  C   UNL     1      46.754   7.401  20.033  1.00  0.00     0.004 A 
ATOM      7  C   UNL     1      46.689   7.580  21.416  1.00  0.00     0.007 A 
ENDROOT
BRANCH   3   8
ATOM      8  O   UNL     1      43.688   9.728  21.706  1.00  0.00    -0.508 OA
ATOM      9  H   UNL     1      42.898  10.041  21.153  1.00  0.00     0.293 HD
ENDBRANCH   3   8
BRANCH   5  10
ATOM     10  C   UNL     1      45.856   7.809  17.685  1.00  0.00     0.013 C 
ATOM     11  C   UNL     1      46.687   6.575  17.314  1.00  0.00     0.012 C 
ATOM     12  C   UNL     1      44.448   7.728  17.083  1.00  0.00     0.012 C 
ENDBRANCH   5  10
TORSDOF 2
ENDMDL
MODEL 9
REMARK VINA RESULT:    -4.807      1.445      4.348
REMARK INTER + INTRA:          -5.350
REMARK INTER:                  -5.227
REMARK INTRA:                  -0.123
REMARK UNBOUND:                -0.121
REMARK SMILES Cc1ccc(C(C)C)cc1O
REMARK SMILES IDX 1 1 2 2 10 3 9 4 5 5 4 6 3 7 11 8 6 10 7 11 8 12
REMARK H PARENT 11 9
REMARK Flexibility Score: inf
ROOT
ATOM      1  C   UNL     1      45.050   8.869  20.428  1.00  0.00     0.048 C 
ATOM      2  C   UNL     1      45.353   8.165  19.136  1.00  0.00    -0.009 A 
ATOM      3  C   UNL     1      46.412   7.242  19.062  1.00  0.00     0.118 A 
ATOM      4  C   UNL     1      46.689   6.589  17.853  1.00  0.00     0.050 A 
ATOM      5  C   UNL     1      45.918   6.844  16.706  1.00  0.00    -0.042 A 
ATOM      6  C   UNL     1      44.861   7.769  16.789  1.00  0.00     0.004 A 
ATOM      7  C   UNL     1      44.583   8.422  17.992  1.00  0.00     0.007 A 
ENDROOT
BRANCH   3   8
ATOM      8  O   UNL     1      47.186   6.977  20.192  1.00  0.00    -0.508 OA
ATOM      9  H   UNL     1      47.925   7.604  20.489  1.00  0.00     0.293 HD
ENDBRANCH   3   8
BRANCH   5  10
ATOM     10  C   UNL     1      46.232   6.128  15.405  1.00  0.00     0.013 C 
ATOM     11  C   UNL     1      46.195   7.099  14.218  1.00  0.00     0.012 C 
ATOM     12  C   UNL     1      47.580   5.404  15.484  1.00  0.00     0.012 C 
ENDBRANCH   5  10
TORSDOF 2
ENDMDL
