MODEL 1
REMARK VINA RESULT:    -4.967      0.000      0.000
REMARK INTER + INTRA:          -6.269
REMARK INTER:                  -5.983
REMARK INTRA:                  -0.286
REMARK UNBOUND:                -0.286
REMARK SMILES Oc1cc(O)c2cc(O)c(-c3ccc(O)c(O)c3)[o+]c2c1
REMARK SMILES IDX 10 1 19 2 20 3 21 4 2 5 3 6 4 7 6 8 7 9 8 10 11 11 12 12
REMARK SMILES IDX 13 13 14 14 18 15 16 16 15 17 17 19 9 21 1 23 5 25
REMARK H PARENT 15 18 17 20 9 22 1 24 5 26
REMARK Flexibility Score: inf
ROOT
ATOM      1  C   UNL     1       1.499   2.626   7.977  1.00  0.00     0.402 A 
ATOM      2  O   UNL     1       2.556   2.033   8.524  1.00  0.00    -0.202 OA
ATOM      3  C   UNL     1       3.805   2.448   8.336  1.00  0.00     0.368 A 
ATOM      4  C   UNL     1       4.851   1.760   8.957  1.00  0.00     0.162 A 
ATOM      5  C   UNL     1       6.174   2.178   8.779  1.00  0.00     0.128 A 
ATOM      6  C   UNL     1       6.450   3.288   7.977  1.00  0.00     0.093 A 
ATOM      7  C   UNL     1       5.420   3.995   7.346  1.00  0.00     0.136 A 
ATOM      8  C   UNL     1       4.076   3.573   7.520  1.00  0.00     0.125 A 
ATOM      9  C   UNL     1       2.980   4.212   6.916  1.00  0.00     0.078 A 
ATOM     10  C   UNL     1       1.685   3.735   7.132  1.00  0.00     0.223 A 
ENDROOT
BRANCH   1  11
ATOM     11  C   UNL     1       0.157   2.074   8.270  1.00  0.00     0.087 A 
ATOM     12  C   UNL     1      -0.200   0.816   7.759  1.00  0.00     0.022 A 
ATOM     13  C   UNL     1      -1.453   0.268   8.039  1.00  0.00     0.051 A 
ATOM     14  C   UNL     1      -2.363   0.957   8.847  1.00  0.00     0.157 A 
ATOM     15  C   UNL     1      -0.751   2.757   9.099  1.00  0.00     0.068 A 
ATOM     16  C   UNL     1      -2.010   2.206   9.384  1.00  0.00     0.158 A 
BRANCH  14  17
ATOM     17  O   UNL     1      -3.608   0.386   9.107  1.00  0.00    -0.504 OA
ATOM     18  H   UNL     1      -4.464   0.926   9.081  1.00  0.00     0.293 HD
ENDBRANCH  14  17
BRANCH  16  19
ATOM     19  O   UNL     1      -2.906   2.893  10.201  1.00  0.00    -0.504 OA
ATOM     20  H   UNL     1      -3.909   2.807  10.081  1.00  0.00     0.293 HD
ENDBRANCH  16  19
ENDBRANCH   1  11
BRANCH  10  21
ATOM     21  O   UNL     1       0.602   4.339   6.491  1.00  0.00    -0.500 OA
ATOM     22  H   UNL     1       0.241   5.238   6.787  1.00  0.00     0.294 HD
ENDBRANCH  10  21
BRANCH   5  23
ATOM     23  O   UNL     1       7.222   1.496   9.394  1.00  0.00    -0.507 OA
ATOM     24  H   UNL     1       7.110   0.549   9.734  1.00  0.00     0.293 HD
ENDBRANCH   5  23
BRANCH   7  25
ATOM     25  O   UNL     1       5.780   5.096   6.563  1.00  0.00    -0.507 OA
ATOM     26  H   UNL     1       5.121   5.718   6.117  1.00  0.00     0.293 HD
ENDBRANCH   7  25
TORSDOF 6
ENDMDL
MODEL 2
REMARK VINA RESULT:    -4.704      3.021      5.063
REMARK INTER + INTRA:          -5.952
REMARK INTER:                  -5.688
REMARK INTRA:                  -0.264
REMARK UNBOUND:                -0.286
REMARK SMILES Oc1cc(O)c2cc(O)c(-c3ccc(O)c(O)c3)[o+]c2c1
REMARK SMILES IDX 10 1 19 2 20 3 21 4 2 5 3 6 4 7 6 8 7 9 8 10 11 11 12 12
REMARK SMILES IDX 13 13 14 14 18 15 16 16 15 17 17 19 9 21 1 23 5 25
REMARK H PARENT 15 18 17 20 9 22 1 24 5 26
REMARK Flexibility Score: inf
ROOT
ATOM      1  C   UNL     1       0.829   1.279   8.366  1.00  0.00     0.402 A 
ATOM      2  O   UNL     1       1.947   0.902   8.980  1.00  0.00    -0.202 OA
ATOM      3  C   UNL     1       2.267  -0.369   9.200  1.00  0.00     0.368 A 
ATOM      4  C   UNL     1       3.467  -0.666   9.852  1.00  0.00     0.162 A 
ATOM      5  C   UNL     1       3.829  -1.996  10.092  1.00  0.00     0.128 A 
ATOM      6  C   UNL     1       2.988  -3.030   9.679  1.00  0.00     0.093 A 
ATOM      7  C   UNL     1       1.781  -2.760   9.023  1.00  0.00     0.136 A 
ATOM      8  C   UNL     1       1.407  -1.412   8.779  1.00  0.00     0.125 A 
ATOM      9  C   UNL     1       0.210  -1.046   8.141  1.00  0.00     0.078 A 
ATOM     10  C   UNL     1      -0.091   0.304   7.940  1.00  0.00     0.223 A 
ENDROOT
BRANCH   1  11
ATOM     11  C   UNL     1       0.591   2.727   8.172  1.00  0.00     0.087 A 
ATOM     12  C   UNL     1       1.310   3.418   7.184  1.00  0.00     0.022 A 
ATOM     13  C   UNL     1       1.088   4.781   6.971  1.00  0.00     0.051 A 
ATOM     14  C   UNL     1       0.134   5.470   7.727  1.00  0.00     0.157 A 
ATOM     15  C   UNL     1      -0.382   3.416   8.918  1.00  0.00     0.068 A 
ATOM     16  C   UNL     1      -0.609   4.784   8.703  1.00  0.00     0.158 A 
BRANCH  14  17
ATOM     17  O   UNL     1      -0.065   6.830   7.493  1.00  0.00    -0.504 OA
ATOM     18  H   UNL     1      -0.254   7.483   8.244  1.00  0.00     0.293 HD
ENDBRANCH  14  17
BRANCH  16  19
ATOM     19  O   UNL     1      -1.571   5.461   9.450  1.00  0.00    -0.504 OA
ATOM     20  H   UNL     1      -2.011   5.037  10.259  1.00  0.00     0.293 HD
ENDBRANCH  16  19
ENDBRANCH   1  11
BRANCH  10  21
ATOM     21  O   UNL     1      -1.303   0.669   7.351  1.00  0.00    -0.500 OA
ATOM     22  H   UNL     1      -1.370   1.450   6.709  1.00  0.00     0.294 HD
ENDBRANCH  10  21
BRANCH   5  23
ATOM     23  O   UNL     1       5.024  -2.298  10.742  1.00  0.00    -0.507 OA
ATOM     24  H   UNL     1       5.040  -2.592  11.711  1.00  0.00     0.293 HD
ENDBRANCH   5  23
BRANCH   7  25
ATOM     25  O   UNL     1       0.998  -3.852   8.639  1.00  0.00    -0.507 OA
ATOM     26  H   UNL     1       0.935  -4.204   7.695  1.00  0.00     0.293 HD
ENDBRANCH   7  25
TORSDOF 6
ENDMDL
MODEL 3
REMARK VINA RESULT:    -4.692      1.752      3.131
REMARK INTER + INTRA:          -5.938
REMARK INTER:                  -5.589
REMARK INTRA:                  -0.349
REMARK UNBOUND:                -0.286
REMARK SMILES Oc1cc(O)c2cc(O)c(-c3ccc(O)c(O)c3)[o+]c2c1
REMARK SMILES IDX 10 1 19 2 20 3 21 4 2 5 3 6 4 7 6 8 7 9 8 10 11 11 12 12
REMARK SMILES IDX 13 13 14 14 18 15 16 16 15 17 17 19 9 21 1 23 5 25
REMARK H PARENT 15 18 17 20 9 22 1 24 5 26
REMARK Flexibility Score: inf
ROOT
ATOM      1  C   UNL     1       2.450   0.849   9.072  1.00  0.00     0.402 A 
ATOM      2  O   UNL     1       3.173   1.815   8.512  1.00  0.00    -0.202 OA
ATOM      3  C   UNL     1       4.502   1.802   8.472  1.00  0.00     0.368 A 
ATOM      4  C   UNL     1       5.174   2.863   7.859  1.00  0.00     0.162 A 
ATOM      5  C   UNL     1       6.571   2.872   7.800  1.00  0.00     0.128 A 
ATOM      6  C   UNL     1       7.297   1.818   8.357  1.00  0.00     0.093 A 
ATOM      7  C   UNL     1       6.648   0.743   8.976  1.00  0.00     0.136 A 
ATOM      8  C   UNL     1       5.230   0.729   9.041  1.00  0.00     0.125 A 
ATOM      9  C   UNL     1       4.495  -0.299   9.654  1.00  0.00     0.078 A 
ATOM     10  C   UNL     1       3.098  -0.240   9.682  1.00  0.00     0.223 A 
ENDROOT
BRANCH   1  11
ATOM     11  C   UNL     1       0.975   0.973   9.043  1.00  0.00     0.087 A 
ATOM     12  C   UNL     1       0.252   0.376   7.999  1.00  0.00     0.022 A 
ATOM     13  C   UNL     1      -1.142   0.464   7.962  1.00  0.00     0.051 A 
ATOM     14  C   UNL     1      -1.836   1.134   8.975  1.00  0.00     0.157 A 
ATOM     15  C   UNL     1       0.275   1.629  10.072  1.00  0.00     0.068 A 
ATOM     16  C   UNL     1      -1.126   1.717  10.038  1.00  0.00     0.158 A 
BRANCH  14  17
ATOM     17  O   UNL     1      -3.227   1.208   8.910  1.00  0.00    -0.504 OA
ATOM     18  H   UNL     1      -3.795   0.418   8.630  1.00  0.00     0.293 HD
ENDBRANCH  14  17
BRANCH  16  19
ATOM     19  O   UNL     1      -1.811   2.374  11.058  1.00  0.00    -0.504 OA
ATOM     20  H   UNL     1      -2.813   2.523  11.015  1.00  0.00     0.293 HD
ENDBRANCH  16  19
ENDBRANCH   1  11
BRANCH  10  21
ATOM     21  O   UNL     1       2.370  -1.236  10.334  1.00  0.00    -0.500 OA
ATOM     22  H   UNL     1       1.358  -1.257  10.313  1.00  0.00     0.294 HD
ENDBRANCH  10  21
BRANCH   5  23
ATOM     23  O   UNL     1       7.248   3.927   7.191  1.00  0.00    -0.507 OA
ATOM     24  H   UNL     1       6.751   4.705   6.775  1.00  0.00     0.293 HD
ENDBRANCH   5  23
BRANCH   7  25
ATOM     25  O   UNL     1       7.447  -0.274   9.505  1.00  0.00    -0.507 OA
ATOM     26  H   UNL     1       8.445  -0.204   9.639  1.00  0.00     0.293 HD
ENDBRANCH   7  25
TORSDOF 6
ENDMDL
MODEL 4
REMARK VINA RESULT:    -4.627      5.174      7.182
REMARK INTER + INTRA:          -5.859
REMARK INTER:                  -5.506
REMARK INTRA:                  -0.353
REMARK UNBOUND:                -0.286
REMARK SMILES Oc1cc(O)c2cc(O)c(-c3ccc(O)c(O)c3)[o+]c2c1
REMARK SMILES IDX 10 1 19 2 20 3 21 4 2 5 3 6 4 7 6 8 7 9 8 10 11 11 12 12
REMARK SMILES IDX 13 13 14 14 18 15 16 16 15 17 17 19 9 21 1 23 5 25
REMARK H PARENT 15 18 17 20 9 22 1 24 5 26
REMARK Flexibility Score: inf
ROOT
ATOM      1  C   UNL     1       0.540  -3.433   8.339  1.00  0.00     0.402 A 
ATOM      2  O   UNL     1       0.019  -2.260   7.987  1.00  0.00    -0.202 OA
ATOM      3  C   UNL     1       0.587  -1.093   8.275  1.00  0.00     0.368 A 
ATOM      4  C   UNL     1      -0.036   0.087   7.861  1.00  0.00     0.162 A 
ATOM      5  C   UNL     1       0.542   1.328   8.147  1.00  0.00     0.128 A 
ATOM      6  C   UNL     1       1.748   1.387   8.849  1.00  0.00     0.093 A 
ATOM      7  C   UNL     1       2.393   0.220   9.274  1.00  0.00     0.136 A 
ATOM      8  C   UNL     1       1.809  -1.042   8.989  1.00  0.00     0.125 A 
ATOM      9  C   UNL     1       2.377  -2.264   9.387  1.00  0.00     0.078 A 
ATOM     10  C   UNL     1       1.739  -3.468   9.073  1.00  0.00     0.223 A 
ENDROOT
BRANCH   1  11
ATOM     11  C   UNL     1      -0.183  -4.664   7.951  1.00  0.00     0.087 A 
ATOM     12  C   UNL     1      -1.191  -5.166   8.790  1.00  0.00     0.022 A 
ATOM     13  C   UNL     1      -1.900  -6.316   8.435  1.00  0.00     0.051 A 
ATOM     14  C   UNL     1      -1.627  -6.973   7.231  1.00  0.00     0.157 A 
ATOM     15  C   UNL     1       0.077  -5.314   6.731  1.00  0.00     0.068 A 
ATOM     16  C   UNL     1      -0.637  -6.468   6.371  1.00  0.00     0.158 A 
BRANCH  14  17
ATOM     17  O   UNL     1      -2.349  -8.120   6.904  1.00  0.00    -0.504 OA
ATOM     18  H   UNL     1      -2.501  -8.868   7.570  1.00  0.00     0.293 HD
ENDBRANCH  14  17
BRANCH  16  19
ATOM     19  O   UNL     1      -0.368  -7.109   5.163  1.00  0.00    -0.504 OA
ATOM     20  H   UNL     1      -1.027  -7.758   4.748  1.00  0.00     0.293 HD
ENDBRANCH  16  19
ENDBRANCH   1  11
BRANCH  10  21
ATOM     21  O   UNL     1       2.277  -4.678   9.512  1.00  0.00    -0.500 OA
ATOM     22  H   UNL     1       2.145  -5.008  10.461  1.00  0.00     0.294 HD
ENDBRANCH  10  21
BRANCH   5  23
ATOM     23  O   UNL     1      -0.074   2.508   7.737  1.00  0.00    -0.507 OA
ATOM     24  H   UNL     1      -0.278   3.254   8.391  1.00  0.00     0.293 HD
ENDBRANCH   5  23
BRANCH   7  25
ATOM     25  O   UNL     1       3.597   0.365   9.968  1.00  0.00    -0.507 OA
ATOM     26  H   UNL     1       3.669   0.460  10.971  1.00  0.00     0.293 HD
ENDBRANCH   7  25
TORSDOF 6
ENDMDL
MODEL 5
REMARK VINA RESULT:    -4.581      2.882      5.230
REMARK INTER + INTRA:          -5.804
REMARK INTER:                  -5.490
REMARK INTRA:                  -0.314
REMARK UNBOUND:                -0.286
REMARK SMILES Oc1cc(O)c2cc(O)c(-c3ccc(O)c(O)c3)[o+]c2c1
REMARK SMILES IDX 10 1 19 2 20 3 21 4 2 5 3 6 4 7 6 8 7 9 8 10 11 11 12 12
REMARK SMILES IDX 13 13 14 14 18 15 16 16 15 17 17 19 9 21 1 23 5 25
REMARK H PARENT 15 18 17 20 9 22 1 24 5 26
REMARK Flexibility Score: inf
ROOT
ATOM      1  C   UNL     1       1.112   2.263   8.426  1.00  0.00     0.402 A 
ATOM      2  O   UNL     1       0.429   1.151   8.165  1.00  0.00    -0.202 OA
ATOM      3  C   UNL     1       0.875  -0.066   8.459  1.00  0.00     0.368 A 
ATOM      4  C   UNL     1       0.083  -1.174   8.148  1.00  0.00     0.162 A 
ATOM      5  C   UNL     1       0.528  -2.465   8.450  1.00  0.00     0.128 A 
ATOM      6  C   UNL     1       1.767  -2.647   9.066  1.00  0.00     0.093 A 
ATOM      7  C   UNL     1       2.579  -1.553   9.390  1.00  0.00     0.136 A 
ATOM      8  C   UNL     1       2.135  -0.241   9.082  1.00  0.00     0.125 A 
ATOM      9  C   UNL     1       2.886   0.914   9.357  1.00  0.00     0.078 A 
ATOM     10  C   UNL     1       2.383   2.173   9.020  1.00  0.00     0.223 A 
ENDROOT
BRANCH   1  11
ATOM     11  C   UNL     1       0.503   3.561   8.058  1.00  0.00     0.087 A 
ATOM     12  C   UNL     1       0.898   4.197   6.870  1.00  0.00     0.022 A 
ATOM     13  C   UNL     1       0.322   5.413   6.493  1.00  0.00     0.051 A 
ATOM     14  C   UNL     1      -0.667   6.004   7.286  1.00  0.00     0.157 A 
ATOM     15  C   UNL     1      -0.507   4.146   8.843  1.00  0.00     0.068 A 
ATOM     16  C   UNL     1      -1.088   5.366   8.465  1.00  0.00     0.158 A 
BRANCH  14  17
ATOM     17  O   UNL     1      -1.222   7.219   6.886  1.00  0.00    -0.504 OA
ATOM     18  H   UNL     1      -0.669   8.065   6.815  1.00  0.00     0.293 HD
ENDBRANCH  14  17
BRANCH  16  19
ATOM     19  O   UNL     1      -2.083   5.942   9.253  1.00  0.00    -0.504 OA
ATOM     20  H   UNL     1      -2.312   6.926   9.184  1.00  0.00     0.293 HD
ENDBRANCH  16  19
ENDBRANCH   1  11
BRANCH  10  21
ATOM     21  O   UNL     1       3.152   3.316   9.247  1.00  0.00    -0.500 OA
ATOM     22  H   UNL     1       2.727   4.225   9.388  1.00  0.00     0.294 HD
ENDBRANCH  10  21
BRANCH   5  23
ATOM     23  O   UNL     1      -0.257  -3.575   8.142  1.00  0.00    -0.507 OA
ATOM     24  H   UNL     1       0.013  -4.229   7.417  1.00  0.00     0.293 HD
ENDBRANCH   5  23
BRANCH   7  25
ATOM     25  O   UNL     1       3.804  -1.820  10.008  1.00  0.00    -0.507 OA
ATOM     26  H   UNL     1       4.520  -1.129  10.176  1.00  0.00     0.293 HD
ENDBRANCH   7  25
TORSDOF 6
ENDMDL
MODEL 6
REMARK VINA RESULT:    -4.556      8.206     11.292
REMARK INTER + INTRA:          -5.773
REMARK INTER:                  -5.448
REMARK INTRA:                  -0.325
REMARK UNBOUND:                -0.286
REMARK SMILES Oc1cc(O)c2cc(O)c(-c3ccc(O)c(O)c3)[o+]c2c1
REMARK SMILES IDX 10 1 19 2 20 3 21 4 2 5 3 6 4 7 6 8 7 9 8 10 11 11 12 12
REMARK SMILES IDX 13 13 14 14 18 15 16 16 15 17 17 19 9 21 1 23 5 25
REMARK H PARENT 15 18 17 20 9 22 1 24 5 26
REMARK Flexibility Score: inf
ROOT
ATOM      1  C   UNL     1      -4.096   6.531   2.776  1.00  0.00     0.402 A 
ATOM      2  O   UNL     1      -5.404   6.366   2.956  1.00  0.00    -0.202 OA
ATOM      3  C   UNL     1      -5.977   6.326   4.155  1.00  0.00     0.368 A 
ATOM      4  C   UNL     1      -7.360   6.151   4.242  1.00  0.00     0.162 A 
ATOM      5  C   UNL     1      -7.988   6.110   5.491  1.00  0.00     0.128 A 
ATOM      6  C   UNL     1      -7.230   6.244   6.655  1.00  0.00     0.093 A 
ATOM      7  C   UNL     1      -5.842   6.422   6.595  1.00  0.00     0.136 A 
ATOM      8  C   UNL     1      -5.199   6.461   5.331  1.00  0.00     0.125 A 
ATOM      9  C   UNL     1      -3.812   6.622   5.174  1.00  0.00     0.078 A 
ATOM     10  C   UNL     1      -3.250   6.647   3.895  1.00  0.00     0.223 A 
ENDROOT
BRANCH   1  11
ATOM     11  C   UNL     1      -3.579   6.567   1.390  1.00  0.00     0.087 A 
ATOM     12  C   UNL     1      -3.273   7.804   0.799  1.00  0.00     0.022 A 
ATOM     13  C   UNL     1      -2.766   7.861  -0.501  1.00  0.00     0.051 A 
ATOM     14  C   UNL     1      -2.542   6.686  -1.226  1.00  0.00     0.157 A 
ATOM     15  C   UNL     1      -3.334   5.386   0.667  1.00  0.00     0.068 A 
ATOM     16  C   UNL     1      -2.822   5.441  -0.638  1.00  0.00     0.158 A 
BRANCH  14  17
ATOM     17  O   UNL     1      -2.037   6.774  -2.523  1.00  0.00    -0.504 OA
ATOM     18  H   UNL     1      -1.070   6.564  -2.739  1.00  0.00     0.293 HD
ENDBRANCH  14  17
BRANCH  16  19
ATOM     19  O   UNL     1      -2.588   4.266  -1.349  1.00  0.00    -0.504 OA
ATOM     20  H   UNL     1      -3.327   3.797  -1.860  1.00  0.00     0.293 HD
ENDBRANCH  16  19
ENDBRANCH   1  11
BRANCH  10  21
ATOM     21  O   UNL     1      -1.867   6.756   3.741  1.00  0.00    -0.500 OA
ATOM     22  H   UNL     1      -1.401   6.466   2.890  1.00  0.00     0.294 HD
ENDBRANCH  10  21
BRANCH   5  23
ATOM     23  O   UNL     1      -9.368   5.935   5.585  1.00  0.00    -0.507 OA
ATOM     24  H   UNL     1      -9.833   5.151   5.144  1.00  0.00     0.293 HD
ENDBRANCH   5  23
BRANCH   7  25
ATOM     25  O   UNL     1      -5.157   6.551   7.806  1.00  0.00    -0.507 OA
ATOM     26  H   UNL     1      -5.532   7.000   8.629  1.00  0.00     0.293 HD
ENDBRANCH   7  25
TORSDOF 6
ENDMDL
MODEL 7
REMARK VINA RESULT:    -4.545      1.584      3.373
REMARK INTER + INTRA:          -5.761
REMARK INTER:                  -5.508
REMARK INTRA:                  -0.252
REMARK UNBOUND:                -0.286
REMARK SMILES Oc1cc(O)c2cc(O)c(-c3ccc(O)c(O)c3)[o+]c2c1
REMARK SMILES IDX 10 1 19 2 20 3 21 4 2 5 3 6 4 7 6 8 7 9 8 10 11 11 12 12
REMARK SMILES IDX 13 13 14 14 18 15 16 16 15 17 17 19 9 21 1 23 5 25
REMARK H PARENT 15 18 17 20 9 22 1 24 5 26
REMARK Flexibility Score: inf
ROOT
ATOM      1  C   UNL     1       0.120   1.781   8.866  1.00  0.00     0.402 A 
ATOM      2  O   UNL     1       0.596   2.775   8.121  1.00  0.00    -0.202 OA
ATOM      3  C   UNL     1       1.891   2.947   7.874  1.00  0.00     0.368 A 
ATOM      4  C   UNL     1       2.294   4.022   7.077  1.00  0.00     0.162 A 
ATOM      5  C   UNL     1       3.650   4.223   6.798  1.00  0.00     0.128 A 
ATOM      6  C   UNL     1       4.604   3.347   7.318  1.00  0.00     0.093 A 
ATOM      7  C   UNL     1       4.225   2.262   8.118  1.00  0.00     0.136 A 
ATOM      8  C   UNL     1       2.851   2.054   8.407  1.00  0.00     0.125 A 
ATOM      9  C   UNL     1       2.381   1.002   9.210  1.00  0.00     0.078 A 
ATOM     10  C   UNL     1       1.011   0.865   9.454  1.00  0.00     0.223 A 
ENDROOT
BRANCH   1  11
ATOM     11  C   UNL     1      -1.345   1.691   9.060  1.00  0.00     0.087 A 
ATOM     12  C   UNL     1      -2.014   2.713   9.752  1.00  0.00     0.022 A 
ATOM     13  C   UNL     1      -3.398   2.659   9.930  1.00  0.00     0.051 A 
ATOM     14  C   UNL     1      -4.138   1.594   9.406  1.00  0.00     0.157 A 
ATOM     15  C   UNL     1      -2.093   0.631   8.516  1.00  0.00     0.068 A 
ATOM     16  C   UNL     1      -3.484   0.576   8.692  1.00  0.00     0.158 A 
BRANCH  14  17
ATOM     17  O   UNL     1      -5.518   1.566   9.602  1.00  0.00    -0.504 OA
ATOM     18  H   UNL     1      -6.120   0.924   9.100  1.00  0.00     0.293 HD
ENDBRANCH  14  17
BRANCH  16  19
ATOM     19  O   UNL     1      -4.217  -0.481   8.155  1.00  0.00    -0.504 OA
ATOM     20  H   UNL     1      -3.840  -1.421   8.111  1.00  0.00     0.293 HD
ENDBRANCH  16  19
ENDBRANCH   1  11
BRANCH  10  21
ATOM     21  O   UNL     1       0.548  -0.150  10.292  1.00  0.00    -0.500 OA
ATOM     22  H   UNL     1      -0.141  -0.824   9.983  1.00  0.00     0.294 HD
ENDBRANCH  10  21
BRANCH   5  23
ATOM     23  O   UNL     1       4.059   5.293   6.005  1.00  0.00    -0.507 OA
ATOM     24  H   UNL     1       3.913   5.296   5.003  1.00  0.00     0.293 HD
ENDBRANCH   5  23
BRANCH   7  25
ATOM     25  O   UNL     1       5.241   1.429   8.597  1.00  0.00    -0.507 OA
ATOM     26  H   UNL     1       5.158   0.840   9.413  1.00  0.00     0.293 HD
ENDBRANCH   7  25
TORSDOF 6
ENDMDL
MODEL 8
REMARK VINA RESULT:    -4.540      1.048      2.647
REMARK INTER + INTRA:          -5.754
REMARK INTER:                  -5.423
REMARK INTRA:                  -0.331
REMARK UNBOUND:                -0.286
REMARK SMILES Oc1cc(O)c2cc(O)c(-c3ccc(O)c(O)c3)[o+]c2c1
REMARK SMILES IDX 10 1 19 2 20 3 21 4 2 5 3 6 4 7 6 8 7 9 8 10 11 11 12 12
REMARK SMILES IDX 13 13 14 14 18 15 16 16 15 17 17 19 9 21 1 23 5 25
REMARK H PARENT 15 18 17 20 9 22 1 24 5 26
REMARK Flexibility Score: inf
ROOT
ATOM      1  C   UNL     1       1.931   1.621   8.717  1.00  0.00     0.402 A 
ATOM      2  O   UNL     1       2.432   2.689   8.103  1.00  0.00    -0.202 OA
ATOM      3  C   UNL     1       3.736   2.924   7.994  1.00  0.00     0.368 A 
ATOM      4  C   UNL     1       4.166   4.074   7.328  1.00  0.00     0.162 A 
ATOM      5  C   UNL     1       5.533   4.344   7.196  1.00  0.00     0.128 A 
ATOM      6  C   UNL     1       6.470   3.459   7.733  1.00  0.00     0.093 A 
ATOM      7  C   UNL     1       6.065   2.300   8.405  1.00  0.00     0.136 A 
ATOM      8  C   UNL     1       4.680   2.023   8.544  1.00  0.00     0.125 A 
ATOM      9  C   UNL     1       4.181   0.892   9.212  1.00  0.00     0.078 A 
ATOM     10  C   UNL     1       2.802   0.690   9.312  1.00  0.00     0.223 A 
ENDROOT
BRANCH   1  11
ATOM     11  C   UNL     1       0.460   1.466   8.763  1.00  0.00     0.087 A 
ATOM     12  C   UNL     1      -0.173   0.602   7.855  1.00  0.00     0.022 A 
ATOM     13  C   UNL     1      -1.558   0.426   7.892  1.00  0.00     0.051 A 
ATOM     14  C   UNL     1      -2.331   1.095   8.847  1.00  0.00     0.157 A 
ATOM     15  C   UNL     1      -0.316   2.123   9.735  1.00  0.00     0.068 A 
ATOM     16  C   UNL     1      -1.708   1.945   9.776  1.00  0.00     0.158 A 
BRANCH  14  17
ATOM     17  O   UNL     1      -3.712   0.902   8.859  1.00  0.00    -0.504 OA
ATOM     18  H   UNL     1      -4.182   0.428   9.621  1.00  0.00     0.293 HD
ENDBRANCH  14  17
BRANCH  16  19
ATOM     19  O   UNL     1      -2.470   2.604  10.739  1.00  0.00    -0.504 OA
ATOM     20  H   UNL     1      -2.090   2.840  11.648  1.00  0.00     0.293 HD
ENDBRANCH  16  19
ENDBRANCH   1  11
BRANCH  10  21
ATOM     21  O   UNL     1       2.306  -0.406  10.020  1.00  0.00    -0.500 OA
ATOM     22  H   UNL     1       2.068  -0.344  11.002  1.00  0.00     0.294 HD
ENDBRANCH  10  21
BRANCH   5  23
ATOM     23  O   UNL     1       5.968   5.489   6.533  1.00  0.00    -0.507 OA
ATOM     24  H   UNL     1       6.239   5.466   5.557  1.00  0.00     0.293 HD
ENDBRANCH   5  23
BRANCH   7  25
ATOM     25  O   UNL     1       7.066   1.465   8.910  1.00  0.00    -0.507 OA
ATOM     26  H   UNL     1       7.699   1.720   9.654  1.00  0.00     0.293 HD
ENDBRANCH   7  25
TORSDOF 6
ENDMDL
MODEL 9
REMARK VINA RESULT:    -4.467      1.750      7.564
REMARK INTER + INTRA:          -5.666
REMARK INTER:                  -5.408
REMARK INTRA:                  -0.258
REMARK UNBOUND:                -0.286
REMARK SMILES Oc1cc(O)c2cc(O)c(-c3ccc(O)c(O)c3)[o+]c2c1
REMARK SMILES IDX 10 1 19 2 20 3 21 4 2 5 3 6 4 7 6 8 7 9 8 10 11 11 12 12
REMARK SMILES IDX 13 13 14 14 18 15 16 16 15 17 17 19 9 21 1 23 5 25
REMARK H PARENT 15 18 17 20 9 22 1 24 5 26
REMARK Flexibility Score: inf
ROOT
ATOM      1  C   UNL     1      -0.243   2.014   8.475  1.00  0.00     0.402 A 
ATOM      2  O   UNL     1      -1.019   2.886   9.115  1.00  0.00    -0.202 OA
ATOM      3  C   UNL     1      -2.279   2.632   9.452  1.00  0.00     0.368 A 
ATOM      4  C   UNL     1      -3.013   3.611  10.125  1.00  0.00     0.162 A 
ATOM      5  C   UNL     1      -4.340   3.368  10.495  1.00  0.00     0.128 A 
ATOM      6  C   UNL     1      -4.933   2.141  10.191  1.00  0.00     0.093 A 
ATOM      7  C   UNL     1      -4.218   1.142   9.519  1.00  0.00     0.136 A 
ATOM      8  C   UNL     1      -2.872   1.385   9.138  1.00  0.00     0.125 A 
ATOM      9  C   UNL     1      -2.083   0.448   8.449  1.00  0.00     0.078 A 
ATOM     10  C   UNL     1      -0.766   0.762   8.104  1.00  0.00     0.223 A 
ENDROOT
BRANCH   1  11
ATOM     11  C   UNL     1       1.148   2.412   8.163  1.00  0.00     0.087 A 
ATOM     12  C   UNL     1       1.379   3.470   7.270  1.00  0.00     0.022 A 
ATOM     13  C   UNL     1       2.683   3.875   6.975  1.00  0.00     0.051 A 
ATOM     14  C   UNL     1       3.774   3.244   7.580  1.00  0.00     0.157 A 
ATOM     15  C   UNL     1       2.245   1.791   8.786  1.00  0.00     0.068 A 
ATOM     16  C   UNL     1       3.556   2.199   8.494  1.00  0.00     0.158 A 
BRANCH  14  17
ATOM     17  O   UNL     1       5.065   3.668   7.265  1.00  0.00    -0.504 OA
ATOM     18  H   UNL     1       5.238   4.507   6.724  1.00  0.00     0.293 HD
ENDBRANCH  14  17
BRANCH  16  19
ATOM     19  O   UNL     1       4.638   1.574   9.111  1.00  0.00    -0.504 OA
ATOM     20  H   UNL     1       5.096   0.772   8.695  1.00  0.00     0.293 HD
ENDBRANCH  16  19
ENDBRANCH   1  11
BRANCH  10  21
ATOM     21  O   UNL     1       0.002  -0.149   7.376  1.00  0.00    -0.500 OA
ATOM     22  H   UNL     1       0.425   0.099   6.490  1.00  0.00     0.294 HD
ENDBRANCH  10  21
BRANCH   5  23
ATOM     23  O   UNL     1      -5.079   4.341  11.166  1.00  0.00    -0.507 OA
ATOM     24  H   UNL     1      -4.628   5.097  11.667  1.00  0.00     0.293 HD
ENDBRANCH   5  23
BRANCH   7  25
ATOM     25  O   UNL     1      -4.882  -0.059   9.255  1.00  0.00    -0.507 OA
ATOM     26  H   UNL     1      -4.637  -0.694   8.509  1.00  0.00     0.293 HD
ENDBRANCH   7  25
TORSDOF 6
ENDMDL
