MODEL 1
REMARK VINA RESULT:    13.739      0.000      0.000
REMARK INTER + INTRA:          25.536
REMARK INTER:                  26.590
REMARK INTRA:                  -1.054
REMARK UNBOUND:                -1.054
REMARK SMILES CCCCCCCCCCCCCCCCCC(=O)[O-]
REMARK SMILES IDX 10 1 11 2 12 3 13 4 14 5 15 6 16 7 17 8 18 9 19 10 20 11
REMARK SMILES IDX 9 12 8 13 7 14 6 15 5 16 4 17 3 18 2 19 1 20
REMARK H PARENT
REMARK Flexibility Score: inf
ROOT
ATOM      1  C   UNL     1     -17.038  27.705  -3.226  1.00  0.00     0.000 C 
ENDROOT
BRANCH   1   2
ATOM      2  C   UNL     1     -16.958  26.204  -2.885  1.00  0.00     0.000 C 
BRANCH   2   3
ATOM      3  C   UNL     1     -18.220  25.390  -3.231  1.00  0.00     0.000 C 
BRANCH   3   4
ATOM      4  C   UNL     1     -19.554  26.078  -2.878  1.00  0.00     0.000 C 
BRANCH   4   5
ATOM      5  C   UNL     1     -20.728  25.736  -3.817  1.00  0.00     0.000 C 
BRANCH   5   6
ATOM      6  C   UNL     1     -20.419  25.857  -5.322  1.00  0.00     0.000 C 
BRANCH   6   7
ATOM      7  C   UNL     1     -20.066  27.277  -5.801  1.00  0.00     0.006 C 
BRANCH   7   8
ATOM      8  C   UNL     1     -20.956  28.356  -5.171  1.00  0.00     0.053 C 
BRANCH   8   9
ATOM      9  C   UNL     1     -20.118  29.394  -4.493  1.00  0.00     0.041 C 
ATOM     10  O   UNL     1     -19.305  30.086  -5.160  1.00  0.00    -0.550 OA
ATOM     11  O   UNL     1     -20.200  29.563  -3.116  1.00  0.00    -0.550 OA
ENDBRANCH   8   9
ENDBRANCH   7   8
ENDBRANCH   6   7
ENDBRANCH   5   6
ENDBRANCH   4   5
ENDBRANCH   3   4
ENDBRANCH   2   3
ENDBRANCH   1   2
BRANCH   1  12
ATOM     12  C   UNL     1     -15.775  28.518  -2.881  1.00  0.00     0.000 C 
BRANCH  12  13
ATOM     13  C   UNL     1     -14.503  28.107  -3.651  1.00  0.00    -0.000 C 
BRANCH  13  14
ATOM     14  C   UNL     1     -13.804  29.250  -4.408  1.00  0.00    -0.000 C 
BRANCH  14  15
ATOM     15  C   UNL     1     -12.473  28.819  -5.042  1.00  0.00    -0.000 C 
BRANCH  15  16
ATOM     16  C   UNL     1     -12.300  29.439  -6.435  1.00  0.00    -0.000 C 
BRANCH  16  17
ATOM     17  C   UNL     1     -10.973  29.000  -7.072  1.00  0.00    -0.000 C 
BRANCH  17  18
ATOM     18  C   UNL     1     -10.163  30.178  -7.642  1.00  0.00    -0.000 C 
BRANCH  18  19
ATOM     19  C   UNL     1      -8.811  30.426  -6.952  1.00  0.00    -0.003 C 
ATOM     20  C   UNL     1      -8.482  31.911  -6.794  1.00  0.00     0.004 C 
ENDBRANCH  18  19
ENDBRANCH  17  18
ENDBRANCH  16  17
ENDBRANCH  15  16
ENDBRANCH  14  15
ENDBRANCH  13  14
ENDBRANCH  12  13
ENDBRANCH   1  12
TORSDOF 16
ENDMDL
MODEL 2
REMARK VINA RESULT:    15.502      3.734      9.008
REMARK INTER + INTRA:          28.948
REMARK INTER:                  28.096
REMARK INTRA:                   0.852
REMARK UNBOUND:                -1.054
REMARK SMILES CCCCCCCCCCCCCCCCCC(=O)[O-]
REMARK SMILES IDX 10 1 11 2 12 3 13 4 14 5 15 6 16 7 17 8 18 9 19 10 20 11
REMARK SMILES IDX 9 12 8 13 7 14 6 15 5 16 4 17 3 18 2 19 1 20
REMARK H PARENT
REMARK Flexibility Score: inf
ROOT
ATOM      1  C   UNL     1     -16.081  27.917  -3.084  1.00  0.00     0.000 C 
ENDROOT
BRANCH   1   2
ATOM      2  C   UNL     1     -14.555  27.839  -2.876  1.00  0.00     0.000 C 
BRANCH   2   3
ATOM      3  C   UNL     1     -13.810  29.181  -3.012  1.00  0.00     0.000 C 
BRANCH   3   4
ATOM      4  C   UNL     1     -12.637  29.174  -4.012  1.00  0.00     0.000 C 
BRANCH   4   5
ATOM      5  C   UNL     1     -13.039  28.955  -5.484  1.00  0.00     0.000 C 
BRANCH   5   6
ATOM      6  C   UNL     1     -12.430  29.957  -6.484  1.00  0.00     0.000 C 
BRANCH   6   7
ATOM      7  C   UNL     1     -11.151  29.474  -7.191  1.00  0.00     0.006 C 
BRANCH   7   8
ATOM      8  C   UNL     1     -10.317  30.626  -7.765  1.00  0.00     0.053 C 
BRANCH   8   9
ATOM      9  C   UNL     1      -8.880  30.477  -7.372  1.00  0.00     0.041 C 
ATOM     10  O   UNL     1      -8.557  29.697  -6.439  1.00  0.00    -0.550 OA
ATOM     11  O   UNL     1      -7.904  31.237  -8.005  1.00  0.00    -0.550 OA
ENDBRANCH   8   9
ENDBRANCH   7   8
ENDBRANCH   6   7
ENDBRANCH   5   6
ENDBRANCH   4   5
ENDBRANCH   3   4
ENDBRANCH   2   3
ENDBRANCH   1   2
BRANCH   1  12
ATOM     12  C   UNL     1     -16.758  26.580  -3.443  1.00  0.00     0.000 C 
BRANCH  12  13
ATOM     13  C   UNL     1     -18.197  26.414  -2.914  1.00  0.00    -0.000 C 
BRANCH  13  14
ATOM     14  C   UNL     1     -18.774  24.992  -3.035  1.00  0.00    -0.000 C 
BRANCH  14  15
ATOM     15  C   UNL     1     -20.300  24.951  -2.875  1.00  0.00    -0.000 C 
BRANCH  15  16
ATOM     16  C   UNL     1     -20.959  26.145  -3.578  1.00  0.00    -0.000 C 
BRANCH  16  17
ATOM     17  C   UNL     1     -19.921  26.968  -4.356  1.00  0.00    -0.000 C 
BRANCH  17  18
ATOM     18  C   UNL     1     -20.558  28.044  -5.253  1.00  0.00    -0.000 C 
BRANCH  18  19
ATOM     19  C   UNL     1     -20.063  29.477  -4.994  1.00  0.00    -0.003 C 
ATOM     20  C   UNL     1     -19.713  29.736  -3.529  1.00  0.00     0.004 C 
ENDBRANCH  18  19
ENDBRANCH  17  18
ENDBRANCH  16  17
ENDBRANCH  15  16
ENDBRANCH  14  15
ENDBRANCH  13  14
ENDBRANCH  12  13
ENDBRANCH   1  12
TORSDOF 16
ENDMDL
MODEL 3
REMARK VINA RESULT:    15.623      3.704      8.907
REMARK INTER + INTRA:          29.183
REMARK INTER:                  28.728
REMARK INTRA:                   0.454
REMARK UNBOUND:                -1.054
REMARK SMILES CCCCCCCCCCCCCCCCCC(=O)[O-]
REMARK SMILES IDX 10 1 11 2 12 3 13 4 14 5 15 6 16 7 17 8 18 9 19 10 20 11
REMARK SMILES IDX 9 12 8 13 7 14 6 15 5 16 4 17 3 18 2 19 1 20
REMARK H PARENT
REMARK Flexibility Score: inf
ROOT
ATOM      1  C   UNL     1     -15.885  27.184  -2.875  1.00  0.00     0.000 C 
ENDROOT
BRANCH   1   2
ATOM      2  C   UNL     1     -15.061  28.443  -3.215  1.00  0.00     0.000 C 
BRANCH   2   3
ATOM      3  C   UNL     1     -13.547  28.319  -2.959  1.00  0.00     0.000 C 
BRANCH   3   4
ATOM      4  C   UNL     1     -12.651  28.736  -4.142  1.00  0.00     0.000 C 
BRANCH   4   5
ATOM      5  C   UNL     1     -12.470  30.257  -4.315  1.00  0.00     0.000 C 
BRANCH   5   6
ATOM      6  C   UNL     1     -11.462  30.675  -5.404  1.00  0.00     0.000 C 
BRANCH   6   7
ATOM      7  C   UNL     1     -12.011  30.651  -6.842  1.00  0.00     0.006 C 
BRANCH   7   8
ATOM      8  C   UNL     1     -11.499  29.454  -7.655  1.00  0.00     0.053 C 
BRANCH   8   9
ATOM      9  C   UNL     1     -10.012  29.339  -7.534  1.00  0.00     0.041 C 
ATOM     10  O   UNL     1      -9.283  30.352  -7.698  1.00  0.00    -0.550 OA
ATOM     11  O   UNL     1      -9.428  28.102  -7.289  1.00  0.00    -0.550 OA
ENDBRANCH   8   9
ENDBRANCH   7   8
ENDBRANCH   6   7
ENDBRANCH   5   6
ENDBRANCH   4   5
ENDBRANCH   3   4
ENDBRANCH   2   3
ENDBRANCH   1   2
BRANCH   1  12
ATOM     12  C   UNL     1     -17.099  26.935  -3.791  1.00  0.00     0.000 C 
BRANCH  12  13
ATOM     13  C   UNL     1     -17.975  28.174  -4.066  1.00  0.00    -0.000 C 
BRANCH  13  14
ATOM     14  C   UNL     1     -18.858  28.621  -2.887  1.00  0.00    -0.000 C 
BRANCH  14  15
ATOM     15  C   UNL     1     -20.160  29.297  -3.340  1.00  0.00    -0.000 C 
BRANCH  15  16
ATOM     16  C   UNL     1     -21.044  28.319  -4.124  1.00  0.00    -0.000 C 
BRANCH  16  17
ATOM     17  C   UNL     1     -20.395  27.944  -5.465  1.00  0.00    -0.000 C 
BRANCH  17  18
ATOM     18  C   UNL     1     -21.124  26.794  -6.184  1.00  0.00    -0.000 C 
BRANCH  18  19
ATOM     19  C   UNL     1     -20.895  25.401  -5.572  1.00  0.00    -0.003 C 
ATOM     20  C   UNL     1     -19.928  25.418  -4.388  1.00  0.00     0.004 C 
ENDBRANCH  18  19
ENDBRANCH  17  18
ENDBRANCH  16  17
ENDBRANCH  15  16
ENDBRANCH  14  15
ENDBRANCH  13  14
ENDBRANCH  12  13
ENDBRANCH   1  12
TORSDOF 16
ENDMDL
MODEL 4
REMARK VINA RESULT:    16.217      3.780      9.392
REMARK INTER + INTRA:          30.332
REMARK INTER:                  29.914
REMARK INTRA:                   0.418
REMARK UNBOUND:                -1.054
REMARK SMILES CCCCCCCCCCCCCCCCCC(=O)[O-]
REMARK SMILES IDX 10 1 11 2 12 3 13 4 14 5 15 6 16 7 17 8 18 9 19 10 20 11
REMARK SMILES IDX 9 12 8 13 7 14 6 15 5 16 4 17 3 18 2 19 1 20
REMARK H PARENT
REMARK Flexibility Score: inf
ROOT
ATOM      1  C   UNL     1     -15.493  28.251  -4.065  1.00  0.00     0.000 C 
ENDROOT
BRANCH   1   2
ATOM      2  C   UNL     1     -14.525  28.440  -2.880  1.00  0.00     0.000 C 
BRANCH   2   3
ATOM      3  C   UNL     1     -13.150  29.029  -3.250  1.00  0.00     0.000 C 
BRANCH   3   4
ATOM      4  C   UNL     1     -12.966  29.361  -4.744  1.00  0.00     0.000 C 
BRANCH   4   5
ATOM      5  C   UNL     1     -11.533  29.175  -5.279  1.00  0.00     0.000 C 
BRANCH   5   6
ATOM      6  C   UNL     1     -11.405  29.164  -6.815  1.00  0.00     0.000 C 
BRANCH   6   7
ATOM      7  C   UNL     1      -9.987  28.892  -7.348  1.00  0.00     0.006 C 
BRANCH   7   8
ATOM      8  C   UNL     1      -9.526  29.935  -8.373  1.00  0.00     0.053 C 
BRANCH   8   9
ATOM      9  C   UNL     1      -8.564  30.895  -7.746  1.00  0.00     0.041 C 
ATOM     10  O   UNL     1      -8.515  31.015  -6.494  1.00  0.00    -0.550 OA
ATOM     11  O   UNL     1      -7.756  31.693  -8.547  1.00  0.00    -0.550 OA
ENDBRANCH   8   9
ENDBRANCH   7   8
ENDBRANCH   6   7
ENDBRANCH   5   6
ENDBRANCH   4   5
ENDBRANCH   3   4
ENDBRANCH   2   3
ENDBRANCH   1   2
BRANCH   1  12
ATOM     12  C   UNL     1     -16.529  27.124  -3.885  1.00  0.00     0.000 C 
BRANCH  12  13
ATOM     13  C   UNL     1     -17.656  27.427  -2.877  1.00  0.00    -0.000 C 
BRANCH  13  14
ATOM     14  C   UNL     1     -19.076  27.102  -3.374  1.00  0.00    -0.000 C 
BRANCH  14  15
ATOM     15  C   UNL     1     -19.409  25.605  -3.291  1.00  0.00    -0.000 C 
BRANCH  15  16
ATOM     16  C   UNL     1     -20.872  25.344  -3.671  1.00  0.00    -0.000 C 
BRANCH  16  17
ATOM     17  C   UNL     1     -21.054  25.353  -5.196  1.00  0.00    -0.000 C 
BRANCH  17  18
ATOM     18  C   UNL     1     -20.482  26.619  -5.861  1.00  0.00    -0.000 C 
BRANCH  18  19
ATOM     19  C   UNL     1     -21.120  27.939  -5.393  1.00  0.00    -0.003 C 
ATOM     20  C   UNL     1     -20.285  29.168  -5.753  1.00  0.00     0.004 C 
ENDBRANCH  18  19
ENDBRANCH  17  18
ENDBRANCH  16  17
ENDBRANCH  15  16
ENDBRANCH  14  15
ENDBRANCH  13  14
ENDBRANCH  12  13
ENDBRANCH   1  12
TORSDOF 16
ENDMDL
MODEL 5
REMARK VINA RESULT:    16.719      1.496      2.717
REMARK INTER + INTRA:          31.302
REMARK INTER:                  31.114
REMARK INTRA:                   0.188
REMARK UNBOUND:                -1.054
REMARK SMILES CCCCCCCCCCCCCCCCCC(=O)[O-]
REMARK SMILES IDX 10 1 11 2 12 3 13 4 14 5 15 6 16 7 17 8 18 9 19 10 20 11
REMARK SMILES IDX 9 12 8 13 7 14 6 15 5 16 4 17 3 18 2 19 1 20
REMARK H PARENT
REMARK Flexibility Score: inf
ROOT
ATOM      1  C   UNL     1     -14.469  28.885  -4.065  1.00  0.00     0.000 C 
ENDROOT
BRANCH   1   2
ATOM      2  C   UNL     1     -15.521  28.282  -3.113  1.00  0.00     0.000 C 
BRANCH   2   3
ATOM      3  C   UNL     1     -16.637  27.473  -3.803  1.00  0.00     0.000 C 
BRANCH   3   4
ATOM      4  C   UNL     1     -17.404  26.506  -2.880  1.00  0.00     0.000 C 
BRANCH   4   5
ATOM      5  C   UNL     1     -18.377  25.553  -3.602  1.00  0.00     0.000 C 
BRANCH   5   6
ATOM      6  C   UNL     1     -19.719  25.320  -2.881  1.00  0.00     0.000 C 
BRANCH   6   7
ATOM      7  C   UNL     1     -20.798  26.383  -3.155  1.00  0.00     0.006 C 
BRANCH   7   8
ATOM      8  C   UNL     1     -20.589  27.114  -4.487  1.00  0.00     0.053 C 
BRANCH   8   9
ATOM      9  C   UNL     1     -20.155  28.526  -4.246  1.00  0.00     0.041 C 
ATOM     10  O   UNL     1     -20.012  29.318  -5.212  1.00  0.00    -0.550 OA
ATOM     11  O   UNL     1     -19.861  28.951  -2.956  1.00  0.00    -0.550 OA
ENDBRANCH   8   9
ENDBRANCH   7   8
ENDBRANCH   6   7
ENDBRANCH   5   6
ENDBRANCH   4   5
ENDBRANCH   3   4
ENDBRANCH   2   3
ENDBRANCH   1   2
BRANCH   1  12
ATOM     12  C   UNL     1     -13.005  28.679  -3.630  1.00  0.00     0.000 C 
BRANCH  12  13
ATOM     13  C   UNL     1     -11.975  28.688  -4.777  1.00  0.00    -0.000 C 
BRANCH  13  14
ATOM     14  C   UNL     1     -11.943  29.981  -5.612  1.00  0.00    -0.000 C 
BRANCH  14  15
ATOM     15  C   UNL     1     -10.536  30.328  -6.121  1.00  0.00    -0.000 C 
BRANCH  15  16
ATOM     16  C   UNL     1     -10.080  29.333  -7.197  1.00  0.00    -0.000 C 
BRANCH  16  17
ATOM     17  C   UNL     1     -10.836  29.563  -8.515  1.00  0.00    -0.000 C 
BRANCH  17  18
ATOM     18  C   UNL     1     -12.281  30.047  -8.300  1.00  0.00    -0.000 C 
BRANCH  18  19
ATOM     19  C   UNL     1     -12.528  31.523  -8.660  1.00  0.00    -0.003 C 
ATOM     20  C   UNL     1     -13.822  31.740  -9.444  1.00  0.00     0.004 C 
ENDBRANCH  18  19
ENDBRANCH  17  18
ENDBRANCH  16  17
ENDBRANCH  15  16
ENDBRANCH  14  15
ENDBRANCH  13  14
ENDBRANCH  12  13
ENDBRANCH   1  12
TORSDOF 16
ENDMDL
