MODEL 1
REMARK VINA RESULT:    -3.742      0.000      0.000
REMARK INTER + INTRA:          -4.630
REMARK INTER:                  -4.289
REMARK INTRA:                  -0.341
REMARK UNBOUND:                -0.341
REMARK SMILES COc1ccc(C(C)=O)c(O)c1
REMARK SMILES IDX 6 1 10 2 12 3 3 4 4 5 5 6 7 7 8 8 9 9 11 10 2 12 1 13
REMARK H PARENT 11 11
REMARK Flexibility Score: inf
ROOT
ATOM      1  C   UNL     1       0.544  -0.982 -36.167  1.00  0.00     0.059 A 
ATOM      2  C   UNL     1      -0.220  -0.863 -34.979  1.00  0.00     0.130 A 
ATOM      3  C   UNL     1      -1.344  -1.676 -34.791  1.00  0.00     0.093 A 
ATOM      4  C   UNL     1      -1.711  -2.631 -35.743  1.00  0.00     0.122 A 
ATOM      5  C   UNL     1      -0.938  -2.770 -36.907  1.00  0.00     0.047 A 
ATOM      6  C   UNL     1       0.176  -1.954 -37.115  1.00  0.00     0.019 A 
ENDROOT
BRANCH   1   7
ATOM      7  C   UNL     1       1.692  -0.092 -36.456  1.00  0.00     0.163 C 
ATOM      8  C   UNL     1       1.885   0.507 -37.815  1.00  0.00     0.093 C 
ATOM      9  O   UNL     1       2.479   0.240 -35.529  1.00  0.00    -0.294 OA
ENDBRANCH   1   7
BRANCH   2  10
ATOM     10  O   UNL     1       0.124   0.023 -33.955  1.00  0.00    -0.507 OA
ATOM     11  H   UNL     1      -0.059  -0.158 -32.978  1.00  0.00     0.293 HD
ENDBRANCH   2  10
BRANCH   4  12
ATOM     12  O   UNL     1      -2.844  -3.419 -35.493  1.00  0.00    -0.497 OA
ATOM     13  C   UNL     1      -3.574  -3.413 -34.269  1.00  0.00     0.278 C 
ENDBRANCH   4  12
TORSDOF 3
ENDMDL
MODEL 2
REMARK VINA RESULT:    -3.611      6.307      7.665
REMARK INTER + INTRA:          -4.479
REMARK INTER:                  -4.230
REMARK INTRA:                  -0.250
REMARK UNBOUND:                -0.341
REMARK SMILES COc1ccc(C(C)=O)c(O)c1
REMARK SMILES IDX 6 1 10 2 12 3 3 4 4 5 5 6 7 7 8 8 9 9 11 10 2 12 1 13
REMARK H PARENT 11 11
REMARK Flexibility Score: inf
ROOT
ATOM      1  C   UNL     1      -3.040  -4.832 -30.036  1.00  0.00     0.059 A 
ATOM      2  C   UNL     1      -2.971  -5.912 -30.950  1.00  0.00     0.130 A 
ATOM      3  C   UNL     1      -3.509  -5.772 -32.234  1.00  0.00     0.093 A 
ATOM      4  C   UNL     1      -4.088  -4.568 -32.647  1.00  0.00     0.122 A 
ATOM      5  C   UNL     1      -4.132  -3.487 -31.752  1.00  0.00     0.047 A 
ATOM      6  C   UNL     1      -3.613  -3.620 -30.462  1.00  0.00     0.019 A 
ENDROOT
BRANCH   1   7
ATOM      7  C   UNL     1      -2.563  -4.952 -28.639  1.00  0.00     0.163 C 
ATOM      8  C   UNL     1      -3.519  -5.195 -27.512  1.00  0.00     0.093 C 
ATOM      9  O   UNL     1      -1.326  -4.933 -28.393  1.00  0.00    -0.294 OA
ENDBRANCH   1   7
BRANCH   2  10
ATOM     10  O   UNL     1      -2.349  -7.122 -30.631  1.00  0.00    -0.507 OA
ATOM     11  H   UNL     1      -1.556  -7.491 -31.138  1.00  0.00     0.293 HD
ENDBRANCH   2  10
BRANCH   4  12
ATOM     12  O   UNL     1      -4.604  -4.489 -33.949  1.00  0.00    -0.497 OA
ATOM     13  C   UNL     1      -5.004  -5.614 -34.725  1.00  0.00     0.278 C 
ENDBRANCH   4  12
TORSDOF 3
ENDMDL
MODEL 3
REMARK VINA RESULT:    -3.586      5.734      7.309
REMARK INTER + INTRA:          -4.451
REMARK INTER:                  -4.129
REMARK INTRA:                  -0.322
REMARK UNBOUND:                -0.341
REMARK SMILES COc1ccc(C(C)=O)c(O)c1
REMARK SMILES IDX 6 1 10 2 12 3 3 4 4 5 5 6 7 7 8 8 9 9 11 10 2 12 1 13
REMARK H PARENT 11 11
REMARK Flexibility Score: inf
ROOT
ATOM      1  C   UNL     1      -3.913  -4.283 -32.249  1.00  0.00     0.059 A 
ATOM      2  C   UNL     1      -3.642  -5.672 -32.175  1.00  0.00     0.130 A 
ATOM      3  C   UNL     1      -3.103  -6.214 -31.003  1.00  0.00     0.093 A 
ATOM      4  C   UNL     1      -2.856  -5.412 -29.884  1.00  0.00     0.122 A 
ATOM      5  C   UNL     1      -3.152  -4.041 -29.946  1.00  0.00     0.047 A 
ATOM      6  C   UNL     1      -3.674  -3.485 -31.115  1.00  0.00     0.019 A 
ENDROOT
BRANCH   1   7
ATOM      7  C   UNL     1      -4.404  -3.642 -33.491  1.00  0.00     0.163 C 
ATOM      8  C   UNL     1      -5.125  -2.330 -33.453  1.00  0.00     0.093 C 
ATOM      9  O   UNL     1      -4.145  -4.161 -34.611  1.00  0.00    -0.294 OA
ENDBRANCH   1   7
BRANCH   2  10
ATOM     10  O   UNL     1      -3.923  -6.545 -33.229  1.00  0.00    -0.507 OA
ATOM     11  H   UNL     1      -3.753  -7.541 -33.187  1.00  0.00     0.293 HD
ENDBRANCH   2  10
BRANCH   4  12
ATOM     12  O   UNL     1      -2.322  -6.017 -28.737  1.00  0.00    -0.497 OA
ATOM     13  C   UNL     1      -1.880  -5.306 -27.585  1.00  0.00     0.278 C 
ENDBRANCH   4  12
TORSDOF 3
ENDMDL
MODEL 4
REMARK VINA RESULT:    -3.561      2.484      3.619
REMARK INTER + INTRA:          -4.422
REMARK INTER:                  -4.246
REMARK INTRA:                  -0.176
REMARK UNBOUND:                -0.341
REMARK SMILES COc1ccc(C(C)=O)c(O)c1
REMARK SMILES IDX 6 1 10 2 12 3 3 4 4 5 5 6 7 7 8 8 9 9 11 10 2 12 1 13
REMARK H PARENT 11 11
REMARK Flexibility Score: inf
ROOT
ATOM      1  C   UNL     1       0.977  -1.058 -35.470  1.00  0.00     0.059 A 
ATOM      2  C   UNL     1       1.519   0.002 -36.238  1.00  0.00     0.130 A 
ATOM      3  C   UNL     1       0.695   0.714 -37.118  1.00  0.00     0.093 A 
ATOM      4  C   UNL     1      -0.666   0.420 -37.230  1.00  0.00     0.122 A 
ATOM      5  C   UNL     1      -1.211  -0.610 -36.447  1.00  0.00     0.047 A 
ATOM      6  C   UNL     1      -0.397  -1.340 -35.578  1.00  0.00     0.019 A 
ENDROOT
BRANCH   1   7
ATOM      7  C   UNL     1       1.818  -1.899 -34.587  1.00  0.00     0.163 C 
ATOM      8  C   UNL     1       2.562  -3.083 -35.123  1.00  0.00     0.093 C 
ATOM      9  O   UNL     1       1.983  -1.573 -33.380  1.00  0.00    -0.294 OA
ENDBRANCH   1   7
BRANCH   2  10
ATOM     10  O   UNL     1       2.855   0.395 -36.132  1.00  0.00    -0.507 OA
ATOM     11  H   UNL     1       3.601  -0.234 -35.868  1.00  0.00     0.293 HD
ENDBRANCH   2  10
BRANCH   4  12
ATOM     12  O   UNL     1      -1.439   1.175 -38.125  1.00  0.00    -0.497 OA
ATOM     13  C   UNL     1      -2.847   1.360 -38.014  1.00  0.00     0.278 C 
ENDBRANCH   4  12
TORSDOF 3
ENDMDL
MODEL 5
REMARK VINA RESULT:    -3.463     19.328     20.452
REMARK INTER + INTRA:          -4.309
REMARK INTER:                  -3.970
REMARK INTRA:                  -0.340
REMARK UNBOUND:                -0.341
REMARK SMILES COc1ccc(C(C)=O)c(O)c1
REMARK SMILES IDX 6 1 10 2 12 3 3 4 4 5 5 6 7 7 8 8 9 9 11 10 2 12 1 13
REMARK H PARENT 11 11
REMARK Flexibility Score: inf
ROOT
ATOM      1  C   UNL     1      11.462   9.604 -22.858  1.00  0.00     0.059 A 
ATOM      2  C   UNL     1      10.273   9.764 -23.610  1.00  0.00     0.130 A 
ATOM      3  C   UNL     1       9.048   9.918 -22.950  1.00  0.00     0.093 A 
ATOM      4  C   UNL     1       8.980   9.950 -21.554  1.00  0.00     0.122 A 
ATOM      5  C   UNL     1      10.162   9.822 -20.807  1.00  0.00     0.047 A 
ATOM      6  C   UNL     1      11.388   9.650 -21.454  1.00  0.00     0.019 A 
ENDROOT
BRANCH   1   7
ATOM      7  C   UNL     1      12.773   9.353 -23.502  1.00  0.00     0.163 C 
ATOM      8  C   UNL     1      14.032   9.948 -22.953  1.00  0.00     0.093 C 
ATOM      9  O   UNL     1      12.851   8.561 -24.480  1.00  0.00    -0.294 OA
ENDBRANCH   1   7
BRANCH   2  10
ATOM     10  O   UNL     1      10.271   9.806 -25.007  1.00  0.00    -0.507 OA
ATOM     11  H   UNL     1       9.650   9.252 -25.580  1.00  0.00     0.293 HD
ENDBRANCH   2  10
BRANCH   4  12
ATOM     12  O   UNL     1       7.723  10.115 -20.953  1.00  0.00    -0.497 OA
ATOM     13  C   UNL     1       6.564   9.359 -21.292  1.00  0.00     0.278 C 
ENDBRANCH   4  12
TORSDOF 3
ENDMDL
MODEL 6
REMARK VINA RESULT:    -3.422      7.106      9.918
REMARK INTER + INTRA:          -4.262
REMARK INTER:                  -3.934
REMARK INTRA:                  -0.328
REMARK UNBOUND:                -0.341
REMARK SMILES COc1ccc(C(C)=O)c(O)c1
REMARK SMILES IDX 6 1 10 2 12 3 3 4 4 5 5 6 7 7 8 8 9 9 11 10 2 12 1 13
REMARK H PARENT 11 11
REMARK Flexibility Score: inf
ROOT
ATOM      1  C   UNL     1      -3.782  -5.015 -27.146  1.00  0.00     0.059 A 
ATOM      2  C   UNL     1      -2.597  -5.377 -27.833  1.00  0.00     0.130 A 
ATOM      3  C   UNL     1      -2.459  -5.068 -29.191  1.00  0.00     0.093 A 
ATOM      4  C   UNL     1      -3.459  -4.375 -29.878  1.00  0.00     0.122 A 
ATOM      5  C   UNL     1      -4.622  -3.989 -29.191  1.00  0.00     0.047 A 
ATOM      6  C   UNL     1      -4.779  -4.307 -27.841  1.00  0.00     0.019 A 
ENDROOT
BRANCH   1   7
ATOM      7  C   UNL     1      -4.017  -5.391 -25.732  1.00  0.00     0.163 C 
ATOM      8  C   UNL     1      -4.465  -4.377 -24.725  1.00  0.00     0.093 C 
ATOM      9  O   UNL     1      -3.922  -6.597 -25.378  1.00  0.00    -0.294 OA
ENDBRANCH   1   7
BRANCH   2  10
ATOM     10  O   UNL     1      -1.528  -6.013 -27.196  1.00  0.00    -0.507 OA
ATOM     11  H   UNL     1      -1.103  -6.864 -27.539  1.00  0.00     0.293 HD
ENDBRANCH   2  10
BRANCH   4  12
ATOM     12  O   UNL     1      -3.257  -4.088 -31.237  1.00  0.00    -0.497 OA
ATOM     13  C   UNL     1      -3.602  -2.854 -31.858  1.00  0.00     0.278 C 
ENDBRANCH   4  12
TORSDOF 3
ENDMDL
MODEL 7
REMARK VINA RESULT:    -3.403     19.337     20.610
REMARK INTER + INTRA:          -4.241
REMARK INTER:                  -3.906
REMARK INTRA:                  -0.335
REMARK UNBOUND:                -0.341
REMARK SMILES COc1ccc(C(C)=O)c(O)c1
REMARK SMILES IDX 6 1 10 2 12 3 3 4 4 5 5 6 7 7 8 8 9 9 11 10 2 12 1 13
REMARK H PARENT 11 11
REMARK Flexibility Score: inf
ROOT
ATOM      1  C   UNL     1       6.759   8.606 -19.517  1.00  0.00     0.059 A 
ATOM      2  C   UNL     1       6.031   9.205 -20.574  1.00  0.00     0.130 A 
ATOM      3  C   UNL     1       6.701   9.980 -21.528  1.00  0.00     0.093 A 
ATOM      4  C   UNL     1       8.088  10.148 -21.476  1.00  0.00     0.122 A 
ATOM      5  C   UNL     1       8.814   9.530 -20.445  1.00  0.00     0.047 A 
ATOM      6  C   UNL     1       8.155   8.769 -19.478  1.00  0.00     0.019 A 
ENDROOT
BRANCH   1   7
ATOM      7  C   UNL     1       6.091   7.846 -18.434  1.00  0.00     0.163 C 
ATOM      8  C   UNL     1       6.667   6.564 -17.918  1.00  0.00     0.093 C 
ATOM      9  O   UNL     1       5.065   8.320 -17.875  1.00  0.00    -0.294 OA
ENDBRANCH   1   7
BRANCH   2  10
ATOM     10  O   UNL     1       4.653   9.028 -20.728  1.00  0.00    -0.507 OA
ATOM     11  H   UNL     1       4.175   8.165 -20.508  1.00  0.00     0.293 HD
ENDBRANCH   2  10
BRANCH   4  12
ATOM     12  O   UNL     1       8.702  10.931 -22.465  1.00  0.00    -0.497 OA
ATOM     13  C   UNL     1       9.102  10.443 -23.742  1.00  0.00     0.278 C 
ENDBRANCH   4  12
TORSDOF 3
ENDMDL
MODEL 8
REMARK VINA RESULT:    -3.397     19.164     20.263
REMARK INTER + INTRA:          -4.234
REMARK INTER:                  -3.897
REMARK INTRA:                  -0.338
REMARK UNBOUND:                -0.341
REMARK SMILES COc1ccc(C(C)=O)c(O)c1
REMARK SMILES IDX 6 1 10 2 12 3 3 4 4 5 5 6 7 7 8 8 9 9 11 10 2 12 1 13
REMARK H PARENT 11 11
REMARK Flexibility Score: inf
ROOT
ATOM      1  C   UNL     1       9.558   9.624 -22.753  1.00  0.00     0.059 A 
ATOM      2  C   UNL     1      10.319   9.786 -21.569  1.00  0.00     0.130 A 
ATOM      3  C   UNL     1       9.710   9.610 -20.322  1.00  0.00     0.093 A 
ATOM      4  C   UNL     1       8.365   9.243 -20.221  1.00  0.00     0.122 A 
ATOM      5  C   UNL     1       7.617   9.053 -21.394  1.00  0.00     0.047 A 
ATOM      6  C   UNL     1       8.209   9.242 -22.644  1.00  0.00     0.019 A 
ENDROOT
BRANCH   1   7
ATOM      7  C   UNL     1      10.129   9.879 -24.096  1.00  0.00     0.163 C 
ATOM      8  C   UNL     1       9.551  10.927 -24.997  1.00  0.00     0.093 C 
ATOM      9  O   UNL     1      11.168   9.267 -24.464  1.00  0.00    -0.294 OA
ENDBRANCH   1   7
BRANCH   2  10
ATOM     10  O   UNL     1      11.683  10.089 -21.593  1.00  0.00    -0.507 OA
ATOM     11  H   UNL     1      12.062  10.974 -21.287  1.00  0.00     0.293 HD
ENDBRANCH   2  10
BRANCH   4  12
ATOM     12  O   UNL     1       7.815   9.075 -18.941  1.00  0.00    -0.497 OA
ATOM     13  C   UNL     1       6.979   7.986 -18.561  1.00  0.00     0.278 C 
ENDBRANCH   4  12
TORSDOF 3
ENDMDL
MODEL 9
REMARK VINA RESULT:    -3.381      7.339      9.843
REMARK INTER + INTRA:          -4.216
REMARK INTER:                  -3.873
REMARK INTRA:                  -0.343
REMARK UNBOUND:                -0.341
REMARK SMILES COc1ccc(C(C)=O)c(O)c1
REMARK SMILES IDX 6 1 10 2 12 3 3 4 4 5 5 6 7 7 8 8 9 9 11 10 2 12 1 13
REMARK H PARENT 11 11
REMARK Flexibility Score: inf
ROOT
ATOM      1  C   UNL     1      -2.931  -5.483 -27.205  1.00  0.00     0.059 A 
ATOM      2  C   UNL     1      -4.263  -5.000 -27.194  1.00  0.00     0.130 A 
ATOM      3  C   UNL     1      -4.764  -4.316 -28.307  1.00  0.00     0.093 A 
ATOM      4  C   UNL     1      -3.981  -4.127 -29.450  1.00  0.00     0.122 A 
ATOM      5  C   UNL     1      -2.671  -4.631 -29.474  1.00  0.00     0.047 A 
ATOM      6  C   UNL     1      -2.154  -5.301 -28.363  1.00  0.00     0.019 A 
ENDROOT
BRANCH   1   7
ATOM      7  C   UNL     1      -2.323  -6.139 -26.024  1.00  0.00     0.163 C 
ATOM      8  C   UNL     1      -1.400  -7.309 -26.178  1.00  0.00     0.093 C 
ATOM      9  O   UNL     1      -2.513  -5.663 -24.872  1.00  0.00    -0.294 OA
ENDBRANCH   1   7
BRANCH   2  10
ATOM     10  O   UNL     1      -5.124  -5.208 -26.113  1.00  0.00    -0.507 OA
ATOM     11  H   UNL     1      -6.131  -5.145 -26.184  1.00  0.00     0.293 HD
ENDBRANCH   2  10
BRANCH   4  12
ATOM     12  O   UNL     1      -4.544  -3.439 -30.536  1.00  0.00    -0.497 OA
ATOM     13  C   UNL     1      -3.802  -2.948 -31.648  1.00  0.00     0.278 C 
ENDBRANCH   4  12
TORSDOF 3
ENDMDL
