MODEL 1
REMARK VINA RESULT:    -8.955      0.000      0.000
REMARK INTER + INTRA:         -16.693
REMARK INTER:                 -14.975
REMARK INTRA:                  -1.718
REMARK UNBOUND:                -1.718
REMARK SMILES COc1cc(-c2oc3cc(O)cc(O)c3c(=O)c2O[C@@H]2O[C@H](CO[C@H]3O[C@H](C)[C@@H](O)[C@H](O)[C@H]3O)[C@@H](O)[C@H](O)[C@@H]2O)ccc1O
REMARK SMILES IDX 22 1 35 2 37 3 39 4 20 5 21 6 23 7 24 8 25 9 28 10 27 11
REMARK SMILES IDX 29 12 26 13 31 14 33 15 30 16 32 18 34 20 36 22 38 24 19 26
REMARK SMILES IDX 18 27 6 28 16 29 7 30 15 31 17 32 8 33 13 34 9 35 12 36
REMARK SMILES IDX 10 37 5 38 4 39 41 40 3 41 42 42 43 43 2 44 1 45 44 46 14 48
REMARK SMILES IDX 11 50 40 52
REMARK H PARENT 30 17 32 19 34 21 36 23 38 25 44 47 14 49 11 51 40 53
REMARK Flexibility Score: inf
ROOT
ATOM      1  C   UNL     1      -6.471 -14.526  30.823  1.00  0.00     0.180 C 
ATOM      2  C   UNL     1      -6.497 -13.672  32.189  1.00  0.00     0.177 C 
ATOM      3  C   UNL     1      -5.737 -12.343  32.094  1.00  0.00     0.180 C 
ATOM      4  C   UNL     1      -4.897 -12.226  30.789  1.00  0.00     0.214 C 
ATOM      5  C   UNL     1      -4.322 -13.604  30.491  1.00  0.00     0.339 C 
ATOM      6  O   UNL     1      -5.313 -14.480  30.001  1.00  0.00    -0.332 OA
ENDROOT
BRANCH   1   7
ATOM      7  C   UNL     1      -7.674 -14.346  29.864  1.00  0.00     0.198 C 
BRANCH   7   8
ATOM      8  O   UNL     1      -8.182 -15.600  29.385  1.00  0.00    -0.347 OA
BRANCH   8   9
ATOM      9  C   UNL     1      -9.470 -15.950  29.839  1.00  0.00     0.281 C 
ATOM     10  C   UNL     1     -12.469 -16.531  27.706  1.00  0.00     0.041 C 
ATOM     11  C   UNL     1     -11.181 -17.050  28.347  1.00  0.00     0.150 C 
ATOM     12  C   UNL     1     -11.431 -18.111  29.461  1.00  0.00     0.174 C 
ATOM     13  O   UNL     1     -10.425 -15.899  28.750  1.00  0.00    -0.344 OA
ATOM     14  C   UNL     1     -10.085 -18.429  30.138  1.00  0.00     0.179 C 
ATOM     15  C   UNL     1      -9.628 -17.148  30.881  1.00  0.00     0.202 C 
BRANCH  12  16
ATOM     16  O   UNL     1     -11.991 -19.273  28.896  1.00  0.00    -0.388 OA
ATOM     17  H   UNL     1     -11.426 -20.034  29.286  1.00  0.00     0.211 HD
ENDBRANCH  12  16
BRANCH  14  18
ATOM     18  O   UNL     1     -10.190 -19.538  31.000  1.00  0.00    -0.387 OA
ATOM     19  H   UNL     1      -9.285 -20.002  31.071  1.00  0.00     0.211 HD
ENDBRANCH  14  18
BRANCH  15  20
ATOM     20  O   UNL     1      -8.504 -17.295  31.693  1.00  0.00    -0.385 OA
ATOM     21  H   UNL     1      -8.512 -16.623  32.448  1.00  0.00     0.211 HD
ENDBRANCH  15  20
ENDBRANCH   8   9
ENDBRANCH   7   8
ENDBRANCH   1   7
BRANCH   2  22
ATOM     22  O   UNL     1      -6.002 -14.483  33.257  1.00  0.00    -0.387 OA
ATOM     23  H   UNL     1      -5.112 -14.910  33.043  1.00  0.00     0.211 HD
ENDBRANCH   2  22
BRANCH   3  24
ATOM     24  O   UNL     1      -6.657 -11.277  32.271  1.00  0.00    -0.387 OA
ATOM     25  H   UNL     1      -6.870 -10.982  31.338  1.00  0.00     0.211 HD
ENDBRANCH   3  24
BRANCH   5  26
ATOM     26  O   UNL     1      -3.193 -13.601  29.605  1.00  0.00    -0.454 OA
BRANCH  26  27
ATOM     27  C   UNL     1      -1.946 -14.057  30.096  1.00  0.00     0.214 A 
ATOM     28  C   UNL     1      -1.452 -15.372  29.867  1.00  0.00     0.180 A 
ATOM     29  C   UNL     1      -1.271 -13.280  31.084  1.00  0.00     0.239 A 
ATOM     30  O   UNL     1      -0.685 -15.938  30.788  1.00  0.00    -0.452 OA
ATOM     31  C   UNL     1      -0.494 -13.917  32.054  1.00  0.00     0.111 A 
ATOM     32  O   UNL     1      -1.243 -12.021  31.017  1.00  0.00    -0.285 OA
ATOM     33  C   UNL     1      -0.228 -15.285  31.857  1.00  0.00     0.146 A 
ATOM     34  C   UNL     1       0.049 -13.268  33.208  1.00  0.00     0.134 A 
ATOM     35  C   UNL     1       0.488 -16.018  32.796  1.00  0.00     0.094 A 
ATOM     36  C   UNL     1       0.782 -14.005  34.147  1.00  0.00     0.093 A 
ATOM     37  C   UNL     1       0.991 -15.410  33.952  1.00  0.00     0.123 A 
BRANCH  28  38
ATOM     38  C   UNL     1      -1.638 -16.121  28.594  1.00  0.00     0.025 A 
ATOM     39  C   UNL     1      -1.736 -17.512  28.713  1.00  0.00     0.062 A 
ATOM     40  C   UNL     1      -1.466 -15.537  27.332  1.00  0.00     0.016 A 
ATOM     41  C   UNL     1      -1.601 -18.353  27.625  1.00  0.00     0.161 A 
ATOM     42  C   UNL     1      -1.523 -16.368  26.178  1.00  0.00     0.051 A 
ATOM     43  C   UNL     1      -1.520 -17.797  26.345  1.00  0.00     0.157 A 
BRANCH  41  44
ATOM     44  O   UNL     1      -1.561 -19.745  27.758  1.00  0.00    -0.493 OA
ATOM     45  C   UNL     1      -1.166 -20.499  28.909  1.00  0.00     0.278 C 
ENDBRANCH  41  44
BRANCH  43  46
ATOM     46  O   UNL     1      -1.310 -18.612  25.221  1.00  0.00    -0.504 OA
ATOM     47  H   UNL     1      -1.944 -19.352  24.846  1.00  0.00     0.293 HD
ENDBRANCH  43  46
ENDBRANCH  28  38
BRANCH  34  48
ATOM     48  O   UNL     1      -0.038 -11.870  33.385  1.00  0.00    -0.507 OA
ATOM     49  H   UNL     1      -0.697 -11.326  32.841  1.00  0.00     0.293 HD
ENDBRANCH  34  48
BRANCH  37  50
ATOM     50  O   UNL     1       1.686 -16.161  34.885  1.00  0.00    -0.508 OA
ATOM     51  H   UNL     1       2.442 -15.790  35.458  1.00  0.00     0.293 HD
ENDBRANCH  37  50
ENDBRANCH  26  27
ENDBRANCH   5  26
BRANCH   4  52
ATOM     52  O   UNL     1      -5.704 -11.814  29.777  1.00  0.00    -0.384 OA
ATOM     53  H   UNL     1      -6.423 -11.306  30.211  1.00  0.00     0.211 HD
ENDBRANCH   4  52
TORSDOF 16
ENDMDL
MODEL 2
REMARK VINA RESULT:    -8.835      1.619      2.519
REMARK INTER + INTRA:         -16.493
REMARK INTER:                 -14.595
REMARK INTRA:                  -1.898
REMARK UNBOUND:                -1.718
REMARK SMILES COc1cc(-c2oc3cc(O)cc(O)c3c(=O)c2O[C@@H]2O[C@H](CO[C@H]3O[C@H](C)[C@@H](O)[C@H](O)[C@H]3O)[C@@H](O)[C@H](O)[C@@H]2O)ccc1O
REMARK SMILES IDX 22 1 35 2 37 3 39 4 20 5 21 6 23 7 24 8 25 9 28 10 27 11
REMARK SMILES IDX 29 12 26 13 31 14 33 15 30 16 32 18 34 20 36 22 38 24 19 26
REMARK SMILES IDX 18 27 6 28 16 29 7 30 15 31 17 32 8 33 13 34 9 35 12 36
REMARK SMILES IDX 10 37 5 38 4 39 41 40 3 41 42 42 43 43 2 44 1 45 44 46 14 48
REMARK SMILES IDX 11 50 40 52
REMARK H PARENT 30 17 32 19 34 21 36 23 38 25 44 47 14 49 11 51 40 53
REMARK Flexibility Score: inf
ROOT
ATOM      1  C   UNL     1      -6.499 -14.737  31.164  1.00  0.00     0.180 C 
ATOM      2  C   UNL     1      -6.435 -13.725  32.415  1.00  0.00     0.177 C 
ATOM      3  C   UNL     1      -5.843 -12.354  32.063  1.00  0.00     0.180 C 
ATOM      4  C   UNL     1      -5.203 -12.326  30.645  1.00  0.00     0.214 C 
ATOM      5  C   UNL     1      -4.527 -13.671  30.422  1.00  0.00     0.339 C 
ATOM      6  O   UNL     1      -5.473 -14.689  30.183  1.00  0.00    -0.332 OA
ENDROOT
BRANCH   1   7
ATOM      7  C   UNL     1      -7.832 -14.790  30.376  1.00  0.00     0.198 C 
BRANCH   7   8
ATOM      8  O   UNL     1      -7.681 -14.350  29.019  1.00  0.00    -0.347 OA
BRANCH   8   9
ATOM      9  C   UNL     1      -8.209 -15.212  28.036  1.00  0.00     0.281 C 
ATOM     10  C   UNL     1     -11.299 -17.271  28.349  1.00  0.00     0.041 C 
ATOM     11  C   UNL     1     -10.626 -15.937  28.026  1.00  0.00     0.150 C 
ATOM     12  C   UNL     1     -10.705 -15.556  26.516  1.00  0.00     0.174 C 
ATOM     13  O   UNL     1      -9.303 -15.994  28.578  1.00  0.00    -0.344 OA
ATOM     14  C   UNL     1      -9.857 -14.291  26.290  1.00  0.00     0.179 C 
ATOM     15  C   UNL     1      -8.378 -14.676  26.542  1.00  0.00     0.202 C 
BRANCH  12  16
ATOM     16  O   UNL     1     -12.046 -15.329  26.151  1.00  0.00    -0.388 OA
ATOM     17  H   UNL     1     -12.246 -16.069  25.473  1.00  0.00     0.211 HD
ENDBRANCH  12  16
BRANCH  14  18
ATOM     18  O   UNL     1     -10.058 -13.759  25.001  1.00  0.00    -0.387 OA
ATOM     19  H   UNL     1      -9.724 -12.796  24.974  1.00  0.00     0.211 HD
ENDBRANCH  14  18
BRANCH  15  20
ATOM     20  O   UNL     1      -7.440 -13.695  26.224  1.00  0.00    -0.385 OA
ATOM     21  H   UNL     1      -6.631 -14.098  25.771  1.00  0.00     0.211 HD
ENDBRANCH  15  20
ENDBRANCH   8   9
ENDBRANCH   7   8
ENDBRANCH   1   7
BRANCH   2  22
ATOM     22  O   UNL     1      -5.717 -14.347  33.483  1.00  0.00    -0.387 OA
ATOM     23  H   UNL     1      -5.566 -13.726  34.266  1.00  0.00     0.211 HD
ENDBRANCH   2  22
BRANCH   3  24
ATOM     24  O   UNL     1      -6.841 -11.363  32.252  1.00  0.00    -0.387 OA
ATOM     25  H   UNL     1      -6.385 -10.507  32.003  1.00  0.00     0.211 HD
ENDBRANCH   3  24
BRANCH   5  26
ATOM     26  O   UNL     1      -3.533 -13.676  29.387  1.00  0.00    -0.454 OA
BRANCH  26  27
ATOM     27  C   UNL     1      -2.208 -14.048  29.720  1.00  0.00     0.214 A 
ATOM     28  C   UNL     1      -1.521 -15.126  29.097  1.00  0.00     0.180 A 
ATOM     29  C   UNL     1      -1.623 -13.513  30.907  1.00  0.00     0.239 A 
ATOM     30  O   UNL     1      -0.633 -15.813  29.802  1.00  0.00    -0.452 OA
ATOM     31  C   UNL     1      -0.712 -14.280  31.637  1.00  0.00     0.111 A 
ATOM     32  O   UNL     1      -1.801 -12.309  31.236  1.00  0.00    -0.285 OA
ATOM     33  C   UNL     1      -0.239 -15.456  31.025  1.00  0.00     0.146 A 
ATOM     34  C   UNL     1      -0.230 -13.938  32.940  1.00  0.00     0.134 A 
ATOM     35  C   UNL     1       0.625 -16.314  31.695  1.00  0.00     0.094 A 
ATOM     36  C   UNL     1       0.652 -14.797  33.608  1.00  0.00     0.093 A 
ATOM     37  C   UNL     1       1.075 -16.017  32.987  1.00  0.00     0.123 A 
BRANCH  28  38
ATOM     38  C   UNL     1      -1.640 -15.465  27.652  1.00  0.00     0.025 A 
ATOM     39  C   UNL     1      -1.324 -16.784  27.307  1.00  0.00     0.062 A 
ATOM     40  C   UNL     1      -1.796 -14.497  26.651  1.00  0.00     0.016 A 
ATOM     41  C   UNL     1      -1.089 -17.164  25.999  1.00  0.00     0.161 A 
ATOM     42  C   UNL     1      -1.754 -14.907  25.289  1.00  0.00     0.051 A 
ATOM     43  C   UNL     1      -1.325 -16.244  24.974  1.00  0.00     0.157 A 
BRANCH  41  44
ATOM     44  O   UNL     1      -0.640 -18.445  25.663  1.00  0.00    -0.493 OA
ATOM     45  C   UNL     1      -1.427 -19.632  25.514  1.00  0.00     0.278 C 
ENDBRANCH  41  44
BRANCH  43  46
ATOM     46  O   UNL     1      -1.031 -16.566  23.639  1.00  0.00    -0.504 OA
ATOM     47  H   UNL     1      -0.250 -16.194  23.054  1.00  0.00     0.293 HD
ENDBRANCH  43  46
ENDBRANCH  28  38
BRANCH  34  48
ATOM     48  O   UNL     1      -0.533 -12.699  33.544  1.00  0.00    -0.507 OA
ATOM     49  H   UNL     1       0.143 -12.244  34.146  1.00  0.00     0.293 HD
ENDBRANCH  34  48
BRANCH  37  50
ATOM     50  O   UNL     1       1.922 -16.894  33.645  1.00  0.00    -0.508 OA
ATOM     51  H   UNL     1       2.922 -16.735  33.755  1.00  0.00     0.293 HD
ENDBRANCH  37  50
ENDBRANCH  26  27
ENDBRANCH   5  26
BRANCH   4  52
ATOM     52  O   UNL     1      -6.177 -12.120  29.722  1.00  0.00    -0.384 OA
ATOM     53  H   UNL     1      -6.714 -12.941  29.725  1.00  0.00     0.211 HD
ENDBRANCH   4  52
TORSDOF 16
ENDMDL
MODEL 3
REMARK VINA RESULT:    -8.681      3.235      7.396
REMARK INTER + INTRA:         -16.235
REMARK INTER:                 -13.869
REMARK INTRA:                  -2.366
REMARK UNBOUND:                -1.718
REMARK SMILES COc1cc(-c2oc3cc(O)cc(O)c3c(=O)c2O[C@@H]2O[C@H](CO[C@H]3O[C@H](C)[C@@H](O)[C@H](O)[C@H]3O)[C@@H](O)[C@H](O)[C@@H]2O)ccc1O
REMARK SMILES IDX 22 1 35 2 37 3 39 4 20 5 21 6 23 7 24 8 25 9 28 10 27 11
REMARK SMILES IDX 29 12 26 13 31 14 33 15 30 16 32 18 34 20 36 22 38 24 19 26
REMARK SMILES IDX 18 27 6 28 16 29 7 30 15 31 17 32 8 33 13 34 9 35 12 36
REMARK SMILES IDX 10 37 5 38 4 39 41 40 3 41 42 42 43 43 2 44 1 45 44 46 14 48
REMARK SMILES IDX 11 50 40 52
REMARK H PARENT 30 17 32 19 34 21 36 23 38 25 44 47 14 49 11 51 40 53
REMARK Flexibility Score: inf
ROOT
ATOM      1  C   UNL     1      -2.638 -15.527  28.104  1.00  0.00     0.180 C 
ATOM      2  C   UNL     1      -2.993 -14.499  26.916  1.00  0.00     0.177 C 
ATOM      3  C   UNL     1      -1.818 -13.596  26.517  1.00  0.00     0.180 C 
ATOM      4  C   UNL     1      -0.625 -13.693  27.511  1.00  0.00     0.214 C 
ATOM      5  C   UNL     1      -1.207 -13.830  28.911  1.00  0.00     0.339 C 
ATOM      6  O   UNL     1      -1.737 -15.119  29.124  1.00  0.00    -0.332 OA
ENDROOT
BRANCH   1   7
ATOM      7  C   UNL     1      -2.186 -16.948  27.686  1.00  0.00     0.198 C 
BRANCH   7   8
ATOM      8  O   UNL     1      -1.587 -16.968  26.382  1.00  0.00    -0.347 OA
BRANCH   8   9
ATOM      9  C   UNL     1      -0.636 -17.985  26.162  1.00  0.00     0.281 C 
ATOM     10  C   UNL     1      -0.629 -21.364  27.732  1.00  0.00     0.041 C 
ATOM     11  C   UNL     1      -1.117 -20.416  26.636  1.00  0.00     0.150 C 
ATOM     12  C   UNL     1      -0.564 -20.772  25.222  1.00  0.00     0.174 C 
ATOM     13  O   UNL     1      -0.841 -19.082  27.087  1.00  0.00    -0.344 OA
ATOM     14  C   UNL     1      -0.984 -19.660  24.244  1.00  0.00     0.179 C 
ATOM     15  C   UNL     1      -0.240 -18.369  24.665  1.00  0.00     0.202 C 
BRANCH  12  16
ATOM     16  O   UNL     1      -1.075 -22.018  24.811  1.00  0.00    -0.388 OA
ATOM     17  H   UNL     1      -1.520 -22.393  25.654  1.00  0.00     0.211 HD
ENDBRANCH  12  16
BRANCH  14  18
ATOM     18  O   UNL     1      -0.716 -20.020  22.908  1.00  0.00    -0.387 OA
ATOM     19  H   UNL     1      -1.317 -20.798  22.637  1.00  0.00     0.211 HD
ENDBRANCH  14  18
BRANCH  15  20
ATOM     20  O   UNL     1      -0.369 -17.290  23.791  1.00  0.00    -0.385 OA
ATOM     21  H   UNL     1      -1.177 -16.729  24.024  1.00  0.00     0.211 HD
ENDBRANCH  15  20
ENDBRANCH   8   9
ENDBRANCH   7   8
ENDBRANCH   1   7
BRANCH   2  22
ATOM     22  O   UNL     1      -4.140 -13.732  27.288  1.00  0.00    -0.387 OA
ATOM     23  H   UNL     1      -4.758 -14.231  27.910  1.00  0.00     0.211 HD
ENDBRANCH   2  22
BRANCH   3  24
ATOM     24  O   UNL     1      -1.459 -13.881  25.174  1.00  0.00    -0.387 OA
ATOM     25  H   UNL     1      -1.067 -14.802  25.217  1.00  0.00     0.211 HD
ENDBRANCH   3  24
BRANCH   5  26
ATOM     26  O   UNL     1      -0.300 -13.494  29.971  1.00  0.00    -0.454 OA
BRANCH  26  27
ATOM     27  C   UNL     1      -0.600 -13.930  31.284  1.00  0.00     0.214 A 
ATOM     28  C   UNL     1      -1.416 -13.189  32.184  1.00  0.00     0.180 A 
ATOM     29  C   UNL     1       0.151 -15.010  31.838  1.00  0.00     0.239 A 
ATOM     30  O   UNL     1      -1.169 -13.266  33.484  1.00  0.00    -0.452 OA
ATOM     31  C   UNL     1       0.413 -15.040  33.209  1.00  0.00     0.111 A 
ATOM     32  O   UNL     1       0.464 -16.012  31.140  1.00  0.00    -0.285 OA
ATOM     33  C   UNL     1      -0.288 -14.118  34.010  1.00  0.00     0.146 A 
ATOM     34  C   UNL     1       1.325 -15.946  33.838  1.00  0.00     0.134 A 
ATOM     35  C   UNL     1      -0.053 -14.033  35.377  1.00  0.00     0.094 A 
ATOM     36  C   UNL     1       1.550 -15.868  35.218  1.00  0.00     0.093 A 
ATOM     37  C   UNL     1       0.866 -14.883  36.003  1.00  0.00     0.123 A 
BRANCH  28  38
ATOM     38  C   UNL     1      -2.621 -12.418  31.772  1.00  0.00     0.025 A 
ATOM     39  C   UNL     1      -3.694 -13.175  31.289  1.00  0.00     0.062 A 
ATOM     40  C   UNL     1      -2.620 -11.025  31.615  1.00  0.00     0.016 A 
ATOM     41  C   UNL     1      -4.741 -12.603  30.592  1.00  0.00     0.161 A 
ATOM     42  C   UNL     1      -3.777 -10.395  31.077  1.00  0.00     0.051 A 
ATOM     43  C   UNL     1      -4.812 -11.211  30.499  1.00  0.00     0.157 A 
BRANCH  41  44
ATOM     44  O   UNL     1      -5.744 -13.370  29.991  1.00  0.00    -0.493 OA
ATOM     45  C   UNL     1      -6.977 -13.804  30.575  1.00  0.00     0.278 C 
ENDBRANCH  41  44
BRANCH  43  46
ATOM     46  O   UNL     1      -5.819 -10.592  29.740  1.00  0.00    -0.504 OA
ATOM     47  H   UNL     1      -6.730 -11.005  29.439  1.00  0.00     0.293 HD
ENDBRANCH  43  46
ENDBRANCH  28  38
BRANCH  34  48
ATOM     48  O   UNL     1       1.936 -17.000  33.125  1.00  0.00    -0.507 OA
ATOM     49  H   UNL     1       2.406 -17.748  33.621  1.00  0.00     0.293 HD
ENDBRANCH  34  48
BRANCH  37  50
ATOM     50  O   UNL     1       1.099 -14.770  37.364  1.00  0.00    -0.508 OA
ATOM     51  H   UNL     1       0.365 -14.596  38.049  1.00  0.00     0.293 HD
ENDBRANCH  37  50
ENDBRANCH  26  27
ENDBRANCH   5  26
BRANCH   4  52
ATOM     52  O   UNL     1       0.128 -14.778  27.196  1.00  0.00    -0.384 OA
ATOM     53  H   UNL     1       0.810 -14.833  27.900  1.00  0.00     0.211 HD
ENDBRANCH   4  52
TORSDOF 16
ENDMDL
MODEL 4
REMARK VINA RESULT:    -8.533      3.575      8.365
REMARK INTER + INTRA:         -15.988
REMARK INTER:                 -13.169
REMARK INTRA:                  -2.820
REMARK UNBOUND:                -1.718
REMARK SMILES COc1cc(-c2oc3cc(O)cc(O)c3c(=O)c2O[C@@H]2O[C@H](CO[C@H]3O[C@H](C)[C@@H](O)[C@H](O)[C@H]3O)[C@@H](O)[C@H](O)[C@@H]2O)ccc1O
REMARK SMILES IDX 22 1 35 2 37 3 39 4 20 5 21 6 23 7 24 8 25 9 28 10 27 11
REMARK SMILES IDX 29 12 26 13 31 14 33 15 30 16 32 18 34 20 36 22 38 24 19 26
REMARK SMILES IDX 18 27 6 28 16 29 7 30 15 31 17 32 8 33 13 34 9 35 12 36
REMARK SMILES IDX 10 37 5 38 4 39 41 40 3 41 42 42 43 43 2 44 1 45 44 46 14 48
REMARK SMILES IDX 11 50 40 52
REMARK H PARENT 30 17 32 19 34 21 36 23 38 25 44 47 14 49 11 51 40 53
REMARK Flexibility Score: inf
ROOT
ATOM      1  C   UNL     1       2.045 -17.624  30.410  1.00  0.00     0.180 C 
ATOM      2  C   UNL     1       2.242 -16.902  31.837  1.00  0.00     0.177 C 
ATOM      3  C   UNL     1       1.095 -15.953  32.206  1.00  0.00     0.180 C 
ATOM      4  C   UNL     1       0.122 -15.701  31.019  1.00  0.00     0.214 C 
ATOM      5  C   UNL     1       0.958 -15.634  29.748  1.00  0.00     0.339 C 
ATOM      6  O   UNL     1       1.405 -16.914  29.359  1.00  0.00    -0.332 OA
ENDROOT
BRANCH   1   7
ATOM      7  C   UNL     1       1.395 -19.030  30.424  1.00  0.00     0.198 C 
BRANCH   7   8
ATOM      8  O   UNL     1       0.490 -19.223  29.327  1.00  0.00    -0.347 OA
BRANCH   8   9
ATOM      9  C   UNL     1      -0.268 -20.412  29.362  1.00  0.00     0.281 C 
ATOM     10  C   UNL     1       0.861 -23.699  30.705  1.00  0.00     0.041 C 
ATOM     11  C   UNL     1       0.262 -22.311  30.936  1.00  0.00     0.150 C 
ATOM     12  C   UNL     1      -1.240 -22.349  31.351  1.00  0.00     0.174 C 
ATOM     13  O   UNL     1       0.559 -21.531  29.769  1.00  0.00    -0.344 OA
ATOM     14  C   UNL     1      -1.769 -20.904  31.390  1.00  0.00     0.179 C 
ATOM     15  C   UNL     1      -1.756 -20.368  29.937  1.00  0.00     0.202 C 
BRANCH  12  16
ATOM     16  O   UNL     1      -1.370 -22.961  32.612  1.00  0.00    -0.388 OA
ATOM     17  H   UNL     1      -2.314 -22.704  32.916  1.00  0.00     0.211 HD
ENDBRANCH  12  16
BRANCH  14  18
ATOM     18  O   UNL     1      -3.050 -20.839  31.972  1.00  0.00    -0.387 OA
ATOM     19  H   UNL     1      -3.010 -21.192  32.927  1.00  0.00     0.211 HD
ENDBRANCH  14  18
BRANCH  15  20
ATOM     20  O   UNL     1      -2.358 -19.124  29.750  1.00  0.00    -0.385 OA
ATOM     21  H   UNL     1      -3.365 -19.205  29.749  1.00  0.00     0.211 HD
ENDBRANCH  15  20
ENDBRANCH   8   9
ENDBRANCH   7   8
ENDBRANCH   1   7
BRANCH   2  22
ATOM     22  O   UNL     1       3.503 -16.229  31.849  1.00  0.00    -0.387 OA
ATOM     23  H   UNL     1       3.459 -15.309  31.436  1.00  0.00     0.211 HD
ENDBRANCH   2  22
BRANCH   3  24
ATOM     24  O   UNL     1       0.451 -16.448  33.370  1.00  0.00    -0.387 OA
ATOM     25  H   UNL     1       0.051 -15.632  33.792  1.00  0.00     0.211 HD
ENDBRANCH   3  24
BRANCH   5  26
ATOM     26  O   UNL     1       0.314 -14.985  28.643  1.00  0.00    -0.454 OA
BRANCH  26  27
ATOM     27  C   UNL     1      -0.353 -15.784  27.683  1.00  0.00     0.214 A 
ATOM     28  C   UNL     1      -1.734 -16.118  27.771  1.00  0.00     0.180 A 
ATOM     29  C   UNL     1       0.426 -16.513  26.736  1.00  0.00     0.239 A 
ATOM     30  O   UNL     1      -2.143 -17.282  27.288  1.00  0.00    -0.452 OA
ATOM     31  C   UNL     1      -0.028 -17.750  26.272  1.00  0.00     0.111 A 
ATOM     32  O   UNL     1       1.446 -16.002  26.199  1.00  0.00    -0.285 OA
ATOM     33  C   UNL     1      -1.354 -18.100  26.589  1.00  0.00     0.146 A 
ATOM     34  C   UNL     1       0.759 -18.659  25.495  1.00  0.00     0.134 A 
ATOM     35  C   UNL     1      -1.876 -19.334  26.221  1.00  0.00     0.094 A 
ATOM     36  C   UNL     1       0.226 -19.897  25.113  1.00  0.00     0.093 A 
ATOM     37  C   UNL     1      -1.108 -20.253  25.497  1.00  0.00     0.123 A 
BRANCH  28  38
ATOM     38  C   UNL     1      -2.786 -15.188  28.264  1.00  0.00     0.025 A 
ATOM     39  C   UNL     1      -3.987 -15.190  27.546  1.00  0.00     0.062 A 
ATOM     40  C   UNL     1      -2.534 -14.180  29.205  1.00  0.00     0.016 A 
ATOM     41  C   UNL     1      -4.925 -14.184  27.682  1.00  0.00     0.161 A 
ATOM     42  C   UNL     1      -3.568 -13.249  29.505  1.00  0.00     0.051 A 
ATOM     43  C   UNL     1      -4.744 -13.219  28.676  1.00  0.00     0.157 A 
BRANCH  41  44
ATOM     44  O   UNL     1      -6.062 -14.109  26.871  1.00  0.00    -0.493 OA
ATOM     45  C   UNL     1      -7.278 -14.854  27.003  1.00  0.00     0.278 C 
ENDBRANCH  41  44
BRANCH  43  46
ATOM     46  O   UNL     1      -5.635 -12.141  28.801  1.00  0.00    -0.504 OA
ATOM     47  H   UNL     1      -5.403 -11.122  28.795  1.00  0.00     0.293 HD
ENDBRANCH  43  46
ENDBRANCH  28  38
BRANCH  34  48
ATOM     48  O   UNL     1       2.034 -18.307  25.003  1.00  0.00    -0.507 OA
ATOM     49  H   UNL     1       2.283 -18.502  24.041  1.00  0.00     0.293 HD
ENDBRANCH  34  48
BRANCH  37  50
ATOM     50  O   UNL     1      -1.641 -21.485  25.155  1.00  0.00    -0.508 OA
ATOM     51  H   UNL     1      -2.240 -21.635  24.345  1.00  0.00     0.293 HD
ENDBRANCH  37  50
ENDBRANCH  26  27
ENDBRANCH   5  26
BRANCH   4  52
ATOM     52  O   UNL     1      -0.771 -16.722  30.952  1.00  0.00    -0.384 OA
ATOM     53  H   UNL     1      -1.646 -16.293  30.831  1.00  0.00     0.211 HD
ENDBRANCH   4  52
TORSDOF 16
ENDMDL
MODEL 5
REMARK VINA RESULT:    -8.519      3.881      8.266
REMARK INTER + INTRA:         -15.964
REMARK INTER:                 -13.237
REMARK INTRA:                  -2.726
REMARK UNBOUND:                -1.718
REMARK SMILES COc1cc(-c2oc3cc(O)cc(O)c3c(=O)c2O[C@@H]2O[C@H](CO[C@H]3O[C@H](C)[C@@H](O)[C@H](O)[C@H]3O)[C@@H](O)[C@H](O)[C@@H]2O)ccc1O
REMARK SMILES IDX 22 1 35 2 37 3 39 4 20 5 21 6 23 7 24 8 25 9 28 10 27 11
REMARK SMILES IDX 29 12 26 13 31 14 33 15 30 16 32 18 34 20 36 22 38 24 19 26
REMARK SMILES IDX 18 27 6 28 16 29 7 30 15 31 17 32 8 33 13 34 9 35 12 36
REMARK SMILES IDX 10 37 5 38 4 39 41 40 3 41 42 42 43 43 2 44 1 45 44 46 14 48
REMARK SMILES IDX 11 50 40 52
REMARK H PARENT 30 17 32 19 34 21 36 23 38 25 44 47 14 49 11 51 40 53
REMARK Flexibility Score: inf
ROOT
ATOM      1  C   UNL     1      -0.973 -18.072  24.915  1.00  0.00     0.180 C 
ATOM      2  C   UNL     1      -0.709 -16.677  24.153  1.00  0.00     0.177 C 
ATOM      3  C   UNL     1      -0.392 -15.514  25.101  1.00  0.00     0.180 C 
ATOM      4  C   UNL     1      -0.643 -15.873  26.594  1.00  0.00     0.214 C 
ATOM      5  C   UNL     1      -1.884 -16.753  26.650  1.00  0.00     0.339 C 
ATOM      6  O   UNL     1      -1.611 -18.056  26.184  1.00  0.00    -0.332 OA
ENDROOT
BRANCH   1   7
ATOM      7  C   UNL     1       0.238 -19.026  25.065  1.00  0.00     0.198 C 
BRANCH   7   8
ATOM      8  O   UNL     1       0.357 -19.551  26.395  1.00  0.00    -0.347 OA
BRANCH   8   9
ATOM      9  C   UNL     1       0.169 -20.942  26.522  1.00  0.00     0.281 C 
ATOM     10  C   UNL     1       2.470 -23.327  28.224  1.00  0.00     0.041 C 
ATOM     11  C   UNL     1       1.328 -22.312  28.295  1.00  0.00     0.150 C 
ATOM     12  C   UNL     1      -0.045 -22.954  28.657  1.00  0.00     0.174 C 
ATOM     13  O   UNL     1       1.356 -21.570  27.067  1.00  0.00    -0.344 OA
ATOM     14  C   UNL     1      -1.134 -21.873  28.533  1.00  0.00     0.179 C 
ATOM     15  C   UNL     1      -1.238 -21.492  27.035  1.00  0.00     0.202 C 
BRANCH  12  16
ATOM     16  O   UNL     1      -0.000 -23.468  29.967  1.00  0.00    -0.388 OA
ATOM     17  H   UNL     1      -0.707 -22.923  30.471  1.00  0.00     0.211 HD
ENDBRANCH  12  16
BRANCH  14  18
ATOM     18  O   UNL     1      -2.364 -22.316  29.059  1.00  0.00    -0.387 OA
ATOM     19  H   UNL     1      -2.734 -21.614  29.698  1.00  0.00     0.211 HD
ENDBRANCH  14  18
BRANCH  15  20
ATOM     20  O   UNL     1      -2.292 -20.640  26.704  1.00  0.00    -0.385 OA
ATOM     21  H   UNL     1      -2.874 -21.046  25.986  1.00  0.00     0.211 HD
ENDBRANCH  15  20
ENDBRANCH   8   9
ENDBRANCH   7   8
ENDBRANCH   1   7
BRANCH   2  22
ATOM     22  O   UNL     1      -1.829 -16.382  23.317  1.00  0.00    -0.387 OA
ATOM     23  H   UNL     1      -2.376 -17.201  23.092  1.00  0.00     0.211 HD
ENDBRANCH   2  22
BRANCH   3  24
ATOM     24  O   UNL     1       0.929 -15.062  24.843  1.00  0.00    -0.387 OA
ATOM     25  H   UNL     1       1.498 -15.872  24.998  1.00  0.00     0.211 HD
ENDBRANCH   3  24
BRANCH   5  26
ATOM     26  O   UNL     1      -2.514 -16.817  27.937  1.00  0.00    -0.454 OA
BRANCH  26  27
ATOM     27  C   UNL     1      -2.662 -15.621  28.679  1.00  0.00     0.214 A 
ATOM     28  C   UNL     1      -2.032 -15.399  29.935  1.00  0.00     0.180 A 
ATOM     29  C   UNL     1      -3.690 -14.703  28.304  1.00  0.00     0.239 A 
ATOM     30  O   UNL     1      -2.642 -14.638  30.833  1.00  0.00    -0.452 OA
ATOM     31  C   UNL     1      -4.327 -13.939  29.285  1.00  0.00     0.111 A 
ATOM     32  O   UNL     1      -3.938 -14.462  27.092  1.00  0.00    -0.285 OA
ATOM     33  C   UNL     1      -3.752 -13.946  30.569  1.00  0.00     0.146 A 
ATOM     34  C   UNL     1      -5.502 -13.154  29.059  1.00  0.00     0.134 A 
ATOM     35  C   UNL     1      -4.345 -13.263  31.624  1.00  0.00     0.094 A 
ATOM     36  C   UNL     1      -6.092 -12.456  30.120  1.00  0.00     0.093 A 
ATOM     37  C   UNL     1      -5.518 -12.524  31.432  1.00  0.00     0.123 A 
BRANCH  28  38
ATOM     38  C   UNL     1      -0.660 -15.868  30.272  1.00  0.00     0.025 A 
ATOM     39  C   UNL     1      -0.562 -17.186  30.732  1.00  0.00     0.062 A 
ATOM     40  C   UNL     1       0.437 -15.003  30.386  1.00  0.00     0.016 A 
ATOM     41  C   UNL     1       0.571 -17.659  31.367  1.00  0.00     0.161 A 
ATOM     42  C   UNL     1       1.675 -15.524  30.855  1.00  0.00     0.051 A 
ATOM     43  C   UNL     1       1.709 -16.849  31.413  1.00  0.00     0.157 A 
BRANCH  41  44
ATOM     44  O   UNL     1       0.625 -18.930  31.948  1.00  0.00    -0.493 OA
ATOM     45  C   UNL     1       0.924 -20.172  31.302  1.00  0.00     0.278 C 
ENDBRANCH  41  44
BRANCH  43  46
ATOM     46  O   UNL     1       2.856 -17.263  32.110  1.00  0.00    -0.504 OA
ATOM     47  H   UNL     1       3.815 -16.853  32.052  1.00  0.00     0.293 HD
ENDBRANCH  43  46
ENDBRANCH  28  38
BRANCH  34  48
ATOM     48  O   UNL     1      -6.038 -12.971  27.766  1.00  0.00    -0.507 OA
ATOM     49  H   UNL     1      -7.037 -13.038  27.612  1.00  0.00     0.293 HD
ENDBRANCH  34  48
BRANCH  37  50
ATOM     50  O   UNL     1      -6.105 -11.865  32.500  1.00  0.00    -0.508 OA
ATOM     51  H   UNL     1      -6.177 -12.260  33.436  1.00  0.00     0.293 HD
ENDBRANCH  37  50
ENDBRANCH  26  27
ENDBRANCH   5  26
BRANCH   4  52
ATOM     52  O   UNL     1       0.438 -16.536  27.079  1.00  0.00    -0.384 OA
ATOM     53  H   UNL     1       1.199 -16.210  26.552  1.00  0.00     0.211 HD
ENDBRANCH   4  52
TORSDOF 16
ENDMDL
MODEL 6
REMARK VINA RESULT:    -8.472      3.323      7.255
REMARK INTER + INTRA:         -15.886
REMARK INTER:                 -12.820
REMARK INTRA:                  -3.066
REMARK UNBOUND:                -1.718
REMARK SMILES COc1cc(-c2oc3cc(O)cc(O)c3c(=O)c2O[C@@H]2O[C@H](CO[C@H]3O[C@H](C)[C@@H](O)[C@H](O)[C@H]3O)[C@@H](O)[C@H](O)[C@@H]2O)ccc1O
REMARK SMILES IDX 22 1 35 2 37 3 39 4 20 5 21 6 23 7 24 8 25 9 28 10 27 11
REMARK SMILES IDX 29 12 26 13 31 14 33 15 30 16 32 18 34 20 36 22 38 24 19 26
REMARK SMILES IDX 18 27 6 28 16 29 7 30 15 31 17 32 8 33 13 34 9 35 12 36
REMARK SMILES IDX 10 37 5 38 4 39 41 40 3 41 42 42 43 43 2 44 1 45 44 46 14 48
REMARK SMILES IDX 11 50 40 52
REMARK H PARENT 30 17 32 19 34 21 36 23 38 25 44 47 14 49 11 51 40 53
REMARK Flexibility Score: inf
ROOT
ATOM      1  C   UNL     1      -1.953 -15.654  27.509  1.00  0.00     0.180 C 
ATOM      2  C   UNL     1      -2.234 -14.535  26.385  1.00  0.00     0.177 C 
ATOM      3  C   UNL     1      -1.024 -13.634  26.102  1.00  0.00     0.180 C 
ATOM      4  C   UNL     1       0.122 -13.831  27.136  1.00  0.00     0.214 C 
ATOM      5  C   UNL     1      -0.523 -14.054  28.497  1.00  0.00     0.339 C 
ATOM      6  O   UNL     1      -1.088 -15.343  28.593  1.00  0.00    -0.332 OA
ENDROOT
BRANCH   1   7
ATOM      7  C   UNL     1      -1.512 -17.052  27.008  1.00  0.00     0.198 C 
BRANCH   7   8
ATOM      8  O   UNL     1      -2.205 -18.114  27.678  1.00  0.00    -0.347 OA
BRANCH   8   9
ATOM      9  C   UNL     1      -1.399 -19.180  28.127  1.00  0.00     0.281 C 
ATOM     10  C   UNL     1       2.317 -19.363  27.928  1.00  0.00     0.041 C 
ATOM     11  C   UNL     1       1.052 -18.899  28.653  1.00  0.00     0.150 C 
ATOM     12  C   UNL     1       0.816 -19.629  30.010  1.00  0.00     0.174 C 
ATOM     13  O   UNL     1      -0.025 -18.992  27.709  1.00  0.00    -0.344 OA
ATOM     14  C   UNL     1      -0.559 -19.204  30.557  1.00  0.00     0.179 C 
ATOM     15  C   UNL     1      -1.633 -19.767  29.593  1.00  0.00     0.202 C 
BRANCH  12  16
ATOM     16  O   UNL     1       1.839 -19.291  30.916  1.00  0.00    -0.388 OA
ATOM     17  H   UNL     1       2.167 -18.377  30.590  1.00  0.00     0.211 HD
ENDBRANCH  12  16
BRANCH  14  18
ATOM     18  O   UNL     1      -0.746 -19.644  31.882  1.00  0.00    -0.387 OA
ATOM     19  H   UNL     1      -0.398 -18.937  32.529  1.00  0.00     0.211 HD
ENDBRANCH  14  18
BRANCH  15  20
ATOM     20  O   UNL     1      -2.953 -19.621  30.016  1.00  0.00    -0.385 OA
ATOM     21  H   UNL     1      -3.589 -19.629  29.230  1.00  0.00     0.211 HD
ENDBRANCH  15  20
ENDBRANCH   8   9
ENDBRANCH   7   8
ENDBRANCH   1   7
BRANCH   2  22
ATOM     22  O   UNL     1      -3.380 -13.769  26.764  1.00  0.00    -0.387 OA
ATOM     23  H   UNL     1      -4.234 -14.307  26.740  1.00  0.00     0.211 HD
ENDBRANCH   2  22
BRANCH   3  24
ATOM     24  O   UNL     1      -0.614 -13.831  24.758  1.00  0.00    -0.387 OA
ATOM     25  H   UNL     1      -1.334 -14.406  24.365  1.00  0.00     0.211 HD
ENDBRANCH   3  24
BRANCH   5  26
ATOM     26  O   UNL     1       0.345 -13.817  29.615  1.00  0.00    -0.454 OA
BRANCH  26  27
ATOM     27  C   UNL     1      -0.078 -14.231  30.900  1.00  0.00     0.214 A 
ATOM     28  C   UNL     1      -0.994 -13.488  31.696  1.00  0.00     0.180 A 
ATOM     29  C   UNL     1       0.633 -15.283  31.552  1.00  0.00     0.239 A 
ATOM     30  O   UNL     1      -0.879 -13.532  33.016  1.00  0.00    -0.452 OA
ATOM     31  C   UNL     1       0.754 -15.278  32.944  1.00  0.00     0.111 A 
ATOM     32  O   UNL     1       1.033 -16.293  30.913  1.00  0.00    -0.285 OA
ATOM     33  C   UNL     1      -0.040 -14.354  33.648  1.00  0.00     0.146 A 
ATOM     34  C   UNL     1       1.615 -16.151  33.682  1.00  0.00     0.134 A 
ATOM     35  C   UNL     1       0.054 -14.235  35.029  1.00  0.00     0.094 A 
ATOM     36  C   UNL     1       1.698 -16.039  35.076  1.00  0.00     0.093 A 
ATOM     37  C   UNL     1       0.920 -15.052  35.764  1.00  0.00     0.123 A 
BRANCH  28  38
ATOM     38  C   UNL     1      -2.165 -12.751  31.147  1.00  0.00     0.025 A 
ATOM     39  C   UNL     1      -3.228 -13.542  30.699  1.00  0.00     0.062 A 
ATOM     40  C   UNL     1      -2.133 -11.383  30.841  1.00  0.00     0.016 A 
ATOM     41  C   UNL     1      -4.233 -13.036  29.895  1.00  0.00     0.161 A 
ATOM     42  C   UNL     1      -3.253 -10.801  30.185  1.00  0.00     0.051 A 
ATOM     43  C   UNL     1      -4.275 -11.661  29.650  1.00  0.00     0.157 A 
BRANCH  41  44
ATOM     44  O   UNL     1      -5.221 -13.850  29.333  1.00  0.00    -0.493 OA
ATOM     45  C   UNL     1      -6.441 -14.286  29.942  1.00  0.00     0.278 C 
ENDBRANCH  41  44
BRANCH  43  46
ATOM     46  O   UNL     1      -5.235 -11.116  28.782  1.00  0.00    -0.504 OA
ATOM     47  H   UNL     1      -5.775 -11.615  28.040  1.00  0.00     0.293 HD
ENDBRANCH  43  46
ENDBRANCH  28  38
BRANCH  34  48
ATOM     48  O   UNL     1       2.315 -17.207  33.059  1.00  0.00    -0.507 OA
ATOM     49  H   UNL     1       1.845 -18.082  32.856  1.00  0.00     0.293 HD
ENDBRANCH  34  48
BRANCH  37  50
ATOM     50  O   UNL     1       1.012 -14.906  37.138  1.00  0.00    -0.508 OA
ATOM     51  H   UNL     1       0.388 -15.368  37.798  1.00  0.00     0.293 HD
ENDBRANCH  37  50
ENDBRANCH  26  27
ENDBRANCH   5  26
BRANCH   4  52
ATOM     52  O   UNL     1       0.865 -14.908  26.774  1.00  0.00    -0.384 OA
ATOM     53  H   UNL     1       0.494 -15.661  27.284  1.00  0.00     0.211 HD
ENDBRANCH   4  52
TORSDOF 16
ENDMDL
MODEL 7
REMARK VINA RESULT:    -8.424      2.712      9.277
REMARK INTER + INTRA:         -15.806
REMARK INTER:                 -13.628
REMARK INTRA:                  -2.178
REMARK UNBOUND:                -1.718
REMARK SMILES COc1cc(-c2oc3cc(O)cc(O)c3c(=O)c2O[C@@H]2O[C@H](CO[C@H]3O[C@H](C)[C@@H](O)[C@H](O)[C@H]3O)[C@@H](O)[C@H](O)[C@@H]2O)ccc1O
REMARK SMILES IDX 22 1 35 2 37 3 39 4 20 5 21 6 23 7 24 8 25 9 28 10 27 11
REMARK SMILES IDX 29 12 26 13 31 14 33 15 30 16 32 18 34 20 36 22 38 24 19 26
REMARK SMILES IDX 18 27 6 28 16 29 7 30 15 31 17 32 8 33 13 34 9 35 12 36
REMARK SMILES IDX 10 37 5 38 4 39 41 40 3 41 42 42 43 43 2 44 1 45 44 46 14 48
REMARK SMILES IDX 11 50 40 52
REMARK H PARENT 30 17 32 19 34 21 36 23 38 25 44 47 14 49 11 51 40 53
REMARK Flexibility Score: inf
ROOT
ATOM      1  C   UNL     1      -0.076 -18.642  28.849  1.00  0.00     0.180 C 
ATOM      2  C   UNL     1      -1.334 -19.393  28.180  1.00  0.00     0.177 C 
ATOM      3  C   UNL     1      -2.020 -18.574  27.079  1.00  0.00     0.180 C 
ATOM      4  C   UNL     1      -1.514 -17.104  27.023  1.00  0.00     0.214 C 
ATOM      5  C   UNL     1      -1.278 -16.647  28.457  1.00  0.00     0.339 C 
ATOM      6  O   UNL     1      -0.113 -17.229  28.997  1.00  0.00    -0.332 OA
ENDROOT
BRANCH   1   7
ATOM      7  C   UNL     1       1.322 -18.967  28.266  1.00  0.00     0.198 C 
BRANCH   7   8
ATOM      8  O   UNL     1       1.271 -19.270  26.864  1.00  0.00    -0.347 OA
BRANCH   8   9
ATOM      9  C   UNL     1       2.000 -20.407  26.459  1.00  0.00     0.281 C 
ATOM     10  C   UNL     1       1.234 -23.942  27.353  1.00  0.00     0.041 C 
ATOM     11  C   UNL     1       1.005 -22.725  26.456  1.00  0.00     0.150 C 
ATOM     12  C   UNL     1       1.536 -22.921  25.003  1.00  0.00     0.174 C 
ATOM     13  O   UNL     1       1.530 -21.588  27.156  1.00  0.00    -0.344 OA
ATOM     14  C   UNL     1       1.401 -21.583  24.253  1.00  0.00     0.179 C 
ATOM     15  C   UNL     1       2.377 -20.580  24.918  1.00  0.00     0.202 C 
BRANCH  12  16
ATOM     16  O   UNL     1       0.798 -23.931  24.358  1.00  0.00    -0.388 OA
ATOM     17  H   UNL     1       0.146 -24.259  25.077  1.00  0.00     0.211 HD
ENDBRANCH  12  16
BRANCH  14  18
ATOM     18  O   UNL     1       1.650 -21.737  22.875  1.00  0.00    -0.387 OA
ATOM     19  H   UNL     1       0.853 -22.193  22.433  1.00  0.00     0.211 HD
ENDBRANCH  14  18
BRANCH  15  20
ATOM     20  O   UNL     1       2.514 -19.355  24.267  1.00  0.00    -0.385 OA
ATOM     21  H   UNL     1       2.490 -19.473  23.264  1.00  0.00     0.211 HD
ENDBRANCH  15  20
ENDBRANCH   8   9
ENDBRANCH   7   8
ENDBRANCH   1   7
BRANCH   2  22
ATOM     22  O   UNL     1      -2.255 -19.766  29.206  1.00  0.00    -0.387 OA
ATOM     23  H   UNL     1      -2.555 -20.728  29.131  1.00  0.00     0.211 HD
ENDBRANCH   2  22
BRANCH   3  24
ATOM     24  O   UNL     1      -1.887 -19.265  25.846  1.00  0.00    -0.387 OA
ATOM     25  H   UNL     1      -1.056 -19.812  25.963  1.00  0.00     0.211 HD
ENDBRANCH   3  24
BRANCH   5  26
ATOM     26  O   UNL     1      -1.239 -15.223  28.631  1.00  0.00    -0.454 OA
BRANCH  26  27
ATOM     27  C   UNL     1      -2.374 -14.576  29.175  1.00  0.00     0.214 A 
ATOM     28  C   UNL     1      -2.581 -14.409  30.573  1.00  0.00     0.180 A 
ATOM     29  C   UNL     1      -3.490 -14.317  28.324  1.00  0.00     0.239 A 
ATOM     30  O   UNL     1      -3.821 -14.402  31.040  1.00  0.00    -0.452 OA
ATOM     31  C   UNL     1      -4.784 -14.346  28.851  1.00  0.00     0.111 A 
ATOM     32  O   UNL     1      -3.328 -13.922  27.138  1.00  0.00    -0.285 OA
ATOM     33  C   UNL     1      -4.898 -14.396  30.253  1.00  0.00     0.146 A 
ATOM     34  C   UNL     1      -5.977 -14.314  28.062  1.00  0.00     0.134 A 
ATOM     35  C   UNL     1      -6.140 -14.486  30.868  1.00  0.00     0.094 A 
ATOM     36  C   UNL     1      -7.230 -14.391  28.685  1.00  0.00     0.093 A 
ATOM     37  C   UNL     1      -7.318 -14.498  30.111  1.00  0.00     0.123 A 
BRANCH  28  38
ATOM     38  C   UNL     1      -1.493 -14.115  31.546  1.00  0.00     0.025 A 
ATOM     39  C   UNL     1      -0.574 -15.147  31.763  1.00  0.00     0.062 A 
ATOM     40  C   UNL     1      -1.510 -13.001  32.397  1.00  0.00     0.016 A 
ATOM     41  C   UNL     1       0.291 -15.145  32.841  1.00  0.00     0.161 A 
ATOM     42  C   UNL     1      -0.499 -12.885  33.392  1.00  0.00     0.051 A 
ATOM     43  C   UNL     1       0.360 -14.009  33.651  1.00  0.00     0.157 A 
BRANCH  41  44
ATOM     44  O   UNL     1       1.115 -16.235  33.139  1.00  0.00    -0.493 OA
ATOM     45  C   UNL     1       1.545 -17.272  32.249  1.00  0.00     0.278 C 
ENDBRANCH  41  44
BRANCH  43  46
ATOM     46  O   UNL     1       1.171 -13.993  34.797  1.00  0.00    -0.504 OA
ATOM     47  H   UNL     1       0.923 -13.631  35.745  1.00  0.00     0.293 HD
ENDBRANCH  43  46
ENDBRANCH  28  38
BRANCH  34  48
ATOM     48  O   UNL     1      -5.942 -14.100  26.668  1.00  0.00    -0.507 OA
ATOM     49  H   UNL     1      -5.380 -14.697  26.072  1.00  0.00     0.293 HD
ENDBRANCH  34  48
BRANCH  37  50
ATOM     50  O   UNL     1      -8.546 -14.606  30.741  1.00  0.00    -0.508 OA
ATOM     51  H   UNL     1      -8.796 -14.089  31.583  1.00  0.00     0.293 HD
ENDBRANCH  37  50
ENDBRANCH  26  27
ENDBRANCH   5  26
BRANCH   4  52
ATOM     52  O   UNL     1      -0.360 -17.058  26.309  1.00  0.00    -0.384 OA
ATOM     53  H   UNL     1      -0.040 -16.134  26.393  1.00  0.00     0.211 HD
ENDBRANCH   4  52
TORSDOF 16
ENDMDL
MODEL 8
REMARK VINA RESULT:    -8.419      2.468      5.486
REMARK INTER + INTRA:         -15.796
REMARK INTER:                 -13.215
REMARK INTRA:                  -2.582
REMARK UNBOUND:                -1.718
REMARK SMILES COc1cc(-c2oc3cc(O)cc(O)c3c(=O)c2O[C@@H]2O[C@H](CO[C@H]3O[C@H](C)[C@@H](O)[C@H](O)[C@H]3O)[C@@H](O)[C@H](O)[C@@H]2O)ccc1O
REMARK SMILES IDX 22 1 35 2 37 3 39 4 20 5 21 6 23 7 24 8 25 9 28 10 27 11
REMARK SMILES IDX 29 12 26 13 31 14 33 15 30 16 32 18 34 20 36 22 38 24 19 26
REMARK SMILES IDX 18 27 6 28 16 29 7 30 15 31 17 32 8 33 13 34 9 35 12 36
REMARK SMILES IDX 10 37 5 38 4 39 41 40 3 41 42 42 43 43 2 44 1 45 44 46 14 48
REMARK SMILES IDX 11 50 40 52
REMARK H PARENT 30 17 32 19 34 21 36 23 38 25 44 47 14 49 11 51 40 53
REMARK Flexibility Score: inf
ROOT
ATOM      1  C   UNL     1      -5.709 -14.081  31.089  1.00  0.00     0.180 C 
ATOM      2  C   UNL     1      -5.613 -12.514  30.729  1.00  0.00     0.177 C 
ATOM      3  C   UNL     1      -4.777 -12.224  29.476  1.00  0.00     0.180 C 
ATOM      4  C   UNL     1      -3.997 -13.474  28.975  1.00  0.00     0.214 C 
ATOM      5  C   UNL     1      -3.525 -14.241  30.203  1.00  0.00     0.339 C 
ATOM      6  O   UNL     1      -4.592 -14.919  30.827  1.00  0.00    -0.332 OA
ENDROOT
BRANCH   1   7
ATOM      7  C   UNL     1      -6.944 -14.847  30.554  1.00  0.00     0.198 C 
BRANCH   7   8
ATOM      8  O   UNL     1      -7.502 -14.231  29.383  1.00  0.00    -0.347 OA
BRANCH   8   9
ATOM      9  C   UNL     1      -7.950 -15.117  28.383  1.00  0.00     0.281 C 
ATOM     10  C   UNL     1     -11.015 -17.230  28.532  1.00  0.00     0.041 C 
ATOM     11  C   UNL     1     -10.348 -15.888  28.230  1.00  0.00     0.150 C 
ATOM     12  C   UNL     1     -10.336 -15.533  26.713  1.00  0.00     0.174 C 
ATOM     13  O   UNL     1      -9.062 -15.911  28.867  1.00  0.00    -0.344 OA
ATOM     14  C   UNL     1      -9.499 -14.255  26.520  1.00  0.00     0.179 C 
ATOM     15  C   UNL     1      -8.032 -14.608  26.873  1.00  0.00     0.202 C 
BRANCH  12  16
ATOM     16  O   UNL     1     -11.655 -15.336  26.259  1.00  0.00    -0.388 OA
ATOM     17  H   UNL     1     -11.765 -14.318  26.252  1.00  0.00     0.211 HD
ENDBRANCH  12  16
BRANCH  14  18
ATOM     18  O   UNL     1      -9.626 -13.746  25.213  1.00  0.00    -0.387 OA
ATOM     19  H   UNL     1     -10.319 -14.291  24.701  1.00  0.00     0.211 HD
ENDBRANCH  14  18
BRANCH  15  20
ATOM     20  O   UNL     1      -7.093 -13.613  26.600  1.00  0.00    -0.385 OA
ATOM     21  H   UNL     1      -6.757 -13.188  27.452  1.00  0.00     0.211 HD
ENDBRANCH  15  20
ENDBRANCH   8   9
ENDBRANCH   7   8
ENDBRANCH   1   7
BRANCH   2  22
ATOM     22  O   UNL     1      -5.118 -11.802  31.865  1.00  0.00    -0.387 OA
ATOM     23  H   UNL     1      -5.661 -10.977  32.076  1.00  0.00     0.211 HD
ENDBRANCH   2  22
BRANCH   3  24
ATOM     24  O   UNL     1      -5.619 -11.650  28.488  1.00  0.00    -0.387 OA
ATOM     25  H   UNL     1      -5.494 -12.240  27.689  1.00  0.00     0.211 HD
ENDBRANCH   3  24
BRANCH   5  26
ATOM     26  O   UNL     1      -2.443 -15.151  29.959  1.00  0.00    -0.454 OA
BRANCH  26  27
ATOM     27  C   UNL     1      -1.269 -14.658  29.340  1.00  0.00     0.214 A 
ATOM     28  C   UNL     1      -0.365 -13.767  29.983  1.00  0.00     0.180 A 
ATOM     29  C   UNL     1      -1.111 -14.830  27.933  1.00  0.00     0.239 A 
ATOM     30  O   UNL     1       0.297 -12.885  29.248  1.00  0.00    -0.452 OA
ATOM     31  C   UNL     1      -0.430 -13.863  27.189  1.00  0.00     0.111 A 
ATOM     32  O   UNL     1      -1.447 -15.904  27.365  1.00  0.00    -0.285 OA
ATOM     33  C   UNL     1       0.272 -12.882  27.914  1.00  0.00     0.146 A 
ATOM     34  C   UNL     1      -0.395 -13.821  25.759  1.00  0.00     0.134 A 
ATOM     35  C   UNL     1       0.932 -11.846  27.265  1.00  0.00     0.094 A 
ATOM     36  C   UNL     1       0.282 -12.783  25.105  1.00  0.00     0.093 A 
ATOM     37  C   UNL     1       0.942 -11.765  25.867  1.00  0.00     0.123 A 
BRANCH  28  38
ATOM     38  C   UNL     1      -0.013 -13.838  31.428  1.00  0.00     0.025 A 
ATOM     39  C   UNL     1       0.855 -14.874  31.794  1.00  0.00     0.062 A 
ATOM     40  C   UNL     1      -0.687 -13.108  32.416  1.00  0.00     0.016 A 
ATOM     41  C   UNL     1       1.026 -15.256  33.111  1.00  0.00     0.161 A 
ATOM     42  C   UNL     1      -0.375 -13.352  33.782  1.00  0.00     0.051 A 
ATOM     43  C   UNL     1       0.439 -14.489  34.121  1.00  0.00     0.157 A 
BRANCH  41  44
ATOM     44  O   UNL     1       1.784 -16.375  33.470  1.00  0.00    -0.493 OA
ATOM     45  C   UNL     1       2.235 -17.433  32.616  1.00  0.00     0.278 C 
ENDBRANCH  41  44
BRANCH  43  46
ATOM     46  O   UNL     1       0.528 -14.884  35.465  1.00  0.00    -0.504 OA
ATOM     47  H   UNL     1      -0.088 -14.588  36.256  1.00  0.00     0.293 HD
ENDBRANCH  43  46
ENDBRANCH  28  38
BRANCH  34  48
ATOM     48  O   UNL     1      -0.936 -14.859  24.971  1.00  0.00    -0.507 OA
ATOM     49  H   UNL     1      -0.488 -15.767  24.943  1.00  0.00     0.293 HD
ENDBRANCH  34  48
BRANCH  37  50
ATOM     50  O   UNL     1       1.591 -10.714  25.239  1.00  0.00    -0.508 OA
ATOM     51  H   UNL     1       1.188  -9.784  25.136  1.00  0.00     0.293 HD
ENDBRANCH  37  50
ENDBRANCH  26  27
ENDBRANCH   5  26
BRANCH   4  52
ATOM     52  O   UNL     1      -4.826 -14.240  28.220  1.00  0.00    -0.384 OA
ATOM     53  H   UNL     1      -4.787 -13.853  27.319  1.00  0.00     0.211 HD
ENDBRANCH   4  52
TORSDOF 16
ENDMDL
MODEL 9
REMARK VINA RESULT:    -8.407      3.107      7.808
REMARK INTER + INTRA:         -15.777
REMARK INTER:                 -13.160
REMARK INTRA:                  -2.617
REMARK UNBOUND:                -1.718
REMARK SMILES COc1cc(-c2oc3cc(O)cc(O)c3c(=O)c2O[C@@H]2O[C@H](CO[C@H]3O[C@H](C)[C@@H](O)[C@H](O)[C@H]3O)[C@@H](O)[C@H](O)[C@@H]2O)ccc1O
REMARK SMILES IDX 22 1 35 2 37 3 39 4 20 5 21 6 23 7 24 8 25 9 28 10 27 11
REMARK SMILES IDX 29 12 26 13 31 14 33 15 30 16 32 18 34 20 36 22 38 24 19 26
REMARK SMILES IDX 18 27 6 28 16 29 7 30 15 31 17 32 8 33 13 34 9 35 12 36
REMARK SMILES IDX 10 37 5 38 4 39 41 40 3 41 42 42 43 43 2 44 1 45 44 46 14 48
REMARK SMILES IDX 11 50 40 52
REMARK H PARENT 30 17 32 19 34 21 36 23 38 25 44 47 14 49 11 51 40 53
REMARK Flexibility Score: inf
ROOT
ATOM      1  C   UNL     1      -0.909 -15.981  26.548  1.00  0.00     0.180 C 
ATOM      2  C   UNL     1      -0.940 -15.205  25.137  1.00  0.00     0.177 C 
ATOM      3  C   UNL     1      -0.038 -13.964  25.102  1.00  0.00     0.180 C 
ATOM      4  C   UNL     1       0.508 -13.582  26.508  1.00  0.00     0.214 C 
ATOM      5  C   UNL     1      -0.600 -13.849  27.517  1.00  0.00     0.339 C 
ATOM      6  O   UNL     1      -0.765 -15.231  27.746  1.00  0.00    -0.332 OA
ENDROOT
BRANCH   1   7
ATOM      7  C   UNL     1       0.080 -17.167  26.672  1.00  0.00     0.198 C 
BRANCH   7   8
ATOM      8  O   UNL     1       0.112 -17.713  27.999  1.00  0.00    -0.347 OA
BRANCH   8   9
ATOM      9  C   UNL     1      -0.252 -19.071  28.108  1.00  0.00     0.281 C 
ATOM     10  C   UNL     1       1.612 -21.704  29.972  1.00  0.00     0.041 C 
ATOM     11  C   UNL     1       0.599 -20.559  29.960  1.00  0.00     0.150 C 
ATOM     12  C   UNL     1      -0.865 -21.027  30.218  1.00  0.00     0.174 C 
ATOM     13  O   UNL     1       0.807 -19.834  28.739  1.00  0.00    -0.344 OA
ATOM     14  C   UNL     1      -1.803 -19.823  30.016  1.00  0.00     0.179 C 
ATOM     15  C   UNL     1      -1.750 -19.443  28.515  1.00  0.00     0.202 C 
BRANCH  12  16
ATOM     16  O   UNL     1      -0.980 -21.533  31.527  1.00  0.00    -0.388 OA
ATOM     17  H   UNL     1      -0.791 -20.722  32.123  1.00  0.00     0.211 HD
ENDBRANCH  12  16
BRANCH  14  18
ATOM     18  O   UNL     1      -3.112 -20.110  30.448  1.00  0.00    -0.387 OA
ATOM     19  H   UNL     1      -3.510 -20.848  29.867  1.00  0.00     0.211 HD
ENDBRANCH  14  18
BRANCH  15  20
ATOM     20  O   UNL     1      -2.664 -18.472  28.109  1.00  0.00    -0.385 OA
ATOM     21  H   UNL     1      -2.248 -17.552  28.127  1.00  0.00     0.211 HD
ENDBRANCH  15  20
ENDBRANCH   8   9
ENDBRANCH   7   8
ENDBRANCH   1   7
BRANCH   2  22
ATOM     22  O   UNL     1      -2.292 -14.880  24.811  1.00  0.00    -0.387 OA
ATOM     23  H   UNL     1      -2.447 -13.885  24.734  1.00  0.00     0.211 HD
ENDBRANCH   2  22
BRANCH   3  24
ATOM     24  O   UNL     1       0.981 -14.167  24.135  1.00  0.00    -0.387 OA
ATOM     25  H   UNL     1       1.638 -14.766  24.597  1.00  0.00     0.211 HD
ENDBRANCH   3  24
BRANCH   5  26
ATOM     26  O   UNL     1      -0.448 -13.162  28.767  1.00  0.00    -0.454 OA
BRANCH  26  27
ATOM     27  C   UNL     1      -1.532 -13.162  29.677  1.00  0.00     0.214 A 
ATOM     28  C   UNL     1      -1.633 -14.067  30.771  1.00  0.00     0.180 A 
ATOM     29  C   UNL     1      -2.706 -12.421  29.346  1.00  0.00     0.239 A 
ATOM     30  O   UNL     1      -2.834 -14.459  31.170  1.00  0.00    -0.452 OA
ATOM     31  C   UNL     1      -3.957 -12.883  29.763  1.00  0.00     0.111 A 
ATOM     32  O   UNL     1      -2.629 -11.283  28.808  1.00  0.00    -0.285 OA
ATOM     33  C   UNL     1      -3.966 -13.936  30.697  1.00  0.00     0.146 A 
ATOM     34  C   UNL     1      -5.206 -12.347  29.315  1.00  0.00     0.134 A 
ATOM     35  C   UNL     1      -5.161 -14.500  31.127  1.00  0.00     0.094 A 
ATOM     36  C   UNL     1      -6.409 -12.908  29.760  1.00  0.00     0.093 A 
ATOM     37  C   UNL     1      -6.392 -14.017  30.668  1.00  0.00     0.123 A 
BRANCH  28  38
ATOM     38  C   UNL     1      -0.472 -14.517  31.588  1.00  0.00     0.025 A 
ATOM     39  C   UNL     1       0.216 -15.636  31.106  1.00  0.00     0.062 A 
ATOM     40  C   UNL     1      -0.222 -14.045  32.884  1.00  0.00     0.016 A 
ATOM     41  C   UNL     1       1.101 -16.348  31.893  1.00  0.00     0.161 A 
ATOM     42  C   UNL     1       0.826 -14.642  33.639  1.00  0.00     0.051 A 
ATOM     43  C   UNL     1       1.437 -15.850  33.154  1.00  0.00     0.157 A 
BRANCH  41  44
ATOM     44  O   UNL     1       1.687 -17.543  31.463  1.00  0.00    -0.493 OA
ATOM     45  C   UNL     1       2.857 -17.697  30.652  1.00  0.00     0.278 C 
ENDBRANCH  41  44
BRANCH  43  46
ATOM     46  O   UNL     1       2.276 -16.579  34.013  1.00  0.00    -0.504 OA
ATOM     47  H   UNL     1       2.108 -16.808  35.019  1.00  0.00     0.293 HD
ENDBRANCH  43  46
ENDBRANCH  28  38
BRANCH  34  48
ATOM     48  O   UNL     1      -5.273 -11.189  28.509  1.00  0.00    -0.507 OA
ATOM     49  H   UNL     1      -6.170 -10.822  28.215  1.00  0.00     0.293 HD
ENDBRANCH  34  48
BRANCH  37  50
ATOM     50  O   UNL     1      -7.571 -14.605  31.095  1.00  0.00    -0.508 OA
ATOM     51  H   UNL     1      -7.783 -14.798  32.073  1.00  0.00     0.293 HD
ENDBRANCH  37  50
ENDBRANCH  26  27
ENDBRANCH   5  26
BRANCH   4  52
ATOM     52  O   UNL     1       1.600 -14.342  26.781  1.00  0.00    -0.384 OA
ATOM     53  H   UNL     1       2.299 -14.018  26.173  1.00  0.00     0.211 HD
ENDBRANCH   4  52
TORSDOF 16
ENDMDL
