MODEL 1
REMARK VINA RESULT:    -2.716      0.000      0.000
REMARK INTER + INTRA:          -5.447
REMARK INTER:                  -4.145
REMARK INTRA:                  -1.302
REMARK UNBOUND:                -1.302
REMARK SMILES CCCCCCCCCCC(=O)[O-]
REMARK SMILES IDX 7 1 8 2 9 3 10 4 11 5 12 6 13 7 6 8 5 9 4 10 3 11 2 12 1 13
REMARK H PARENT
REMARK Flexibility Score: inf
ROOT
ATOM      1  C   UNL     1     -25.741   2.356   1.858  1.00  0.00     0.000 C 
ENDROOT
BRANCH   1   2
ATOM      2  C   UNL     1     -24.573   1.568   1.237  1.00  0.00     0.000 C 
BRANCH   2   3
ATOM      3  C   UNL     1     -23.613   0.906   2.247  1.00  0.00     0.006 C 
BRANCH   3   4
ATOM      4  C   UNL     1     -22.156   1.386   2.154  1.00  0.00     0.053 C 
BRANCH   4   5
ATOM      5  C   UNL     1     -21.257   0.337   1.577  1.00  0.00     0.041 C 
ATOM      6  O   UNL     1     -21.722  -0.787   1.249  1.00  0.00    -0.550 OA
ATOM      7  O   UNL     1     -19.911   0.610   1.371  1.00  0.00    -0.550 OA
ENDBRANCH   4   5
ENDBRANCH   3   4
ENDBRANCH   2   3
ENDBRANCH   1   2
BRANCH   1   8
ATOM      8  C   UNL     1     -25.582   2.572   3.372  1.00  0.00     0.000 C 
BRANCH   8   9
ATOM      9  C   UNL     1     -25.285   4.036   3.742  1.00  0.00    -0.000 C 
BRANCH   9  10
ATOM     10  C   UNL     1     -23.807   4.455   3.630  1.00  0.00    -0.000 C 
BRANCH  10  11
ATOM     11  C   UNL     1     -23.557   5.491   2.525  1.00  0.00    -0.000 C 
BRANCH  11  12
ATOM     12  C   UNL     1     -22.797   4.867   1.348  1.00  0.00    -0.003 C 
ATOM     13  C   UNL     1     -23.573   5.024   0.044  1.00  0.00     0.004 C 
ENDBRANCH  11  12
ENDBRANCH  10  11
ENDBRANCH   9  10
ENDBRANCH   8   9
ENDBRANCH   1   8
TORSDOF 9
ENDMDL
MODEL 2
REMARK VINA RESULT:    -2.682      1.354      2.224
REMARK INTER + INTRA:          -5.395
REMARK INTER:                  -4.532
REMARK INTRA:                  -0.863
REMARK UNBOUND:                -1.302
REMARK SMILES CCCCCCCCCCC(=O)[O-]
REMARK SMILES IDX 7 1 8 2 9 3 10 4 11 5 12 6 13 7 6 8 5 9 4 10 3 11 2 12 1 13
REMARK H PARENT
REMARK Flexibility Score: inf
ROOT
ATOM      1  C   UNL     1     -23.764   0.857   1.183  1.00  0.00     0.000 C 
ENDROOT
BRANCH   1   2
ATOM      2  C   UNL     1     -23.061   0.512   2.510  1.00  0.00     0.000 C 
BRANCH   2   3
ATOM      3  C   UNL     1     -21.519   0.509   2.457  1.00  0.00     0.006 C 
BRANCH   3   4
ATOM      4  C   UNL     1     -20.927   0.358   1.047  1.00  0.00     0.053 C 
BRANCH   4   5
ATOM      5  C   UNL     1     -20.144   1.567   0.637  1.00  0.00     0.041 C 
ATOM      6  O   UNL     1     -18.896   1.602   0.805  1.00  0.00    -0.550 OA
ATOM      7  O   UNL     1     -20.787   2.643   0.038  1.00  0.00    -0.550 OA
ENDBRANCH   4   5
ENDBRANCH   3   4
ENDBRANCH   2   3
ENDBRANCH   1   2
BRANCH   1   8
ATOM      8  C   UNL     1     -24.605   2.142   1.267  1.00  0.00     0.000 C 
BRANCH   8   9
ATOM      9  C   UNL     1     -25.326   2.301   2.618  1.00  0.00    -0.000 C 
BRANCH   9  10
ATOM     10  C   UNL     1     -25.093   3.646   3.331  1.00  0.00    -0.000 C 
BRANCH  10  11
ATOM     11  C   UNL     1     -23.623   4.089   3.316  1.00  0.00    -0.000 C 
BRANCH  11  12
ATOM     12  C   UNL     1     -23.492   5.541   2.842  1.00  0.00    -0.003 C 
ATOM     13  C   UNL     1     -23.279   5.612   1.333  1.00  0.00     0.004 C 
ENDBRANCH  11  12
ENDBRANCH  10  11
ENDBRANCH   9  10
ENDBRANCH   8   9
ENDBRANCH   1   8
TORSDOF 9
ENDMDL
MODEL 3
REMARK VINA RESULT:    -2.674      2.496      3.782
REMARK INTER + INTRA:          -5.383
REMARK INTER:                  -4.622
REMARK INTRA:                  -0.761
REMARK UNBOUND:                -1.302
REMARK SMILES CCCCCCCCCCC(=O)[O-]
REMARK SMILES IDX 7 1 8 2 9 3 10 4 11 5 12 6 13 7 6 8 5 9 4 10 3 11 2 12 1 13
REMARK H PARENT
REMARK Flexibility Score: inf
ROOT
ATOM      1  C   UNL     1     -21.702   0.640   2.302  1.00  0.00     0.000 C 
ENDROOT
BRANCH   1   2
ATOM      2  C   UNL     1     -20.433   0.555   1.433  1.00  0.00     0.000 C 
BRANCH   2   3
ATOM      3  C   UNL     1     -20.241   1.713   0.432  1.00  0.00     0.006 C 
BRANCH   3   4
ATOM      4  C   UNL     1     -18.786   2.179   0.264  1.00  0.00     0.053 C 
BRANCH   4   5
ATOM      5  C   UNL     1     -18.693   3.659   0.053  1.00  0.00     0.041 C 
ATOM      6  O   UNL     1     -17.568   4.223   0.006  1.00  0.00    -0.550 OA
ATOM      7  O   UNL     1     -19.847   4.411  -0.125  1.00  0.00    -0.550 OA
ENDBRANCH   4   5
ENDBRANCH   3   4
ENDBRANCH   2   3
ENDBRANCH   1   2
BRANCH   1   8
ATOM      8  C   UNL     1     -22.998   0.514   1.485  1.00  0.00     0.000 C 
BRANCH   8   9
ATOM      9  C   UNL     1     -23.846   1.800   1.503  1.00  0.00    -0.000 C 
BRANCH   9  10
ATOM     10  C   UNL     1     -23.931   2.511   2.865  1.00  0.00    -0.000 C 
BRANCH  10  11
ATOM     11  C   UNL     1     -23.669   4.021   2.773  1.00  0.00    -0.000 C 
BRANCH  11  12
ATOM     12  C   UNL     1     -23.075   4.394   1.410  1.00  0.00    -0.003 C 
ATOM     13  C   UNL     1     -22.625   5.852   1.383  1.00  0.00     0.004 C 
ENDBRANCH  11  12
ENDBRANCH  10  11
ENDBRANCH   9  10
ENDBRANCH   8   9
ENDBRANCH   1   8
TORSDOF 9
ENDMDL
MODEL 4
REMARK VINA RESULT:    -2.673     15.386     17.082
REMARK INTER + INTRA:          -5.382
REMARK INTER:                  -4.637
REMARK INTRA:                  -0.745
REMARK UNBOUND:                -1.302
REMARK SMILES CCCCCCCCCCC(=O)[O-]
REMARK SMILES IDX 7 1 8 2 9 3 10 4 11 5 12 6 13 7 6 8 5 9 4 10 3 11 2 12 1 13
REMARK H PARENT
REMARK Flexibility Score: inf
ROOT
ATOM      1  C   UNL     1     -15.900 -10.633   3.466  1.00  0.00     0.000 C 
ENDROOT
BRANCH   1   2
ATOM      2  C   UNL     1     -16.189 -12.101   3.101  1.00  0.00     0.000 C 
BRANCH   2   3
ATOM      3  C   UNL     1     -17.480 -12.337   2.289  1.00  0.00     0.006 C 
BRANCH   3   4
ATOM      4  C   UNL     1     -18.568 -13.125   3.034  1.00  0.00     0.053 C 
BRANCH   4   5
ATOM      5  C   UNL     1     -19.945 -12.708   2.618  1.00  0.00     0.041 C 
ATOM      6  O   UNL     1     -20.318 -12.855   1.424  1.00  0.00    -0.550 OA
ATOM      7  O   UNL     1     -20.828 -12.188   3.555  1.00  0.00    -0.550 OA
ENDBRANCH   4   5
ENDBRANCH   3   4
ENDBRANCH   2   3
ENDBRANCH   1   2
BRANCH   1   8
ATOM      8  C   UNL     1     -14.901  -9.962   2.509  1.00  0.00     0.000 C 
BRANCH   8   9
ATOM      9  C   UNL     1     -13.879 -10.950   1.918  1.00  0.00    -0.000 C 
BRANCH   9  10
ATOM     10  C   UNL     1     -12.622 -11.186   2.775  1.00  0.00    -0.000 C 
BRANCH  10  11
ATOM     11  C   UNL     1     -12.412 -12.662   3.142  1.00  0.00    -0.000 C 
BRANCH  11  12
ATOM     12  C   UNL     1     -12.190 -12.827   4.651  1.00  0.00    -0.003 C 
ATOM     13  C   UNL     1     -13.510 -12.763   5.413  1.00  0.00     0.004 C 
ENDBRANCH  11  12
ENDBRANCH  10  11
ENDBRANCH   9  10
ENDBRANCH   8   9
ENDBRANCH   1   8
TORSDOF 9
ENDMDL
MODEL 5
REMARK VINA RESULT:    -2.591     15.780     17.110
REMARK INTER + INTRA:          -5.257
REMARK INTER:                  -4.414
REMARK INTRA:                  -0.843
REMARK UNBOUND:                -1.302
REMARK SMILES CCCCCCCCCCC(=O)[O-]
REMARK SMILES IDX 7 1 8 2 9 3 10 4 11 5 12 6 13 7 6 8 5 9 4 10 3 11 2 12 1 13
REMARK H PARENT
REMARK Flexibility Score: inf
ROOT
ATOM      1  C   UNL     1     -14.935 -10.065   2.804  1.00  0.00     0.000 C 
ENDROOT
BRANCH   1   2
ATOM      2  C   UNL     1     -13.786 -10.686   1.988  1.00  0.00     0.000 C 
BRANCH   2   3
ATOM      3  C   UNL     1     -12.634 -11.286   2.821  1.00  0.00     0.006 C 
BRANCH   3   4
ATOM      4  C   UNL     1     -12.825 -12.761   3.207  1.00  0.00     0.053 C 
BRANCH   4   5
ATOM      5  C   UNL     1     -13.250 -12.916   4.635  1.00  0.00     0.041 C 
ATOM      6  O   UNL     1     -14.472 -13.007   4.927  1.00  0.00    -0.550 OA
ATOM      7  O   UNL     1     -12.295 -12.994   5.640  1.00  0.00    -0.550 OA
ENDBRANCH   4   5
ENDBRANCH   3   4
ENDBRANCH   2   3
ENDBRANCH   1   2
BRANCH   1   8
ATOM      8  C   UNL     1     -16.232 -10.888   2.736  1.00  0.00     0.000 C 
BRANCH   8   9
ATOM      9  C   UNL     1     -16.218 -11.939   1.611  1.00  0.00    -0.000 C 
BRANCH   9  10
ATOM     10  C   UNL     1     -17.353 -12.978   1.668  1.00  0.00    -0.000 C 
BRANCH  10  11
ATOM     11  C   UNL     1     -18.136 -12.942   2.988  1.00  0.00    -0.000 C 
BRANCH  11  12
ATOM     12  C   UNL     1     -19.637 -12.767   2.733  1.00  0.00    -0.003 C 
ATOM     13  C   UNL     1     -19.944 -12.751   1.238  1.00  0.00     0.004 C 
ENDBRANCH  11  12
ENDBRANCH  10  11
ENDBRANCH   9  10
ENDBRANCH   8   9
ENDBRANCH   1   8
TORSDOF 9
ENDMDL
MODEL 6
REMARK VINA RESULT:    -2.556      2.157      4.131
REMARK INTER + INTRA:          -5.202
REMARK INTER:                  -4.077
REMARK INTRA:                  -1.126
REMARK UNBOUND:                -1.302
REMARK SMILES CCCCCCCCCCC(=O)[O-]
REMARK SMILES IDX 7 1 8 2 9 3 10 4 11 5 12 6 13 7 6 8 5 9 4 10 3 11 2 12 1 13
REMARK H PARENT
REMARK Flexibility Score: inf
ROOT
ATOM      1  C   UNL     1     -25.237   2.207   2.960  1.00  0.00     0.000 C 
ENDROOT
BRANCH   1   2
ATOM      2  C   UNL     1     -24.946   3.703   3.188  1.00  0.00     0.000 C 
BRANCH   2   3
ATOM      3  C   UNL     1     -23.475   4.125   2.991  1.00  0.00     0.006 C 
BRANCH   3   4
ATOM      4  C   UNL     1     -23.271   5.296   2.017  1.00  0.00     0.053 C 
BRANCH   4   5
ATOM      5  C   UNL     1     -22.611   4.858   0.745  1.00  0.00     0.041 C 
ATOM      6  O   UNL     1     -23.265   4.218  -0.121  1.00  0.00    -0.550 OA
ATOM      7  O   UNL     1     -21.283   5.183   0.502  1.00  0.00    -0.550 OA
ENDBRANCH   4   5
ENDBRANCH   3   4
ENDBRANCH   2   3
ENDBRANCH   1   2
BRANCH   1   8
ATOM      8  C   UNL     1     -25.128   1.793   1.484  1.00  0.00     0.000 C 
BRANCH   8   9
ATOM      9  C   UNL     1     -23.932   0.863   1.208  1.00  0.00    -0.000 C 
BRANCH   9  10
ATOM     10  C   UNL     1     -23.122   0.450   2.450  1.00  0.00    -0.000 C 
BRANCH  10  11
ATOM     11  C   UNL     1     -21.624   0.764   2.324  1.00  0.00    -0.000 C 
BRANCH  11  12
ATOM     12  C   UNL     1     -21.308   1.400   0.965  1.00  0.00    -0.003 C 
ATOM     13  C   UNL     1     -19.804   1.442   0.712  1.00  0.00     0.004 C 
ENDBRANCH  11  12
ENDBRANCH  10  11
ENDBRANCH   9  10
ENDBRANCH   8   9
ENDBRANCH   1   8
TORSDOF 9
ENDMDL
MODEL 7
REMARK VINA RESULT:    -2.548      2.576      4.752
REMARK INTER + INTRA:          -5.191
REMARK INTER:                  -4.478
REMARK INTRA:                  -0.713
REMARK UNBOUND:                -1.302
REMARK SMILES CCCCCCCCCCC(=O)[O-]
REMARK SMILES IDX 7 1 8 2 9 3 10 4 11 5 12 6 13 7 6 8 5 9 4 10 3 11 2 12 1 13
REMARK H PARENT
REMARK Flexibility Score: inf
ROOT
ATOM      1  C   UNL     1     -23.526   4.034   3.287  1.00  0.00     0.000 C 
ENDROOT
BRANCH   1   2
ATOM      2  C   UNL     1     -23.467   5.312   2.428  1.00  0.00     0.000 C 
BRANCH   2   3
ATOM      3  C   UNL     1     -23.390   5.080   0.905  1.00  0.00     0.006 C 
BRANCH   3   4
ATOM      4  C   UNL     1     -22.001   4.671   0.390  1.00  0.00     0.053 C 
BRANCH   4   5
ATOM      5  C   UNL     1     -21.046   5.824   0.376  1.00  0.00     0.041 C 
ATOM      6  O   UNL     1     -19.805   5.621   0.445  1.00  0.00    -0.550 OA
ATOM      7  O   UNL     1     -21.524   7.122   0.254  1.00  0.00    -0.550 OA
ENDBRANCH   4   5
ENDBRANCH   3   4
ENDBRANCH   2   3
ENDBRANCH   1   2
BRANCH   1   8
ATOM      8  C   UNL     1     -24.729   3.139   2.947  1.00  0.00     0.000 C 
BRANCH   8   9
ATOM      9  C   UNL     1     -24.322   1.699   2.584  1.00  0.00    -0.000 C 
BRANCH   9  10
ATOM     10  C   UNL     1     -22.863   1.525   2.125  1.00  0.00    -0.000 C 
BRANCH  10  11
ATOM     11  C   UNL     1     -22.214   0.239   2.658  1.00  0.00    -0.000 C 
BRANCH  11  12
ATOM     12  C   UNL     1     -21.168  -0.298   1.673  1.00  0.00    -0.003 C 
ATOM     13  C   UNL     1     -20.160   0.784   1.295  1.00  0.00     0.004 C 
ENDBRANCH  11  12
ENDBRANCH  10  11
ENDBRANCH   9  10
ENDBRANCH   8   9
ENDBRANCH   1   8
TORSDOF 9
ENDMDL
MODEL 8
REMARK VINA RESULT:    -2.430      2.957      5.292
REMARK INTER + INTRA:          -5.011
REMARK INTER:                  -3.881
REMARK INTRA:                  -1.130
REMARK UNBOUND:                -1.302
REMARK SMILES CCCCCCCCCCC(=O)[O-]
REMARK SMILES IDX 7 1 8 2 9 3 10 4 11 5 12 6 13 7 6 8 5 9 4 10 3 11 2 12 1 13
REMARK H PARENT
REMARK Flexibility Score: inf
ROOT
ATOM      1  C   UNL     1     -20.937   2.935   0.020  1.00  0.00     0.000 C 
ENDROOT
BRANCH   1   2
ATOM      2  C   UNL     1     -22.292   3.664  -0.054  1.00  0.00     0.000 C 
BRANCH   2   3
ATOM      3  C   UNL     1     -22.453   4.857   0.912  1.00  0.00     0.006 C 
BRANCH   3   4
ATOM      4  C   UNL     1     -23.906   5.173   1.300  1.00  0.00     0.053 C 
BRANCH   4   5
ATOM      5  C   UNL     1     -24.058   5.380   2.776  1.00  0.00     0.041 C 
ATOM      6  O   UNL     1     -23.337   6.221   3.376  1.00  0.00    -0.550 OA
ATOM      7  O   UNL     1     -25.018   4.669   3.483  1.00  0.00    -0.550 OA
ENDBRANCH   4   5
ENDBRANCH   3   4
ENDBRANCH   2   3
ENDBRANCH   1   2
BRANCH   1   8
ATOM      8  C   UNL     1     -21.078   1.404   0.020  1.00  0.00     0.000 C 
BRANCH   8   9
ATOM      9  C   UNL     1     -20.499   0.747   1.286  1.00  0.00    -0.000 C 
BRANCH   9  10
ATOM     10  C   UNL     1     -21.502   0.543   2.436  1.00  0.00    -0.000 C 
BRANCH  10  11
ATOM     11  C   UNL     1     -22.946   0.355   1.950  1.00  0.00    -0.000 C 
BRANCH  11  12
ATOM     12  C   UNL     1     -23.844   1.498   2.439  1.00  0.00    -0.003 C 
ATOM     13  C   UNL     1     -25.065   1.664   1.539  1.00  0.00     0.004 C 
ENDBRANCH  11  12
ENDBRANCH  10  11
ENDBRANCH   9  10
ENDBRANCH   8   9
ENDBRANCH   1   8
TORSDOF 9
ENDMDL
