MODEL 1
REMARK VINA RESULT:    -3.310      0.000      0.000
REMARK INTER + INTRA:          -8.515
REMARK INTER:                  -6.018
REMARK INTRA:                  -2.497
REMARK UNBOUND:                -2.497
REMARK SMILES CCCCCCCCCCCCCC[C@@H](C)C(=O)[O-]
REMARK SMILES IDX 9 1 10 2 11 3 12 4 13 5 14 6 15 7 16 8 17 9 18 10 19 11 8 12
REMARK SMILES IDX 7 13 6 14 5 15 4 16 3 17 2 18 1 19
REMARK H PARENT
REMARK Flexibility Score: inf
ROOT
ATOM      1  C   UNL     1      57.179  27.933  52.589  1.00  0.00     0.000 C 
ENDROOT
BRANCH   1   2
ATOM      2  C   UNL     1      57.581  29.264  51.932  1.00  0.00     0.000 C 
BRANCH   2   3
ATOM      3  C   UNL     1      57.404  29.277  50.400  1.00  0.00     0.000 C 
BRANCH   3   4
ATOM      4  C   UNL     1      58.710  29.635  49.668  1.00  0.00     0.000 C 
BRANCH   4   5
ATOM      5  C   UNL     1      59.571  28.402  49.357  1.00  0.00     0.001 C 
BRANCH   5   6
ATOM      6  C   UNL     1      60.865  28.357  50.190  1.00  0.00     0.009 C 
BRANCH   6   7
ATOM      7  C   UNL     1      60.941  27.096  51.076  1.00  0.00     0.032 C 
ATOM      8  C   UNL     1      60.285  25.902  50.377  1.00  0.00     0.014 C 
BRANCH   7   9
ATOM      9  C   UNL     1      62.366  26.762  51.436  1.00  0.00     0.044 C 
ATOM     10  O   UNL     1      62.809  27.005  52.590  1.00  0.00    -0.550 OA
ATOM     11  O   UNL     1      63.201  26.182  50.489  1.00  0.00    -0.550 OA
ENDBRANCH   7   9
ENDBRANCH   6   7
ENDBRANCH   5   6
ENDBRANCH   4   5
ENDBRANCH   3   4
ENDBRANCH   2   3
ENDBRANCH   1   2
BRANCH   1  12
ATOM     12  C   UNL     1      56.971  26.803  51.567  1.00  0.00     0.000 C 
BRANCH  12  13
ATOM     13  C   UNL     1      55.509  26.335  51.494  1.00  0.00    -0.000 C 
BRANCH  13  14
ATOM     14  C   UNL     1      54.934  26.404  50.072  1.00  0.00    -0.000 C 
BRANCH  14  15
ATOM     15  C   UNL     1      53.574  27.113  50.064  1.00  0.00    -0.000 C 
BRANCH  15  16
ATOM     16  C   UNL     1      53.502  28.182  51.161  1.00  0.00    -0.000 C 
BRANCH  16  17
ATOM     17  C   UNL     1      53.766  29.579  50.587  1.00  0.00    -0.000 C 
BRANCH  17  18
ATOM     18  C   UNL     1      53.892  30.619  51.707  1.00  0.00    -0.003 C 
ATOM     19  C   UNL     1      54.091  29.949  53.062  1.00  0.00     0.004 C 
ENDBRANCH  17  18
ENDBRANCH  16  17
ENDBRANCH  15  16
ENDBRANCH  14  15
ENDBRANCH  13  14
ENDBRANCH  12  13
ENDBRANCH   1  12
TORSDOF 14
ENDMDL
MODEL 2
REMARK VINA RESULT:    -3.136      1.434      3.062
REMARK INTER + INTRA:          -8.200
REMARK INTER:                  -5.545
REMARK INTRA:                  -2.656
REMARK UNBOUND:                -2.497
REMARK SMILES CCCCCCCCCCCCCC[C@@H](C)C(=O)[O-]
REMARK SMILES IDX 9 1 10 2 11 3 12 4 13 5 14 6 15 7 16 8 17 9 18 10 19 11 8 12
REMARK SMILES IDX 7 13 6 14 5 15 4 16 3 17 2 18 1 19
REMARK H PARENT
REMARK Flexibility Score: inf
ROOT
ATOM      1  C   UNL     1      55.673  29.661  53.626  1.00  0.00     0.000 C 
ENDROOT
BRANCH   1   2
ATOM      2  C   UNL     1      57.001  28.952  53.942  1.00  0.00     0.000 C 
BRANCH   2   3
ATOM      3  C   UNL     1      58.163  29.374  53.020  1.00  0.00     0.000 C 
BRANCH   3   4
ATOM      4  C   UNL     1      57.681  29.704  51.596  1.00  0.00     0.000 C 
BRANCH   4   5
ATOM      5  C   UNL     1      58.838  29.844  50.596  1.00  0.00     0.001 C 
BRANCH   5   6
ATOM      6  C   UNL     1      58.912  28.668  49.606  1.00  0.00     0.009 C 
BRANCH   6   7
ATOM      7  C   UNL     1      60.216  27.857  49.761  1.00  0.00     0.032 C 
ATOM      8  C   UNL     1      61.360  28.758  50.236  1.00  0.00     0.014 C 
BRANCH   7   9
ATOM      9  C   UNL     1      60.037  26.706  50.717  1.00  0.00     0.044 C 
ATOM     10  O   UNL     1      59.453  25.653  50.349  1.00  0.00    -0.550 OA
ATOM     11  O   UNL     1      60.519  26.804  52.016  1.00  0.00    -0.550 OA
ENDBRANCH   7   9
ENDBRANCH   6   7
ENDBRANCH   5   6
ENDBRANCH   4   5
ENDBRANCH   3   4
ENDBRANCH   2   3
ENDBRANCH   1   2
BRANCH   1  12
ATOM     12  C   UNL     1      54.449  28.752  53.829  1.00  0.00     0.000 C 
BRANCH  12  13
ATOM     13  C   UNL     1      53.403  28.913  52.714  1.00  0.00    -0.000 C 
BRANCH  13  14
ATOM     14  C   UNL     1      53.914  29.759  51.539  1.00  0.00    -0.000 C 
BRANCH  14  15
ATOM     15  C   UNL     1      54.323  28.870  50.359  1.00  0.00    -0.000 C 
BRANCH  15  16
ATOM     16  C   UNL     1      53.552  27.544  50.373  1.00  0.00    -0.000 C 
BRANCH  16  17
ATOM     17  C   UNL     1      54.478  26.364  50.055  1.00  0.00    -0.000 C 
BRANCH  17  18
ATOM     18  C   UNL     1      55.927  26.684  50.439  1.00  0.00    -0.003 C 
ATOM     19  C   UNL     1      56.277  26.103  51.805  1.00  0.00     0.004 C 
ENDBRANCH  17  18
ENDBRANCH  16  17
ENDBRANCH  15  16
ENDBRANCH  14  15
ENDBRANCH  13  14
ENDBRANCH  12  13
ENDBRANCH   1  12
TORSDOF 14
ENDMDL
MODEL 3
REMARK VINA RESULT:    -3.069     10.085     12.216
REMARK INTER + INTRA:          -8.077
REMARK INTER:                  -5.879
REMARK INTRA:                  -2.197
REMARK UNBOUND:                -2.497
REMARK SMILES CCCCCCCCCCCCCC[C@@H](C)C(=O)[O-]
REMARK SMILES IDX 9 1 10 2 11 3 12 4 13 5 14 6 15 7 16 8 17 9 18 10 19 11 8 12
REMARK SMILES IDX 7 13 6 14 5 15 4 16 3 17 2 18 1 19
REMARK H PARENT
REMARK Flexibility Score: inf
ROOT
ATOM      1  C   UNL     1      59.924  29.269  59.353  1.00  0.00     0.000 C 
ENDROOT
BRANCH   1   2
ATOM      2  C   UNL     1      59.725  30.779  59.137  1.00  0.00     0.000 C 
BRANCH   2   3
ATOM      3  C   UNL     1      60.946  31.480  58.505  1.00  0.00     0.000 C 
BRANCH   3   4
ATOM      4  C   UNL     1      60.879  33.010  58.658  1.00  0.00     0.000 C 
BRANCH   4   5
ATOM      5  C   UNL     1      62.167  33.708  58.198  1.00  0.00     0.001 C 
BRANCH   5   6
ATOM      6  C   UNL     1      62.423  35.031  58.941  1.00  0.00     0.009 C 
BRANCH   6   7
ATOM      7  C   UNL     1      62.399  34.851  60.474  1.00  0.00     0.032 C 
ATOM      8  C   UNL     1      63.822  34.753  61.030  1.00  0.00     0.014 C 
BRANCH   7   9
ATOM      9  C   UNL     1      61.659  35.977  61.148  1.00  0.00     0.044 C 
ATOM     10  O   UNL     1      60.583  36.418  60.663  1.00  0.00    -0.550 OA
ATOM     11  O   UNL     1      62.165  36.536  62.315  1.00  0.00    -0.550 OA
ENDBRANCH   7   9
ENDBRANCH   6   7
ENDBRANCH   5   6
ENDBRANCH   4   5
ENDBRANCH   3   4
ENDBRANCH   2   3
ENDBRANCH   1   2
BRANCH   1  12
ATOM     12  C   UNL     1      59.736  28.846  60.819  1.00  0.00     0.000 C 
BRANCH  12  13
ATOM     13  C   UNL     1      61.056  28.844  61.606  1.00  0.00    -0.000 C 
BRANCH  13  14
ATOM     14  C   UNL     1      62.132  27.961  60.958  1.00  0.00    -0.000 C 
BRANCH  14  15
ATOM     15  C   UNL     1      63.461  28.715  60.837  1.00  0.00    -0.000 C 
BRANCH  15  16
ATOM     16  C   UNL     1      63.354  30.122  61.439  1.00  0.00    -0.000 C 
BRANCH  16  17
ATOM     17  C   UNL     1      63.887  31.180  60.465  1.00  0.00    -0.000 C 
BRANCH  17  18
ATOM     18  C   UNL     1      64.773  30.540  59.390  1.00  0.00    -0.003 C 
ATOM     19  C   UNL     1      65.106  31.537  58.285  1.00  0.00     0.004 C 
ENDBRANCH  17  18
ENDBRANCH  16  17
ENDBRANCH  15  16
ENDBRANCH  14  15
ENDBRANCH  13  14
ENDBRANCH  12  13
ENDBRANCH   1  12
TORSDOF 14
ENDMDL
MODEL 4
REMARK VINA RESULT:    -3.042      3.775      5.388
REMARK INTER + INTRA:          -8.029
REMARK INTER:                  -7.167
REMARK INTRA:                  -0.862
REMARK UNBOUND:                -2.497
REMARK SMILES CCCCCCCCCCCCCC[C@@H](C)C(=O)[O-]
REMARK SMILES IDX 9 1 10 2 11 3 12 4 13 5 14 6 15 7 16 8 17 9 18 10 19 11 8 12
REMARK SMILES IDX 7 13 6 14 5 15 4 16 3 17 2 18 1 19
REMARK H PARENT
REMARK Flexibility Score: inf
ROOT
ATOM      1  C   UNL     1      59.448  27.226  49.994  1.00  0.00     0.000 C 
ENDROOT
BRANCH   1   2
ATOM      2  C   UNL     1      60.782  27.059  50.741  1.00  0.00     0.000 C 
BRANCH   2   3
ATOM      3  C   UNL     1      61.314  25.611  50.741  1.00  0.00     0.000 C 
BRANCH   3   4
ATOM      4  C   UNL     1      60.178  24.577  50.644  1.00  0.00     0.000 C 
BRANCH   4   5
ATOM      5  C   UNL     1      60.690  23.161  50.340  1.00  0.00     0.001 C 
BRANCH   5   6
ATOM      6  C   UNL     1      60.107  22.102  51.292  1.00  0.00     0.009 C 
BRANCH   6   7
ATOM      7  C   UNL     1      60.473  20.667  50.859  1.00  0.00     0.032 C 
ATOM      8  C   UNL     1      61.182  19.923  51.995  1.00  0.00     0.014 C 
BRANCH   7   9
ATOM      9  C   UNL     1      59.254  19.896  50.424  1.00  0.00     0.044 C 
ATOM     10  O   UNL     1      58.373  19.563  51.261  1.00  0.00    -0.550 OA
ATOM     11  O   UNL     1      59.096  19.548  49.088  1.00  0.00    -0.550 OA
ENDBRANCH   7   9
ENDBRANCH   6   7
ENDBRANCH   5   6
ENDBRANCH   4   5
ENDBRANCH   3   4
ENDBRANCH   2   3
ENDBRANCH   1   2
BRANCH   1  12
ATOM     12  C   UNL     1      59.285  28.621  49.369  1.00  0.00     0.000 C 
BRANCH  12  13
ATOM     13  C   UNL     1      58.154  29.432  50.022  1.00  0.00    -0.000 C 
BRANCH  13  14
ATOM     14  C   UNL     1      57.161  28.552  50.793  1.00  0.00    -0.000 C 
BRANCH  14  15
ATOM     15  C   UNL     1      55.789  29.230  50.893  1.00  0.00    -0.000 C 
BRANCH  15  16
ATOM     16  C   UNL     1      54.656  28.219  50.673  1.00  0.00    -0.000 C 
BRANCH  16  17
ATOM     17  C   UNL     1      55.205  26.791  50.569  1.00  0.00    -0.000 C 
BRANCH  17  18
ATOM     18  C   UNL     1      54.363  25.948  49.604  1.00  0.00    -0.003 C 
ATOM     19  C   UNL     1      52.891  26.340  49.670  1.00  0.00     0.004 C 
ENDBRANCH  17  18
ENDBRANCH  16  17
ENDBRANCH  15  16
ENDBRANCH  14  15
ENDBRANCH  13  14
ENDBRANCH  12  13
ENDBRANCH   1  12
TORSDOF 14
ENDMDL
MODEL 5
REMARK VINA RESULT:    -3.022      1.519      2.199
REMARK INTER + INTRA:          -7.991
REMARK INTER:                  -5.391
REMARK INTRA:                  -2.600
REMARK UNBOUND:                -2.497
REMARK SMILES CCCCCCCCCCCCCC[C@@H](C)C(=O)[O-]
REMARK SMILES IDX 9 1 10 2 11 3 12 4 13 5 14 6 15 7 16 8 17 9 18 10 19 11 8 12
REMARK SMILES IDX 7 13 6 14 5 15 4 16 3 17 2 18 1 19
REMARK H PARENT
REMARK Flexibility Score: inf
ROOT
ATOM      1  C   UNL     1      56.704  26.231  52.276  1.00  0.00     0.000 C 
ENDROOT
BRANCH   1   2
ATOM      2  C   UNL     1      57.594  27.330  52.881  1.00  0.00     0.000 C 
BRANCH   2   3
ATOM      3  C   UNL     1      57.008  28.750  52.737  1.00  0.00     0.000 C 
BRANCH   3   4
ATOM      4  C   UNL     1      57.954  29.692  51.972  1.00  0.00     0.000 C 
BRANCH   4   5
ATOM      5  C   UNL     1      57.649  29.743  50.467  1.00  0.00     0.001 C 
BRANCH   5   6
ATOM      6  C   UNL     1      58.822  29.238  49.607  1.00  0.00     0.009 C 
BRANCH   6   7
ATOM      7  C   UNL     1      59.948  28.623  50.463  1.00  0.00     0.032 C 
ATOM      8  C   UNL     1      60.215  27.173  50.047  1.00  0.00     0.014 C 
BRANCH   7   9
ATOM      9  C   UNL     1      61.217  29.428  50.364  1.00  0.00     0.044 C 
ATOM     10  O   UNL     1      62.330  28.856  50.214  1.00  0.00    -0.550 OA
ATOM     11  O   UNL     1      61.165  30.815  50.438  1.00  0.00    -0.550 OA
ENDBRANCH   7   9
ENDBRANCH   6   7
ENDBRANCH   5   6
ENDBRANCH   4   5
ENDBRANCH   3   4
ENDBRANCH   2   3
ENDBRANCH   1   2
BRANCH   1  12
ATOM     12  C   UNL     1      56.641  26.292  50.741  1.00  0.00     0.000 C 
BRANCH  12  13
ATOM     13  C   UNL     1      55.199  26.311  50.209  1.00  0.00    -0.000 C 
BRANCH  13  14
ATOM     14  C   UNL     1      54.576  27.715  50.233  1.00  0.00    -0.000 C 
BRANCH  14  15
ATOM     15  C   UNL     1      53.250  27.713  51.002  1.00  0.00    -0.000 C 
BRANCH  15  16
ATOM     16  C   UNL     1      53.030  29.048  51.725  1.00  0.00    -0.000 C 
BRANCH  16  17
ATOM     17  C   UNL     1      53.896  30.155  51.113  1.00  0.00    -0.000 C 
BRANCH  17  18
ATOM     18  C   UNL     1      53.840  31.430  51.963  1.00  0.00    -0.003 C 
ATOM     19  C   UNL     1      54.341  31.170  53.380  1.00  0.00     0.004 C 
ENDBRANCH  17  18
ENDBRANCH  16  17
ENDBRANCH  15  16
ENDBRANCH  14  15
ENDBRANCH  13  14
ENDBRANCH  12  13
ENDBRANCH   1  12
TORSDOF 14
ENDMDL
MODEL 6
REMARK VINA RESULT:    -3.019      2.031      3.294
REMARK INTER + INTRA:          -7.986
REMARK INTER:                  -5.608
REMARK INTRA:                  -2.378
REMARK UNBOUND:                -2.497
REMARK SMILES CCCCCCCCCCCCCC[C@@H](C)C(=O)[O-]
REMARK SMILES IDX 9 1 10 2 11 3 12 4 13 5 14 6 15 7 16 8 17 9 18 10 19 11 8 12
REMARK SMILES IDX 7 13 6 14 5 15 4 16 3 17 2 18 1 19
REMARK H PARENT
REMARK Flexibility Score: inf
ROOT
ATOM      1  C   UNL     1      60.068  29.089  52.221  1.00  0.00     0.000 C 
ENDROOT
BRANCH   1   2
ATOM      2  C   UNL     1      59.832  29.885  50.926  1.00  0.00     0.000 C 
BRANCH   2   3
ATOM      3  C   UNL     1      58.948  29.147  49.899  1.00  0.00     0.000 C 
BRANCH   3   4
ATOM      4  C   UNL     1      59.495  27.748  49.563  1.00  0.00     0.000 C 
BRANCH   4   5
ATOM      5  C   UNL     1      58.534  26.622  49.973  1.00  0.00     0.001 C 
BRANCH   5   6
ATOM      6  C   UNL     1      59.143  25.675  51.022  1.00  0.00     0.009 C 
BRANCH   6   7
ATOM      7  C   UNL     1      60.514  25.121  50.579  1.00  0.00     0.032 C 
ATOM      8  C   UNL     1      61.626  25.625  51.503  1.00  0.00     0.014 C 
BRANCH   7   9
ATOM      9  C   UNL     1      60.514  23.615  50.548  1.00  0.00     0.044 C 
ATOM     10  O   UNL     1      60.003  22.954  51.491  1.00  0.00    -0.550 OA
ATOM     11  O   UNL     1      61.082  22.945  49.471  1.00  0.00    -0.550 OA
ENDBRANCH   7   9
ENDBRANCH   6   7
ENDBRANCH   5   6
ENDBRANCH   4   5
ENDBRANCH   3   4
ENDBRANCH   2   3
ENDBRANCH   1   2
BRANCH   1  12
ATOM     12  C   UNL     1      59.064  29.442  53.331  1.00  0.00     0.000 C 
BRANCH  12  13
ATOM     13  C   UNL     1      58.197  28.242  53.746  1.00  0.00    -0.000 C 
BRANCH  13  14
ATOM     14  C   UNL     1      56.928  28.102  52.892  1.00  0.00    -0.000 C 
BRANCH  14  15
ATOM     15  C   UNL     1      56.118  29.404  52.895  1.00  0.00    -0.000 C 
BRANCH  15  16
ATOM     16  C   UNL     1      55.422  29.625  51.546  1.00  0.00    -0.000 C 
BRANCH  16  17
ATOM     17  C   UNL     1      55.369  28.324  50.736  1.00  0.00    -0.000 C 
BRANCH  17  18
ATOM     18  C   UNL     1      53.934  28.008  50.298  1.00  0.00    -0.003 C 
ATOM     19  C   UNL     1      53.728  26.506  50.128  1.00  0.00     0.004 C 
ENDBRANCH  17  18
ENDBRANCH  16  17
ENDBRANCH  15  16
ENDBRANCH  14  15
ENDBRANCH  13  14
ENDBRANCH  12  13
ENDBRANCH   1  12
TORSDOF 14
ENDMDL
MODEL 7
REMARK VINA RESULT:    -3.006      2.254      4.273
REMARK INTER + INTRA:          -7.963
REMARK INTER:                  -5.515
REMARK INTRA:                  -2.448
REMARK UNBOUND:                -2.497
REMARK SMILES CCCCCCCCCCCCCC[C@@H](C)C(=O)[O-]
REMARK SMILES IDX 9 1 10 2 11 3 12 4 13 5 14 6 15 7 16 8 17 9 18 10 19 11 8 12
REMARK SMILES IDX 7 13 6 14 5 15 4 16 3 17 2 18 1 19
REMARK H PARENT
REMARK Flexibility Score: inf
ROOT
ATOM      1  C   UNL     1      61.497  28.698  52.419  1.00  0.00     0.000 C 
ENDROOT
BRANCH   1   2
ATOM      2  C   UNL     1      60.366  28.985  53.422  1.00  0.00     0.000 C 
BRANCH   2   3
ATOM      3  C   UNL     1      59.191  27.989  53.331  1.00  0.00     0.000 C 
BRANCH   3   4
ATOM      4  C   UNL     1      59.651  26.531  53.509  1.00  0.00     0.000 C 
BRANCH   4   5
ATOM      5  C   UNL     1      59.412  25.677  52.255  1.00  0.00     0.001 C 
BRANCH   5   6
ATOM      6  C   UNL     1      60.397  24.500  52.142  1.00  0.00     0.009 C 
BRANCH   6   7
ATOM      7  C   UNL     1      61.100  24.459  50.770  1.00  0.00     0.032 C 
ATOM      8  C   UNL     1      62.418  25.238  50.813  1.00  0.00     0.014 C 
BRANCH   7   9
ATOM      9  C   UNL     1      61.355  23.042  50.324  1.00  0.00     0.044 C 
ATOM     10  O   UNL     1      61.928  22.223  51.091  1.00  0.00    -0.550 OA
ATOM     11  O   UNL     1      60.957  22.632  49.058  1.00  0.00    -0.550 OA
ENDBRANCH   7   9
ENDBRANCH   6   7
ENDBRANCH   5   6
ENDBRANCH   4   5
ENDBRANCH   3   4
ENDBRANCH   2   3
ENDBRANCH   1   2
BRANCH   1  12
ATOM     12  C   UNL     1      61.286  29.397  51.066  1.00  0.00     0.000 C 
BRANCH  12  13
ATOM     13  C   UNL     1      61.031  28.404  49.922  1.00  0.00    -0.000 C 
BRANCH  13  14
ATOM     14  C   UNL     1      59.538  28.229  49.608  1.00  0.00    -0.000 C 
BRANCH  14  15
ATOM     15  C   UNL     1      58.798  29.569  49.700  1.00  0.00    -0.000 C 
BRANCH  15  16
ATOM     16  C   UNL     1      57.444  29.404  50.403  1.00  0.00    -0.000 C 
BRANCH  16  17
ATOM     17  C   UNL     1      57.019  27.931  50.441  1.00  0.00    -0.000 C 
BRANCH  17  18
ATOM     18  C   UNL     1      55.522  27.799  50.744  1.00  0.00    -0.003 C 
ATOM     19  C   UNL     1      54.831  29.158  50.715  1.00  0.00     0.004 C 
ENDBRANCH  17  18
ENDBRANCH  16  17
ENDBRANCH  15  16
ENDBRANCH  14  15
ENDBRANCH  13  14
ENDBRANCH  12  13
ENDBRANCH   1  12
TORSDOF 14
ENDMDL
MODEL 8
REMARK VINA RESULT:    -2.984      1.905      3.159
REMARK INTER + INTRA:          -7.923
REMARK INTER:                  -5.232
REMARK INTRA:                  -2.690
REMARK UNBOUND:                -2.497
REMARK SMILES CCCCCCCCCCCCCC[C@@H](C)C(=O)[O-]
REMARK SMILES IDX 9 1 10 2 11 3 12 4 13 5 14 6 15 7 16 8 17 9 18 10 19 11 8 12
REMARK SMILES IDX 7 13 6 14 5 15 4 16 3 17 2 18 1 19
REMARK H PARENT
REMARK Flexibility Score: inf
ROOT
ATOM      1  C   UNL     1      58.399  26.919  52.814  1.00  0.00     0.000 C 
ENDROOT
BRANCH   1   2
ATOM      2  C   UNL     1      57.945  25.860  51.796  1.00  0.00     0.000 C 
BRANCH   2   3
ATOM      3  C   UNL     1      58.054  26.325  50.329  1.00  0.00     0.000 C 
BRANCH   3   4
ATOM      4  C   UNL     1      59.376  27.063  50.052  1.00  0.00     0.000 C 
BRANCH   4   5
ATOM      5  C   UNL     1      59.159  28.485  49.513  1.00  0.00     0.001 C 
BRANCH   5   6
ATOM      6  C   UNL     1      59.915  29.550  50.327  1.00  0.00     0.009 C 
BRANCH   6   7
ATOM      7  C   UNL     1      61.184  28.979  50.993  1.00  0.00     0.032 C 
ATOM      8  C   UNL     1      62.385  29.083  50.049  1.00  0.00     0.014 C 
BRANCH   7   9
ATOM      9  C   UNL     1      61.488  29.684  52.290  1.00  0.00     0.044 C 
ATOM     10  O   UNL     1      62.620  30.200  52.489  1.00  0.00    -0.550 OA
ATOM     11  O   UNL     1      60.515  29.766  53.278  1.00  0.00    -0.550 OA
ENDBRANCH   7   9
ENDBRANCH   6   7
ENDBRANCH   5   6
ENDBRANCH   4   5
ENDBRANCH   3   4
ENDBRANCH   2   3
ENDBRANCH   1   2
BRANCH   1  12
ATOM     12  C   UNL     1      57.234  27.766  53.354  1.00  0.00     0.000 C 
BRANCH  12  13
ATOM     13  C   UNL     1      57.115  29.125  52.646  1.00  0.00    -0.000 C 
BRANCH  13  14
ATOM     14  C   UNL     1      55.702  29.392  52.107  1.00  0.00    -0.000 C 
BRANCH  14  15
ATOM     15  C   UNL     1      55.567  28.909  50.658  1.00  0.00    -0.000 C 
BRANCH  15  16
ATOM     16  C   UNL     1      54.262  28.128  50.456  1.00  0.00    -0.000 C 
BRANCH  16  17
ATOM     17  C   UNL     1      54.546  26.686  50.018  1.00  0.00    -0.000 C 
BRANCH  17  18
ATOM     18  C   UNL     1      53.800  25.685  50.907  1.00  0.00    -0.003 C 
ATOM     19  C   UNL     1      54.229  25.815  52.365  1.00  0.00     0.004 C 
ENDBRANCH  17  18
ENDBRANCH  16  17
ENDBRANCH  15  16
ENDBRANCH  14  15
ENDBRANCH  13  14
ENDBRANCH  12  13
ENDBRANCH   1  12
TORSDOF 14
ENDMDL
MODEL 9
REMARK VINA RESULT:    -2.956      2.144      3.034
REMARK INTER + INTRA:          -7.873
REMARK INTER:                  -5.561
REMARK INTRA:                  -2.312
REMARK UNBOUND:                -2.497
REMARK SMILES CCCCCCCCCCCCCC[C@@H](C)C(=O)[O-]
REMARK SMILES IDX 9 1 10 2 11 3 12 4 13 5 14 6 15 7 16 8 17 9 18 10 19 11 8 12
REMARK SMILES IDX 7 13 6 14 5 15 4 16 3 17 2 18 1 19
REMARK H PARENT
REMARK Flexibility Score: inf
ROOT
ATOM      1  C   UNL     1      56.589  26.637  51.325  1.00  0.00     0.000 C 
ENDROOT
BRANCH   1   2
ATOM      2  C   UNL     1      57.750  27.645  51.293  1.00  0.00     0.000 C 
BRANCH   2   3
ATOM      3  C   UNL     1      57.495  28.854  50.369  1.00  0.00     0.000 C 
BRANCH   3   4
ATOM      4  C   UNL     1      58.758  29.262  49.589  1.00  0.00     0.000 C 
BRANCH   4   5
ATOM      5  C   UNL     1      59.829  28.162  49.578  1.00  0.00     0.001 C 
BRANCH   5   6
ATOM      6  C   UNL     1      61.171  28.635  50.165  1.00  0.00     0.009 C 
BRANCH   6   7
ATOM      7  C   UNL     1      61.056  30.018  50.840  1.00  0.00     0.032 C 
ATOM      8  C   UNL     1      61.112  29.883  52.364  1.00  0.00     0.014 C 
BRANCH   7   9
ATOM      9  C   UNL     1      62.138  30.953  50.366  1.00  0.00     0.044 C 
ATOM     10  O   UNL     1      63.100  30.522  49.676  1.00  0.00    -0.550 OA
ATOM     11  O   UNL     1      62.078  32.302  50.692  1.00  0.00    -0.550 OA
ENDBRANCH   7   9
ENDBRANCH   6   7
ENDBRANCH   5   6
ENDBRANCH   4   5
ENDBRANCH   3   4
ENDBRANCH   2   3
ENDBRANCH   1   2
BRANCH   1  12
ATOM     12  C   UNL     1      55.528  26.915  50.247  1.00  0.00     0.000 C 
BRANCH  12  13
ATOM     13  C   UNL     1      54.189  27.380  50.842  1.00  0.00    -0.000 C 
BRANCH  13  14
ATOM     14  C   UNL     1      53.818  28.809  50.421  1.00  0.00    -0.000 C 
BRANCH  14  15
ATOM     15  C   UNL     1      54.162  29.814  51.527  1.00  0.00    -0.000 C 
BRANCH  15  16
ATOM     16  C   UNL     1      54.211  29.129  52.899  1.00  0.00    -0.000 C 
BRANCH  16  17
ATOM     17  C   UNL     1      55.116  29.901  53.867  1.00  0.00    -0.000 C 
BRANCH  17  18
ATOM     18  C   UNL     1      56.016  30.885  53.111  1.00  0.00    -0.003 C 
ATOM     19  C   UNL     1      57.479  30.708  53.503  1.00  0.00     0.004 C 
ENDBRANCH  17  18
ENDBRANCH  16  17
ENDBRANCH  15  16
ENDBRANCH  14  15
ENDBRANCH  13  14
ENDBRANCH  12  13
ENDBRANCH   1  12
TORSDOF 14
ENDMDL
