MODEL 1
REMARK VINA RESULT:    -3.710      0.000      0.000
REMARK INTER + INTRA:          -6.293
REMARK INTER:                  -5.661
REMARK INTRA:                  -0.631
REMARK UNBOUND:                -0.631
REMARK SMILES CC1=CCC[C@H](C)C(=O)C[C@H](C(C)C)C(=O)C1
REMARK SMILES IDX 8 1 9 2 6 3 7 4 5 5 4 6 3 7 2 8 1 9 10 11 11 12 15 13 16 14
REMARK SMILES IDX 17 15 12 17 13 18 14 19
REMARK H PARENT
REMARK Flexibility Score: 70.00
ROOT
ATOM      1  C   UNL     1      39.738  18.349  26.381  1.00  0.00     0.136 C 
ATOM      2  O   UNL     1      39.260  18.879  27.374  1.00  0.00    -0.299 OA
ENDROOT
BRANCH   1   3
ATOM      3  C   UNL     1      39.348  18.840  25.000  1.00  0.00     0.053 C 
ATOM      4  C   UNL     1      37.871  19.248  25.005  1.00  0.00     0.016 C 
BRANCH   3   5
ATOM      5  C   UNL     1      40.226  20.010  24.506  1.00  0.00     0.015 C 
BRANCH   5   6
ATOM      6  C   UNL     1      41.364  19.568  23.570  1.00  0.00     0.028 C 
BRANCH   6   7
ATOM      7  C   UNL     1      42.698  19.632  24.272  1.00  0.00    -0.028 C 
ATOM      8  C   UNL     1      43.530  18.591  24.487  1.00  0.00    -0.070 CG0
ATOM      9  C   UNL     1      44.891  18.897  25.070  1.00  0.00     0.039 C 
ATOM     10  G   UNL     1      43.232  17.173  24.031  1.00  0.00     0.000 G0
ENDBRANCH   6   7
ENDBRANCH   5   6
ENDBRANCH   3   5
ENDBRANCH   1   3
BRANCH   1  11
ATOM     11  C   UNL     1      40.632  17.142  26.536  1.00  0.00     0.087 C 
BRANCH  11  12
ATOM     12  C   UNL     1      40.906  16.377  25.213  1.00  0.00     0.066 C 
BRANCH  12  13
ATOM     13  C   UNL     1      42.421  16.286  24.986  1.00  0.00     0.140 C 
ATOM     14  O   UNL     1      43.029  15.469  25.664  1.00  0.00    -0.299 OA
BRANCH  13  15
ATOM     15  C   UNL     1      43.254  17.146  24.045  1.00  0.00     0.106 CG0
ATOM     16  G   UNL     1      43.526  18.565  24.512  1.00  0.00     0.000 G0
ENDBRANCH  13  15
ENDBRANCH  12  13
BRANCH  12  17
ATOM     17  C   UNL     1      40.094  15.050  25.030  1.00  0.00    -0.006 C 
ATOM     18  C   UNL     1      38.801  15.296  24.228  1.00  0.00     0.008 C 
ATOM     19  C   UNL     1      39.694  14.392  26.365  1.00  0.00     0.008 C 
ENDBRANCH  12  17
ENDBRANCH  11  12
ENDBRANCH   1  11
TORSDOF 1
ENDMDL
MODEL 2
REMARK VINA RESULT:    -3.709      1.766      3.877
REMARK INTER + INTRA:          -6.291
REMARK INTER:                  -5.863
REMARK INTRA:                  -0.428
REMARK UNBOUND:                -0.631
REMARK SMILES CC1=CCC[C@H](C)C(=O)C[C@H](C(C)C)C(=O)C1
REMARK SMILES IDX 8 1 9 2 6 3 7 4 5 5 4 6 3 7 2 8 1 9 10 11 11 12 15 13 16 14
REMARK SMILES IDX 17 15 12 17 13 18 14 19
REMARK H PARENT
REMARK Flexibility Score: 70.00
ROOT
ATOM      1  C   UNL     1      38.389  16.781  25.971  1.00  0.00     0.136 C 
ATOM      2  O   UNL     1      37.770  17.136  26.964  1.00  0.00    -0.299 OA
ENDROOT
BRANCH   1   3
ATOM      3  C   UNL     1      38.943  15.373  25.889  1.00  0.00     0.053 C 
ATOM      4  C   UNL     1      38.937  14.909  24.428  1.00  0.00     0.016 C 
BRANCH   3   5
ATOM      5  C   UNL     1      40.362  15.246  26.485  1.00  0.00     0.015 C 
BRANCH   5   6
ATOM      6  C   UNL     1      41.448  14.988  25.427  1.00  0.00     0.028 C 
BRANCH   6   7
ATOM      7  C   UNL     1      42.598  15.952  25.586  1.00  0.00    -0.028 C 
ATOM      8  C   UNL     1      42.697  17.169  25.008  1.00  0.00    -0.070 CG0
ATOM      9  C   UNL     1      43.857  18.043  25.422  1.00  0.00     0.039 C 
ATOM     10  G   UNL     1      41.628  17.754  24.101  1.00  0.00     0.000 G0
ENDBRANCH   6   7
ENDBRANCH   5   6
ENDBRANCH   3   5
ENDBRANCH   1   3
BRANCH   1  11
ATOM     11  C   UNL     1      38.685  17.782  24.879  1.00  0.00     0.087 C 
BRANCH  11  12
ATOM     12  C   UNL     1      39.521  19.004  25.344  1.00  0.00     0.066 C 
BRANCH  12  13
ATOM     13  C   UNL     1      40.873  18.998  24.618  1.00  0.00     0.140 C 
ATOM     14  O   UNL     1      41.384  20.088  24.399  1.00  0.00    -0.299 OA
BRANCH  13  15
ATOM     15  C   UNL     1      41.618  17.778  24.092  1.00  0.00     0.106 CG0
ATOM     16  G   UNL     1      42.679  17.203  25.014  1.00  0.00     0.000 G0
ENDBRANCH  13  15
ENDBRANCH  12  13
BRANCH  12  17
ATOM     17  C   UNL     1      38.750  20.368  25.368  1.00  0.00    -0.006 C 
ATOM     18  C   UNL     1      38.616  20.906  26.806  1.00  0.00     0.008 C 
ATOM     19  C   UNL     1      37.332  20.275  24.772  1.00  0.00     0.008 C 
ENDBRANCH  12  17
ENDBRANCH  11  12
ENDBRANCH   1  11
TORSDOF 1
ENDMDL
MODEL 3
REMARK VINA RESULT:    -3.638      3.548      6.000
REMARK INTER + INTRA:          -6.184
REMARK INTER:                  -5.603
REMARK INTRA:                  -0.580
REMARK UNBOUND:                -0.631
REMARK SMILES CC1=CCC[C@H](C)C(=O)C[C@H](C(C)C)C(=O)C1
REMARK SMILES IDX 8 1 9 2 6 3 7 4 5 5 4 6 3 7 2 8 1 9 10 11 11 12 15 13 16 14
REMARK SMILES IDX 17 15 12 17 13 18 14 19
REMARK H PARENT
REMARK Flexibility Score: 70.00
ROOT
ATOM      1  C   UNL     1      39.798  19.654  25.166  1.00  0.00     0.136 C 
ATOM      2  O   UNL     1      40.663  19.666  24.302  1.00  0.00    -0.299 OA
ENDROOT
BRANCH   1   3
ATOM      3  C   UNL     1      39.910  18.693  26.334  1.00  0.00     0.053 C 
ATOM      4  C   UNL     1      39.880  17.253  25.811  1.00  0.00     0.016 C 
BRANCH   3   5
ATOM      5  C   UNL     1      41.174  18.926  27.189  1.00  0.00     0.015 C 
BRANCH   5   6
ATOM      6  C   UNL     1      41.166  20.268  27.940  1.00  0.00     0.028 C 
BRANCH   6   7
ATOM      7  C   UNL     1      40.116  20.276  29.023  1.00  0.00    -0.028 C 
ATOM      8  C   UNL     1      39.037  21.087  29.074  1.00  0.00    -0.070 CG0
ATOM      9  C   UNL     1      38.022  20.826  30.163  1.00  0.00     0.039 C 
ATOM     10  G   UNL     1      38.720  22.126  28.013  1.00  0.00     0.000 G0
ENDBRANCH   6   7
ENDBRANCH   5   6
ENDBRANCH   3   5
ENDBRANCH   1   3
BRANCH   1  11
ATOM     11  C   UNL     1      38.573  20.524  25.010  1.00  0.00     0.087 C 
BRANCH  11  12
ATOM     12  C   UNL     1      37.578  20.442  26.198  1.00  0.00     0.066 C 
BRANCH  12  13
ATOM     13  C   UNL     1      37.641  21.747  27.001  1.00  0.00     0.140 C 
ATOM     14  O   UNL     1      36.773  22.578  26.769  1.00  0.00    -0.299 OA
BRANCH  13  15
ATOM     15  C   UNL     1      38.705  22.140  28.018  1.00  0.00     0.106 CG0
ATOM     16  G   UNL     1      39.045  21.088  29.059  1.00  0.00     0.000 G0
ENDBRANCH  13  15
ENDBRANCH  12  13
BRANCH  12  17
ATOM     17  C   UNL     1      36.146  19.918  25.832  1.00  0.00    -0.006 C 
ATOM     18  C   UNL     1      35.904  18.513  26.417  1.00  0.00     0.008 C 
ATOM     19  C   UNL     1      35.897  19.840  24.314  1.00  0.00     0.008 C 
ENDBRANCH  12  17
ENDBRANCH  11  12
ENDBRANCH   1  11
TORSDOF 1
ENDMDL
MODEL 4
REMARK VINA RESULT:    -3.586      4.377      5.688
REMARK INTER + INTRA:          -6.104
REMARK INTER:                  -5.958
REMARK INTRA:                  -0.145
REMARK UNBOUND:                -0.631
REMARK SMILES CC1=CCC[C@H](C)C(=O)C[C@H](C(C)C)C(=O)C1
REMARK SMILES IDX 8 1 9 2 6 3 7 4 5 5 4 6 3 7 2 8 1 9 10 11 11 12 15 13 16 14
REMARK SMILES IDX 17 15 12 17 13 18 14 19
REMARK H PARENT
REMARK Flexibility Score: 70.00
ROOT
ATOM      1  C   UNL     1      37.526  22.709  26.090  1.00  0.00     0.136 C 
ATOM      2  O   UNL     1      38.092  22.828  25.012  1.00  0.00    -0.299 OA
ENDROOT
BRANCH   1   3
ATOM      3  C   UNL     1      37.587  23.834  27.104  1.00  0.00     0.053 C 
ATOM      4  C   UNL     1      36.354  23.765  28.012  1.00  0.00     0.016 C 
BRANCH   3   5
ATOM      5  C   UNL     1      38.877  23.814  27.951  1.00  0.00     0.015 C 
BRANCH   5   6
ATOM      6  C   UNL     1      38.845  22.781  29.091  1.00  0.00     0.028 C 
BRANCH   6   7
ATOM      7  C   UNL     1      40.008  21.825  28.987  1.00  0.00    -0.028 C 
ATOM      8  C   UNL     1      39.935  20.527  28.621  1.00  0.00    -0.070 CG0
ATOM      9  C   UNL     1      41.238  19.785  28.429  1.00  0.00     0.039 C 
ATOM     10  G   UNL     1      38.637  19.836  28.243  1.00  0.00     0.000 G0
ENDBRANCH   6   7
ENDBRANCH   5   6
ENDBRANCH   3   5
ENDBRANCH   1   3
BRANCH   1  11
ATOM     11  C   UNL     1      36.858  21.401  26.442  1.00  0.00     0.087 C 
BRANCH  11  12
ATOM     12  C   UNL     1      37.496  20.157  25.767  1.00  0.00     0.066 C 
BRANCH  12  13
ATOM     13  C   UNL     1      38.458  19.484  26.753  1.00  0.00     0.140 C 
ATOM     14  O   UNL     1      39.123  18.551  26.323  1.00  0.00    -0.299 OA
BRANCH  13  15
ATOM     15  C   UNL     1      38.631  19.820  28.230  1.00  0.00     0.106 CG0
ATOM     16  G   UNL     1      39.932  20.509  28.602  1.00  0.00     0.000 G0
ENDBRANCH  13  15
ENDBRANCH  12  13
BRANCH  12  17
ATOM     17  C   UNL     1      36.489  19.213  25.022  1.00  0.00    -0.006 C 
ATOM     18  C   UNL     1      35.655  19.995  23.989  1.00  0.00     0.008 C 
ATOM     19  C   UNL     1      35.506  18.504  25.973  1.00  0.00     0.008 C 
ENDBRANCH  12  17
ENDBRANCH  11  12
ENDBRANCH   1  11
TORSDOF 1
ENDMDL
MODEL 5
REMARK VINA RESULT:    -3.555      2.693      4.867
REMARK INTER + INTRA:          -6.056
REMARK INTER:                  -5.529
REMARK INTRA:                  -0.527
REMARK UNBOUND:                -0.631
REMARK SMILES CC1=CCC[C@H](C)C(=O)C[C@H](C(C)C)C(=O)C1
REMARK SMILES IDX 8 1 9 2 6 3 7 4 5 5 4 6 3 7 2 8 1 9 10 11 11 12 15 13 16 14
REMARK SMILES IDX 17 15 12 17 13 18 14 19
REMARK H PARENT
REMARK Flexibility Score: 70.00
ROOT
ATOM      1  C   UNL     1      39.799  16.390  26.021  1.00  0.00     0.136 C 
ATOM      2  O   UNL     1      39.660  15.235  26.400  1.00  0.00    -0.299 OA
ENDROOT
BRANCH   1   3
ATOM      3  C   UNL     1      38.837  16.972  25.004  1.00  0.00     0.053 C 
ATOM      4  C   UNL     1      38.597  15.949  23.888  1.00  0.00     0.016 C 
BRANCH   3   5
ATOM      5  C   UNL     1      37.494  17.412  25.625  1.00  0.00     0.015 C 
BRANCH   5   6
ATOM      6  C   UNL     1      37.356  18.937  25.767  1.00  0.00     0.028 C 
BRANCH   6   7
ATOM      7  C   UNL     1      37.334  19.346  27.220  1.00  0.00    -0.028 C 
ATOM      8  C   UNL     1      38.294  20.051  27.858  1.00  0.00    -0.070 CG0
ATOM      9  C   UNL     1      38.006  20.492  29.274  1.00  0.00     0.039 C 
ATOM     10  G   UNL     1      39.556  20.551  27.178  1.00  0.00     0.000 G0
ENDBRANCH   6   7
ENDBRANCH   5   6
ENDBRANCH   3   5
ENDBRANCH   1   3
BRANCH   1  11
ATOM     11  C   UNL     1      40.988  17.193  26.492  1.00  0.00     0.087 C 
BRANCH  11  12
ATOM     12  C   UNL     1      41.032  18.646  25.948  1.00  0.00     0.066 C 
BRANCH  12  13
ATOM     13  C   UNL     1      40.730  19.623  27.091  1.00  0.00     0.140 C 
ATOM     14  O   UNL     1      41.484  19.593  28.054  1.00  0.00    -0.299 OA
BRANCH  13  15
ATOM     15  C   UNL     1      39.553  20.588  27.178  1.00  0.00     0.106 CG0
ATOM     16  G   UNL     1      38.305  20.048  27.854  1.00  0.00     0.000 G0
ENDBRANCH  13  15
ENDBRANCH  12  13
BRANCH  12  17
ATOM     17  C   UNL     1      42.272  18.985  25.052  1.00  0.00    -0.006 C 
ATOM     18  C   UNL     1      41.917  18.897  23.555  1.00  0.00     0.008 C 
ATOM     19  C   UNL     1      43.474  18.053  25.300  1.00  0.00     0.008 C 
ENDBRANCH  12  17
ENDBRANCH  11  12
ENDBRANCH   1  11
TORSDOF 1
ENDMDL
MODEL 6
REMARK VINA RESULT:    -3.467      3.536      5.841
REMARK INTER + INTRA:          -5.923
REMARK INTER:                  -5.704
REMARK INTRA:                  -0.219
REMARK UNBOUND:                -0.631
REMARK SMILES CC1=CCC[C@H](C)C(=O)C[C@H](C(C)C)C(=O)C1
REMARK SMILES IDX 8 1 9 2 6 3 7 4 5 5 4 6 3 7 2 8 1 9 10 11 11 12 15 13 16 14
REMARK SMILES IDX 17 15 12 17 13 18 14 19
REMARK H PARENT
REMARK Flexibility Score: 70.00
ROOT
ATOM      1  C   UNL     1      37.332  20.794  25.746  1.00  0.00     0.136 C 
ATOM      2  O   UNL     1      36.462  21.375  25.111  1.00  0.00    -0.299 OA
ENDROOT
BRANCH   1   3
ATOM      3  C   UNL     1      37.174  19.322  26.072  1.00  0.00     0.053 C 
ATOM      4  C   UNL     1      35.794  18.844  25.609  1.00  0.00     0.016 C 
BRANCH   3   5
ATOM      5  C   UNL     1      38.281  18.444  25.450  1.00  0.00     0.015 C 
BRANCH   5   6
ATOM      6  C   UNL     1      39.245  17.847  26.490  1.00  0.00     0.028 C 
BRANCH   6   7
ATOM      7  C   UNL     1      40.571  18.567  26.475  1.00  0.00    -0.028 C 
ATOM      8  C   UNL     1      40.978  19.494  27.368  1.00  0.00    -0.070 CG0
ATOM      9  C   UNL     1      42.405  19.979  27.265  1.00  0.00     0.039 C 
ATOM     10  G   UNL     1      40.136  19.945  28.549  1.00  0.00     0.000 G0
ENDBRANCH   6   7
ENDBRANCH   5   6
ENDBRANCH   3   5
ENDBRANCH   1   3
BRANCH   1  11
ATOM     11  C   UNL     1      38.506  21.573  26.288  1.00  0.00     0.087 C 
BRANCH  11  12
ATOM     12  C   UNL     1      38.399  21.921  27.797  1.00  0.00     0.066 C 
BRANCH  12  13
ATOM     13  C   UNL     1      39.637  21.386  28.528  1.00  0.00     0.140 C 
ATOM     14  O   UNL     1      40.331  22.210  29.109  1.00  0.00    -0.299 OA
BRANCH  13  15
ATOM     15  C   UNL     1      40.124  19.943  28.560  1.00  0.00     0.106 CG0
ATOM     16  G   UNL     1      40.980  19.508  27.383  1.00  0.00     0.000 G0
ENDBRANCH  13  15
ENDBRANCH  12  13
BRANCH  12  17
ATOM     17  C   UNL     1      37.988  23.400  28.112  1.00  0.00    -0.006 C 
ATOM     18  C   UNL     1      36.465  23.594  27.978  1.00  0.00     0.008 C 
ATOM     19  C   UNL     1      38.672  24.430  27.192  1.00  0.00     0.008 C 
ENDBRANCH  12  17
ENDBRANCH  11  12
ENDBRANCH   1  11
TORSDOF 1
ENDMDL
MODEL 7
REMARK VINA RESULT:    -3.425      2.711      3.901
REMARK INTER + INTRA:          -5.858
REMARK INTER:                  -6.162
REMARK INTRA:                   0.304
REMARK UNBOUND:                -0.631
REMARK SMILES CC1=CCC[C@H](C)C(=O)C[C@H](C(C)C)C(=O)C1
REMARK SMILES IDX 8 1 9 2 6 3 7 4 5 5 4 6 3 7 2 8 1 9 10 11 11 12 15 13 16 14
REMARK SMILES IDX 17 15 12 17 13 18 14 19
REMARK H PARENT
REMARK Flexibility Score: 70.00
ROOT
ATOM      1  C   UNL     1      36.822  18.643  26.166  1.00  0.00     0.136 C 
ATOM      2  O   UNL     1      36.387  18.880  27.284  1.00  0.00    -0.299 OA
ENDROOT
BRANCH   1   3
ATOM      3  C   UNL     1      36.364  19.475  24.985  1.00  0.00     0.053 C 
ATOM      4  C   UNL     1      34.906  19.134  24.659  1.00  0.00     0.016 C 
BRANCH   3   5
ATOM      5  C   UNL     1      36.519  20.994  25.220  1.00  0.00     0.015 C 
BRANCH   5   6
ATOM      6  C   UNL     1      37.984  21.448  25.335  1.00  0.00     0.028 C 
BRANCH   6   7
ATOM      7  C   UNL     1      38.433  21.469  26.775  1.00  0.00    -0.028 C 
ATOM      8  C   UNL     1      39.490  20.799  27.285  1.00  0.00    -0.070 CG0
ATOM      9  C   UNL     1      39.863  21.080  28.722  1.00  0.00     0.039 C 
ATOM     10  G   UNL     1      40.402  19.917  26.451  1.00  0.00     0.000 G0
ENDBRANCH   6   7
ENDBRANCH   5   6
ENDBRANCH   3   5
ENDBRANCH   1   3
BRANCH   1  11
ATOM     11  C   UNL     1      37.733  17.457  25.954  1.00  0.00     0.087 C 
BRANCH  11  12
ATOM     12  C   UNL     1      39.097  17.809  25.304  1.00  0.00     0.066 C 
BRANCH  12  13
ATOM     13  C   UNL     1      40.013  18.442  26.360  1.00  0.00     0.140 C 
ATOM     14  O   UNL     1      40.423  17.703  27.245  1.00  0.00    -0.299 OA
BRANCH  13  15
ATOM     15  C   UNL     1      40.417  19.908  26.454  1.00  0.00     0.106 CG0
ATOM     16  G   UNL     1      39.503  20.794  27.282  1.00  0.00     0.000 G0
ENDBRANCH  13  15
ENDBRANCH  12  13
BRANCH  12  17
ATOM     17  C   UNL     1      39.729  16.675  24.425  1.00  0.00    -0.006 C 
ATOM     18  C   UNL     1      38.643  15.730  23.875  1.00  0.00     0.008 C 
ATOM     19  C   UNL     1      40.753  15.814  25.189  1.00  0.00     0.008 C 
ENDBRANCH  12  17
ENDBRANCH  11  12
ENDBRANCH   1  11
TORSDOF 1
ENDMDL
MODEL 8
REMARK VINA RESULT:    -3.412      2.525      4.404
REMARK INTER + INTRA:          -5.838
REMARK INTER:                  -5.374
REMARK INTRA:                  -0.464
REMARK UNBOUND:                -0.631
REMARK SMILES CC1=CCC[C@H](C)C(=O)C[C@H](C(C)C)C(=O)C1
REMARK SMILES IDX 8 1 9 2 6 3 7 4 5 5 4 6 3 7 2 8 1 9 10 11 11 12 15 13 16 14
REMARK SMILES IDX 17 15 12 17 13 18 14 19
REMARK H PARENT
REMARK Flexibility Score: 70.00
ROOT
ATOM      1  C   UNL     1      37.955  19.907  25.546  1.00  0.00     0.136 C 
ATOM      2  O   UNL     1      37.374  20.471  24.629  1.00  0.00    -0.299 OA
ENDROOT
BRANCH   1   3
ATOM      3  C   UNL     1      37.546  18.505  25.952  1.00  0.00     0.053 C 
ATOM      4  C   UNL     1      36.090  18.519  26.429  1.00  0.00     0.016 C 
BRANCH   3   5
ATOM      5  C   UNL     1      37.729  17.471  24.820  1.00  0.00     0.015 C 
BRANCH   5   6
ATOM      6  C   UNL     1      38.891  16.493  25.067  1.00  0.00     0.028 C 
BRANCH   6   7
ATOM      7  C   UNL     1      40.191  17.055  24.548  1.00  0.00    -0.028 C 
ATOM      8  C   UNL     1      41.153  17.645  25.292  1.00  0.00    -0.070 CG0
ATOM      9  C   UNL     1      42.448  17.998  24.600  1.00  0.00     0.039 C 
ATOM     10  G   UNL     1      41.056  17.818  26.798  1.00  0.00     0.000 G0
ENDBRANCH   6   7
ENDBRANCH   5   6
ENDBRANCH   3   5
ENDBRANCH   1   3
BRANCH   1  11
ATOM     11  C   UNL     1      39.006  20.653  26.335  1.00  0.00     0.087 C 
BRANCH  11  12
ATOM     12  C   UNL     1      39.505  19.903  27.599  1.00  0.00     0.066 C 
BRANCH  12  13
ATOM     13  C   UNL     1      40.856  19.244  27.295  1.00  0.00     0.140 C 
ATOM     14  O   UNL     1      41.850  19.946  27.414  1.00  0.00    -0.299 OA
BRANCH  13  15
ATOM     15  C   UNL     1      41.084  17.819  26.805  1.00  0.00     0.106 CG0
ATOM     16  G   UNL     1      41.146  17.640  25.298  1.00  0.00     0.000 G0
ENDBRANCH  13  15
ENDBRANCH  12  13
BRANCH  12  17
ATOM     17  C   UNL     1      39.413  20.717  28.936  1.00  0.00    -0.006 C 
ATOM     18  C   UNL     1      38.020  20.570  29.580  1.00  0.00     0.008 C 
ATOM     19  C   UNL     1      39.683  22.222  28.751  1.00  0.00     0.008 C 
ENDBRANCH  12  17
ENDBRANCH  11  12
ENDBRANCH   1  11
TORSDOF 1
ENDMDL
MODEL 9
REMARK VINA RESULT:    -3.393      3.627      5.598
REMARK INTER + INTRA:          -5.809
REMARK INTER:                  -5.400
REMARK INTRA:                  -0.409
REMARK UNBOUND:                -0.631
REMARK SMILES CC1=CCC[C@H](C)C(=O)C[C@H](C(C)C)C(=O)C1
REMARK SMILES IDX 8 1 9 2 6 3 7 4 5 5 4 6 3 7 2 8 1 9 10 11 11 12 15 13 16 14
REMARK SMILES IDX 17 15 12 17 13 18 14 19
REMARK H PARENT
REMARK Flexibility Score: 70.00
ROOT
ATOM      1  C   UNL     1      38.538  18.699  25.455  1.00  0.00     0.136 C 
ATOM      2  O   UNL     1      39.201  18.085  24.631  1.00  0.00    -0.299 OA
ENDROOT
BRANCH   1   3
ATOM      3  C   UNL     1      37.357  19.535  25.004  1.00  0.00     0.053 C 
ATOM      4  C   UNL     1      36.116  19.139  25.812  1.00  0.00     0.016 C 
BRANCH   3   5
ATOM      5  C   UNL     1      37.611  21.054  25.123  1.00  0.00     0.015 C 
BRANCH   5   6
ATOM      6  C   UNL     1      36.659  21.758  26.105  1.00  0.00     0.028 C 
BRANCH   6   7
ATOM      7  C   UNL     1      37.385  22.814  26.900  1.00  0.00    -0.028 C 
ATOM      8  C   UNL     1      38.121  22.602  28.013  1.00  0.00    -0.070 CG0
ATOM      9  C   UNL     1      38.896  23.774  28.568  1.00  0.00     0.039 C 
ATOM     10  G   UNL     1      38.331  21.229  28.627  1.00  0.00     0.000 G0
ENDBRANCH   6   7
ENDBRANCH   5   6
ENDBRANCH   3   5
ENDBRANCH   1   3
BRANCH   1  11
ATOM     11  C   UNL     1      38.964  18.702  26.904  1.00  0.00     0.087 C 
BRANCH  11  12
ATOM     12  C   UNL     1      40.105  19.703  27.231  1.00  0.00     0.066 C 
BRANCH  12  13
ATOM     13  C   UNL     1      39.689  20.571  28.425  1.00  0.00     0.140 C 
ATOM     14  O   UNL     1      40.520  20.723  29.310  1.00  0.00    -0.299 OA
BRANCH  13  15
ATOM     15  C   UNL     1      38.328  21.218  28.650  1.00  0.00     0.106 CG0
ATOM     16  G   UNL     1      38.138  22.591  28.029  1.00  0.00     0.000 G0
ENDBRANCH  13  15
ENDBRANCH  12  13
BRANCH  12  17
ATOM     17  C   UNL     1      41.542  19.079  27.290  1.00  0.00    -0.006 C 
ATOM     18  C   UNL     1      42.421  19.598  26.136  1.00  0.00     0.008 C 
ATOM     19  C   UNL     1      41.539  17.540  27.217  1.00  0.00     0.008 C 
ENDBRANCH  12  17
ENDBRANCH  11  12
ENDBRANCH   1  11
TORSDOF 1
ENDMDL
