MODEL 1
REMARK VINA RESULT:    -2.951      0.000      0.000
REMARK INTER + INTRA:          -3.599
REMARK INTER:                  -3.468
REMARK INTRA:                  -0.131
REMARK UNBOUND:                -0.131
REMARK SMILES O=C([O-])CCC(=O)[O-]
REMARK SMILES IDX 4 1 2 2 1 3 3 4 5 5 6 6 7 7 8 8
REMARK H PARENT
REMARK Flexibility Score: inf
ROOT
ATOM      1  C   UNL     1      83.142  -4.912 -13.727  1.00  0.00     0.059 C 
ENDROOT
BRANCH   1   2
ATOM      2  C   UNL     1      83.642  -6.045 -14.571  1.00  0.00     0.042 C 
ATOM      3  O   UNL     1      83.421  -6.057 -15.811  1.00  0.00    -0.550 OA
ATOM      4  O   UNL     1      84.386  -7.066 -13.994  1.00  0.00    -0.550 OA
ENDBRANCH   1   2
BRANCH   1   5
ATOM      5  C   UNL     1      81.902  -5.315 -12.921  1.00  0.00     0.059 C 
BRANCH   5   6
ATOM      6  C   UNL     1      80.650  -5.175 -13.730  1.00  0.00     0.042 C 
ATOM      7  O   UNL     1      80.107  -4.048 -13.868  1.00  0.00    -0.550 OA
ATOM      8  O   UNL     1      80.105  -6.284 -14.366  1.00  0.00    -0.550 OA
ENDBRANCH   5   6
ENDBRANCH   1   5
TORSDOF 3
ENDMDL
MODEL 2
REMARK VINA RESULT:    -2.926      0.185      3.568
REMARK INTER + INTRA:          -3.571
REMARK INTER:                  -3.431
REMARK INTRA:                  -0.140
REMARK UNBOUND:                -0.131
REMARK SMILES O=C([O-])CCC(=O)[O-]
REMARK SMILES IDX 4 1 2 2 1 3 3 4 5 5 6 6 7 7 8 8
REMARK H PARENT
REMARK Flexibility Score: inf
ROOT
ATOM      1  C   UNL     1      81.748  -5.257 -12.902  1.00  0.00     0.059 C 
ENDROOT
BRANCH   1   2
ATOM      2  C   UNL     1      80.582  -5.062 -13.824  1.00  0.00     0.042 C 
ATOM      3  O   UNL     1      80.168  -3.902 -14.086  1.00  0.00    -0.550 OA
ATOM      4  O   UNL     1      79.979  -6.160 -14.423  1.00  0.00    -0.550 OA
ENDBRANCH   1   2
BRANCH   1   5
ATOM      5  C   UNL     1      83.070  -4.885 -13.581  1.00  0.00     0.059 C 
BRANCH   5   6
ATOM      6  C   UNL     1      83.578  -5.998 -14.445  1.00  0.00     0.042 C 
ATOM      7  O   UNL     1      84.196  -6.968 -13.931  1.00  0.00    -0.550 OA
ATOM      8  O   UNL     1      83.335  -5.984 -15.812  1.00  0.00    -0.550 OA
ENDBRANCH   5   6
ENDBRANCH   1   5
TORSDOF 3
ENDMDL
MODEL 3
REMARK VINA RESULT:    -2.917      0.163      3.640
REMARK INTER + INTRA:          -3.560
REMARK INTER:                  -3.440
REMARK INTRA:                  -0.120
REMARK UNBOUND:                -0.131
REMARK SMILES O=C([O-])CCC(=O)[O-]
REMARK SMILES IDX 4 1 2 2 1 3 3 4 5 5 6 6 7 7 8 8
REMARK H PARENT
REMARK Flexibility Score: inf
ROOT
ATOM      1  C   UNL     1      81.820  -5.339 -12.956  1.00  0.00     0.059 C 
ENDROOT
BRANCH   1   2
ATOM      2  C   UNL     1      80.603  -5.117 -13.804  1.00  0.00     0.042 C 
ATOM      3  O   UNL     1      79.937  -6.098 -14.227  1.00  0.00    -0.550 OA
ATOM      4  O   UNL     1      80.184  -3.825 -14.093  1.00  0.00    -0.550 OA
ENDBRANCH   1   2
BRANCH   1   5
ATOM      5  C   UNL     1      83.101  -4.934 -13.693  1.00  0.00     0.059 C 
BRANCH   5   6
ATOM      6  C   UNL     1      83.619  -6.048 -14.549  1.00  0.00     0.042 C 
ATOM      7  O   UNL     1      83.405  -6.046 -15.790  1.00  0.00    -0.550 OA
ATOM      8  O   UNL     1      84.374  -7.067 -13.983  1.00  0.00    -0.550 OA
ENDBRANCH   5   6
ENDBRANCH   1   5
TORSDOF 3
ENDMDL
MODEL 4
REMARK VINA RESULT:    -2.907      0.323      1.188
REMARK INTER + INTRA:          -3.548
REMARK INTER:                  -3.409
REMARK INTRA:                  -0.139
REMARK UNBOUND:                -0.131
REMARK SMILES O=C([O-])CCC(=O)[O-]
REMARK SMILES IDX 4 1 2 2 1 3 3 4 5 5 6 6 7 7 8 8
REMARK H PARENT
REMARK Flexibility Score: inf
ROOT
ATOM      1  C   UNL     1      83.315  -4.969 -13.705  1.00  0.00     0.059 C 
ENDROOT
BRANCH   1   2
ATOM      2  C   UNL     1      83.794  -6.134 -14.517  1.00  0.00     0.042 C 
ATOM      3  O   UNL     1      84.383  -7.097 -13.960  1.00  0.00    -0.550 OA
ATOM      4  O   UNL     1      83.553  -6.173 -15.885  1.00  0.00    -0.550 OA
ENDBRANCH   1   2
BRANCH   1   5
ATOM      5  C   UNL     1      81.981  -5.273 -13.016  1.00  0.00     0.059 C 
BRANCH   5   6
ATOM      6  C   UNL     1      80.829  -5.139 -13.964  1.00  0.00     0.042 C 
ATOM      7  O   UNL     1      80.574  -4.028 -14.499  1.00  0.00    -0.550 OA
ATOM      8  O   UNL     1      80.061  -6.250 -14.288  1.00  0.00    -0.550 OA
ENDBRANCH   5   6
ENDBRANCH   1   5
TORSDOF 3
ENDMDL
MODEL 5
REMARK VINA RESULT:    -2.898     22.202     23.678
REMARK INTER + INTRA:          -3.537
REMARK INTER:                  -3.450
REMARK INTRA:                  -0.087
REMARK UNBOUND:                -0.131
REMARK SMILES O=C([O-])CCC(=O)[O-]
REMARK SMILES IDX 4 1 2 2 1 3 3 4 5 5 6 6 7 7 8 8
REMARK H PARENT
REMARK Flexibility Score: inf
ROOT
ATOM      1  C   UNL     1      98.226   4.516 -26.950  1.00  0.00     0.059 C 
ENDROOT
BRANCH   1   2
ATOM      2  C   UNL     1      98.643   3.479 -25.950  1.00  0.00     0.042 C 
ATOM      3  O   UNL     1      98.632   3.745 -24.719  1.00  0.00    -0.550 OA
ATOM      4  O   UNL     1      99.003   2.208 -26.377  1.00  0.00    -0.550 OA
ENDBRANCH   1   2
BRANCH   1   5
ATOM      5  C   UNL     1      99.369   4.864 -27.909  1.00  0.00     0.059 C 
BRANCH   5   6
ATOM      6  C   UNL     1      99.148   4.270 -29.266  1.00  0.00     0.042 C 
ATOM      7  O   UNL     1     100.125   3.849 -29.940  1.00  0.00    -0.550 OA
ATOM      8  O   UNL     1      97.860   4.145 -29.770  1.00  0.00    -0.550 OA
ENDBRANCH   5   6
ENDBRANCH   1   5
TORSDOF 3
ENDMDL
MODEL 6
REMARK VINA RESULT:    -2.842     21.893     23.274
REMARK INTER + INTRA:          -3.471
REMARK INTER:                  -3.385
REMARK INTRA:                  -0.086
REMARK UNBOUND:                -0.131
REMARK SMILES O=C([O-])CCC(=O)[O-]
REMARK SMILES IDX 4 1 2 2 1 3 3 4 5 5 6 6 7 7 8 8
REMARK H PARENT
REMARK Flexibility Score: inf
ROOT
ATOM      1  C   UNL     1      98.263   5.052 -28.137  1.00  0.00     0.059 C 
ENDROOT
BRANCH   1   2
ATOM      2  C   UNL     1      98.402   4.173 -29.343  1.00  0.00     0.042 C 
ATOM      3  O   UNL     1      97.378   3.729 -29.926  1.00  0.00    -0.550 OA
ATOM      4  O   UNL     1      99.663   3.877 -29.845  1.00  0.00    -0.550 OA
ENDBRANCH   1   2
BRANCH   1   5
ATOM      5  C   UNL     1      99.045   4.498 -26.942  1.00  0.00     0.059 C 
BRANCH   5   6
ATOM      6  C   UNL     1      98.149   3.776 -25.984  1.00  0.00     0.042 C 
ATOM      7  O   UNL     1      96.934   3.599 -26.263  1.00  0.00    -0.550 OA
ATOM      8  O   UNL     1      98.665   3.264 -24.801  1.00  0.00    -0.550 OA
ENDBRANCH   5   6
ENDBRANCH   1   5
TORSDOF 3
ENDMDL
MODEL 7
REMARK VINA RESULT:    -2.840      1.830      2.365
REMARK INTER + INTRA:          -3.469
REMARK INTER:                  -3.299
REMARK INTRA:                  -0.170
REMARK UNBOUND:                -0.131
REMARK SMILES O=C([O-])CCC(=O)[O-]
REMARK SMILES IDX 4 1 2 2 1 3 3 4 5 5 6 6 7 7 8 8
REMARK H PARENT
REMARK Flexibility Score: inf
ROOT
ATOM      1  C   UNL     1      83.657  -6.364 -14.327  1.00  0.00     0.059 C 
ENDROOT
BRANCH   1   2
ATOM      2  C   UNL     1      82.952  -6.048 -15.612  1.00  0.00     0.042 C 
ATOM      3  O   UNL     1      83.527  -5.363 -16.499  1.00  0.00    -0.550 OA
ATOM      4  O   UNL     1      81.676  -6.544 -15.845  1.00  0.00    -0.550 OA
ENDBRANCH   1   2
BRANCH   1   5
ATOM      5  C   UNL     1      83.818  -5.117 -13.452  1.00  0.00     0.059 C 
BRANCH   5   6
ATOM      6  C   UNL     1      82.497  -4.471 -13.166  1.00  0.00     0.042 C 
ATOM      7  O   UNL     1      81.601  -5.105 -12.550  1.00  0.00    -0.550 OA
ATOM      8  O   UNL     1      82.271  -3.154 -13.546  1.00  0.00    -0.550 OA
ENDBRANCH   5   6
ENDBRANCH   1   5
TORSDOF 3
ENDMDL
MODEL 8
REMARK VINA RESULT:    -2.814     21.567     22.896
REMARK INTER + INTRA:          -3.439
REMARK INTER:                  -3.335
REMARK INTRA:                  -0.104
REMARK UNBOUND:                -0.131
REMARK SMILES O=C([O-])CCC(=O)[O-]
REMARK SMILES IDX 4 1 2 2 1 3 3 4 5 5 6 6 7 7 8 8
REMARK H PARENT
REMARK Flexibility Score: inf
ROOT
ATOM      1  C   UNL     1      98.496   3.757 -25.617  1.00  0.00     0.059 C 
ENDROOT
BRANCH   1   2
ATOM      2  C   UNL     1      98.806   2.296 -25.483  1.00  0.00     0.042 C 
ATOM      3  O   UNL     1      98.624   1.517 -26.455  1.00  0.00    -0.550 OA
ATOM      4  O   UNL     1      99.334   1.805 -24.296  1.00  0.00    -0.550 OA
ENDBRANCH   1   2
BRANCH   1   5
ATOM      5  C   UNL     1      97.843   4.072 -26.967  1.00  0.00     0.059 C 
BRANCH   5   6
ATOM      6  C   UNL     1      98.751   4.880 -27.842  1.00  0.00     0.042 C 
ATOM      7  O   UNL     1      98.272   5.623 -28.738  1.00  0.00    -0.550 OA
ATOM      8  O   UNL     1     100.125   4.843 -27.641  1.00  0.00    -0.550 OA
ENDBRANCH   5   6
ENDBRANCH   1   5
TORSDOF 3
ENDMDL
MODEL 9
REMARK VINA RESULT:    -2.805     21.476     22.896
REMARK INTER + INTRA:          -3.428
REMARK INTER:                  -3.336
REMARK INTRA:                  -0.091
REMARK UNBOUND:                -0.131
REMARK SMILES O=C([O-])CCC(=O)[O-]
REMARK SMILES IDX 4 1 2 2 1 3 3 4 5 5 6 6 7 7 8 8
REMARK H PARENT
REMARK Flexibility Score: inf
ROOT
ATOM      1  C   UNL     1      97.840   4.140 -26.926  1.00  0.00     0.059 C 
ENDROOT
BRANCH   1   2
ATOM      2  C   UNL     1      98.763   4.847 -27.872  1.00  0.00     0.042 C 
ATOM      3  O   UNL     1      99.953   5.087 -27.537  1.00  0.00    -0.550 OA
ATOM      4  O   UNL     1      98.318   5.206 -29.138  1.00  0.00    -0.550 OA
ENDBRANCH   1   2
BRANCH   1   5
ATOM      5  C   UNL     1      98.539   3.803 -25.604  1.00  0.00     0.059 C 
BRANCH   5   6
ATOM      6  C   UNL     1      98.689   2.324 -25.421  1.00  0.00     0.042 C 
ATOM      7  O   UNL     1      98.331   1.533 -26.333  1.00  0.00    -0.550 OA
ATOM      8  O   UNL     1      99.262   1.822 -24.261  1.00  0.00    -0.550 OA
ENDBRANCH   5   6
ENDBRANCH   1   5
TORSDOF 3
ENDMDL
