MODEL 1
REMARK VINA RESULT:    -4.985      0.000      0.000
REMARK INTER + INTRA:          -5.765
REMARK INTER:                  -5.713
REMARK INTRA:                  -0.052
REMARK UNBOUND:                -0.052
REMARK SMILES O=C([O-])c1cc(O)c(O)c(O)c1
REMARK SMILES IDX 4 1 5 2 12 3 6 4 10 5 8 6 2 7 1 8 3 9 7 10 11 12 9 14
REMARK H PARENT 7 11 11 13 9 15
REMARK Flexibility Score: inf
ROOT
ATOM      1  C   UNL     1     -27.475 -52.020  23.528  1.00  0.00     0.005 A 
ATOM      2  C   UNL     1     -28.603 -51.464  22.899  1.00  0.00     0.060 A 
ATOM      3  C   UNL     1     -27.409 -53.414  23.701  1.00  0.00     0.060 A 
ATOM      4  C   UNL     1     -29.647 -52.284  22.449  1.00  0.00     0.162 A 
ATOM      5  C   UNL     1     -28.450 -54.238  23.253  1.00  0.00     0.162 A 
ATOM      6  C   UNL     1     -29.570 -53.675  22.627  1.00  0.00     0.200 A 
ENDROOT
BRANCH   1   7
ATOM      7  C   UNL     1     -26.372 -51.156  24.003  1.00  0.00     0.072 C 
ATOM      8  O   UNL     1     -25.534 -51.589  24.838  1.00  0.00    -0.545 OA
ATOM      9  O   UNL     1     -26.245 -49.853  23.535  1.00  0.00    -0.545 OA
ENDBRANCH   1   7
BRANCH   4  10
ATOM     10  O   UNL     1     -30.760 -51.721  21.827  1.00  0.00    -0.504 OA
ATOM     11  H   UNL     1     -31.703 -51.915  22.148  1.00  0.00     0.293 HD
ENDBRANCH   4  10
BRANCH   5  12
ATOM     12  O   UNL     1     -28.379 -55.619  23.426  1.00  0.00    -0.504 OA
ATOM     13  H   UNL     1     -27.532 -56.136  23.223  1.00  0.00     0.293 HD
ENDBRANCH   5  12
BRANCH   6  14
ATOM     14  O   UNL     1     -30.596 -54.512  22.188  1.00  0.00    -0.502 OA
ATOM     15  H   UNL     1     -31.240 -54.959  22.831  1.00  0.00     0.293 HD
ENDBRANCH   6  14
TORSDOF 4
ENDMDL
MODEL 2
REMARK VINA RESULT:    -4.949      7.457      9.642
REMARK INTER + INTRA:          -5.725
REMARK INTER:                  -5.674
REMARK INTRA:                  -0.051
REMARK UNBOUND:                -0.052
REMARK SMILES O=C([O-])c1cc(O)c(O)c(O)c1
REMARK SMILES IDX 4 1 5 2 12 3 6 4 10 5 8 6 2 7 1 8 3 9 7 10 11 12 9 14
REMARK H PARENT 7 11 11 13 9 15
REMARK Flexibility Score: inf
ROOT
ATOM      1  C   UNL     1     -33.284 -45.943  23.593  1.00  0.00     0.005 A 
ATOM      2  C   UNL     1     -32.099 -46.442  23.023  1.00  0.00     0.060 A 
ATOM      3  C   UNL     1     -33.447 -44.553  23.719  1.00  0.00     0.060 A 
ATOM      4  C   UNL     1     -31.095 -45.568  22.584  1.00  0.00     0.162 A 
ATOM      5  C   UNL     1     -32.446 -43.675  23.282  1.00  0.00     0.162 A 
ATOM      6  C   UNL     1     -31.269 -44.180  22.714  1.00  0.00     0.200 A 
ENDROOT
BRANCH   1   7
ATOM      7  C   UNL     1     -34.345 -46.865  24.056  1.00  0.00     0.072 C 
ATOM      8  O   UNL     1     -34.465 -48.011  23.547  1.00  0.00    -0.545 OA
ATOM      9  O   UNL     1     -35.225 -46.479  25.061  1.00  0.00    -0.545 OA
ENDBRANCH   1   7
BRANCH   4  10
ATOM     10  O   UNL     1     -29.925 -46.073  22.020  1.00  0.00    -0.504 OA
ATOM     11  H   UNL     1     -29.155 -46.399  22.595  1.00  0.00     0.293 HD
ENDBRANCH   4  10
BRANCH   5  12
ATOM     12  O   UNL     1     -32.613 -42.297  23.409  1.00  0.00    -0.504 OA
ATOM     13  H   UNL     1     -32.597 -41.685  22.602  1.00  0.00     0.293 HD
ENDBRANCH   5  12
BRANCH   6  14
ATOM     14  O   UNL     1     -30.284 -43.290  22.286  1.00  0.00    -0.502 OA
ATOM     15  H   UNL     1     -29.299 -43.530  22.295  1.00  0.00     0.293 HD
ENDBRANCH   6  14
TORSDOF 4
ENDMDL
MODEL 3
REMARK VINA RESULT:    -4.922      7.403      9.322
REMARK INTER + INTRA:          -5.693
REMARK INTER:                  -5.642
REMARK INTRA:                  -0.051
REMARK UNBOUND:                -0.052
REMARK SMILES O=C([O-])c1cc(O)c(O)c(O)c1
REMARK SMILES IDX 4 1 5 2 12 3 6 4 10 5 8 6 2 7 1 8 3 9 7 10 11 12 9 14
REMARK H PARENT 7 11 11 13 9 15
REMARK Flexibility Score: inf
ROOT
ATOM      1  C   UNL     1     -33.321 -46.006  23.634  1.00  0.00     0.005 A 
ATOM      2  C   UNL     1     -33.450 -44.609  23.726  1.00  0.00     0.060 A 
ATOM      3  C   UNL     1     -32.164 -46.547  23.049  1.00  0.00     0.060 A 
ATOM      4  C   UNL     1     -32.439 -43.766  23.243  1.00  0.00     0.162 A 
ATOM      5  C   UNL     1     -31.151 -45.709  22.565  1.00  0.00     0.162 A 
ATOM      6  C   UNL     1     -31.286 -44.318  22.660  1.00  0.00     0.200 A 
ENDROOT
BRANCH   1   7
ATOM      7  C   UNL     1     -34.387 -46.897  24.144  1.00  0.00     0.072 C 
ATOM      8  O   UNL     1     -34.553 -48.044  23.650  1.00  0.00    -0.545 OA
ATOM      9  O   UNL     1     -35.221 -46.480  25.175  1.00  0.00    -0.545 OA
ENDBRANCH   1   7
BRANCH   4  10
ATOM     10  O   UNL     1     -32.576 -42.382  23.339  1.00  0.00    -0.504 OA
ATOM     11  H   UNL     1     -32.042 -41.752  22.750  1.00  0.00     0.293 HD
ENDBRANCH   4  10
BRANCH   5  12
ATOM     12  O   UNL     1     -30.005 -46.251  21.986  1.00  0.00    -0.504 OA
ATOM     13  H   UNL     1     -29.329 -46.771  22.533  1.00  0.00     0.293 HD
ENDBRANCH   5  12
BRANCH   6  14
ATOM     14  O   UNL     1     -30.267 -43.500  22.172  1.00  0.00    -0.502 OA
ATOM     15  H   UNL     1     -29.327 -43.525  22.551  1.00  0.00     0.293 HD
ENDBRANCH   6  14
TORSDOF 4
ENDMDL
MODEL 4
REMARK VINA RESULT:    -4.904      0.199      2.598
REMARK INTER + INTRA:          -5.673
REMARK INTER:                  -5.622
REMARK INTRA:                  -0.051
REMARK UNBOUND:                -0.052
REMARK SMILES O=C([O-])c1cc(O)c(O)c(O)c1
REMARK SMILES IDX 4 1 5 2 12 3 6 4 10 5 8 6 2 7 1 8 3 9 7 10 11 12 9 14
REMARK H PARENT 7 11 11 13 9 15
REMARK Flexibility Score: inf
ROOT
ATOM      1  C   UNL     1     -27.461 -52.121  23.630  1.00  0.00     0.005 A 
ATOM      2  C   UNL     1     -27.340 -53.519  23.725  1.00  0.00     0.060 A 
ATOM      3  C   UNL     1     -28.634 -51.574  23.083  1.00  0.00     0.060 A 
ATOM      4  C   UNL     1     -28.373 -54.356  23.282  1.00  0.00     0.162 A 
ATOM      5  C   UNL     1     -29.670 -52.407  22.639  1.00  0.00     0.162 A 
ATOM      6  C   UNL     1     -29.541 -53.799  22.738  1.00  0.00     0.200 A 
ENDROOT
BRANCH   1   7
ATOM      7  C   UNL     1     -26.371 -51.236  24.097  1.00  0.00     0.072 C 
ATOM      8  O   UNL     1     -26.238 -50.077  23.619  1.00  0.00    -0.545 OA
ATOM      9  O   UNL     1     -25.479 -51.669  25.071  1.00  0.00    -0.545 OA
ENDBRANCH   1   7
BRANCH   4  10
ATOM     10  O   UNL     1     -28.243 -55.741  23.382  1.00  0.00    -0.504 OA
ATOM     11  H   UNL     1     -27.439 -56.168  23.829  1.00  0.00     0.293 HD
ENDBRANCH   4  10
BRANCH   5  12
ATOM     12  O   UNL     1     -30.832 -51.859  22.098  1.00  0.00    -0.504 OA
ATOM     13  H   UNL     1     -31.616 -51.596  22.683  1.00  0.00     0.293 HD
ENDBRANCH   5  12
BRANCH   6  14
ATOM     14  O   UNL     1     -30.583 -54.612  22.290  1.00  0.00    -0.502 OA
ATOM     15  H   UNL     1     -30.813 -54.702  21.307  1.00  0.00     0.293 HD
ENDBRANCH   6  14
TORSDOF 4
ENDMDL
MODEL 5
REMARK VINA RESULT:    -4.820     13.940     14.088
REMARK INTER + INTRA:          -5.577
REMARK INTER:                  -5.524
REMARK INTRA:                  -0.053
REMARK UNBOUND:                -0.052
REMARK SMILES O=C([O-])c1cc(O)c(O)c(O)c1
REMARK SMILES IDX 4 1 5 2 12 3 6 4 10 5 8 6 2 7 1 8 3 9 7 10 11 12 9 14
REMARK H PARENT 7 11 11 13 9 15
REMARK Flexibility Score: inf
ROOT
ATOM      1  C   UNL     1     -33.855 -46.434  34.320  1.00  0.00     0.005 A 
ATOM      2  C   UNL     1     -35.201 -46.432  33.912  1.00  0.00     0.060 A 
ATOM      3  C   UNL     1     -33.361 -47.539  35.034  1.00  0.00     0.060 A 
ATOM      4  C   UNL     1     -36.039 -47.514  34.211  1.00  0.00     0.162 A 
ATOM      5  C   UNL     1     -34.195 -48.624  35.335  1.00  0.00     0.162 A 
ATOM      6  C   UNL     1     -35.535 -48.614  34.925  1.00  0.00     0.200 A 
ENDROOT
BRANCH   1   7
ATOM      7  C   UNL     1     -32.969 -45.292  34.005  1.00  0.00     0.072 C 
ATOM      8  O   UNL     1     -31.808 -45.228  34.492  1.00  0.00    -0.545 OA
ATOM      9  O   UNL     1     -33.404 -44.273  33.165  1.00  0.00    -0.545 OA
ENDBRANCH   1   7
BRANCH   4  10
ATOM     10  O   UNL     1     -37.372 -47.502  33.802  1.00  0.00    -0.504 OA
ATOM     11  H   UNL     1     -38.113 -47.861  34.394  1.00  0.00     0.293 HD
ENDBRANCH   4  10
BRANCH   5  12
ATOM     12  O   UNL     1     -33.700 -49.718  36.044  1.00  0.00    -0.504 OA
ATOM     13  H   UNL     1     -32.710 -49.822  36.234  1.00  0.00     0.293 HD
ENDBRANCH   5  12
BRANCH   6  14
ATOM     14  O   UNL     1     -36.350 -49.703  35.235  1.00  0.00    -0.502 OA
ATOM     15  H   UNL     1     -36.856 -49.766  36.111  1.00  0.00     0.293 HD
ENDBRANCH   6  14
TORSDOF 4
ENDMDL
MODEL 6
REMARK VINA RESULT:    -4.809     13.917     14.277
REMARK INTER + INTRA:          -5.563
REMARK INTER:                  -5.511
REMARK INTRA:                  -0.052
REMARK UNBOUND:                -0.052
REMARK SMILES O=C([O-])c1cc(O)c(O)c(O)c1
REMARK SMILES IDX 4 1 5 2 12 3 6 4 10 5 8 6 2 7 1 8 3 9 7 10 11 12 9 14
REMARK H PARENT 7 11 11 13 9 15
REMARK Flexibility Score: inf
ROOT
ATOM      1  C   UNL     1     -33.822 -46.412  34.294  1.00  0.00     0.005 A 
ATOM      2  C   UNL     1     -33.305 -47.507  35.009  1.00  0.00     0.060 A 
ATOM      3  C   UNL     1     -35.173 -46.430  33.904  1.00  0.00     0.060 A 
ATOM      4  C   UNL     1     -34.122 -48.600  35.331  1.00  0.00     0.162 A 
ATOM      5  C   UNL     1     -35.993 -47.520  34.223  1.00  0.00     0.162 A 
ATOM      6  C   UNL     1     -35.470 -48.606  34.936  1.00  0.00     0.200 A 
ENDROOT
BRANCH   1   7
ATOM      7  C   UNL     1     -32.961 -45.258  33.954  1.00  0.00     0.072 C 
ATOM      8  O   UNL     1     -33.349 -44.392  33.125  1.00  0.00    -0.545 OA
ATOM      9  O   UNL     1     -31.712 -45.112  34.547  1.00  0.00    -0.545 OA
ENDBRANCH   1   7
BRANCH   4  10
ATOM     10  O   UNL     1     -33.599 -49.680  36.041  1.00  0.00    -0.504 OA
ATOM     11  H   UNL     1     -34.199 -50.331  36.536  1.00  0.00     0.293 HD
ENDBRANCH   4  10
BRANCH   5  12
ATOM     12  O   UNL     1     -37.331 -47.532  33.834  1.00  0.00    -0.504 OA
ATOM     13  H   UNL     1     -37.993 -48.187  34.232  1.00  0.00     0.293 HD
ENDBRANCH   5  12
BRANCH   6  14
ATOM     14  O   UNL     1     -36.302 -49.683  35.244  1.00  0.00    -0.502 OA
ATOM     15  H   UNL     1     -36.387 -50.490  34.637  1.00  0.00     0.293 HD
ENDBRANCH   6  14
TORSDOF 4
ENDMDL
MODEL 7
REMARK VINA RESULT:    -4.766      1.824      3.291
REMARK INTER + INTRA:          -5.515
REMARK INTER:                  -5.468
REMARK INTRA:                  -0.046
REMARK UNBOUND:                -0.052
REMARK SMILES O=C([O-])c1cc(O)c(O)c(O)c1
REMARK SMILES IDX 4 1 5 2 12 3 6 4 10 5 8 6 2 7 1 8 3 9 7 10 11 12 9 14
REMARK H PARENT 7 11 11 13 9 15
REMARK Flexibility Score: inf
ROOT
ATOM      1  C   UNL     1     -26.194 -51.571  24.342  1.00  0.00     0.005 A 
ATOM      2  C   UNL     1     -25.938 -52.288  25.524  1.00  0.00     0.060 A 
ATOM      3  C   UNL     1     -27.042 -52.134  23.372  1.00  0.00     0.060 A 
ATOM      4  C   UNL     1     -26.520 -53.546  25.735  1.00  0.00     0.162 A 
ATOM      5  C   UNL     1     -27.625 -53.391  23.579  1.00  0.00     0.162 A 
ATOM      6  C   UNL     1     -27.366 -54.099  24.759  1.00  0.00     0.200 A 
ENDROOT
BRANCH   1   7
ATOM      7  C   UNL     1     -25.582 -50.243  24.117  1.00  0.00     0.072 C 
ATOM      8  O   UNL     1     -24.328 -50.113  24.084  1.00  0.00    -0.545 OA
ATOM      9  O   UNL     1     -26.380 -49.119  23.939  1.00  0.00    -0.545 OA
ENDBRANCH   1   7
BRANCH   4  10
ATOM     10  O   UNL     1     -26.260 -54.249  26.911  1.00  0.00    -0.504 OA
ATOM     11  H   UNL     1     -25.706 -53.845  27.659  1.00  0.00     0.293 HD
ENDBRANCH   4  10
BRANCH   5  12
ATOM     12  O   UNL     1     -28.465 -53.944  22.614  1.00  0.00    -0.504 OA
ATOM     13  H   UNL     1     -28.113 -54.244  21.713  1.00  0.00     0.293 HD
ENDBRANCH   5  12
BRANCH   6  14
ATOM     14  O   UNL     1     -27.956 -55.349  24.947  1.00  0.00    -0.502 OA
ATOM     15  H   UNL     1     -28.548 -55.777  24.244  1.00  0.00     0.293 HD
ENDBRANCH   6  14
TORSDOF 4
ENDMDL
MODEL 8
REMARK VINA RESULT:    -4.692     12.928     13.270
REMARK INTER + INTRA:          -5.430
REMARK INTER:                  -5.377
REMARK INTRA:                  -0.053
REMARK UNBOUND:                -0.052
REMARK SMILES O=C([O-])c1cc(O)c(O)c(O)c1
REMARK SMILES IDX 4 1 5 2 12 3 6 4 10 5 8 6 2 7 1 8 3 9 7 10 11 12 9 14
REMARK H PARENT 7 11 11 13 9 15
REMARK Flexibility Score: inf
ROOT
ATOM      1  C   UNL     1     -34.487 -45.330  32.609  1.00  0.00     0.005 A 
ATOM      2  C   UNL     1     -34.622 -44.299  31.664  1.00  0.00     0.060 A 
ATOM      3  C   UNL     1     -35.240 -46.506  32.448  1.00  0.00     0.060 A 
ATOM      4  C   UNL     1     -35.494 -44.439  30.574  1.00  0.00     0.162 A 
ATOM      5  C   UNL     1     -36.112 -46.651  31.361  1.00  0.00     0.162 A 
ATOM      6  C   UNL     1     -36.241 -45.619  30.423  1.00  0.00     0.200 A 
ENDROOT
BRANCH   1   7
ATOM      7  C   UNL     1     -33.568 -45.184  33.759  1.00  0.00     0.072 C 
ATOM      8  O   UNL     1     -33.519 -46.067  34.657  1.00  0.00    -0.545 OA
ATOM      9  O   UNL     1     -32.744 -44.069  33.866  1.00  0.00    -0.545 OA
ENDBRANCH   1   7
BRANCH   4  10
ATOM     10  O   UNL     1     -35.620 -43.410  29.642  1.00  0.00    -0.504 OA
ATOM     11  H   UNL     1     -36.415 -43.356  29.015  1.00  0.00     0.293 HD
ENDBRANCH   4  10
BRANCH   5  12
ATOM     12  O   UNL     1     -36.856 -47.819  31.206  1.00  0.00    -0.504 OA
ATOM     13  H   UNL     1     -36.679 -48.640  31.773  1.00  0.00     0.293 HD
ENDBRANCH   5  12
BRANCH   6  14
ATOM     14  O   UNL     1     -37.115 -45.781  29.348  1.00  0.00    -0.502 OA
ATOM     15  H   UNL     1     -38.096 -45.999  29.478  1.00  0.00     0.293 HD
ENDBRANCH   6  14
TORSDOF 4
ENDMDL
MODEL 9
REMARK VINA RESULT:    -4.654     12.978     13.473
REMARK INTER + INTRA:          -5.386
REMARK INTER:                  -5.334
REMARK INTRA:                  -0.052
REMARK UNBOUND:                -0.052
REMARK SMILES O=C([O-])c1cc(O)c(O)c(O)c1
REMARK SMILES IDX 4 1 5 2 12 3 6 4 10 5 8 6 2 7 1 8 3 9 7 10 11 12 9 14
REMARK H PARENT 7 11 11 13 9 15
REMARK Flexibility Score: inf
ROOT
ATOM      1  C   UNL     1     -34.295 -45.586  32.914  1.00  0.00     0.005 A 
ATOM      2  C   UNL     1     -35.126 -46.680  32.615  1.00  0.00     0.060 A 
ATOM      3  C   UNL     1     -34.339 -44.450  32.089  1.00  0.00     0.060 A 
ATOM      4  C   UNL     1     -35.989 -46.639  31.510  1.00  0.00     0.162 A 
ATOM      5  C   UNL     1     -35.199 -44.404  30.984  1.00  0.00     0.162 A 
ATOM      6  C   UNL     1     -36.025 -45.498  30.692  1.00  0.00     0.200 A 
ENDROOT
BRANCH   1   7
ATOM      7  C   UNL     1     -33.385 -45.628  34.080  1.00  0.00     0.072 C 
ATOM      8  O   UNL     1     -33.506 -46.526  34.956  1.00  0.00    -0.545 OA
ATOM      9  O   UNL     1     -32.382 -44.676  34.225  1.00  0.00    -0.545 OA
ENDBRANCH   1   7
BRANCH   4  10
ATOM     10  O   UNL     1     -36.809 -47.729  31.222  1.00  0.00    -0.504 OA
ATOM     11  H   UNL     1     -36.608 -48.357  30.452  1.00  0.00     0.293 HD
ENDBRANCH   4  10
BRANCH   5  12
ATOM     12  O   UNL     1     -35.239 -43.274  30.168  1.00  0.00    -0.504 OA
ATOM     13  H   UNL     1     -34.698 -42.445  30.384  1.00  0.00     0.293 HD
ENDBRANCH   5  12
BRANCH   6  14
ATOM     14  O   UNL     1     -36.874 -45.434  29.587  1.00  0.00    -0.502 OA
ATOM     15  H   UNL     1     -36.978 -46.208  28.941  1.00  0.00     0.293 HD
ENDBRANCH   6  14
TORSDOF 4
ENDMDL
