MODEL 1
REMARK VINA RESULT:    56.612      0.000      0.000
REMARK INTER + INTRA:          91.414
REMARK INTER:                  83.089
REMARK INTRA:                   8.326
REMARK UNBOUND:                 8.326
REMARK SMILES Cc1cc2c(C(C)C)c(O)c(O)c(C=O)c2c(O)c1-c1c(C)cc2c(C(C)C)c(O)c(O)c(C=O)c2c1O
REMARK SMILES IDX 1 1 2 2 3 3 4 4 16 5 13 6 11 7 9 8 5 9 17 10 19 11 20 12
REMARK SMILES IDX 37 13 21 14 36 15 23 16 22 17 24 18 33 19 25 20 31 21 29 22
REMARK SMILES IDX 38 23 34 25 35 26 26 27 27 28 28 29 32 30 30 32 18 34 6 36
REMARK SMILES IDX 7 37 8 38 14 39 15 40 10 41 12 43
REMARK H PARENT 38 24 32 31 30 33 18 35 10 42 12 44
REMARK Flexibility Score: inf
ROOT
ATOM      1  C   UNL     1      -5.908  34.728  20.655  1.00  0.00     0.045 C 
ATOM      2  C   UNL     1      -5.533  35.613  21.820  1.00  0.00    -0.039 A 
ATOM      3  C   UNL     1      -5.565  35.086  23.111  1.00  0.00     0.013 A 
ATOM      4  C   UNL     1      -5.219  35.856  24.243  1.00  0.00    -0.006 A 
ATOM      5  C   UNL     1      -4.713  37.178  24.046  1.00  0.00     0.039 A 
ATOM      6  C   UNL     1      -4.247  37.912  25.179  1.00  0.00     0.072 A 
ATOM      7  C   UNL     1      -4.217  37.301  26.450  1.00  0.00     0.169 A 
ATOM      8  C   UNL     1      -4.712  36.006  26.626  1.00  0.00     0.162 A 
ATOM      9  C   UNL     1      -5.327  35.315  25.561  1.00  0.00     0.008 A 
ATOM     10  C   UNL     1      -4.650  37.702  22.718  1.00  0.00     0.132 A 
ATOM     11  C   UNL     1      -5.081  36.927  21.620  1.00  0.00     0.031 A 
ENDROOT
BRANCH  11  12
ATOM     12  C   UNL     1      -5.014  37.483  20.243  1.00  0.00     0.031 A 
ATOM     13  C   UNL     1      -4.496  36.705  19.187  1.00  0.00     0.132 A 
ATOM     14  C   UNL     1      -5.504  38.773  19.989  1.00  0.00    -0.039 A 
ATOM     15  C   UNL     1      -4.398  37.246  17.869  1.00  0.00     0.039 A 
ATOM     16  C   UNL     1      -5.505  39.262  18.682  1.00  0.00     0.013 A 
ATOM     17  C   UNL     1      -6.104  39.612  21.091  1.00  0.00     0.045 C 
ATOM     18  C   UNL     1      -4.931  38.548  17.613  1.00  0.00    -0.006 A 
ATOM     19  C   UNL     1      -3.830  36.508  16.790  1.00  0.00     0.072 A 
ATOM     20  C   UNL     1      -4.903  39.087  16.288  1.00  0.00     0.008 A 
ATOM     21  C   UNL     1      -3.981  36.975  15.474  1.00  0.00     0.169 A 
ATOM     22  C   UNL     1      -4.563  38.220  15.220  1.00  0.00     0.162 A 
BRANCH  13  23
ATOM     23  O   UNL     1      -4.118  35.379  19.436  1.00  0.00    -0.507 OA
ATOM     24  H   UNL     1      -3.912  34.705  18.711  1.00  0.00     0.293 HD
ENDBRANCH  13  23
BRANCH  19  25
ATOM     25  C   UNL     1      -3.012  35.290  17.007  1.00  0.00     0.264 C 
ATOM     26  O   UNL     1      -2.481  34.678  16.042  1.00  0.00    -0.298 OA
ENDBRANCH  19  25
BRANCH  20  27
ATOM     27  C   UNL     1      -5.146  40.574  15.962  1.00  0.00     0.017 C 
ATOM     28  C   UNL     1      -5.921  41.350  17.047  1.00  0.00     0.012 C 
ATOM     29  C   UNL     1      -5.715  40.787  14.554  1.00  0.00     0.012 C 
ENDBRANCH  20  27
BRANCH  21  30
ATOM     30  O   UNL     1      -3.519  36.195  14.408  1.00  0.00    -0.504 OA
ATOM     31  H   UNL     1      -2.895  36.551  13.695  1.00  0.00     0.293 HD
ENDBRANCH  21  30
BRANCH  22  32
ATOM     32  O   UNL     1      -4.784  38.568  13.882  1.00  0.00    -0.504 OA
ATOM     33  H   UNL     1      -5.625  38.337  13.370  1.00  0.00     0.293 HD
ENDBRANCH  22  32
ENDBRANCH  11  12
BRANCH  10  34
ATOM     34  O   UNL     1      -4.140  38.985  22.484  1.00  0.00    -0.507 OA
ATOM     35  H   UNL     1      -4.650  39.840  22.662  1.00  0.00     0.293 HD
ENDBRANCH  10  34
BRANCH   9  36
ATOM     36  C   UNL     1      -6.077  33.999  25.839  1.00  0.00     0.017 C 
ATOM     37  C   UNL     1      -5.977  33.050  24.641  1.00  0.00     0.012 C 
ATOM     38  C   UNL     1      -5.646  33.299  27.143  1.00  0.00     0.012 C 
ENDBRANCH   9  36
BRANCH   6  39
ATOM     39  C   UNL     1      -3.780  39.309  25.069  1.00  0.00     0.264 C 
ATOM     40  O   UNL     1      -4.469  40.169  24.460  1.00  0.00    -0.298 OA
ENDBRANCH   6  39
BRANCH   8  41
ATOM     41  O   UNL     1      -4.595  35.395  27.877  1.00  0.00    -0.504 OA
ATOM     42  H   UNL     1      -5.395  35.113  28.432  1.00  0.00     0.293 HD
ENDBRANCH   8  41
BRANCH   7  43
ATOM     43  O   UNL     1      -3.728  37.973  27.577  1.00  0.00    -0.504 OA
ATOM     44  H   UNL     1      -4.042  37.802  28.523  1.00  0.00     0.293 HD
ENDBRANCH   7  43
TORSDOF 11
ENDMDL
