MODEL 1
REMARK VINA RESULT:    -5.832      0.000      0.000
REMARK INTER + INTRA:          -7.301
REMARK INTER:                  -7.026
REMARK INTRA:                  -0.276
REMARK UNBOUND:                -0.276
REMARK SMILES O=c1c(O)c(-c2ccc(O)c(O)c2)oc2cc(O)cc(O)c12
REMARK SMILES IDX 5 1 3 2 2 3 1 4 22 5 20 6 19 7 17 8 16 9 15 10 14 11 6 12
REMARK SMILES IDX 7 13 8 14 9 15 13 16 11 17 10 18 12 20 4 22 21 24 18 26
REMARK H PARENT 10 19 12 21 4 23 21 25 18 27
REMARK Flexibility Score: inf
ROOT
ATOM      1  C   UNL     1      23.062   5.056 -22.698  1.00  0.00     0.180 A 
ATOM      2  C   UNL     1      24.106   5.186 -23.630  1.00  0.00     0.208 A 
ATOM      3  C   UNL     1      24.004   4.525 -24.864  1.00  0.00     0.238 A 
ATOM      4  O   UNL     1      24.966   4.602 -25.673  1.00  0.00    -0.285 OA
ATOM      5  C   UNL     1      22.853   3.755 -25.158  1.00  0.00     0.111 A 
ATOM      6  C   UNL     1      22.625   3.076 -26.392  1.00  0.00     0.134 A 
ATOM      7  C   UNL     1      21.512   2.236 -26.524  1.00  0.00     0.093 A 
ATOM      8  C   UNL     1      20.583   2.105 -25.489  1.00  0.00     0.123 A 
ATOM      9  C   UNL     1      20.766   2.811 -24.302  1.00  0.00     0.094 A 
ATOM     10  C   UNL     1      21.885   3.627 -24.127  1.00  0.00     0.146 A 
ATOM     11  O   UNL     1      22.026   4.273 -22.977  1.00  0.00    -0.452 OA
ENDROOT
BRANCH   1  12
ATOM     12  C   UNL     1      23.086   5.743 -21.387  1.00  0.00     0.025 A 
ATOM     13  C   UNL     1      23.293   4.993 -20.218  1.00  0.00     0.016 A 
ATOM     14  C   UNL     1      23.298   5.617 -18.968  1.00  0.00     0.051 A 
ATOM     15  C   UNL     1      23.084   6.995 -18.865  1.00  0.00     0.157 A 
ATOM     16  C   UNL     1      22.850   7.125 -21.279  1.00  0.00     0.062 A 
ATOM     17  C   UNL     1      22.853   7.753 -20.025  1.00  0.00     0.158 A 
BRANCH  15  18
ATOM     18  O   UNL     1      23.098   7.592 -17.604  1.00  0.00    -0.504 OA
ATOM     19  H   UNL     1      23.846   7.432 -16.942  1.00  0.00     0.293 HD
ENDBRANCH  15  18
BRANCH  17  20
ATOM     20  O   UNL     1      22.625   9.125 -19.929  1.00  0.00    -0.504 OA
ATOM     21  H   UNL     1      23.378   9.796 -20.019  1.00  0.00     0.293 HD
ENDBRANCH  17  20
ENDBRANCH   1  12
BRANCH   2  22
ATOM     22  O   UNL     1      25.244   5.934 -23.311  1.00  0.00    -0.502 OA
ATOM     23  H   UNL     1      26.126   5.812 -23.792  1.00  0.00     0.293 HD
ENDBRANCH   2  22
BRANCH   6  24
ATOM     24  O   UNL     1      23.441   3.212 -27.520  1.00  0.00    -0.507 OA
ATOM     25  H   UNL     1      23.251   3.827 -28.295  1.00  0.00     0.293 HD
ENDBRANCH   6  24
BRANCH   8  26
ATOM     26  O   UNL     1      19.470   1.281 -25.634  1.00  0.00    -0.508 OA
ATOM     27  H   UNL     1      19.560   0.274 -25.701  1.00  0.00     0.293 HD
ENDBRANCH   8  26
TORSDOF 6
ENDMDL
MODEL 2
REMARK VINA RESULT:    -5.726      2.766      6.894
REMARK INTER + INTRA:          -7.173
REMARK INTER:                  -6.915
REMARK INTRA:                  -0.258
REMARK UNBOUND:                -0.276
REMARK SMILES O=c1c(O)c(-c2ccc(O)c(O)c2)oc2cc(O)cc(O)c12
REMARK SMILES IDX 5 1 3 2 2 3 1 4 22 5 20 6 19 7 17 8 16 9 15 10 14 11 6 12
REMARK SMILES IDX 7 13 8 14 9 15 13 16 11 17 10 18 12 20 4 22 21 24 18 26
REMARK H PARENT 10 19 12 21 4 23 21 25 18 27
REMARK Flexibility Score: inf
ROOT
ATOM      1  C   UNL     1      24.278   5.916 -22.702  1.00  0.00     0.180 A 
ATOM      2  C   UNL     1      24.359   4.642 -22.114  1.00  0.00     0.208 A 
ATOM      3  C   UNL     1      23.912   4.471 -20.794  1.00  0.00     0.238 A 
ATOM      4  O   UNL     1      24.037   3.340 -20.256  1.00  0.00    -0.285 OA
ATOM      5  C   UNL     1      23.376   5.572 -20.083  1.00  0.00     0.111 A 
ATOM      6  C   UNL     1      22.856   5.505 -18.756  1.00  0.00     0.134 A 
ATOM      7  C   UNL     1      22.472   6.682 -18.103  1.00  0.00     0.093 A 
ATOM      8  C   UNL     1      22.526   7.917 -18.755  1.00  0.00     0.123 A 
ATOM      9  C   UNL     1      22.975   7.985 -20.072  1.00  0.00     0.094 A 
ATOM     10  C   UNL     1      23.400   6.832 -20.737  1.00  0.00     0.146 A 
ATOM     11  O   UNL     1      23.831   6.943 -21.987  1.00  0.00    -0.452 OA
ENDROOT
BRANCH   1  12
ATOM     12  C   UNL     1      24.705   6.170 -24.096  1.00  0.00     0.025 A 
ATOM     13  C   UNL     1      25.852   6.943 -24.338  1.00  0.00     0.016 A 
ATOM     14  C   UNL     1      26.261   7.212 -25.647  1.00  0.00     0.051 A 
ATOM     15  C   UNL     1      25.525   6.727 -26.732  1.00  0.00     0.157 A 
ATOM     16  C   UNL     1      23.954   5.700 -25.190  1.00  0.00     0.062 A 
ATOM     17  C   UNL     1      24.362   5.971 -26.504  1.00  0.00     0.158 A 
BRANCH  15  18
ATOM     18  O   UNL     1      25.959   7.008 -28.027  1.00  0.00    -0.504 OA
ATOM     19  H   UNL     1      25.920   7.942 -28.417  1.00  0.00     0.293 HD
ENDBRANCH  15  18
BRANCH  17  20
ATOM     20  O   UNL     1      23.616   5.495 -27.580  1.00  0.00    -0.504 OA
ATOM     21  H   UNL     1      22.790   4.926 -27.444  1.00  0.00     0.293 HD
ENDBRANCH  17  20
ENDBRANCH   1  12
BRANCH   2  22
ATOM     22  O   UNL     1      24.912   3.574 -22.826  1.00  0.00    -0.502 OA
ATOM     23  H   UNL     1      25.778   3.128 -22.551  1.00  0.00     0.293 HD
ENDBRANCH   2  22
BRANCH   6  24
ATOM     24  O   UNL     1      22.674   4.312 -18.049  1.00  0.00    -0.507 OA
ATOM     25  H   UNL     1      22.640   3.396 -18.468  1.00  0.00     0.293 HD
ENDBRANCH   6  24
BRANCH   8  26
ATOM     26  O   UNL     1      22.126   9.082 -18.105  1.00  0.00    -0.508 OA
ATOM     27  H   UNL     1      21.541   9.770 -18.562  1.00  0.00     0.293 HD
ENDBRANCH   8  26
TORSDOF 6
ENDMDL
MODEL 3
REMARK VINA RESULT:    -5.364      2.802      3.965
REMARK INTER + INTRA:          -6.737
REMARK INTER:                  -6.463
REMARK INTRA:                  -0.274
REMARK UNBOUND:                -0.276
REMARK SMILES O=c1c(O)c(-c2ccc(O)c(O)c2)oc2cc(O)cc(O)c12
REMARK SMILES IDX 5 1 3 2 2 3 1 4 22 5 20 6 19 7 17 8 16 9 15 10 14 11 6 12
REMARK SMILES IDX 7 13 8 14 9 15 13 16 11 17 10 18 12 20 4 22 21 24 18 26
REMARK H PARENT 10 19 12 21 4 23 21 25 18 27
REMARK Flexibility Score: inf
ROOT
ATOM      1  C   UNL     1      24.322   7.192 -21.783  1.00  0.00     0.180 A 
ATOM      2  C   UNL     1      25.500   7.953 -21.868  1.00  0.00     0.208 A 
ATOM      3  C   UNL     1      26.183   8.017 -23.092  1.00  0.00     0.238 A 
ATOM      4  O   UNL     1      27.266   8.657 -23.148  1.00  0.00    -0.285 OA
ATOM      5  C   UNL     1      25.672   7.333 -24.221  1.00  0.00     0.111 A 
ATOM      6  C   UNL     1      26.259   7.361 -25.522  1.00  0.00     0.134 A 
ATOM      7  C   UNL     1      25.742   6.541 -26.532  1.00  0.00     0.093 A 
ATOM      8  C   UNL     1      24.617   5.745 -26.307  1.00  0.00     0.123 A 
ATOM      9  C   UNL     1      24.000   5.756 -25.058  1.00  0.00     0.094 A 
ATOM     10  C   UNL     1      24.515   6.535 -24.020  1.00  0.00     0.146 A 
ATOM     11  O   UNL     1      23.903   6.508 -22.843  1.00  0.00    -0.452 OA
ENDROOT
BRANCH   1  12
ATOM     12  C   UNL     1      23.533   7.097 -20.534  1.00  0.00     0.025 A 
ATOM     13  C   UNL     1      23.525   5.893 -19.812  1.00  0.00     0.016 A 
ATOM     14  C   UNL     1      22.771   5.775 -18.642  1.00  0.00     0.051 A 
ATOM     15  C   UNL     1      22.003   6.849 -18.184  1.00  0.00     0.157 A 
ATOM     16  C   UNL     1      22.743   8.170 -20.083  1.00  0.00     0.062 A 
ATOM     17  C   UNL     1      21.984   8.052 -18.910  1.00  0.00     0.158 A 
BRANCH  15  18
ATOM     18  O   UNL     1      21.262   6.703 -17.011  1.00  0.00    -0.504 OA
ATOM     19  H   UNL     1      21.678   6.372 -16.149  1.00  0.00     0.293 HD
ENDBRANCH  15  18
BRANCH  17  20
ATOM     20  O   UNL     1      21.210   9.123 -18.466  1.00  0.00    -0.504 OA
ATOM     21  H   UNL     1      21.631   9.974 -18.116  1.00  0.00     0.293 HD
ENDBRANCH  17  20
ENDBRANCH   1  12
BRANCH   2  22
ATOM     22  O   UNL     1      26.000   8.604 -20.735  1.00  0.00    -0.502 OA
ATOM     23  H   UNL     1      26.019   9.612 -20.652  1.00  0.00     0.293 HD
ENDBRANCH   2  22
BRANCH   6  24
ATOM     24  O   UNL     1      27.328   8.191 -25.877  1.00  0.00    -0.507 OA
ATOM     25  H   UNL     1      28.019   7.968 -26.576  1.00  0.00     0.293 HD
ENDBRANCH   6  24
BRANCH   8  26
ATOM     26  O   UNL     1      24.099   4.945 -27.322  1.00  0.00    -0.508 OA
ATOM     27  H   UNL     1      23.344   4.292 -27.150  1.00  0.00     0.293 HD
ENDBRANCH   8  26
TORSDOF 6
ENDMDL
MODEL 4
REMARK VINA RESULT:    -5.232     15.297     16.541
REMARK INTER + INTRA:          -6.579
REMARK INTER:                  -6.244
REMARK INTRA:                  -0.335
REMARK UNBOUND:                -0.276
REMARK SMILES O=c1c(O)c(-c2ccc(O)c(O)c2)oc2cc(O)cc(O)c12
REMARK SMILES IDX 5 1 3 2 2 3 1 4 22 5 20 6 19 7 17 8 16 9 15 10 14 11 6 12
REMARK SMILES IDX 7 13 8 14 9 15 13 16 11 17 10 18 12 20 4 22 21 24 18 26
REMARK H PARENT 10 19 12 21 4 23 21 25 18 27
REMARK Flexibility Score: inf
ROOT
ATOM      1  C   UNL     1      31.739  -8.413 -27.329  1.00  0.00     0.180 A 
ATOM      2  C   UNL     1      32.898  -8.518 -28.118  1.00  0.00     0.208 A 
ATOM      3  C   UNL     1      32.795  -8.341 -29.506  1.00  0.00     0.238 A 
ATOM      4  O   UNL     1      33.826  -8.489 -30.212  1.00  0.00    -0.285 OA
ATOM      5  C   UNL     1      31.539  -8.044 -30.088  1.00  0.00     0.111 A 
ATOM      6  C   UNL     1      31.325  -7.804 -31.478  1.00  0.00     0.134 A 
ATOM      7  C   UNL     1      30.019  -7.650 -31.961  1.00  0.00     0.093 A 
ATOM      8  C   UNL     1      28.925  -7.660 -31.092  1.00  0.00     0.123 A 
ATOM      9  C   UNL     1      29.129  -7.833 -29.725  1.00  0.00     0.094 A 
ATOM     10  C   UNL     1      30.416  -8.027 -29.218  1.00  0.00     0.146 A 
ATOM     11  O   UNL     1      30.564  -8.199 -27.911  1.00  0.00    -0.452 OA
ENDROOT
BRANCH   1  12
ATOM     12  C   UNL     1      31.772  -8.562 -25.857  1.00  0.00     0.025 A 
ATOM     13  C   UNL     1      31.523  -9.820 -25.284  1.00  0.00     0.016 A 
ATOM     14  C   UNL     1      31.529  -9.979 -23.896  1.00  0.00     0.051 A 
ATOM     15  C   UNL     1      31.767  -8.885 -23.059  1.00  0.00     0.157 A 
ATOM     16  C   UNL     1      31.990  -7.459 -25.012  1.00  0.00     0.062 A 
ATOM     17  C   UNL     1      31.994  -7.616 -23.619  1.00  0.00     0.158 A 
BRANCH  15  18
ATOM     18  O   UNL     1      31.769  -9.074 -21.677  1.00  0.00    -0.504 OA
ATOM     19  H   UNL     1      31.125  -9.708 -21.220  1.00  0.00     0.293 HD
ENDBRANCH  15  18
BRANCH  17  20
ATOM     20  O   UNL     1      32.219  -6.518 -22.791  1.00  0.00    -0.504 OA
ATOM     21  H   UNL     1      32.183  -5.570 -23.144  1.00  0.00     0.293 HD
ENDBRANCH  17  20
ENDBRANCH   1  12
BRANCH   2  22
ATOM     22  O   UNL     1      34.124  -8.834 -27.526  1.00  0.00    -0.502 OA
ATOM     23  H   UNL     1      34.362  -8.548 -26.584  1.00  0.00     0.293 HD
ENDBRANCH   2  22
BRANCH   6  24
ATOM     24  O   UNL     1      32.355  -7.683 -32.416  1.00  0.00    -0.507 OA
ATOM     25  H   UNL     1      32.257  -7.260 -33.326  1.00  0.00     0.293 HD
ENDBRANCH   6  24
BRANCH   8  26
ATOM     26  O   UNL     1      27.631  -7.489 -31.578  1.00  0.00    -0.508 OA
ATOM     27  H   UNL     1      26.852  -7.306 -30.958  1.00  0.00     0.293 HD
ENDBRANCH   8  26
TORSDOF 6
ENDMDL
MODEL 5
REMARK VINA RESULT:    -5.190     10.151     12.994
REMARK INTER + INTRA:          -6.528
REMARK INTER:                  -6.340
REMARK INTRA:                  -0.188
REMARK UNBOUND:                -0.276
REMARK SMILES O=c1c(O)c(-c2ccc(O)c(O)c2)oc2cc(O)cc(O)c12
REMARK SMILES IDX 5 1 3 2 2 3 1 4 22 5 20 6 19 7 17 8 16 9 15 10 14 11 6 12
REMARK SMILES IDX 7 13 8 14 9 15 13 16 11 17 10 18 12 20 4 22 21 24 18 26
REMARK H PARENT 10 19 12 21 4 23 21 25 18 27
REMARK Flexibility Score: inf
ROOT
ATOM      1  C   UNL     1      26.698  -5.231 -28.506  1.00  0.00     0.180 A 
ATOM      2  C   UNL     1      27.691  -4.240 -28.589  1.00  0.00     0.208 A 
ATOM      3  C   UNL     1      28.756  -4.415 -29.486  1.00  0.00     0.238 A 
ATOM      4  O   UNL     1      29.670  -3.550 -29.517  1.00  0.00    -0.285 OA
ATOM      5  C   UNL     1      28.807  -5.571 -30.303  1.00  0.00     0.111 A 
ATOM      6  C   UNL     1      29.816  -5.833 -31.276  1.00  0.00     0.134 A 
ATOM      7  C   UNL     1      29.840  -7.069 -31.934  1.00  0.00     0.093 A 
ATOM      8  C   UNL     1      28.850  -8.026 -31.701  1.00  0.00     0.123 A 
ATOM      9  C   UNL     1      27.825  -7.756 -30.796  1.00  0.00     0.094 A 
ATOM     10  C   UNL     1      27.796  -6.547 -30.098  1.00  0.00     0.146 A 
ATOM     11  O   UNL     1      26.808  -6.334 -29.238  1.00  0.00    -0.452 OA
ENDROOT
BRANCH   1  12
ATOM     12  C   UNL     1      25.532  -5.105 -27.603  1.00  0.00     0.025 A 
ATOM     13  C   UNL     1      25.342  -6.053 -26.584  1.00  0.00     0.016 A 
ATOM     14  C   UNL     1      24.238  -5.966 -25.733  1.00  0.00     0.051 A 
ATOM     15  C   UNL     1      23.300  -4.942 -25.895  1.00  0.00     0.157 A 
ATOM     16  C   UNL     1      24.576  -4.088 -27.776  1.00  0.00     0.062 A 
ATOM     17  C   UNL     1      23.466  -4.000 -26.924  1.00  0.00     0.158 A 
BRANCH  15  18
ATOM     18  O   UNL     1      22.209  -4.878 -25.028  1.00  0.00    -0.504 OA
ATOM     19  H   UNL     1      21.846  -3.997 -24.684  1.00  0.00     0.293 HD
ENDBRANCH  15  18
BRANCH  17  20
ATOM     20  O   UNL     1      22.528  -2.985 -27.100  1.00  0.00    -0.504 OA
ATOM     21  H   UNL     1      21.908  -2.699 -26.352  1.00  0.00     0.293 HD
ENDBRANCH  17  20
ENDBRANCH   1  12
BRANCH   2  22
ATOM     22  O   UNL     1      27.634  -3.117 -27.758  1.00  0.00    -0.502 OA
ATOM     23  H   UNL     1      28.258  -2.327 -27.867  1.00  0.00     0.293 HD
ENDBRANCH   2  22
BRANCH   6  24
ATOM     24  O   UNL     1      30.798  -4.909 -31.651  1.00  0.00    -0.507 OA
ATOM     25  H   UNL     1      31.549  -4.597 -31.056  1.00  0.00     0.293 HD
ENDBRANCH   6  24
BRANCH   8  26
ATOM     26  O   UNL     1      28.870  -9.247 -32.371  1.00  0.00    -0.508 OA
ATOM     27  H   UNL     1      29.120 -10.107 -31.899  1.00  0.00     0.293 HD
ENDBRANCH   8  26
TORSDOF 6
ENDMDL
MODEL 6
REMARK VINA RESULT:    -5.158     15.230     16.823
REMARK INTER + INTRA:          -6.489
REMARK INTER:                  -6.208
REMARK INTRA:                  -0.282
REMARK UNBOUND:                -0.276
REMARK SMILES O=c1c(O)c(-c2ccc(O)c(O)c2)oc2cc(O)cc(O)c12
REMARK SMILES IDX 5 1 3 2 2 3 1 4 22 5 20 6 19 7 17 8 16 9 15 10 14 11 6 12
REMARK SMILES IDX 7 13 8 14 9 15 13 16 11 17 10 18 12 20 4 22 21 24 18 26
REMARK H PARENT 10 19 12 21 4 23 21 25 18 27
REMARK Flexibility Score: inf
ROOT
ATOM      1  C   UNL     1      31.717  -7.976 -27.037  1.00  0.00     0.180 A 
ATOM      2  C   UNL     1      30.379  -7.578 -27.203  1.00  0.00     0.208 A 
ATOM      3  C   UNL     1      29.873  -7.417 -28.503  1.00  0.00     0.238 A 
ATOM      4  O   UNL     1      28.691  -7.009 -28.645  1.00  0.00    -0.285 OA
ATOM      5  C   UNL     1      30.705  -7.671 -29.620  1.00  0.00     0.111 A 
ATOM      6  C   UNL     1      30.286  -7.580 -30.981  1.00  0.00     0.134 A 
ATOM      7  C   UNL     1      31.229  -7.725 -32.006  1.00  0.00     0.093 A 
ATOM      8  C   UNL     1      32.562  -8.026 -31.720  1.00  0.00     0.123 A 
ATOM      9  C   UNL     1      32.969  -8.176 -30.395  1.00  0.00     0.094 A 
ATOM     10  C   UNL     1      32.060  -8.001 -29.350  1.00  0.00     0.146 A 
ATOM     11  O   UNL     1      32.490  -8.143 -28.104  1.00  0.00    -0.452 OA
ENDROOT
BRANCH   1  12
ATOM     12  C   UNL     1      32.314  -8.191 -25.700  1.00  0.00     0.025 A 
ATOM     13  C   UNL     1      33.242  -7.263 -25.200  1.00  0.00     0.016 A 
ATOM     14  C   UNL     1      33.834  -7.457 -23.950  1.00  0.00     0.051 A 
ATOM     15  C   UNL     1      33.521  -8.586 -23.186  1.00  0.00     0.157 A 
ATOM     16  C   UNL     1      32.017  -9.336 -24.939  1.00  0.00     0.062 A 
ATOM     17  C   UNL     1      32.611  -9.534 -23.685  1.00  0.00     0.158 A 
BRANCH  15  18
ATOM     18  O   UNL     1      34.125  -8.752 -21.940  1.00  0.00    -0.504 OA
ATOM     19  H   UNL     1      34.000  -8.085 -21.189  1.00  0.00     0.293 HD
ENDBRANCH  15  18
BRANCH  17  20
ATOM     20  O   UNL     1      32.305 -10.669 -22.936  1.00  0.00    -0.504 OA
ATOM     21  H   UNL     1      31.381 -11.084 -22.953  1.00  0.00     0.293 HD
ENDBRANCH  17  20
ENDBRANCH   1  12
BRANCH   2  22
ATOM     22  O   UNL     1      29.581  -7.311 -26.087  1.00  0.00    -0.502 OA
ATOM     23  H   UNL     1      28.765  -6.714 -26.132  1.00  0.00     0.293 HD
ENDBRANCH   2  22
BRANCH   6  24
ATOM     24  O   UNL     1      28.960  -7.375 -31.377  1.00  0.00    -0.507 OA
ATOM     25  H   UNL     1      28.306  -6.771 -30.903  1.00  0.00     0.293 HD
ENDBRANCH   6  24
BRANCH   8  26
ATOM     26  O   UNL     1      33.491  -8.185 -32.746  1.00  0.00    -0.508 OA
ATOM     27  H   UNL     1      33.985  -7.395 -33.141  1.00  0.00     0.293 HD
ENDBRANCH   8  26
TORSDOF 6
ENDMDL
MODEL 7
REMARK VINA RESULT:    -5.076      9.632     13.390
REMARK INTER + INTRA:          -6.390
REMARK INTER:                  -6.257
REMARK INTRA:                  -0.133
REMARK UNBOUND:                -0.276
REMARK SMILES O=c1c(O)c(-c2ccc(O)c(O)c2)oc2cc(O)cc(O)c12
REMARK SMILES IDX 5 1 3 2 2 3 1 4 22 5 20 6 19 7 17 8 16 9 15 10 14 11 6 12
REMARK SMILES IDX 7 13 8 14 9 15 13 16 11 17 10 18 12 20 4 22 21 24 18 26
REMARK H PARENT 10 19 12 21 4 23 21 25 18 27
REMARK Flexibility Score: inf
ROOT
ATOM      1  C   UNL     1      28.476  -3.952 -29.299  1.00  0.00     0.180 A 
ATOM      2  C   UNL     1      29.842  -3.622 -29.339  1.00  0.00     0.208 A 
ATOM      3  C   UNL     1      30.224  -2.282 -29.177  1.00  0.00     0.238 A 
ATOM      4  O   UNL     1      31.444  -1.986 -29.267  1.00  0.00    -0.285 OA
ATOM      5  C   UNL     1      29.239  -1.289 -28.960  1.00  0.00     0.111 A 
ATOM      6  C   UNL     1      29.515   0.094 -28.742  1.00  0.00     0.134 A 
ATOM      7  C   UNL     1      28.456   1.008 -28.669  1.00  0.00     0.093 A 
ATOM      8  C   UNL     1      27.129   0.579 -28.739  1.00  0.00     0.123 A 
ATOM      9  C   UNL     1      26.848  -0.778 -28.892  1.00  0.00     0.094 A 
ATOM     10  C   UNL     1      27.883  -1.708 -29.004  1.00  0.00     0.146 A 
ATOM     11  O   UNL     1      27.571  -2.988 -29.159  1.00  0.00    -0.452 OA
ENDROOT
BRANCH   1  12
ATOM     12  C   UNL     1      27.997  -5.345 -29.437  1.00  0.00     0.025 A 
ATOM     13  C   UNL     1      27.349  -5.964 -28.355  1.00  0.00     0.016 A 
ATOM     14  C   UNL     1      26.908  -7.285 -28.456  1.00  0.00     0.051 A 
ATOM     15  C   UNL     1      27.118  -8.013 -29.630  1.00  0.00     0.157 A 
ATOM     16  C   UNL     1      28.225  -6.087 -30.610  1.00  0.00     0.062 A 
ATOM     17  C   UNL     1      27.785  -7.414 -30.713  1.00  0.00     0.158 A 
BRANCH  15  18
ATOM     18  O   UNL     1      26.664  -9.330 -29.704  1.00  0.00    -0.504 OA
ATOM     19  H   UNL     1      26.053  -9.648 -30.447  1.00  0.00     0.293 HD
ENDBRANCH  15  18
BRANCH  17  20
ATOM     20  O   UNL     1      28.010  -8.138 -31.882  1.00  0.00    -0.504 OA
ATOM     21  H   UNL     1      27.709  -9.099 -31.978  1.00  0.00     0.293 HD
ENDBRANCH  17  20
ENDBRANCH   1  12
BRANCH   2  22
ATOM     22  O   UNL     1      30.797  -4.615 -29.577  1.00  0.00    -0.502 OA
ATOM     23  H   UNL     1      30.556  -5.595 -29.647  1.00  0.00     0.293 HD
ENDBRANCH   2  22
BRANCH   6  24
ATOM     24  O   UNL     1      30.801   0.615 -28.565  1.00  0.00    -0.507 OA
ATOM     25  H   UNL     1      31.134   1.474 -28.973  1.00  0.00     0.293 HD
ENDBRANCH   6  24
BRANCH   8  26
ATOM     26  O   UNL     1      26.081   1.491 -28.649  1.00  0.00    -0.508 OA
ATOM     27  H   UNL     1      26.170   2.351 -28.121  1.00  0.00     0.293 HD
ENDBRANCH   8  26
TORSDOF 6
ENDMDL
MODEL 8
REMARK VINA RESULT:    -5.009     10.883     14.463
REMARK INTER + INTRA:          -6.309
REMARK INTER:                  -6.002
REMARK INTRA:                  -0.307
REMARK UNBOUND:                -0.276
REMARK SMILES O=c1c(O)c(-c2ccc(O)c(O)c2)oc2cc(O)cc(O)c12
REMARK SMILES IDX 5 1 3 2 2 3 1 4 22 5 20 6 19 7 17 8 16 9 15 10 14 11 6 12
REMARK SMILES IDX 7 13 8 14 9 15 13 16 11 17 10 18 12 20 4 22 21 24 18 26
REMARK H PARENT 10 19 12 21 4 23 21 25 18 27
REMARK Flexibility Score: inf
ROOT
ATOM      1  C   UNL     1      26.927  -6.542 -28.168  1.00  0.00     0.180 A 
ATOM      2  C   UNL     1      26.320  -5.281 -28.306  1.00  0.00     0.208 A 
ATOM      3  C   UNL     1      25.321  -4.904 -27.396  1.00  0.00     0.238 A 
ATOM      4  O   UNL     1      24.745  -3.796 -27.556  1.00  0.00    -0.285 OA
ATOM      5  C   UNL     1      24.949  -5.784 -26.351  1.00  0.00     0.111 A 
ATOM      6  C   UNL     1      23.977  -5.489 -25.349  1.00  0.00     0.134 A 
ATOM      7  C   UNL     1      23.595  -6.485 -24.441  1.00  0.00     0.093 A 
ATOM      8  C   UNL     1      24.198  -7.744 -24.459  1.00  0.00     0.123 A 
ATOM      9  C   UNL     1      25.192  -8.022 -25.396  1.00  0.00     0.094 A 
ATOM     10  C   UNL     1      25.568  -7.062 -26.337  1.00  0.00     0.146 A 
ATOM     11  O   UNL     1      26.510  -7.372 -27.218  1.00  0.00    -0.452 OA
ENDROOT
BRANCH   1  12
ATOM     12  C   UNL     1      28.005  -7.000 -29.072  1.00  0.00     0.025 A 
ATOM     13  C   UNL     1      29.346  -6.811 -28.700  1.00  0.00     0.016 A 
ATOM     14  C   UNL     1      30.380  -7.217 -29.547  1.00  0.00     0.051 A 
ATOM     15  C   UNL     1      30.093  -7.803 -30.783  1.00  0.00     0.157 A 
ATOM     16  C   UNL     1      27.719  -7.572 -30.325  1.00  0.00     0.062 A 
ATOM     17  C   UNL     1      28.755  -7.978 -31.178  1.00  0.00     0.158 A 
BRANCH  15  18
ATOM     18  O   UNL     1      31.145  -8.202 -31.607  1.00  0.00    -0.504 OA
ATOM     19  H   UNL     1      31.027  -8.335 -32.604  1.00  0.00     0.293 HD
ENDBRANCH  15  18
BRANCH  17  20
ATOM     20  O   UNL     1      28.461  -8.550 -32.414  1.00  0.00    -0.504 OA
ATOM     21  H   UNL     1      29.062  -8.418 -33.218  1.00  0.00     0.293 HD
ENDBRANCH  17  20
ENDBRANCH   1  12
BRANCH   2  22
ATOM     22  O   UNL     1      26.687  -4.437 -29.358  1.00  0.00    -0.502 OA
ATOM     23  H   UNL     1      26.691  -3.428 -29.269  1.00  0.00     0.293 HD
ENDBRANCH   2  22
BRANCH   6  24
ATOM     24  O   UNL     1      23.381  -4.234 -25.186  1.00  0.00    -0.507 OA
ATOM     25  H   UNL     1      23.847  -3.421 -24.816  1.00  0.00     0.293 HD
ENDBRANCH   6  24
BRANCH   8  26
ATOM     26  O   UNL     1      23.824  -8.724 -23.542  1.00  0.00    -0.508 OA
ATOM     27  H   UNL     1      24.511  -9.305 -23.077  1.00  0.00     0.293 HD
ENDBRANCH   8  26
TORSDOF 6
ENDMDL
MODEL 9
REMARK VINA RESULT:    -4.990     12.060     14.995
REMARK INTER + INTRA:          -6.287
REMARK INTER:                  -5.965
REMARK INTRA:                  -0.322
REMARK UNBOUND:                -0.276
REMARK SMILES O=c1c(O)c(-c2ccc(O)c(O)c2)oc2cc(O)cc(O)c12
REMARK SMILES IDX 5 1 3 2 2 3 1 4 22 5 20 6 19 7 17 8 16 9 15 10 14 11 6 12
REMARK SMILES IDX 7 13 8 14 9 15 13 16 11 17 10 18 12 20 4 22 21 24 18 26
REMARK H PARENT 10 19 12 21 4 23 21 25 18 27
REMARK Flexibility Score: inf
ROOT
ATOM      1  C   UNL     1      28.030  -6.828 -28.712  1.00  0.00     0.180 A 
ATOM      2  C   UNL     1      27.924  -7.443 -29.972  1.00  0.00     0.208 A 
ATOM      3  C   UNL     1      29.095  -7.720 -30.694  1.00  0.00     0.238 A 
ATOM      4  O   UNL     1      28.991  -8.222 -31.844  1.00  0.00    -0.285 OA
ATOM      5  C   UNL     1      30.358  -7.394 -30.144  1.00  0.00     0.111 A 
ATOM      6  C   UNL     1      31.611  -7.666 -30.769  1.00  0.00     0.134 A 
ATOM      7  C   UNL     1      32.792  -7.182 -30.193  1.00  0.00     0.093 A 
ATOM      8  C   UNL     1      32.770  -6.492 -28.979  1.00  0.00     0.123 A 
ATOM      9  C   UNL     1      31.556  -6.273 -28.329  1.00  0.00     0.094 A 
ATOM     10  C   UNL     1      30.359  -6.713 -28.898  1.00  0.00     0.146 A 
ATOM     11  O   UNL     1      29.225  -6.474 -28.251  1.00  0.00    -0.452 OA
ENDROOT
BRANCH   1  12
ATOM     12  C   UNL     1      26.843  -6.527 -27.880  1.00  0.00     0.025 A 
ATOM     13  C   UNL     1      26.178  -5.301 -28.042  1.00  0.00     0.016 A 
ATOM     14  C   UNL     1      25.069  -4.988 -27.253  1.00  0.00     0.051 A 
ATOM     15  C   UNL     1      24.616  -5.885 -26.282  1.00  0.00     0.157 A 
ATOM     16  C   UNL     1      26.398  -7.420 -26.888  1.00  0.00     0.062 A 
ATOM     17  C   UNL     1      25.286  -7.106 -26.094  1.00  0.00     0.158 A 
BRANCH  15  18
ATOM     18  O   UNL     1      23.504  -5.548 -25.511  1.00  0.00    -0.504 OA
ATOM     19  H   UNL     1      23.151  -6.154 -24.781  1.00  0.00     0.293 HD
ENDBRANCH  15  18
BRANCH  17  20
ATOM     20  O   UNL     1      24.848  -8.000 -25.118  1.00  0.00    -0.504 OA
ATOM     21  H   UNL     1      25.080  -8.985 -25.158  1.00  0.00     0.293 HD
ENDBRANCH  17  20
ENDBRANCH   1  12
BRANCH   2  22
ATOM     22  O   UNL     1      26.667  -7.737 -30.507  1.00  0.00    -0.502 OA
ATOM     23  H   UNL     1      25.930  -7.046 -30.576  1.00  0.00     0.293 HD
ENDBRANCH   2  22
BRANCH   6  24
ATOM     24  O   UNL     1      31.752  -8.426 -31.936  1.00  0.00    -0.507 OA
ATOM     25  H   UNL     1      32.190  -9.332 -31.981  1.00  0.00     0.293 HD
ENDBRANCH   6  24
BRANCH   8  26
ATOM     26  O   UNL     1      33.950  -6.027 -28.404  1.00  0.00    -0.508 OA
ATOM     27  H   UNL     1      33.972  -5.181 -27.848  1.00  0.00     0.293 HD
ENDBRANCH   8  26
TORSDOF 6
ENDMDL
