MODEL 1
REMARK VINA RESULT:    -3.192      0.000      0.000
REMARK INTER + INTRA:          -3.870
REMARK INTER:                  -3.752
REMARK INTRA:                  -0.118
REMARK UNBOUND:                -0.118
REMARK SMILES O=C([O-])CCC(=O)[O-]
REMARK SMILES IDX 4 1 2 2 1 3 3 4 5 5 6 6 7 7 8 8
REMARK H PARENT
REMARK Flexibility Score: inf
ROOT
ATOM      1  C   UNL     1     -20.624  -6.529 -14.509  1.00  0.00     0.059 C 
ENDROOT
BRANCH   1   2
ATOM      2  C   UNL     1     -19.977  -5.218 -14.192  1.00  0.00     0.042 C 
ATOM      3  O   UNL     1     -19.482  -4.515 -15.112  1.00  0.00    -0.550 OA
ATOM      4  O   UNL     1     -19.963  -4.748 -12.884  1.00  0.00    -0.550 OA
ENDBRANCH   1   2
BRANCH   1   5
ATOM      5  C   UNL     1     -19.695  -7.686 -14.143  1.00  0.00     0.059 C 
BRANCH   5   6
ATOM      6  C   UNL     1     -20.313  -8.537 -13.079  1.00  0.00     0.042 C 
ATOM      7  O   UNL     1     -20.872  -8.003 -12.085  1.00  0.00    -0.550 OA
ATOM      8  O   UNL     1     -20.229  -9.921 -13.160  1.00  0.00    -0.550 OA
ENDBRANCH   5   6
ENDBRANCH   1   5
TORSDOF 3
ENDMDL
MODEL 2
REMARK VINA RESULT:    -3.188      0.169      3.986
REMARK INTER + INTRA:          -3.865
REMARK INTER:                  -3.753
REMARK INTRA:                  -0.112
REMARK UNBOUND:                -0.118
REMARK SMILES O=C([O-])CCC(=O)[O-]
REMARK SMILES IDX 4 1 2 2 1 3 3 4 5 5 6 6 7 7 8 8
REMARK H PARENT
REMARK Flexibility Score: inf
ROOT
ATOM      1  C   UNL     1     -19.866  -7.648 -14.119  1.00  0.00     0.059 C 
ENDROOT
BRANCH   1   2
ATOM      2  C   UNL     1     -20.333  -8.559 -13.028  1.00  0.00     0.042 C 
ATOM      3  O   UNL     1     -20.870  -8.086 -11.993  1.00  0.00    -0.550 OA
ATOM      4  O   UNL     1     -20.218  -9.936 -13.176  1.00  0.00    -0.550 OA
ENDBRANCH   1   2
BRANCH   1   5
ATOM      5  C   UNL     1     -20.795  -6.438 -14.239  1.00  0.00     0.059 C 
BRANCH   5   6
ATOM      6  C   UNL     1     -20.041  -5.173 -13.979  1.00  0.00     0.042 C 
ATOM      7  O   UNL     1     -19.943  -4.722 -12.808  1.00  0.00    -0.550 OA
ATOM      8  O   UNL     1     -19.487  -4.464 -15.039  1.00  0.00    -0.550 OA
ENDBRANCH   5   6
ENDBRANCH   1   5
TORSDOF 3
ENDMDL
MODEL 3
REMARK VINA RESULT:    -3.175      0.161      3.904
REMARK INTER + INTRA:          -3.851
REMARK INTER:                  -3.749
REMARK INTRA:                  -0.101
REMARK UNBOUND:                -0.118
REMARK SMILES O=C([O-])CCC(=O)[O-]
REMARK SMILES IDX 4 1 2 2 1 3 3 4 5 5 6 6 7 7 8 8
REMARK H PARENT
REMARK Flexibility Score: inf
ROOT
ATOM      1  C   UNL     1     -19.799  -7.727 -14.083  1.00  0.00     0.059 C 
ENDROOT
BRANCH   1   2
ATOM      2  C   UNL     1     -20.328  -8.665 -13.046  1.00  0.00     0.042 C 
ATOM      3  O   UNL     1     -20.204  -9.909 -13.193  1.00  0.00    -0.550 OA
ATOM      4  O   UNL     1     -20.919  -8.164 -11.892  1.00  0.00    -0.550 OA
ENDBRANCH   1   2
BRANCH   1   5
ATOM      5  C   UNL     1     -20.745  -6.539 -14.263  1.00  0.00     0.059 C 
BRANCH   5   6
ATOM      6  C   UNL     1     -20.017  -5.252 -14.043  1.00  0.00     0.042 C 
ATOM      7  O   UNL     1     -19.922  -4.766 -12.885  1.00  0.00    -0.550 OA
ATOM      8  O   UNL     1     -19.483  -4.561 -15.125  1.00  0.00    -0.550 OA
ENDBRANCH   5   6
ENDBRANCH   1   5
TORSDOF 3
ENDMDL
MODEL 4
REMARK VINA RESULT:    -3.173      0.105      4.045
REMARK INTER + INTRA:          -3.847
REMARK INTER:                  -3.737
REMARK INTRA:                  -0.110
REMARK UNBOUND:                -0.118
REMARK SMILES O=C([O-])CCC(=O)[O-]
REMARK SMILES IDX 4 1 2 2 1 3 3 4 5 5 6 6 7 7 8 8
REMARK H PARENT
REMARK Flexibility Score: inf
ROOT
ATOM      1  C   UNL     1     -19.787  -7.707 -14.131  1.00  0.00     0.059 C 
ENDROOT
BRANCH   1   2
ATOM      2  C   UNL     1     -20.322  -8.595 -13.052  1.00  0.00     0.042 C 
ATOM      3  O   UNL     1     -20.887  -8.097 -12.043  1.00  0.00    -0.550 OA
ATOM      4  O   UNL     1     -20.237  -9.976 -13.183  1.00  0.00    -0.550 OA
ENDBRANCH   1   2
BRANCH   1   5
ATOM      5  C   UNL     1     -20.724  -6.521 -14.361  1.00  0.00     0.059 C 
BRANCH   5   6
ATOM      6  C   UNL     1     -20.004  -5.231 -14.124  1.00  0.00     0.042 C 
ATOM      7  O   UNL     1     -19.489  -4.606 -15.087  1.00  0.00    -0.550 OA
ATOM      8  O   UNL     1     -19.861  -4.743 -12.831  1.00  0.00    -0.550 OA
ENDBRANCH   5   6
ENDBRANCH   1   5
TORSDOF 3
ENDMDL
MODEL 5
REMARK VINA RESULT:    -2.937      1.674      3.705
REMARK INTER + INTRA:          -3.570
REMARK INTER:                  -3.491
REMARK INTRA:                  -0.079
REMARK UNBOUND:                -0.118
REMARK SMILES O=C([O-])CCC(=O)[O-]
REMARK SMILES IDX 4 1 2 2 1 3 3 4 5 5 6 6 7 7 8 8
REMARK H PARENT
REMARK Flexibility Score: inf
ROOT
ATOM      1  C   UNL     1     -20.154  -7.212 -13.928  1.00  0.00     0.059 C 
ENDROOT
BRANCH   1   2
ATOM      2  C   UNL     1     -20.211  -8.409 -13.033  1.00  0.00     0.042 C 
ATOM      3  O   UNL     1     -19.572  -9.453 -13.328  1.00  0.00    -0.550 OA
ATOM      4  O   UNL     1     -20.933  -8.355 -11.847  1.00  0.00    -0.550 OA
ENDBRANCH   1   2
BRANCH   1   5
ATOM      5  C   UNL     1     -20.385  -5.931 -13.125  1.00  0.00     0.059 C 
BRANCH   5   6
ATOM      6  C   UNL     1     -21.747  -5.378 -13.403  1.00  0.00     0.042 C 
ATOM      7  O   UNL     1     -22.281  -4.571 -12.597  1.00  0.00    -0.550 OA
ATOM      8  O   UNL     1     -22.448  -5.791 -14.530  1.00  0.00    -0.550 OA
ENDBRANCH   5   6
ENDBRANCH   1   5
TORSDOF 3
ENDMDL
MODEL 6
REMARK VINA RESULT:    -2.916      1.529      2.037
REMARK INTER + INTRA:          -3.545
REMARK INTER:                  -3.437
REMARK INTRA:                  -0.108
REMARK UNBOUND:                -0.118
REMARK SMILES O=C([O-])CCC(=O)[O-]
REMARK SMILES IDX 4 1 2 2 1 3 3 4 5 5 6 6 7 7 8 8
REMARK H PARENT
REMARK Flexibility Score: inf
ROOT
ATOM      1  C   UNL     1     -20.015  -4.895 -13.061  1.00  0.00     0.059 C 
ENDROOT
BRANCH   1   2
ATOM      2  C   UNL     1     -20.192  -4.029 -14.268  1.00  0.00     0.042 C 
ATOM      3  O   UNL     1     -20.986  -3.053 -14.238  1.00  0.00    -0.550 OA
ATOM      4  O   UNL     1     -19.444  -4.273 -15.414  1.00  0.00    -0.550 OA
ENDBRANCH   1   2
BRANCH   1   5
ATOM      5  C   UNL     1     -21.088  -5.983 -13.021  1.00  0.00     0.059 C 
BRANCH   5   6
ATOM      6  C   UNL     1     -20.465  -7.338 -13.144  1.00  0.00     0.042 C 
ATOM      7  O   UNL     1     -20.710  -8.229 -12.289  1.00  0.00    -0.550 OA
ATOM      8  O   UNL     1     -19.574  -7.601 -14.177  1.00  0.00    -0.550 OA
ENDBRANCH   5   6
ENDBRANCH   1   5
TORSDOF 3
ENDMDL
MODEL 7
REMARK VINA RESULT:    -2.869     18.922     19.717
REMARK INTER + INTRA:          -3.490
REMARK INTER:                  -3.443
REMARK INTRA:                  -0.047
REMARK UNBOUND:                -0.118
REMARK SMILES O=C([O-])CCC(=O)[O-]
REMARK SMILES IDX 4 1 2 2 1 3 3 4 5 5 6 6 7 7 8 8
REMARK H PARENT
REMARK Flexibility Score: inf
ROOT
ATOM      1  C   UNL     1      -7.153  -9.471   0.866  1.00  0.00     0.059 C 
ENDROOT
BRANCH   1   2
ATOM      2  C   UNL     1      -6.501 -10.740   0.416  1.00  0.00     0.042 C 
ATOM      3  O   UNL     1      -6.066 -10.846  -0.761  1.00  0.00    -0.550 OA
ATOM      4  O   UNL     1      -6.331 -11.790   1.310  1.00  0.00    -0.550 OA
ENDBRANCH   1   2
BRANCH   1   5
ATOM      5  C   UNL     1      -7.435  -8.560  -0.329  1.00  0.00     0.059 C 
BRANCH   5   6
ATOM      6  C   UNL     1      -7.170  -7.132   0.028  1.00  0.00     0.042 C 
ATOM      7  O   UNL     1      -7.974  -6.503   0.764  1.00  0.00    -0.550 OA
ATOM      8  O   UNL     1      -6.059  -6.480  -0.494  1.00  0.00    -0.550 OA
ENDBRANCH   5   6
ENDBRANCH   1   5
TORSDOF 3
ENDMDL
MODEL 8
REMARK VINA RESULT:    -2.853     19.155     19.671
REMARK INTER + INTRA:          -3.471
REMARK INTER:                  -3.362
REMARK INTRA:                  -0.110
REMARK UNBOUND:                -0.118
REMARK SMILES O=C([O-])CCC(=O)[O-]
REMARK SMILES IDX 4 1 2 2 1 3 3 4 5 5 6 6 7 7 8 8
REMARK H PARENT
REMARK Flexibility Score: inf
ROOT
ATOM      1  C   UNL     1      -7.597  -9.393  -0.112  1.00  0.00     0.059 C 
ENDROOT
BRANCH   1   2
ATOM      2  C   UNL     1      -7.108  -8.045   0.314  1.00  0.00     0.042 C 
ATOM      3  O   UNL     1      -5.980  -7.923   0.860  1.00  0.00    -0.550 OA
ATOM      4  O   UNL     1      -7.877  -6.915   0.063  1.00  0.00    -0.550 OA
ENDBRANCH   1   2
BRANCH   1   5
ATOM      5  C   UNL     1      -6.418 -10.312  -0.434  1.00  0.00     0.059 C 
BRANCH   5   6
ATOM      6  C   UNL     1      -6.322 -11.412   0.575  1.00  0.00     0.042 C 
ATOM      7  O   UNL     1      -6.457 -11.161   1.801  1.00  0.00    -0.550 OA
ATOM      8  O   UNL     1      -6.035 -12.708   0.165  1.00  0.00    -0.550 OA
ENDBRANCH   5   6
ENDBRANCH   1   5
TORSDOF 3
ENDMDL
MODEL 9
REMARK VINA RESULT:    -2.792     19.019     19.504
REMARK INTER + INTRA:          -3.400
REMARK INTER:                  -3.286
REMARK INTRA:                  -0.115
REMARK UNBOUND:                -0.118
REMARK SMILES O=C([O-])CCC(=O)[O-]
REMARK SMILES IDX 4 1 2 2 1 3 3 4 5 5 6 6 7 7 8 8
REMARK H PARENT
REMARK Flexibility Score: inf
ROOT
ATOM      1  C   UNL     1      -6.793  -7.400  -0.289  1.00  0.00     0.059 C 
ENDROOT
BRANCH   1   2
ATOM      2  C   UNL     1      -6.989  -6.682   1.009  1.00  0.00     0.042 C 
ATOM      3  O   UNL     1      -6.042  -6.592   1.833  1.00  0.00    -0.550 OA
ATOM      4  O   UNL     1      -8.205  -6.071   1.288  1.00  0.00    -0.550 OA
ENDBRANCH   1   2
BRANCH   1   5
ATOM      5  C   UNL     1      -7.661  -8.659  -0.340  1.00  0.00     0.059 C 
BRANCH   5   6
ATOM      6  C   UNL     1      -6.880  -9.851   0.116  1.00  0.00     0.042 C 
ATOM      7  O   UNL     1      -6.301 -10.589  -0.722  1.00  0.00    -0.550 OA
ATOM      8  O   UNL     1      -6.833 -10.174   1.467  1.00  0.00    -0.550 OA
ENDBRANCH   5   6
ENDBRANCH   1   5
TORSDOF 3
ENDMDL
