MODEL 1
REMARK VINA RESULT:    -3.933      0.000      0.000
REMARK INTER + INTRA:          -6.750
REMARK INTER:                  -6.232
REMARK INTRA:                  -0.518
REMARK UNBOUND:                -0.518
REMARK SMILES CCCCCCCCCCCC=O
REMARK SMILES IDX 7 1 6 2 5 3 4 4 3 5 2 6 1 7 8 8 9 9 10 10 11 11 12 12 13 13
REMARK H PARENT
REMARK Flexibility Score: inf
ROOT
ATOM      1  C   UNL     1     168.771 166.816 166.067  1.00  0.00     0.000 C 
ENDROOT
BRANCH   1   2
ATOM      2  C   UNL     1     167.650 167.502 165.272  1.00  0.00     0.000 C 
BRANCH   2   3
ATOM      3  C   UNL     1     166.333 166.719 165.390  1.00  0.00    -0.000 C 
BRANCH   3   4
ATOM      4  C   UNL     1     166.069 166.236 166.832  1.00  0.00    -0.000 C 
BRANCH   4   5
ATOM      5  C   UNL     1     165.049 165.088 166.920  1.00  0.00    -0.000 C 
BRANCH   5   6
ATOM      6  C   UNL     1     164.937 164.287 165.615  1.00  0.00    -0.003 C 
ATOM      7  C   UNL     1     163.486 163.926 165.314  1.00  0.00     0.004 C 
ENDBRANCH   5   6
ENDBRANCH   4   5
ENDBRANCH   3   4
ENDBRANCH   2   3
ENDBRANCH   1   2
BRANCH   1   8
ATOM      8  C   UNL     1     170.044 166.597 165.233  1.00  0.00     0.000 C 
BRANCH   8   9
ATOM      9  C   UNL     1     171.330 166.771 166.060  1.00  0.00     0.000 C 
BRANCH   9  10
ATOM     10  C   UNL     1     171.056 167.333 167.464  1.00  0.00     0.008 C 
BRANCH  10  11
ATOM     11  C   UNL     1     172.332 167.809 168.172  1.00  0.00     0.072 C 
BRANCH  11  12
ATOM     12  C   UNL     1     173.553 167.256 167.498  1.00  0.00     0.224 C 
ATOM     13  O   UNL     1     174.167 166.326 167.995  1.00  0.00    -0.303 OA
ENDBRANCH  11  12
ENDBRANCH  10  11
ENDBRANCH   9  10
ENDBRANCH   8   9
ENDBRANCH   1   8
TORSDOF 10
ENDMDL
MODEL 2
REMARK VINA RESULT:    -3.743      5.099      9.086
REMARK INTER + INTRA:          -6.450
REMARK INTER:                  -5.869
REMARK INTRA:                  -0.581
REMARK UNBOUND:                -0.518
REMARK SMILES CCCCCCCCCCCC=O
REMARK SMILES IDX 7 1 6 2 5 3 4 4 3 5 2 6 1 7 8 8 9 9 10 10 11 11 12 12 13 13
REMARK H PARENT
REMARK Flexibility Score: inf
ROOT
ATOM      1  C   UNL     1     163.839 164.117 165.027  1.00  0.00     0.000 C 
ENDROOT
BRANCH   1   2
ATOM      2  C   UNL     1     165.057 164.015 165.959  1.00  0.00     0.000 C 
BRANCH   2   3
ATOM      3  C   UNL     1     164.968 165.049 167.093  1.00  0.00    -0.000 C 
BRANCH   3   4
ATOM      4  C   UNL     1     166.081 166.113 167.000  1.00  0.00    -0.000 C 
BRANCH   4   5
ATOM      5  C   UNL     1     166.079 166.893 165.675  1.00  0.00    -0.000 C 
BRANCH   5   6
ATOM      6  C   UNL     1     167.424 166.825 164.939  1.00  0.00    -0.003 C 
ATOM      7  C   UNL     1     168.591 166.928 165.915  1.00  0.00     0.004 C 
ENDBRANCH   5   6
ENDBRANCH   4   5
ENDBRANCH   3   4
ENDBRANCH   2   3
ENDBRANCH   1   2
BRANCH   1   8
ATOM      8  C   UNL     1     162.505 163.938 165.770  1.00  0.00     0.000 C 
BRANCH   8   9
ATOM      9  C   UNL     1     161.343 164.679 165.085  1.00  0.00     0.000 C 
BRANCH   9  10
ATOM     10  C   UNL     1     160.044 164.623 165.904  1.00  0.00     0.008 C 
BRANCH  10  11
ATOM     11  C   UNL     1     160.250 164.025 167.303  1.00  0.00     0.072 C 
BRANCH  11  12
ATOM     12  C   UNL     1     158.949 163.546 167.875  1.00  0.00     0.224 C 
ATOM     13  O   UNL     1     157.890 163.996 167.466  1.00  0.00    -0.303 OA
ENDBRANCH  11  12
ENDBRANCH  10  11
ENDBRANCH   9  10
ENDBRANCH   8   9
ENDBRANCH   1   8
TORSDOF 10
ENDMDL
MODEL 3
REMARK VINA RESULT:    -3.556      5.882      9.957
REMARK INTER + INTRA:          -6.153
REMARK INTER:                  -5.668
REMARK INTRA:                  -0.484
REMARK UNBOUND:                -0.518
REMARK SMILES CCCCCCCCCCCC=O
REMARK SMILES IDX 7 1 6 2 5 3 4 4 3 5 2 6 1 7 8 8 9 9 10 10 11 11 12 12 13 13
REMARK H PARENT
REMARK Flexibility Score: inf
ROOT
ATOM      1  C   UNL     1     161.495 164.392 165.649  1.00  0.00     0.000 C 
ENDROOT
BRANCH   1   2
ATOM      2  C   UNL     1     162.861 163.768 165.324  1.00  0.00     0.000 C 
BRANCH   2   3
ATOM      3  C   UNL     1     163.863 164.843 164.876  1.00  0.00    -0.000 C 
BRANCH   3   4
ATOM      4  C   UNL     1     165.174 164.794 165.688  1.00  0.00    -0.000 C 
BRANCH   4   5
ATOM      5  C   UNL     1     164.956 164.798 167.210  1.00  0.00    -0.000 C 
BRANCH   5   6
ATOM      6  C   UNL     1     165.614 165.998 167.905  1.00  0.00    -0.003 C 
ATOM      7  C   UNL     1     166.584 166.713 166.969  1.00  0.00     0.004 C 
ENDBRANCH   5   6
ENDBRANCH   4   5
ENDBRANCH   3   4
ENDBRANCH   2   3
ENDBRANCH   1   2
BRANCH   1   8
ATOM      8  C   UNL     1     161.135 164.290 167.141  1.00  0.00     0.000 C 
BRANCH   8   9
ATOM      9  C   UNL     1     159.700 163.783 167.369  1.00  0.00     0.000 C 
BRANCH   9  10
ATOM     10  C   UNL     1     159.550 163.016 168.693  1.00  0.00     0.008 C 
BRANCH  10  11
ATOM     11  C   UNL     1     158.170 163.209 169.337  1.00  0.00     0.072 C 
BRANCH  11  12
ATOM     12  C   UNL     1     158.302 163.777 170.718  1.00  0.00     0.224 C 
ATOM     13  O   UNL     1     157.635 164.742 171.056  1.00  0.00    -0.303 OA
ENDBRANCH  11  12
ENDBRANCH  10  11
ENDBRANCH   9  10
ENDBRANCH   8   9
ENDBRANCH   1   8
TORSDOF 10
ENDMDL
MODEL 4
REMARK VINA RESULT:    -3.482      3.291      5.786
REMARK INTER + INTRA:          -6.035
REMARK INTER:                  -5.103
REMARK INTRA:                  -0.932
REMARK UNBOUND:                -0.518
REMARK SMILES CCCCCCCCCCCC=O
REMARK SMILES IDX 7 1 6 2 5 3 4 4 3 5 2 6 1 7 8 8 9 9 10 10 11 11 12 12 13 13
REMARK H PARENT
REMARK Flexibility Score: inf
ROOT
ATOM      1  C   UNL     1     165.144 163.742 167.032  1.00  0.00     0.000 C 
ENDROOT
BRANCH   1   2
ATOM      2  C   UNL     1     164.772 165.096 166.406  1.00  0.00     0.000 C 
BRANCH   2   3
ATOM      3  C   UNL     1     165.906 165.617 165.510  1.00  0.00    -0.000 C 
BRANCH   3   4
ATOM      4  C   UNL     1     166.361 167.035 165.911  1.00  0.00    -0.000 C 
BRANCH   4   5
ATOM      5  C   UNL     1     167.665 167.481 165.227  1.00  0.00    -0.000 C 
BRANCH   5   6
ATOM      6  C   UNL     1     168.920 166.926 165.916  1.00  0.00    -0.003 C 
ATOM      7  C   UNL     1     169.940 166.438 164.892  1.00  0.00     0.004 C 
ENDBRANCH   5   6
ENDBRANCH   4   5
ENDBRANCH   3   4
ENDBRANCH   2   3
ENDBRANCH   1   2
BRANCH   1   8
ATOM      8  C   UNL     1     165.432 163.843 168.539  1.00  0.00     0.000 C 
BRANCH   8   9
ATOM      9  C   UNL     1     165.120 165.238 169.109  1.00  0.00     0.000 C 
BRANCH   9  10
ATOM     10  C   UNL     1     166.248 165.773 170.006  1.00  0.00     0.008 C 
BRANCH  10  11
ATOM     11  C   UNL     1     166.769 167.142 169.550  1.00  0.00     0.072 C 
BRANCH  11  12
ATOM     12  C   UNL     1     165.720 168.199 169.728  1.00  0.00     0.224 C 
ATOM     13  O   UNL     1     165.396 168.914 168.793  1.00  0.00    -0.303 OA
ENDBRANCH  11  12
ENDBRANCH  10  11
ENDBRANCH   9  10
ENDBRANCH   8   9
ENDBRANCH   1   8
TORSDOF 10
ENDMDL
MODEL 5
REMARK VINA RESULT:    -3.259      1.719      1.970
REMARK INTER + INTRA:          -5.681
REMARK INTER:                  -4.875
REMARK INTRA:                  -0.806
REMARK UNBOUND:                -0.518
REMARK SMILES CCCCCCCCCCCC=O
REMARK SMILES IDX 7 1 6 2 5 3 4 4 3 5 2 6 1 7 8 8 9 9 10 10 11 11 12 12 13 13
REMARK H PARENT
REMARK Flexibility Score: inf
ROOT
ATOM      1  C   UNL     1     168.694 166.471 165.832  1.00  0.00     0.000 C 
ENDROOT
BRANCH   1   2
ATOM      2  C   UNL     1     167.688 167.363 165.089  1.00  0.00     0.000 C 
BRANCH   2   3
ATOM      3  C   UNL     1     166.244 166.992 165.461  1.00  0.00    -0.000 C 
BRANCH   3   4
ATOM      4  C   UNL     1     166.138 166.429 166.894  1.00  0.00    -0.000 C 
BRANCH   4   5
ATOM      5  C   UNL     1     165.348 165.112 166.981  1.00  0.00    -0.000 C 
BRANCH   5   6
ATOM      6  C   UNL     1     164.696 164.717 165.649  1.00  0.00    -0.003 C 
ATOM      7  C   UNL     1     164.921 163.239 165.343  1.00  0.00     0.004 C 
ENDBRANCH   5   6
ENDBRANCH   4   5
ENDBRANCH   3   4
ENDBRANCH   2   3
ENDBRANCH   1   2
BRANCH   1   8
ATOM      8  C   UNL     1     170.090 167.106 165.935  1.00  0.00     0.000 C 
BRANCH   8   9
ATOM      9  C   UNL     1     170.614 167.154 167.381  1.00  0.00     0.000 C 
BRANCH   9  10
ATOM     10  C   UNL     1     169.522 166.830 168.413  1.00  0.00     0.008 C 
BRANCH  10  11
ATOM     11  C   UNL     1     169.921 167.226 169.842  1.00  0.00     0.072 C 
BRANCH  11  12
ATOM     12  C   UNL     1     171.229 167.959 169.846  1.00  0.00     0.224 C 
ATOM     13  O   UNL     1     171.540 168.665 170.792  1.00  0.00    -0.303 OA
ENDBRANCH  11  12
ENDBRANCH  10  11
ENDBRANCH   9  10
ENDBRANCH   8   9
ENDBRANCH   1   8
TORSDOF 10
ENDMDL
MODEL 6
REMARK VINA RESULT:    -3.241      4.666      5.714
REMARK INTER + INTRA:          -5.654
REMARK INTER:                  -4.664
REMARK INTRA:                  -0.990
REMARK UNBOUND:                -0.518
REMARK SMILES CCCCCCCCCCCC=O
REMARK SMILES IDX 7 1 6 2 5 3 4 4 3 5 2 6 1 7 8 8 9 9 10 10 11 11 12 12 13 13
REMARK H PARENT
REMARK Flexibility Score: inf
ROOT
ATOM      1  C   UNL     1     166.769 166.881 166.545  1.00  0.00     0.000 C 
ENDROOT
BRANCH   1   2
ATOM      2  C   UNL     1     165.920 166.678 165.280  1.00  0.00     0.000 C 
BRANCH   2   3
ATOM      3  C   UNL     1     165.729 165.183 164.981  1.00  0.00    -0.000 C 
BRANCH   3   4
ATOM      4  C   UNL     1     164.314 164.690 165.352  1.00  0.00    -0.000 C 
BRANCH   4   5
ATOM      5  C   UNL     1     164.131 164.422 166.855  1.00  0.00    -0.000 C 
BRANCH   5   6
ATOM      6  C   UNL     1     165.278 163.601 167.460  1.00  0.00    -0.003 C 
ATOM      7  C   UNL     1     165.221 163.615 168.985  1.00  0.00     0.004 C 
ENDBRANCH   5   6
ENDBRANCH   4   5
ENDBRANCH   3   4
ENDBRANCH   2   3
ENDBRANCH   1   2
BRANCH   1   8
ATOM      8  C   UNL     1     165.964 167.478 167.712  1.00  0.00     0.000 C 
BRANCH   8   9
ATOM      9  C   UNL     1     166.458 166.985 169.083  1.00  0.00     0.000 C 
BRANCH   9  10
ATOM     10  C   UNL     1     165.823 167.758 170.250  1.00  0.00     0.008 C 
BRANCH  10  11
ATOM     11  C   UNL     1     165.341 169.157 169.842  1.00  0.00     0.072 C 
BRANCH  11  12
ATOM     12  C   UNL     1     164.352 169.691 170.835  1.00  0.00     0.224 C 
ATOM     13  O   UNL     1     163.524 170.522 170.497  1.00  0.00    -0.303 OA
ENDBRANCH  11  12
ENDBRANCH  10  11
ENDBRANCH   9  10
ENDBRANCH   8   9
ENDBRANCH   1   8
TORSDOF 10
ENDMDL
MODEL 7
REMARK VINA RESULT:    -3.236      4.425      7.352
REMARK INTER + INTRA:          -5.645
REMARK INTER:                  -5.135
REMARK INTRA:                  -0.509
REMARK UNBOUND:                -0.518
REMARK SMILES CCCCCCCCCCCC=O
REMARK SMILES IDX 7 1 6 2 5 3 4 4 3 5 2 6 1 7 8 8 9 9 10 10 11 11 12 12 13 13
REMARK H PARENT
REMARK Flexibility Score: inf
ROOT
ATOM      1  C   UNL     1     161.490 164.234 165.697  1.00  0.00     0.000 C 
ENDROOT
BRANCH   1   2
ATOM      2  C   UNL     1     161.013 164.253 167.157  1.00  0.00     0.000 C 
BRANCH   2   3
ATOM      3  C   UNL     1     159.562 163.760 167.268  1.00  0.00    -0.000 C 
BRANCH   3   4
ATOM      4  C   UNL     1     159.220 163.268 168.689  1.00  0.00    -0.000 C 
BRANCH   4   5
ATOM      5  C   UNL     1     160.394 163.373 169.677  1.00  0.00    -0.000 C 
BRANCH   5   6
ATOM      6  C   UNL     1     160.210 162.492 170.920  1.00  0.00    -0.003 C 
ATOM      7  C   UNL     1     160.100 161.019 170.539  1.00  0.00     0.004 C 
ENDBRANCH   5   6
ENDBRANCH   4   5
ENDBRANCH   3   4
ENDBRANCH   2   3
ENDBRANCH   1   2
BRANCH   1   8
ATOM      8  C   UNL     1     163.022 164.186 165.571  1.00  0.00     0.000 C 
BRANCH   8   9
ATOM      9  C   UNL     1     163.735 164.558 166.883  1.00  0.00     0.000 C 
BRANCH   9  10
ATOM     10  C   UNL     1     165.258 164.676 166.713  1.00  0.00     0.008 C 
BRANCH  10  11
ATOM     11  C   UNL     1     165.657 165.714 165.655  1.00  0.00     0.072 C 
BRANCH  11  12
ATOM     12  C   UNL     1     166.370 166.873 166.287  1.00  0.00     0.224 C 
ATOM     13  O   UNL     1     166.540 167.909 165.664  1.00  0.00    -0.303 OA
ENDBRANCH  11  12
ENDBRANCH  10  11
ENDBRANCH   9  10
ENDBRANCH   8   9
ENDBRANCH   1   8
TORSDOF 10
ENDMDL
MODEL 8
REMARK VINA RESULT:    -3.233      2.557      4.929
REMARK INTER + INTRA:          -5.641
REMARK INTER:                  -4.834
REMARK INTRA:                  -0.806
REMARK UNBOUND:                -0.518
REMARK SMILES CCCCCCCCCCCC=O
REMARK SMILES IDX 7 1 6 2 5 3 4 4 3 5 2 6 1 7 8 8 9 9 10 10 11 11 12 12 13 13
REMARK H PARENT
REMARK Flexibility Score: inf
ROOT
ATOM      1  C   UNL     1     164.774 165.174 166.613  1.00  0.00     0.000 C 
ENDROOT
BRANCH   1   2
ATOM      2  C   UNL     1     165.437 164.357 167.733  1.00  0.00     0.000 C 
BRANCH   2   3
ATOM      3  C   UNL     1     165.536 165.179 169.027  1.00  0.00    -0.000 C 
BRANCH   3   4
ATOM      4  C   UNL     1     166.667 166.227 168.968  1.00  0.00    -0.000 C 
BRANCH   4   5
ATOM      5  C   UNL     1     166.599 167.272 170.094  1.00  0.00    -0.000 C 
BRANCH   5   6
ATOM      6  C   UNL     1     165.613 168.410 169.793  1.00  0.00    -0.003 C 
ATOM      7  C   UNL     1     165.767 169.551 170.794  1.00  0.00     0.004 C 
ENDBRANCH   5   6
ENDBRANCH   4   5
ENDBRANCH   3   4
ENDBRANCH   2   3
ENDBRANCH   1   2
BRANCH   1   8
ATOM      8  C   UNL     1     165.664 165.305 165.366  1.00  0.00     0.000 C 
BRANCH   8   9
ATOM      9  C   UNL     1     165.818 166.763 164.899  1.00  0.00     0.000 C 
BRANCH   9  10
ATOM     10  C   UNL     1     166.992 167.480 165.584  1.00  0.00     0.008 C 
BRANCH  10  11
ATOM     11  C   UNL     1     168.358 166.941 165.136  1.00  0.00     0.072 C 
BRANCH  11  12
ATOM     12  C   UNL     1     169.285 166.799 166.307  1.00  0.00     0.224 C 
ATOM     13  O   UNL     1     170.463 167.102 166.204  1.00  0.00    -0.303 OA
ENDBRANCH  11  12
ENDBRANCH  10  11
ENDBRANCH   9  10
ENDBRANCH   8   9
ENDBRANCH   1   8
TORSDOF 10
ENDMDL
MODEL 9
REMARK VINA RESULT:    -3.156      4.264      6.660
REMARK INTER + INTRA:          -5.519
REMARK INTER:                  -4.339
REMARK INTRA:                  -1.180
REMARK UNBOUND:                -0.518
REMARK SMILES CCCCCCCCCCCC=O
REMARK SMILES IDX 7 1 6 2 5 3 4 4 3 5 2 6 1 7 8 8 9 9 10 10 11 11 12 12 13 13
REMARK H PARENT
REMARK Flexibility Score: inf
ROOT
ATOM      1  C   UNL     1     164.414 164.560 166.676  1.00  0.00     0.000 C 
ENDROOT
BRANCH   1   2
ATOM      2  C   UNL     1     164.693 164.693 165.171  1.00  0.00     0.000 C 
BRANCH   2   3
ATOM      3  C   UNL     1     165.901 165.607 164.914  1.00  0.00    -0.000 C 
BRANCH   3   4
ATOM      4  C   UNL     1     166.003 166.745 165.952  1.00  0.00    -0.000 C 
BRANCH   4   5
ATOM      5  C   UNL     1     167.317 166.733 166.752  1.00  0.00    -0.000 C 
BRANCH   5   6
ATOM      6  C   UNL     1     167.092 166.664 168.269  1.00  0.00    -0.003 C 
ATOM      7  C   UNL     1     165.918 167.542 168.692  1.00  0.00     0.004 C 
ENDBRANCH   5   6
ENDBRANCH   4   5
ENDBRANCH   3   4
ENDBRANCH   2   3
ENDBRANCH   1   2
BRANCH   1   8
ATOM      8  C   UNL     1     165.302 163.504 167.354  1.00  0.00     0.000 C 
BRANCH   8   9
ATOM      9  C   UNL     1     165.247 163.583 168.890  1.00  0.00     0.000 C 
BRANCH   9  10
ATOM     10  C   UNL     1     164.127 164.508 169.392  1.00  0.00     0.008 C 
BRANCH  10  11
ATOM     11  C   UNL     1     163.560 164.071 170.750  1.00  0.00     0.072 C 
BRANCH  11  12
ATOM     12  C   UNL     1     164.280 164.757 171.874  1.00  0.00     0.224 C 
ATOM     13  O   UNL     1     164.149 165.958 172.051  1.00  0.00    -0.303 OA
ENDBRANCH  11  12
ENDBRANCH  10  11
ENDBRANCH   9  10
ENDBRANCH   8   9
ENDBRANCH   1   8
TORSDOF 10
ENDMDL
