MODEL 1
REMARK VINA RESULT:     1.370      0.000      0.000
REMARK INTER + INTRA:           1.126
REMARK INTER:                   2.251
REMARK INTRA:                  -1.125
REMARK UNBOUND:                -1.125
REMARK SMILES COc1ccc([C@@H]2CC(=O)c3c(O)cc(O[C@H]4O[C@H](CO[C@@H]5O[C@H](C)[C@@H](O)[C@H](O)[C@@H]5O)[C@H](O)[C@H](O)[C@@H]4O)cc3O2)cc1O
REMARK SMILES IDX 19 1 32 2 34 3 36 4 17 5 18 6 20 7 21 8 22 9 25 10 24 11
REMARK SMILES IDX 26 12 23 13 28 14 30 15 27 16 29 18 31 20 33 22 35 24 16 26
REMARK SMILES IDX 15 27 14 28 38 29 12 30 39 31 11 32 40 33 9 34 7 35 10 36
REMARK SMILES IDX 8 37 13 38 6 40 41 41 5 42 42 43 4 44 3 45 43 46 2 48 1 49
REMARK SMILES IDX 37 50
REMARK H PARENT 27 17 29 19 31 21 33 23 35 25 13 39 43 47 37 51
REMARK Flexibility Score: inf
ROOT
ATOM      1  C   UNL     1      71.149  38.479  19.999  1.00  0.00     0.180 C 
ATOM      2  C   UNL     1      71.462  39.628  21.021  1.00  0.00     0.177 C 
ATOM      3  C   UNL     1      71.331  41.018  20.365  1.00  0.00     0.180 C 
ATOM      4  C   UNL     1      72.196  41.100  19.076  1.00  0.00     0.214 C 
ATOM      5  C   UNL     1      72.368  39.704  18.406  1.00  0.00     0.339 C 
ATOM      6  O   UNL     1      71.237  38.894  18.648  1.00  0.00    -0.332 OA
ENDROOT
BRANCH   1   7
ATOM      7  C   UNL     1      69.780  37.816  20.179  1.00  0.00     0.198 C 
BRANCH   7   8
ATOM      8  O   UNL     1      68.746  38.685  19.736  1.00  0.00    -0.347 OA
BRANCH   8   9
ATOM      9  C   UNL     1      67.621  38.698  20.615  1.00  0.00     0.281 C 
ATOM     10  C   UNL     1      66.529  37.062  17.876  1.00  0.00     0.041 C 
ATOM     11  C   UNL     1      66.059  38.078  18.920  1.00  0.00     0.150 C 
ATOM     12  C   UNL     1      66.160  39.548  18.357  1.00  0.00     0.174 C 
ATOM     13  O   UNL     1      66.663  37.766  20.169  1.00  0.00    -0.344 OA
ATOM     14  C   UNL     1      66.682  40.645  19.328  1.00  0.00     0.179 C 
ATOM     15  C   UNL     1      66.981  40.082  20.721  1.00  0.00     0.202 C 
BRANCH  12  16
ATOM     16  O   UNL     1      64.888  39.912  17.875  1.00  0.00    -0.388 OA
ATOM     17  H   UNL     1      64.693  39.343  17.083  1.00  0.00     0.211 HD
ENDBRANCH  12  16
BRANCH  14  18
ATOM     18  O   UNL     1      67.839  41.232  18.775  1.00  0.00    -0.387 OA
ATOM     19  H   UNL     1      67.568  41.721  17.948  1.00  0.00     0.211 HD
ENDBRANCH  14  18
BRANCH  15  20
ATOM     20  O   UNL     1      67.752  40.968  21.494  1.00  0.00    -0.385 OA
ATOM     21  H   UNL     1      68.120  40.459  22.260  1.00  0.00     0.211 HD
ENDBRANCH  15  20
ENDBRANCH   8   9
ENDBRANCH   7   8
ENDBRANCH   1   7
BRANCH   2  22
ATOM     22  O   UNL     1      70.654  39.540  22.163  1.00  0.00    -0.387 OA
ATOM     23  H   UNL     1      69.748  39.844  21.894  1.00  0.00     0.211 HD
ENDBRANCH   2  22
BRANCH   3  24
ATOM     24  O   UNL     1      69.987  41.277  20.061  1.00  0.00    -0.387 OA
ATOM     25  H   UNL     1      69.887  41.199  19.075  1.00  0.00     0.211 HD
ENDBRANCH   3  24
BRANCH   5  26
ATOM     26  O   UNL     1      73.562  39.061  18.885  1.00  0.00    -0.462 OA
BRANCH  26  27
ATOM     27  C   UNL     1      74.464  39.613  19.807  1.00  0.00     0.130 A 
ATOM     28  C   UNL     1      75.420  40.523  19.338  1.00  0.00     0.093 A 
ATOM     29  C   UNL     1      74.417  39.314  21.181  1.00  0.00     0.094 A 
ATOM     30  C   UNL     1      76.336  41.119  20.216  1.00  0.00     0.133 A 
ATOM     31  C   UNL     1      75.328  39.905  22.064  1.00  0.00     0.138 A 
ATOM     32  C   UNL     1      76.292  40.807  21.590  1.00  0.00     0.102 A 
ATOM     33  O   UNL     1      75.251  39.602  23.429  1.00  0.00    -0.484 OA
ATOM     34  C   UNL     1      77.193  41.441  22.585  1.00  0.00     0.174 C 
ATOM     35  C   UNL     1      76.296  39.932  24.348  1.00  0.00     0.211 C 
ATOM     36  O   UNL     1      78.185  42.125  22.221  1.00  0.00    -0.294 OA
ATOM     37  C   UNL     1      76.866  41.325  24.045  1.00  0.00     0.131 C 
BRANCH  30  38
ATOM     38  O   UNL     1      77.271  42.023  19.730  1.00  0.00    -0.507 OA
ATOM     39  H   UNL     1      77.332  42.252  18.740  1.00  0.00     0.293 HD
ENDBRANCH  30  38
BRANCH  35  40
ATOM     40  C   UNL     1      75.757  39.865  25.756  1.00  0.00    -0.003 A 
ATOM     41  C   UNL     1      75.339  38.640  26.305  1.00  0.00     0.057 A 
ATOM     42  C   UNL     1      75.659  41.032  26.529  1.00  0.00     0.011 A 
ATOM     43  C   UNL     1      74.864  38.570  27.622  1.00  0.00     0.158 A 
ATOM     44  C   UNL     1      75.190  40.964  27.844  1.00  0.00     0.051 A 
ATOM     45  C   UNL     1      74.790  39.732  28.403  1.00  0.00     0.160 A 
BRANCH  43  46
ATOM     46  O   UNL     1      74.464  37.349  28.169  1.00  0.00    -0.504 OA
ATOM     47  H   UNL     1      73.576  37.242  28.647  1.00  0.00     0.293 HD
ENDBRANCH  43  46
BRANCH  45  48
ATOM     48  O   UNL     1      74.316  39.622  29.717  1.00  0.00    -0.493 OA
ATOM     49  C   UNL     1      74.367  40.664  30.687  1.00  0.00     0.278 C 
ENDBRANCH  45  48
ENDBRANCH  35  40
ENDBRANCH  26  27
ENDBRANCH   5  26
BRANCH   4  50
ATOM     50  O   UNL     1      71.618  42.025  18.180  1.00  0.00    -0.384 OA
ATOM     51  H   UNL     1      72.262  42.161  17.437  1.00  0.00     0.211 HD
ENDBRANCH   4  50
TORSDOF 15
ENDMDL
MODEL 2
REMARK VINA RESULT:     1.407      1.384      2.449
REMARK INTER + INTRA:           1.187
REMARK INTER:                   1.305
REMARK INTRA:                  -0.118
REMARK UNBOUND:                -1.125
REMARK SMILES COc1ccc([C@@H]2CC(=O)c3c(O)cc(O[C@H]4O[C@H](CO[C@@H]5O[C@H](C)[C@@H](O)[C@H](O)[C@@H]5O)[C@H](O)[C@H](O)[C@@H]4O)cc3O2)cc1O
REMARK SMILES IDX 19 1 32 2 34 3 36 4 17 5 18 6 20 7 21 8 22 9 25 10 24 11
REMARK SMILES IDX 26 12 23 13 28 14 30 15 27 16 29 18 31 20 33 22 35 24 16 26
REMARK SMILES IDX 15 27 14 28 38 29 12 30 39 31 11 32 40 33 9 34 7 35 10 36
REMARK SMILES IDX 8 37 13 38 6 40 41 41 5 42 42 43 4 44 3 45 43 46 2 48 1 49
REMARK SMILES IDX 37 50
REMARK H PARENT 27 17 29 19 31 21 33 23 35 25 13 39 43 47 37 51
REMARK Flexibility Score: inf
ROOT
ATOM      1  C   UNL     1      71.351  39.606  18.868  1.00  0.00     0.180 C 
ATOM      2  C   UNL     1      71.962  38.861  20.107  1.00  0.00     0.177 C 
ATOM      3  C   UNL     1      71.270  39.285  21.418  1.00  0.00     0.180 C 
ATOM      4  C   UNL     1      71.287  40.832  21.573  1.00  0.00     0.214 C 
ATOM      5  C   UNL     1      71.307  41.550  20.189  1.00  0.00     0.339 C 
ATOM      6  O   UNL     1      70.634  40.777  19.218  1.00  0.00    -0.332 OA
ENDROOT
BRANCH   1   7
ATOM      7  C   UNL     1      70.422  38.753  17.999  1.00  0.00     0.198 C 
BRANCH   7   8
ATOM      8  O   UNL     1      69.459  38.089  18.806  1.00  0.00    -0.347 OA
BRANCH   8   9
ATOM      9  C   UNL     1      68.352  37.595  18.052  1.00  0.00     0.281 C 
ATOM     10  C   UNL     1      67.238  40.485  19.383  1.00  0.00     0.041 C 
ATOM     11  C   UNL     1      66.769  39.062  19.069  1.00  0.00     0.150 C 
ATOM     12  C   UNL     1      66.828  38.155  20.357  1.00  0.00     0.174 C 
ATOM     13  O   UNL     1      67.405  38.623  17.876  1.00  0.00    -0.344 OA
ATOM     14  C   UNL     1      67.348  36.700  20.178  1.00  0.00     0.179 C 
ATOM     15  C   UNL     1      67.687  36.390  18.716  1.00  0.00     0.202 C 
BRANCH  12  16
ATOM     16  O   UNL     1      65.540  38.129  20.924  1.00  0.00    -0.388 OA
ATOM     17  H   UNL     1      64.882  38.156  20.178  1.00  0.00     0.211 HD
ENDBRANCH  12  16
BRANCH  14  18
ATOM     18  O   UNL     1      68.480  36.515  20.997  1.00  0.00    -0.387 OA
ATOM     19  H   UNL     1      68.167  36.454  21.942  1.00  0.00     0.211 HD
ENDBRANCH  14  18
BRANCH  15  20
ATOM     20  O   UNL     1      68.455  35.219  18.590  1.00  0.00    -0.385 OA
ATOM     21  H   UNL     1      67.841  34.446  18.662  1.00  0.00     0.211 HD
ENDBRANCH  15  20
ENDBRANCH   8   9
ENDBRANCH   7   8
ENDBRANCH   1   7
BRANCH   2  22
ATOM     22  O   UNL     1      71.914  37.469  19.948  1.00  0.00    -0.387 OA
ATOM     23  H   UNL     1      71.046  37.170  20.324  1.00  0.00     0.211 HD
ENDBRANCH   2  22
BRANCH   3  24
ATOM     24  O   UNL     1      69.949  38.814  21.435  1.00  0.00    -0.387 OA
ATOM     25  H   UNL     1      69.857  38.222  22.228  1.00  0.00     0.211 HD
ENDBRANCH   3  24
BRANCH   5  26
ATOM     26  O   UNL     1      72.660  41.810  19.779  1.00  0.00    -0.462 OA
BRANCH  26  27
ATOM     27  C   UNL     1      73.801  41.596  20.568  1.00  0.00     0.130 A 
ATOM     28  C   UNL     1      75.051  41.942  20.038  1.00  0.00     0.093 A 
ATOM     29  C   UNL     1      73.729  41.085  21.877  1.00  0.00     0.094 A 
ATOM     30  C   UNL     1      76.222  41.766  20.786  1.00  0.00     0.133 A 
ATOM     31  C   UNL     1      74.894  40.906  22.631  1.00  0.00     0.138 A 
ATOM     32  C   UNL     1      76.145  41.242  22.093  1.00  0.00     0.102 A 
ATOM     33  O   UNL     1      74.794  40.409  23.936  1.00  0.00    -0.484 OA
ATOM     34  C   UNL     1      77.337  41.081  22.963  1.00  0.00     0.174 C 
ATOM     35  C   UNL     1      75.929  39.938  24.667  1.00  0.00     0.211 C 
ATOM     36  O   UNL     1      78.502  41.199  22.500  1.00  0.00    -0.294 OA
ATOM     37  C   UNL     1      77.142  40.850  24.433  1.00  0.00     0.131 C 
BRANCH  30  38
ATOM     38  O   UNL     1      77.449  42.121  20.243  1.00  0.00    -0.507 OA
ATOM     39  H   UNL     1      77.892  43.013  20.455  1.00  0.00     0.293 HD
ENDBRANCH  30  38
BRANCH  35  40
ATOM     40  C   UNL     1      75.582  39.869  26.134  1.00  0.00    -0.003 A 
ATOM     41  C   UNL     1      75.351  38.629  26.757  1.00  0.00     0.057 A 
ATOM     42  C   UNL     1      75.474  41.047  26.889  1.00  0.00     0.011 A 
ATOM     43  C   UNL     1      75.055  38.560  28.126  1.00  0.00     0.158 A 
ATOM     44  C   UNL     1      75.184  40.979  28.254  1.00  0.00     0.051 A 
ATOM     45  C   UNL     1      74.974  39.735  28.885  1.00  0.00     0.160 A 
BRANCH  43  46
ATOM     46  O   UNL     1      74.842  37.327  28.744  1.00  0.00    -0.504 OA
ATOM     47  H   UNL     1      74.185  37.217  29.509  1.00  0.00     0.293 HD
ENDBRANCH  43  46
BRANCH  45  48
ATOM     48  O   UNL     1      74.682  39.626  30.252  1.00  0.00    -0.493 OA
ATOM     49  C   UNL     1      74.433  40.729  31.118  1.00  0.00     0.278 C 
ENDBRANCH  45  48
ENDBRANCH  35  40
ENDBRANCH  26  27
ENDBRANCH   5  26
BRANCH   4  50
ATOM     50  O   UNL     1      70.175  41.240  22.340  1.00  0.00    -0.384 OA
ATOM     51  H   UNL     1      70.347  40.971  23.280  1.00  0.00     0.211 HD
ENDBRANCH   4  50
TORSDOF 15
ENDMDL
MODEL 3
REMARK VINA RESULT:     2.041      1.835      3.037
REMARK INTER + INTRA:           2.229
REMARK INTER:                  -0.840
REMARK INTRA:                   3.069
REMARK UNBOUND:                -1.125
REMARK SMILES COc1ccc([C@@H]2CC(=O)c3c(O)cc(O[C@H]4O[C@H](CO[C@@H]5O[C@H](C)[C@@H](O)[C@H](O)[C@@H]5O)[C@H](O)[C@H](O)[C@@H]4O)cc3O2)cc1O
REMARK SMILES IDX 19 1 32 2 34 3 36 4 17 5 18 6 20 7 21 8 22 9 25 10 24 11
REMARK SMILES IDX 26 12 23 13 28 14 30 15 27 16 29 18 31 20 33 22 35 24 16 26
REMARK SMILES IDX 15 27 14 28 38 29 12 30 39 31 11 32 40 33 9 34 7 35 10 36
REMARK SMILES IDX 8 37 13 38 6 40 41 41 5 42 42 43 4 44 3 45 43 46 2 48 1 49
REMARK SMILES IDX 37 50
REMARK H PARENT 27 17 29 19 31 21 33 23 35 25 13 39 43 47 37 51
REMARK Flexibility Score: inf
ROOT
ATOM      1  C   UNL     1      70.878  38.039  19.655  1.00  0.00     0.180 C 
ATOM      2  C   UNL     1      70.237  37.931  18.227  1.00  0.00     0.177 C 
ATOM      3  C   UNL     1      69.884  36.472  17.875  1.00  0.00     0.180 C 
ATOM      4  C   UNL     1      71.123  35.550  18.054  1.00  0.00     0.214 C 
ATOM      5  C   UNL     1      72.097  36.096  19.141  1.00  0.00     0.339 C 
ATOM      6  O   UNL     1      71.387  36.806  20.133  1.00  0.00    -0.332 OA
ENDROOT
BRANCH   1   7
ATOM      7  C   UNL     1      69.946  38.591  20.738  1.00  0.00     0.198 C 
BRANCH   7   8
ATOM      8  O   UNL     1      70.649  39.487  21.588  1.00  0.00    -0.347 OA
BRANCH   8   9
ATOM      9  C   UNL     1      69.847  39.969  22.667  1.00  0.00     0.281 C 
ATOM     10  C   UNL     1      67.626  38.688  20.477  1.00  0.00     0.041 C 
ATOM     11  C   UNL     1      67.805  39.868  21.435  1.00  0.00     0.150 C 
ATOM     12  C   UNL     1      68.267  41.158  20.656  1.00  0.00     0.174 C 
ATOM     13  O   UNL     1      68.549  39.431  22.566  1.00  0.00    -0.344 OA
ATOM     14  C   UNL     1      69.356  42.042  21.329  1.00  0.00     0.179 C 
ATOM     15  C   UNL     1      69.771  41.495  22.698  1.00  0.00     0.202 C 
BRANCH  12  16
ATOM     16  O   UNL     1      67.124  41.936  20.396  1.00  0.00    -0.388 OA
ATOM     17  H   UNL     1      67.220  42.790  20.898  1.00  0.00     0.211 HD
ENDBRANCH  12  16
BRANCH  14  18
ATOM     18  O   UNL     1      70.472  42.125  20.472  1.00  0.00    -0.387 OA
ATOM     19  H   UNL     1      71.294  42.113  21.038  1.00  0.00     0.211 HD
ENDBRANCH  14  18
BRANCH  15  20
ATOM     20  O   UNL     1      70.964  42.079  23.160  1.00  0.00    -0.385 OA
ATOM     21  H   UNL     1      71.530  42.275  22.372  1.00  0.00     0.211 HD
ENDBRANCH  15  20
ENDBRANCH   8   9
ENDBRANCH   7   8
ENDBRANCH   1   7
BRANCH   2  22
ATOM     22  O   UNL     1      69.111  38.757  18.102  1.00  0.00    -0.387 OA
ATOM     23  H   UNL     1      69.200  39.228  17.232  1.00  0.00     0.211 HD
ENDBRANCH   2  22
BRANCH   3  24
ATOM     24  O   UNL     1      68.831  36.026  18.686  1.00  0.00    -0.387 OA
ATOM     25  H   UNL     1      69.220  35.414  19.365  1.00  0.00     0.211 HD
ENDBRANCH   3  24
BRANCH   5  26
ATOM     26  O   UNL     1      73.100  36.934  18.541  1.00  0.00    -0.462 OA
BRANCH  26  27
ATOM     27  C   UNL     1      73.803  37.955  19.199  1.00  0.00     0.130 A 
ATOM     28  C   UNL     1      74.223  39.062  18.450  1.00  0.00     0.093 A 
ATOM     29  C   UNL     1      74.065  37.921  20.581  1.00  0.00     0.094 A 
ATOM     30  C   UNL     1      74.914  40.119  19.058  1.00  0.00     0.133 A 
ATOM     31  C   UNL     1      74.754  38.973  21.195  1.00  0.00     0.138 A 
ATOM     32  C   UNL     1      75.184  40.075  20.441  1.00  0.00     0.102 A 
ATOM     33  O   UNL     1      74.989  38.923  22.574  1.00  0.00    -0.484 OA
ATOM     34  C   UNL     1      75.861  41.183  21.160  1.00  0.00     0.174 C 
ATOM     35  C   UNL     1      75.912  39.799  23.227  1.00  0.00     0.211 C 
ATOM     36  O   UNL     1      76.421  42.120  20.534  1.00  0.00    -0.294 OA
ATOM     37  C   UNL     1      75.805  41.221  22.660  1.00  0.00     0.131 C 
BRANCH  30  38
ATOM     38  O   UNL     1      75.315  41.209  18.298  1.00  0.00    -0.507 OA
ATOM     39  H   UNL     1      76.125  41.166  17.683  1.00  0.00     0.293 HD
ENDBRANCH  30  38
BRANCH  35  40
ATOM     40  C   UNL     1      75.640  39.789  24.712  1.00  0.00    -0.003 A 
ATOM     41  C   UNL     1      75.341  38.587  25.377  1.00  0.00     0.057 A 
ATOM     42  C   UNL     1      75.672  40.987  25.442  1.00  0.00     0.011 A 
ATOM     43  C   UNL     1      75.114  38.571  26.761  1.00  0.00     0.158 A 
ATOM     44  C   UNL     1      75.451  40.973  26.821  1.00  0.00     0.051 A 
ATOM     45  C   UNL     1      75.172  39.764  27.494  1.00  0.00     0.160 A 
BRANCH  43  46
ATOM     46  O   UNL     1      74.833  37.373  27.420  1.00  0.00    -0.504 OA
ATOM     47  H   UNL     1      75.556  36.839  27.891  1.00  0.00     0.293 HD
ENDBRANCH  43  46
BRANCH  45  48
ATOM     48  O   UNL     1      74.946  39.708  28.876  1.00  0.00    -0.493 OA
ATOM     49  C   UNL     1      75.049  40.821  29.759  1.00  0.00     0.278 C 
ENDBRANCH  45  48
ENDBRANCH  35  40
ENDBRANCH  26  27
ENDBRANCH   5  26
BRANCH   4  50
ATOM     50  O   UNL     1      70.695  34.242  18.368  1.00  0.00    -0.384 OA
ATOM     51  H   UNL     1      71.459  33.631  18.201  1.00  0.00     0.211 HD
ENDBRANCH   4  50
TORSDOF 15
ENDMDL
MODEL 4
REMARK VINA RESULT:     2.063      1.530      2.634
REMARK INTER + INTRA:           2.265
REMARK INTER:                   2.052
REMARK INTRA:                   0.213
REMARK UNBOUND:                -1.125
REMARK SMILES COc1ccc([C@@H]2CC(=O)c3c(O)cc(O[C@H]4O[C@H](CO[C@@H]5O[C@H](C)[C@@H](O)[C@H](O)[C@@H]5O)[C@H](O)[C@H](O)[C@@H]4O)cc3O2)cc1O
REMARK SMILES IDX 19 1 32 2 34 3 36 4 17 5 18 6 20 7 21 8 22 9 25 10 24 11
REMARK SMILES IDX 26 12 23 13 28 14 30 15 27 16 29 18 31 20 33 22 35 24 16 26
REMARK SMILES IDX 15 27 14 28 38 29 12 30 39 31 11 32 40 33 9 34 7 35 10 36
REMARK SMILES IDX 8 37 13 38 6 40 41 41 5 42 42 43 4 44 3 45 43 46 2 48 1 49
REMARK SMILES IDX 37 50
REMARK H PARENT 27 17 29 19 31 21 33 23 35 25 13 39 43 47 37 51
REMARK Flexibility Score: inf
ROOT
ATOM      1  C   UNL     1      69.849  39.898  20.308  1.00  0.00     0.180 C 
ATOM      2  C   UNL     1      69.651  40.262  18.795  1.00  0.00     0.177 C 
ATOM      3  C   UNL     1      70.045  39.088  17.875  1.00  0.00     0.180 C 
ATOM      4  C   UNL     1      71.485  38.598  18.197  1.00  0.00     0.214 C 
ATOM      5  C   UNL     1      71.862  38.855  19.688  1.00  0.00     0.339 C 
ATOM      6  O   UNL     1      70.715  38.795  20.509  1.00  0.00    -0.332 OA
ENDROOT
BRANCH   1   7
ATOM      7  C   UNL     1      68.555  39.598  21.071  1.00  0.00     0.198 C 
BRANCH   7   8
ATOM      8  O   UNL     1      67.682  38.809  20.275  1.00  0.00    -0.347 OA
BRANCH   8   9
ATOM      9  C   UNL     1      66.894  37.904  21.050  1.00  0.00     0.281 C 
ATOM     10  C   UNL     1      69.599  36.104  20.150  1.00  0.00     0.041 C 
ATOM     11  C   UNL     1      68.086  35.965  20.332  1.00  0.00     0.150 C 
ATOM     12  C   UNL     1      67.341  36.078  18.947  1.00  0.00     0.174 C 
ATOM     13  O   UNL     1      67.677  36.791  21.415  1.00  0.00    -0.344 OA
ATOM     14  C   UNL     1      66.018  36.895  18.917  1.00  0.00     0.179 C 
ATOM     15  C   UNL     1      65.646  37.433  20.303  1.00  0.00     0.202 C 
BRANCH  12  16
ATOM     16  O   UNL     1      67.099  34.772  18.482  1.00  0.00    -0.388 OA
ATOM     17  H   UNL     1      66.809  34.841  17.532  1.00  0.00     0.211 HD
ENDBRANCH  12  16
BRANCH  14  18
ATOM     18  O   UNL     1      66.157  37.955  17.998  1.00  0.00    -0.387 OA
ATOM     19  H   UNL     1      65.974  37.595  17.086  1.00  0.00     0.211 HD
ENDBRANCH  14  18
BRANCH  15  20
ATOM     20  O   UNL     1      64.657  38.430  20.234  1.00  0.00    -0.385 OA
ATOM     21  H   UNL     1      63.865  38.104  20.730  1.00  0.00     0.211 HD
ENDBRANCH  15  20
ENDBRANCH   8   9
ENDBRANCH   7   8
ENDBRANCH   1   7
BRANCH   2  22
ATOM     22  O   UNL     1      68.340  40.681  18.530  1.00  0.00    -0.387 OA
ATOM     23  H   UNL     1      68.368  41.670  18.451  1.00  0.00     0.211 HD
ENDBRANCH   2  22
BRANCH   3  24
ATOM     24  O   UNL     1      69.132  38.035  18.028  1.00  0.00    -0.387 OA
ATOM     25  H   UNL     1      68.318  38.272  17.510  1.00  0.00     0.211 HD
ENDBRANCH   3  24
BRANCH   5  26
ATOM     26  O   UNL     1      72.516  40.128  19.826  1.00  0.00    -0.462 OA
BRANCH  26  27
ATOM     27  C   UNL     1      73.634  40.381  20.637  1.00  0.00     0.130 A 
ATOM     28  C   UNL     1      74.703  41.101  20.090  1.00  0.00     0.093 A 
ATOM     29  C   UNL     1      73.699  39.971  21.982  1.00  0.00     0.094 A 
ATOM     30  C   UNL     1      75.838  41.397  20.858  1.00  0.00     0.133 A 
ATOM     31  C   UNL     1      74.828  40.263  22.755  1.00  0.00     0.138 A 
ATOM     32  C   UNL     1      75.903  40.974  22.201  1.00  0.00     0.102 A 
ATOM     33  O   UNL     1      74.862  39.857  24.095  1.00  0.00    -0.484 OA
ATOM     34  C   UNL     1      77.047  41.300  23.089  1.00  0.00     0.174 C 
ATOM     35  C   UNL     1      76.065  39.862  24.868  1.00  0.00     0.211 C 
ATOM     36  O   UNL     1      78.113  41.782  22.626  1.00  0.00    -0.294 OA
ATOM     37  C   UNL     1      76.895  41.120  24.572  1.00  0.00     0.131 C 
BRANCH  30  38
ATOM     38  O   UNL     1      76.883  42.118  20.297  1.00  0.00    -0.507 OA
ATOM     39  H   UNL     1      77.124  42.035  19.311  1.00  0.00     0.293 HD
ENDBRANCH  30  38
BRANCH  35  40
ATOM     40  C   UNL     1      75.714  39.782  26.333  1.00  0.00    -0.003 A 
ATOM     41  C   UNL     1      76.009  40.850  27.200  1.00  0.00     0.057 A 
ATOM     42  C   UNL     1      75.100  38.630  26.849  1.00  0.00     0.011 A 
ATOM     43  C   UNL     1      75.659  40.788  28.556  1.00  0.00     0.158 A 
ATOM     44  C   UNL     1      74.747  38.569  28.199  1.00  0.00     0.051 A 
ATOM     45  C   UNL     1      75.022  39.649  29.065  1.00  0.00     0.160 A 
BRANCH  43  46
ATOM     46  O   UNL     1      75.939  41.857  29.409  1.00  0.00    -0.504 OA
ATOM     47  H   UNL     1      76.843  41.963  29.857  1.00  0.00     0.293 HD
ENDBRANCH  43  46
BRANCH  45  48
ATOM     48  O   UNL     1      74.682  39.627  30.425  1.00  0.00    -0.493 OA
ATOM     49  C   UNL     1      74.497  40.785  31.232  1.00  0.00     0.278 C 
ENDBRANCH  45  48
ENDBRANCH  35  40
ENDBRANCH  26  27
ENDBRANCH   5  26
BRANCH   4  50
ATOM     50  O   UNL     1      71.598  37.228  17.875  1.00  0.00    -0.384 OA
ATOM     51  H   UNL     1      70.713  36.926  17.545  1.00  0.00     0.211 HD
ENDBRANCH   4  50
TORSDOF 15
ENDMDL
MODEL 5
REMARK VINA RESULT:     3.423      1.780      3.024
REMARK INTER + INTRA:           4.499
REMARK INTER:                   3.081
REMARK INTRA:                   1.418
REMARK UNBOUND:                -1.125
REMARK SMILES COc1ccc([C@@H]2CC(=O)c3c(O)cc(O[C@H]4O[C@H](CO[C@@H]5O[C@H](C)[C@@H](O)[C@H](O)[C@@H]5O)[C@H](O)[C@H](O)[C@@H]4O)cc3O2)cc1O
REMARK SMILES IDX 19 1 32 2 34 3 36 4 17 5 18 6 20 7 21 8 22 9 25 10 24 11
REMARK SMILES IDX 26 12 23 13 28 14 30 15 27 16 29 18 31 20 33 22 35 24 16 26
REMARK SMILES IDX 15 27 14 28 38 29 12 30 39 31 11 32 40 33 9 34 7 35 10 36
REMARK SMILES IDX 8 37 13 38 6 40 41 41 5 42 42 43 4 44 3 45 43 46 2 48 1 49
REMARK SMILES IDX 37 50
REMARK H PARENT 27 17 29 19 31 21 33 23 35 25 13 39 43 47 37 51
REMARK Flexibility Score: inf
ROOT
ATOM      1  C   UNL     1      71.158  39.810  21.042  1.00  0.00     0.180 C 
ATOM      2  C   UNL     1      69.905  40.621  21.525  1.00  0.00     0.177 C 
ATOM      3  C   UNL     1      68.933  40.904  20.362  1.00  0.00     0.180 C 
ATOM      4  C   UNL     1      69.676  41.585  19.179  1.00  0.00     0.214 C 
ATOM      5  C   UNL     1      71.181  41.181  19.133  1.00  0.00     0.339 C 
ATOM      6  O   UNL     1      71.361  39.876  19.642  1.00  0.00    -0.332 OA
ENDROOT
BRANCH   1   7
ATOM      7  C   UNL     1      71.151  38.328  21.427  1.00  0.00     0.198 C 
BRANCH   7   8
ATOM      8  O   UNL     1      70.279  37.599  20.575  1.00  0.00    -0.347 OA
BRANCH   8   9
ATOM      9  C   UNL     1      70.538  37.831  19.190  1.00  0.00     0.281 C 
ATOM     10  C   UNL     1      67.481  36.409  19.245  1.00  0.00     0.041 C 
ATOM     11  C   UNL     1      68.779  36.406  18.434  1.00  0.00     0.150 C 
ATOM     12  C   UNL     1      69.679  35.170  18.820  1.00  0.00     0.174 C 
ATOM     13  O   UNL     1      69.339  37.713  18.459  1.00  0.00    -0.344 OA
ATOM     14  C   UNL     1      71.210  35.419  18.946  1.00  0.00     0.179 C 
ATOM     15  C   UNL     1      71.583  36.869  18.624  1.00  0.00     0.202 C 
BRANCH  12  16
ATOM     16  O   UNL     1      69.444  34.154  17.875  1.00  0.00    -0.388 OA
ATOM     17  H   UNL     1      70.296  33.656  17.751  1.00  0.00     0.211 HD
ENDBRANCH  12  16
BRANCH  14  18
ATOM     18  O   UNL     1      71.621  35.083  20.252  1.00  0.00    -0.387 OA
ATOM     19  H   UNL     1      72.196  34.269  20.192  1.00  0.00     0.211 HD
ENDBRANCH  14  18
BRANCH  15  20
ATOM     20  O   UNL     1      72.885  37.187  19.048  1.00  0.00    -0.385 OA
ATOM     21  H   UNL     1      73.501  37.005  18.295  1.00  0.00     0.211 HD
ENDBRANCH  15  20
ENDBRANCH   8   9
ENDBRANCH   7   8
ENDBRANCH   1   7
BRANCH   2  22
ATOM     22  O   UNL     1      69.244  39.974  22.578  1.00  0.00    -0.387 OA
ATOM     23  H   UNL     1      68.286  40.223  22.507  1.00  0.00     0.211 HD
ENDBRANCH   2  22
BRANCH   3  24
ATOM     24  O   UNL     1      68.340  39.707  19.934  1.00  0.00    -0.387 OA
ATOM     25  H   UNL     1      68.236  39.127  20.733  1.00  0.00     0.211 HD
ENDBRANCH   3  24
BRANCH   5  26
ATOM     26  O   UNL     1      71.977  42.125  19.869  1.00  0.00    -0.462 OA
BRANCH  26  27
ATOM     27  C   UNL     1      73.182  41.831  20.525  1.00  0.00     0.130 A 
ATOM     28  C   UNL     1      74.384  42.101  19.858  1.00  0.00     0.093 A 
ATOM     29  C   UNL     1      73.224  41.314  21.833  1.00  0.00     0.094 A 
ATOM     30  C   UNL     1      75.619  41.844  20.471  1.00  0.00     0.133 A 
ATOM     31  C   UNL     1      74.452  41.054  22.451  1.00  0.00     0.138 A 
ATOM     32  C   UNL     1      75.655  41.314  21.777  1.00  0.00     0.102 A 
ATOM     33  O   UNL     1      74.467  40.554  23.758  1.00  0.00    -0.484 OA
ATOM     34  C   UNL     1      76.923  41.070  22.507  1.00  0.00     0.174 C 
ATOM     35  C   UNL     1      75.644  40.004  24.356  1.00  0.00     0.211 C 
ATOM     36  O   UNL     1      78.034  41.118  21.917  1.00  0.00    -0.294 OA
ATOM     37  C   UNL     1      76.880  40.839  23.990  1.00  0.00     0.131 C 
BRANCH  30  38
ATOM     38  O   UNL     1      76.798  42.125  19.794  1.00  0.00    -0.507 OA
ATOM     39  H   UNL     1      77.007  43.058  19.447  1.00  0.00     0.293 HD
ENDBRANCH  30  38
BRANCH  35  40
ATOM     40  C   UNL     1      75.459  39.945  25.853  1.00  0.00    -0.003 A 
ATOM     41  C   UNL     1      75.462  38.709  26.526  1.00  0.00     0.057 A 
ATOM     42  C   UNL     1      75.271  41.125  26.588  1.00  0.00     0.011 A 
ATOM     43  C   UNL     1      75.318  38.653  27.919  1.00  0.00     0.158 A 
ATOM     44  C   UNL     1      75.132  41.071  27.977  1.00  0.00     0.051 A 
ATOM     45  C   UNL     1      75.156  39.834  28.656  1.00  0.00     0.160 A 
BRANCH  43  46
ATOM     46  O   UNL     1      75.336  37.426  28.585  1.00  0.00    -0.504 OA
ATOM     47  H   UNL     1      75.843  36.626  28.220  1.00  0.00     0.293 HD
ENDBRANCH  43  46
BRANCH  45  48
ATOM     48  O   UNL     1      75.021  39.739  30.048  1.00  0.00    -0.493 OA
ATOM     49  C   UNL     1      74.462  40.751  30.879  1.00  0.00     0.278 C 
ENDBRANCH  45  48
ENDBRANCH  35  40
ENDBRANCH  26  27
ENDBRANCH   5  26
BRANCH   4  50
ATOM     50  O   UNL     1      69.027  41.262  17.967  1.00  0.00    -0.384 OA
ATOM     51  H   UNL     1      69.334  41.913  17.283  1.00  0.00     0.211 HD
ENDBRANCH   4  50
TORSDOF 15
ENDMDL
