MODEL 1
REMARK VINA RESULT:    -4.444      0.000      0.000
REMARK INTER + INTRA:          -6.144
REMARK INTER:                  -5.483
REMARK INTRA:                  -0.662
REMARK UNBOUND:                -0.662
REMARK SMILES CC(C)=CCC[C@H](C)c1ccc(C)cc1
REMARK SMILES IDX 6 1 7 2 8 3 9 4 13 5 12 6 11 7 14 8 10 9 15 10 5 11 4 12
REMARK SMILES IDX 2 13 1 14 3 15
REMARK H PARENT
REMARK Flexibility Score: inf
ROOT
ATOM      1  C   UNL     1      -9.571   4.305  20.443  1.00  0.00     0.012 C 
ENDROOT
BRANCH   1   2
ATOM      2  C   UNL     1     -10.700   5.110  21.125  1.00  0.00     0.016 C 
ATOM      3  C   UNL     1     -12.055   4.384  21.077  1.00  0.00     0.013 C 
BRANCH   2   4
ATOM      4  C   UNL     1     -10.751   6.545  20.616  1.00  0.00    -0.045 A 
ATOM      5  C   UNL     1     -10.691  10.601  19.120  1.00  0.00     0.044 C 
ATOM      6  C   UNL     1     -10.695   9.185  19.615  1.00  0.00    -0.051 A 
ATOM      7  C   UNL     1      -9.706   8.745  20.506  1.00  0.00     0.004 A 
ATOM      8  C   UNL     1     -11.721   8.307  19.239  1.00  0.00     0.004 A 
ATOM      9  C   UNL     1      -9.728   7.435  20.992  1.00  0.00     0.004 A 
ATOM     10  C   UNL     1     -11.744   6.997  19.724  1.00  0.00     0.004 A 
ENDBRANCH   2   4
ENDBRANCH   1   2
BRANCH   1  11
ATOM     11  C   UNL     1      -9.870   3.902  18.989  1.00  0.00     0.028 C 
BRANCH  11  12
ATOM     12  C   UNL     1     -10.358   2.477  18.920  1.00  0.00    -0.028 C 
ATOM     13  C   UNL     1     -11.357   2.057  18.112  1.00  0.00    -0.080 C 
ATOM     14  C   UNL     1     -12.125   3.010  17.225  1.00  0.00     0.039 C 
ATOM     15  C   UNL     1     -11.720   0.594  18.118  1.00  0.00     0.039 C 
ENDBRANCH  11  12
ENDBRANCH   1  11
TORSDOF 4
ENDMDL
MODEL 2
REMARK VINA RESULT:    -3.992      1.105      5.820
REMARK INTER + INTRA:          -5.587
REMARK INTER:                  -5.418
REMARK INTRA:                  -0.169
REMARK UNBOUND:                -0.662
REMARK SMILES CC(C)=CCC[C@H](C)c1ccc(C)cc1
REMARK SMILES IDX 6 1 7 2 8 3 9 4 13 5 12 6 11 7 14 8 10 9 15 10 5 11 4 12
REMARK SMILES IDX 2 13 1 14 3 15
REMARK H PARENT
REMARK Flexibility Score: inf
ROOT
ATOM      1  C   UNL     1     -10.741   7.868  20.868  1.00  0.00     0.012 C 
ENDROOT
BRANCH   1   2
ATOM      2  C   UNL     1      -9.847   6.615  21.010  1.00  0.00     0.016 C 
ATOM      3  C   UNL     1      -8.362   6.917  20.749  1.00  0.00     0.013 C 
BRANCH   2   4
ATOM      4  C   UNL     1     -10.391   5.446  20.199  1.00  0.00    -0.045 A 
ATOM      5  C   UNL     1     -11.756   2.019  17.945  1.00  0.00     0.044 C 
ATOM      6  C   UNL     1     -11.273   3.189  18.749  1.00  0.00    -0.051 A 
ATOM      7  C   UNL     1      -9.987   3.707  18.540  1.00  0.00     0.004 A 
ATOM      8  C   UNL     1     -12.122   3.813  19.672  1.00  0.00     0.004 A 
ATOM      9  C   UNL     1      -9.547   4.816  19.266  1.00  0.00     0.004 A 
ATOM     10  C   UNL     1     -11.684   4.922  20.399  1.00  0.00     0.004 A 
ENDBRANCH   2   4
ENDBRANCH   1   2
BRANCH   1  11
ATOM     11  C   UNL     1      -9.962   9.187  20.721  1.00  0.00     0.028 C 
BRANCH  11  12
ATOM     12  C   UNL     1     -10.739  10.175  19.888  1.00  0.00    -0.028 C 
ATOM     13  C   UNL     1     -11.352   9.866  18.723  1.00  0.00    -0.080 C 
ATOM     14  C   UNL     1     -11.267   8.485  18.115  1.00  0.00     0.039 C 
ATOM     15  C   UNL     1     -12.124  10.945  18.009  1.00  0.00     0.039 C 
ENDBRANCH  11  12
ENDBRANCH   1  11
TORSDOF 4
ENDMDL
MODEL 3
REMARK VINA RESULT:    -3.977      0.911      1.608
REMARK INTER + INTRA:          -5.569
REMARK INTER:                  -4.973
REMARK INTRA:                  -0.596
REMARK UNBOUND:                -0.662
REMARK SMILES CC(C)=CCC[C@H](C)c1ccc(C)cc1
REMARK SMILES IDX 6 1 7 2 8 3 9 4 13 5 12 6 11 7 14 8 10 9 15 10 5 11 4 12
REMARK SMILES IDX 2 13 1 14 3 15
REMARK H PARENT
REMARK Flexibility Score: inf
ROOT
ATOM      1  C   UNL     1      -9.112   5.070  20.228  1.00  0.00     0.012 C 
ENDROOT
BRANCH   1   2
ATOM      2  C   UNL     1     -10.239   5.904  20.876  1.00  0.00     0.016 C 
ATOM      3  C   UNL     1     -11.524   5.089  21.098  1.00  0.00     0.013 C 
BRANCH   2   4
ATOM      4  C   UNL     1     -10.461   7.217  20.136  1.00  0.00    -0.045 A 
ATOM      5  C   UNL     1     -11.297  10.923  18.073  1.00  0.00     0.044 C 
ATOM      6  C   UNL     1     -11.027   9.646  18.811  1.00  0.00    -0.051 A 
ATOM      7  C   UNL     1     -11.762   8.489  18.515  1.00  0.00     0.004 A 
ATOM      8  C   UNL     1      -9.997   9.580  19.759  1.00  0.00     0.004 A 
ATOM      9  C   UNL     1     -11.489   7.291  19.179  1.00  0.00     0.004 A 
ATOM     10  C   UNL     1      -9.722   8.383  20.424  1.00  0.00     0.004 A 
ENDBRANCH   2   4
ENDBRANCH   1   2
BRANCH   1  11
ATOM     11  C   UNL     1      -9.286   4.837  18.717  1.00  0.00     0.028 C 
BRANCH  11  12
ATOM     12  C   UNL     1      -9.652   3.401  18.437  1.00  0.00    -0.028 C 
ATOM     13  C   UNL     1     -10.907   2.980  18.162  1.00  0.00    -0.080 C 
ATOM     14  C   UNL     1     -12.087   3.925  18.161  1.00  0.00     0.039 C 
ATOM     15  C   UNL     1     -11.126   1.518  17.867  1.00  0.00     0.039 C 
ENDBRANCH  11  12
ENDBRANCH   1  11
TORSDOF 4
ENDMDL
MODEL 4
REMARK VINA RESULT:    -3.275      1.107      6.198
REMARK INTER + INTRA:          -4.703
REMARK INTER:                  -3.976
REMARK INTRA:                  -0.727
REMARK UNBOUND:                -0.662
REMARK SMILES CC(C)=CCC[C@H](C)c1ccc(C)cc1
REMARK SMILES IDX 6 1 7 2 8 3 9 4 13 5 12 6 11 7 14 8 10 9 15 10 5 11 4 12
REMARK SMILES IDX 2 13 1 14 3 15
REMARK H PARENT
REMARK Flexibility Score: inf
ROOT
ATOM      1  C   UNL     1      -9.670   6.080  20.247  1.00  0.00     0.012 C 
ENDROOT
BRANCH   1   2
ATOM      2  C   UNL     1     -11.127   5.683  19.918  1.00  0.00     0.016 C 
ATOM      3  C   UNL     1     -12.068   5.839  21.125  1.00  0.00     0.013 C 
BRANCH   2   4
ATOM      4  C   UNL     1     -11.198   4.314  19.253  1.00  0.00    -0.045 A 
ATOM      5  C   UNL     1     -11.426   0.344  17.557  1.00  0.00     0.044 C 
ATOM      6  C   UNL     1     -11.370   1.714  18.164  1.00  0.00    -0.051 A 
ATOM      7  C   UNL     1     -10.521   1.973  19.249  1.00  0.00     0.004 A 
ATOM      8  C   UNL     1     -12.120   2.763  17.614  1.00  0.00     0.004 A 
ATOM      9  C   UNL     1     -10.445   3.256  19.794  1.00  0.00     0.004 A 
ATOM     10  C   UNL     1     -12.045   4.047  18.159  1.00  0.00     0.004 A 
ENDBRANCH   2   4
ENDBRANCH   1   2
BRANCH   1  11
ATOM     11  C   UNL     1      -9.537   7.374  21.068  1.00  0.00     0.028 C 
BRANCH  11  12
ATOM     12  C   UNL     1      -9.396   8.570  20.160  1.00  0.00    -0.028 C 
ATOM     13  C   UNL     1     -10.277   9.595  20.115  1.00  0.00    -0.080 C 
ATOM     14  C   UNL     1     -11.535   9.607  20.953  1.00  0.00     0.039 C 
ATOM     15  C   UNL     1      -9.994  10.746  19.184  1.00  0.00     0.039 C 
ENDBRANCH  11  12
ENDBRANCH   1  11
TORSDOF 4
ENDMDL
MODEL 5
REMARK VINA RESULT:    -2.549      1.417      5.779
REMARK INTER + INTRA:          -3.807
REMARK INTER:                  -3.315
REMARK INTRA:                  -0.492
REMARK UNBOUND:                -0.662
REMARK SMILES CC(C)=CCC[C@H](C)c1ccc(C)cc1
REMARK SMILES IDX 6 1 7 2 8 3 9 4 13 5 12 6 11 7 14 8 10 9 15 10 5 11 4 12
REMARK SMILES IDX 2 13 1 14 3 15
REMARK H PARENT
REMARK Flexibility Score: inf
ROOT
ATOM      1  C   UNL     1     -11.862   7.577  18.895  1.00  0.00     0.012 C 
ENDROOT
BRANCH   1   2
ATOM      2  C   UNL     1     -12.088   6.198  19.554  1.00  0.00     0.016 C 
ATOM      3  C   UNL     1     -12.125   6.278  21.090  1.00  0.00     0.013 C 
BRANCH   2   4
ATOM      4  C   UNL     1     -11.119   5.154  19.014  1.00  0.00    -0.045 A 
ATOM      5  C   UNL     1      -8.258   2.211  17.656  1.00  0.00     0.044 C 
ATOM      6  C   UNL     1      -9.250   3.219  18.155  1.00  0.00    -0.051 A 
ATOM      7  C   UNL     1      -8.813   4.457  18.647  1.00  0.00     0.004 A 
ATOM      8  C   UNL     1     -10.625   2.958  18.077  1.00  0.00     0.004 A 
ATOM      9  C   UNL     1      -9.738   5.409  19.082  1.00  0.00     0.004 A 
ATOM     10  C   UNL     1     -11.551   3.909  18.512  1.00  0.00     0.004 A 
ENDBRANCH   2   4
ENDBRANCH   1   2
BRANCH   1  11
ATOM     11  C   UNL     1     -11.672   8.733  19.892  1.00  0.00     0.028 C 
BRANCH  11  12
ATOM     12  C   UNL     1     -10.325   9.385  19.704  1.00  0.00    -0.028 C 
ATOM     13  C   UNL     1      -9.174   8.912  20.233  1.00  0.00    -0.080 C 
ATOM     14  C   UNL     1      -9.144   7.690  21.123  1.00  0.00     0.039 C 
ATOM     15  C   UNL     1      -7.892   9.645  19.935  1.00  0.00     0.039 C 
ENDBRANCH  11  12
ENDBRANCH   1  11
TORSDOF 4
ENDMDL
