MODEL 1
REMARK VINA RESULT:    -1.958      0.000      0.000
REMARK INTER + INTRA:          -1.958
REMARK INTER:                  -1.958
REMARK INTRA:                   0.000
REMARK UNBOUND:                 0.000
REMARK SMILES CC(=O)[O-]
REMARK SMILES IDX 1 1 2 2 3 3 4 4
REMARK H PARENT
REMARK Flexibility Score: inf
ROOT
ATOM      1  C   UNL     1      -7.341  -6.280  36.029  1.00  0.00     0.063 C 
ATOM      2  C   UNL     1      -7.052  -7.310  34.991  1.00  0.00     0.038 C 
ATOM      3  O   UNL     1      -5.876  -7.733  34.830  1.00  0.00    -0.550 OA
ATOM      4  O   UNL     1      -8.086  -7.847  34.235  1.00  0.00    -0.550 OA
ENDROOT
TORSDOF 0
ENDMDL
MODEL 2
REMARK VINA RESULT:    -1.939     26.280     26.732
REMARK INTER + INTRA:          -1.939
REMARK INTER:                  -1.939
REMARK INTRA:                   0.000
REMARK UNBOUND:                 0.000
REMARK SMILES CC(=O)[O-]
REMARK SMILES IDX 1 1 2 2 3 3 4 4
REMARK H PARENT
REMARK Flexibility Score: inf
ROOT
ATOM      1  C   UNL     1     -24.426   7.190  21.063  1.00  0.00     0.063 C 
ATOM      2  C   UNL     1     -23.354   7.981  20.395  1.00  0.00     0.038 C 
ATOM      3  O   UNL     1     -23.452   8.273  19.173  1.00  0.00    -0.550 OA
ATOM      4  O   UNL     1     -22.269   8.444  21.129  1.00  0.00    -0.550 OA
ENDROOT
TORSDOF 0
ENDMDL
MODEL 3
REMARK VINA RESULT:    -1.928      1.444      1.704
REMARK INTER + INTRA:          -1.928
REMARK INTER:                  -1.928
REMARK INTRA:                   0.000
REMARK UNBOUND:                 0.000
REMARK SMILES CC(=O)[O-]
REMARK SMILES IDX 1 1 2 2 3 3 4 4
REMARK H PARENT
REMARK Flexibility Score: inf
ROOT
ATOM      1  C   UNL     1      -5.875  -7.546  34.636  1.00  0.00     0.063 C 
ATOM      2  C   UNL     1      -7.327  -7.270  34.830  1.00  0.00     0.038 C 
ATOM      3  O   UNL     1      -7.717  -6.603  35.825  1.00  0.00    -0.550 OA
ATOM      4  O   UNL     1      -8.250  -7.702  33.886  1.00  0.00    -0.550 OA
ENDROOT
TORSDOF 0
ENDMDL
MODEL 4
REMARK VINA RESULT:    -1.902     27.118     27.260
REMARK INTER + INTRA:          -1.902
REMARK INTER:                  -1.902
REMARK INTRA:                   0.000
REMARK UNBOUND:                 0.000
REMARK SMILES CC(=O)[O-]
REMARK SMILES IDX 1 1 2 2 3 3 4 4
REMARK H PARENT
REMARK Flexibility Score: inf
ROOT
ATOM      1  C   UNL     1     -22.388   6.083  17.658  1.00  0.00     0.063 C 
ATOM      2  C   UNL     1     -21.697   7.366  17.343  1.00  0.00     0.038 C 
ATOM      3  O   UNL     1     -21.914   8.390  18.044  1.00  0.00    -0.550 OA
ATOM      4  O   UNL     1     -20.770   7.422  16.310  1.00  0.00    -0.550 OA
ENDROOT
TORSDOF 0
ENDMDL
MODEL 5
REMARK VINA RESULT:    -1.869     26.482     26.891
REMARK INTER + INTRA:          -1.869
REMARK INTER:                  -1.869
REMARK INTRA:                   0.000
REMARK UNBOUND:                 0.000
REMARK SMILES CC(=O)[O-]
REMARK SMILES IDX 1 1 2 2 3 3 4 4
REMARK H PARENT
REMARK Flexibility Score: inf
ROOT
ATOM      1  C   UNL     1     -20.447   6.561  15.875  1.00  0.00     0.063 C 
ATOM      2  C   UNL     1     -21.244   6.783  17.115  1.00  0.00     0.038 C 
ATOM      3  O   UNL     1     -21.688   7.931  17.383  1.00  0.00    -0.550 OA
ATOM      4  O   UNL     1     -21.546   5.715  17.950  1.00  0.00    -0.550 OA
ENDROOT
TORSDOF 0
ENDMDL
MODEL 6
REMARK VINA RESULT:    -1.838     27.060     27.242
REMARK INTER + INTRA:          -1.838
REMARK INTER:                  -1.838
REMARK INTRA:                   0.000
REMARK UNBOUND:                 0.000
REMARK SMILES CC(=O)[O-]
REMARK SMILES IDX 1 1 2 2 3 3 4 4
REMARK H PARENT
REMARK Flexibility Score: inf
ROOT
ATOM      1  C   UNL     1     -20.597   7.155  16.407  1.00  0.00     0.063 C 
ATOM      2  C   UNL     1     -21.763   7.203  17.334  1.00  0.00     0.038 C 
ATOM      3  O   UNL     1     -22.469   6.176  17.516  1.00  0.00    -0.550 OA
ATOM      4  O   UNL     1     -22.042   8.366  18.041  1.00  0.00    -0.550 OA
ENDROOT
TORSDOF 0
ENDMDL
MODEL 7
REMARK VINA RESULT:    -1.821     27.244     27.324
REMARK INTER + INTRA:          -1.821
REMARK INTER:                  -1.821
REMARK INTRA:                   0.000
REMARK UNBOUND:                 0.000
REMARK SMILES CC(=O)[O-]
REMARK SMILES IDX 1 1 2 2 3 3 4 4
REMARK H PARENT
REMARK Flexibility Score: inf
ROOT
ATOM      1  C   UNL     1     -21.981   7.310  17.448  1.00  0.00     0.063 C 
ATOM      2  C   UNL     1     -22.349   8.188  18.594  1.00  0.00     0.038 C 
ATOM      3  O   UNL     1     -21.583   9.125  18.945  1.00  0.00    -0.550 OA
ATOM      4  O   UNL     1     -23.564   8.012  19.244  1.00  0.00    -0.550 OA
ENDROOT
TORSDOF 0
ENDMDL
MODEL 8
REMARK VINA RESULT:    -1.815     26.585     26.855
REMARK INTER + INTRA:          -1.815
REMARK INTER:                  -1.815
REMARK INTRA:                   0.000
REMARK UNBOUND:                 0.000
REMARK SMILES CC(=O)[O-]
REMARK SMILES IDX 1 1 2 2 3 3 4 4
REMARK H PARENT
REMARK Flexibility Score: inf
ROOT
ATOM      1  C   UNL     1     -22.026   7.885  17.957  1.00  0.00     0.063 C 
ATOM      2  C   UNL     1     -22.113   6.438  17.610  1.00  0.00     0.038 C 
ATOM      3  O   UNL     1     -22.794   5.656  18.324  1.00  0.00    -0.550 OA
ATOM      4  O   UNL     1     -21.488   5.958  16.466  1.00  0.00    -0.550 OA
ENDROOT
TORSDOF 0
ENDMDL
MODEL 9
REMARK VINA RESULT:    -1.764     26.188     26.642
REMARK INTER + INTRA:          -1.764
REMARK INTER:                  -1.764
REMARK INTRA:                   0.000
REMARK UNBOUND:                 0.000
REMARK SMILES CC(=O)[O-]
REMARK SMILES IDX 1 1 2 2 3 3 4 4
REMARK H PARENT
REMARK Flexibility Score: inf
ROOT
ATOM      1  C   UNL     1     -22.074   7.785  20.981  1.00  0.00     0.063 C 
ATOM      2  C   UNL     1     -23.422   7.806  20.346  1.00  0.00     0.038 C 
ATOM      3  O   UNL     1     -23.566   8.260  19.180  1.00  0.00    -0.550 OA
ATOM      4  O   UNL     1     -24.516   7.273  21.017  1.00  0.00    -0.550 OA
ENDROOT
TORSDOF 0
ENDMDL
