MODEL 1
REMARK VINA RESULT:    -6.037      0.000      0.000
REMARK INTER + INTRA:         -12.858
REMARK INTER:                 -10.626
REMARK INTRA:                  -2.232
REMARK UNBOUND:                -2.232
REMARK SMILES CCCCCCC=CCCCCCCCC(=O)[O-]
REMARK SMILES IDX 10 1 11 2 12 3 13 4 14 5 15 6 16 7 17 8 18 9 9 10 8 11 7 12
REMARK SMILES IDX 6 13 5 14 4 15 3 16 2 17 1 18
REMARK H PARENT
REMARK Flexibility Score: inf
ROOT
ATOM      1  C   UNL     1     -18.140  -8.710   1.128  1.00  0.00     0.004 C 
ENDROOT
BRANCH   1   2
ATOM      2  C   UNL     1     -16.883  -7.890   0.796  1.00  0.00     0.000 C 
BRANCH   2   3
ATOM      3  C   UNL     1     -15.641  -8.775   0.601  1.00  0.00     0.000 C 
BRANCH   3   4
ATOM      4  C   UNL     1     -15.304  -9.001  -0.882  1.00  0.00     0.000 C 
BRANCH   4   5
ATOM      5  C   UNL     1     -15.960  -7.964  -1.806  1.00  0.00     0.006 C 
BRANCH   5   6
ATOM      6  C   UNL     1     -16.818  -8.648  -2.874  1.00  0.00     0.053 C 
BRANCH   6   7
ATOM      7  C   UNL     1     -16.116  -8.644  -4.196  1.00  0.00     0.041 C 
ATOM      8  O   UNL     1     -16.451  -7.822  -5.087  1.00  0.00    -0.550 OA
ATOM      9  O   UNL     1     -15.062  -9.517  -4.425  1.00  0.00    -0.550 OA
ENDBRANCH   6   7
ENDBRANCH   5   6
ENDBRANCH   4   5
ENDBRANCH   3   4
ENDBRANCH   2   3
ENDBRANCH   1   2
BRANCH   1  10
ATOM     10  C   UNL     1     -19.129  -8.776  -0.046  1.00  0.00     0.027 C 
BRANCH  10  11
ATOM     11  C   UNL     1     -19.231 -10.175  -0.586  1.00  0.00    -0.031 C 
ATOM     12  C   UNL     1     -18.393 -11.145  -0.189  1.00  0.00    -0.031 C 
BRANCH  12  13
ATOM     13  C   UNL     1     -18.516 -12.551  -0.704  1.00  0.00     0.027 C 
BRANCH  13  14
ATOM     14  C   UNL     1     -17.746 -12.729  -2.018  1.00  0.00     0.004 C 
BRANCH  14  15
ATOM     15  C   UNL     1     -16.243 -12.508  -1.809  1.00  0.00     0.000 C 
BRANCH  15  16
ATOM     16  C   UNL     1     -15.638 -13.625  -0.948  1.00  0.00    -0.000 C 
BRANCH  16  17
ATOM     17  C   UNL     1     -15.051 -13.099   0.371  1.00  0.00    -0.003 C 
ATOM     18  C   UNL     1     -15.554 -13.870   1.591  1.00  0.00     0.004 C 
ENDBRANCH  16  17
ENDBRANCH  15  16
ENDBRANCH  14  15
ENDBRANCH  13  14
ENDBRANCH  12  13
ENDBRANCH  10  11
ENDBRANCH   1  10
TORSDOF 13
ENDMDL
MODEL 2
REMARK VINA RESULT:    -6.031      0.905      1.411
REMARK INTER + INTRA:         -12.846
REMARK INTER:                 -11.196
REMARK INTRA:                  -1.650
REMARK UNBOUND:                -2.232
REMARK SMILES CCCCCCC=CCCCCCCCC(=O)[O-]
REMARK SMILES IDX 10 1 11 2 12 3 13 4 14 5 15 6 16 7 17 8 18 9 9 10 8 11 7 12
REMARK SMILES IDX 6 13 5 14 4 15 3 16 2 17 1 18
REMARK H PARENT
REMARK Flexibility Score: inf
ROOT
ATOM      1  C   UNL     1     -18.788  -9.450  -0.048  1.00  0.00     0.004 C 
ENDROOT
BRANCH   1   2
ATOM      2  C   UNL     1     -18.045  -8.378   0.765  1.00  0.00     0.000 C 
BRANCH   2   3
ATOM      3  C   UNL     1     -16.518  -8.479   0.611  1.00  0.00     0.000 C 
BRANCH   3   4
ATOM      4  C   UNL     1     -15.976  -7.570  -0.505  1.00  0.00     0.000 C 
BRANCH   4   5
ATOM      5  C   UNL     1     -15.583  -8.349  -1.769  1.00  0.00     0.006 C 
BRANCH   5   6
ATOM      6  C   UNL     1     -16.731  -8.360  -2.784  1.00  0.00     0.053 C 
BRANCH   6   7
ATOM      7  C   UNL     1     -16.207  -8.585  -4.167  1.00  0.00     0.041 C 
ATOM      8  O   UNL     1     -16.724  -7.985  -5.144  1.00  0.00    -0.550 OA
ATOM      9  O   UNL     1     -15.119  -9.423  -4.370  1.00  0.00    -0.550 OA
ENDBRANCH   6   7
ENDBRANCH   5   6
ENDBRANCH   4   5
ENDBRANCH   3   4
ENDBRANCH   2   3
ENDBRANCH   1   2
BRANCH   1  10
ATOM     10  C   UNL     1     -18.195 -10.853   0.145  1.00  0.00     0.027 C 
BRANCH  10  11
ATOM     11  C   UNL     1     -18.179 -11.616  -1.150  1.00  0.00    -0.031 C 
ATOM     12  C   UNL     1     -18.511 -12.915  -1.205  1.00  0.00    -0.031 C 
BRANCH  12  13
ATOM     13  C   UNL     1     -18.528 -13.669  -2.505  1.00  0.00     0.027 C 
BRANCH  13  14
ATOM     14  C   UNL     1     -17.196 -14.389  -2.744  1.00  0.00     0.004 C 
BRANCH  14  15
ATOM     15  C   UNL     1     -16.523 -14.757  -1.416  1.00  0.00     0.000 C 
BRANCH  15  16
ATOM     16  C   UNL     1     -15.072 -14.257  -1.378  1.00  0.00    -0.000 C 
BRANCH  16  17
ATOM     17  C   UNL     1     -14.752 -13.477  -0.093  1.00  0.00    -0.003 C 
ATOM     18  C   UNL     1     -15.655 -13.868   1.077  1.00  0.00     0.004 C 
ENDBRANCH  16  17
ENDBRANCH  15  16
ENDBRANCH  14  15
ENDBRANCH  13  14
ENDBRANCH  12  13
ENDBRANCH  10  11
ENDBRANCH   1  10
TORSDOF 13
ENDMDL
MODEL 3
REMARK VINA RESULT:    -6.023      2.451      5.275
REMARK INTER + INTRA:         -12.833
REMARK INTER:                 -10.692
REMARK INTRA:                  -2.141
REMARK UNBOUND:                -2.232
REMARK SMILES CCCCCCC=CCCCCCCCC(=O)[O-]
REMARK SMILES IDX 10 1 11 2 12 3 13 4 14 5 15 6 16 7 17 8 18 9 9 10 8 11 7 12
REMARK SMILES IDX 6 13 5 14 4 15 3 16 2 17 1 18
REMARK H PARENT
REMARK Flexibility Score: inf
ROOT
ATOM      1  C   UNL     1     -18.838 -11.624  -0.207  1.00  0.00     0.004 C 
ENDROOT
BRANCH   1   2
ATOM      2  C   UNL     1     -19.149 -12.862  -1.062  1.00  0.00     0.000 C 
BRANCH   2   3
ATOM      3  C   UNL     1     -18.425 -12.834  -2.419  1.00  0.00     0.000 C 
BRANCH   3   4
ATOM      4  C   UNL     1     -16.996 -13.394  -2.337  1.00  0.00     0.000 C 
BRANCH   4   5
ATOM      5  C   UNL     1     -15.921 -12.302  -2.446  1.00  0.00     0.006 C 
BRANCH   5   6
ATOM      6  C   UNL     1     -15.262 -12.045  -1.088  1.00  0.00     0.053 C 
BRANCH   6   7
ATOM      7  C   UNL     1     -14.566 -13.276  -0.600  1.00  0.00     0.041 C 
ATOM      8  O   UNL     1     -14.906 -13.805   0.490  1.00  0.00    -0.550 OA
ATOM      9  O   UNL     1     -13.573 -13.865  -1.372  1.00  0.00    -0.550 OA
ENDBRANCH   6   7
ENDBRANCH   5   6
ENDBRANCH   4   5
ENDBRANCH   3   4
ENDBRANCH   2   3
ENDBRANCH   1   2
BRANCH   1  10
ATOM     10  C   UNL     1     -19.378 -10.326  -0.828  1.00  0.00     0.027 C 
BRANCH  10  11
ATOM     11  C   UNL     1     -18.329  -9.250  -0.826  1.00  0.00    -0.031 C 
ATOM     12  C   UNL     1     -17.470  -9.108   0.195  1.00  0.00    -0.031 C 
BRANCH  12  13
ATOM     13  C   UNL     1     -16.399  -8.053   0.182  1.00  0.00     0.027 C 
BRANCH  13  14
ATOM     14  C   UNL     1     -16.052  -7.633  -1.251  1.00  0.00     0.004 C 
BRANCH  14  15
ATOM     15  C   UNL     1     -14.775  -8.330  -1.734  1.00  0.00     0.000 C 
BRANCH  15  16
ATOM     16  C   UNL     1     -14.929  -8.820  -3.181  1.00  0.00    -0.000 C 
BRANCH  16  17
ATOM     17  C   UNL     1     -16.396  -8.865  -3.635  1.00  0.00    -0.003 C 
ATOM     18  C   UNL     1     -16.666  -7.980  -4.852  1.00  0.00     0.004 C 
ENDBRANCH  16  17
ENDBRANCH  15  16
ENDBRANCH  14  15
ENDBRANCH  13  14
ENDBRANCH  12  13
ENDBRANCH  10  11
ENDBRANCH   1  10
TORSDOF 13
ENDMDL
MODEL 4
REMARK VINA RESULT:    -5.956      1.211      2.503
REMARK INTER + INTRA:         -12.714
REMARK INTER:                 -10.627
REMARK INTRA:                  -2.087
REMARK UNBOUND:                -2.232
REMARK SMILES CCCCCCC=CCCCCCCCC(=O)[O-]
REMARK SMILES IDX 10 1 11 2 12 3 13 4 14 5 15 6 16 7 17 8 18 9 9 10 8 11 7 12
REMARK SMILES IDX 6 13 5 14 4 15 3 16 2 17 1 18
REMARK H PARENT
REMARK Flexibility Score: inf
ROOT
ATOM      1  C   UNL     1     -18.883  -9.116  -0.583  1.00  0.00     0.004 C 
ENDROOT
BRANCH   1   2
ATOM      2  C   UNL     1     -18.291  -8.951   0.826  1.00  0.00     0.000 C 
BRANCH   2   3
ATOM      3  C   UNL     1     -17.247  -7.823   0.894  1.00  0.00     0.000 C 
BRANCH   3   4
ATOM      4  C   UNL     1     -15.880  -8.249   0.334  1.00  0.00     0.000 C 
BRANCH   4   5
ATOM      5  C   UNL     1     -15.595  -7.656  -1.054  1.00  0.00     0.006 C 
BRANCH   5   6
ATOM      6  C   UNL     1     -14.839  -8.657  -1.931  1.00  0.00     0.053 C 
BRANCH   6   7
ATOM      7  C   UNL     1     -15.525  -8.825  -3.250  1.00  0.00     0.041 C 
ATOM      8  O   UNL     1     -16.599  -8.213  -3.486  1.00  0.00    -0.550 OA
ATOM      9  O   UNL     1     -14.955  -9.620  -4.235  1.00  0.00    -0.550 OA
ENDBRANCH   6   7
ENDBRANCH   5   6
ENDBRANCH   4   5
ENDBRANCH   3   4
ENDBRANCH   2   3
ENDBRANCH   1   2
BRANCH   1  10
ATOM     10  C   UNL     1     -18.395 -10.393  -1.283  1.00  0.00     0.027 C 
BRANCH  10  11
ATOM     11  C   UNL     1     -17.795 -11.354  -0.296  1.00  0.00    -0.031 C 
ATOM     12  C   UNL     1     -16.565 -11.862  -0.470  1.00  0.00    -0.031 C 
BRANCH  12  13
ATOM     13  C   UNL     1     -15.951 -12.798   0.534  1.00  0.00     0.027 C 
BRANCH  13  14
ATOM     14  C   UNL     1     -15.968 -14.244   0.026  1.00  0.00     0.004 C 
BRANCH  14  15
ATOM     15  C   UNL     1     -15.686 -14.302  -1.481  1.00  0.00     0.000 C 
BRANCH  15  16
ATOM     16  C   UNL     1     -16.828 -15.005  -2.227  1.00  0.00    -0.000 C 
BRANCH  16  17
ATOM     17  C   UNL     1     -17.549 -14.074  -3.214  1.00  0.00    -0.003 C 
ATOM     18  C   UNL     1     -19.019 -13.857  -2.855  1.00  0.00     0.004 C 
ENDBRANCH  16  17
ENDBRANCH  15  16
ENDBRANCH  14  15
ENDBRANCH  13  14
ENDBRANCH  12  13
ENDBRANCH  10  11
ENDBRANCH   1  10
TORSDOF 13
ENDMDL
MODEL 5
REMARK VINA RESULT:    -5.939      2.251      5.448
REMARK INTER + INTRA:         -12.684
REMARK INTER:                 -10.836
REMARK INTRA:                  -1.848
REMARK UNBOUND:                -2.232
REMARK SMILES CCCCCCC=CCCCCCCCC(=O)[O-]
REMARK SMILES IDX 10 1 11 2 12 3 13 4 14 5 15 6 16 7 17 8 18 9 9 10 8 11 7 12
REMARK SMILES IDX 6 13 5 14 4 15 3 16 2 17 1 18
REMARK H PARENT
REMARK Flexibility Score: inf
ROOT
ATOM      1  C   UNL     1     -18.932 -11.789  -0.246  1.00  0.00     0.004 C 
ENDROOT
BRANCH   1   2
ATOM      2  C   UNL     1     -18.877 -13.076  -1.085  1.00  0.00     0.000 C 
BRANCH   2   3
ATOM      3  C   UNL     1     -18.377 -12.820  -2.517  1.00  0.00     0.000 C 
BRANCH   3   4
ATOM      4  C   UNL     1     -17.075 -13.574  -2.831  1.00  0.00     0.000 C 
BRANCH   4   5
ATOM      5  C   UNL     1     -16.714 -14.612  -1.758  1.00  0.00     0.006 C 
BRANCH   5   6
ATOM      6  C   UNL     1     -15.337 -14.321  -1.156  1.00  0.00     0.053 C 
BRANCH   6   7
ATOM      7  C   UNL     1     -15.462 -13.422   0.034  1.00  0.00     0.041 C 
ATOM      8  O   UNL     1     -15.279 -12.183  -0.087  1.00  0.00    -0.550 OA
ATOM      9  O   UNL     1     -15.826 -13.947   1.266  1.00  0.00    -0.550 OA
ENDBRANCH   6   7
ENDBRANCH   5   6
ENDBRANCH   4   5
ENDBRANCH   3   4
ENDBRANCH   2   3
ENDBRANCH   1   2
BRANCH   1  10
ATOM     10  C   UNL     1     -19.383 -10.570  -1.064  1.00  0.00     0.027 C 
BRANCH  10  11
ATOM     11  C   UNL     1     -19.046  -9.289  -0.354  1.00  0.00    -0.031 C 
ATOM     12  C   UNL     1     -18.074  -9.232   0.569  1.00  0.00    -0.031 C 
BRANCH  12  13
ATOM     13  C   UNL     1     -17.714  -7.944   1.255  1.00  0.00     0.027 C 
BRANCH  13  14
ATOM     14  C   UNL     1     -16.334  -7.445   0.807  1.00  0.00     0.004 C 
BRANCH  14  15
ATOM     15  C   UNL     1     -15.629  -8.489  -0.066  1.00  0.00     0.000 C 
BRANCH  15  16
ATOM     16  C   UNL     1     -15.253  -7.900  -1.433  1.00  0.00    -0.000 C 
BRANCH  16  17
ATOM     17  C   UNL     1     -16.399  -7.998  -2.452  1.00  0.00    -0.003 C 
ATOM     18  C   UNL     1     -16.464  -9.362  -3.139  1.00  0.00     0.004 C 
ENDBRANCH  16  17
ENDBRANCH  15  16
ENDBRANCH  14  15
ENDBRANCH  13  14
ENDBRANCH  12  13
ENDBRANCH  10  11
ENDBRANCH   1  10
TORSDOF 13
ENDMDL
MODEL 6
REMARK VINA RESULT:    -5.923      2.566      5.856
REMARK INTER + INTRA:         -12.656
REMARK INTER:                 -10.945
REMARK INTRA:                  -1.711
REMARK UNBOUND:                -2.232
REMARK SMILES CCCCCCC=CCCCCCCCC(=O)[O-]
REMARK SMILES IDX 10 1 11 2 12 3 13 4 14 5 15 6 16 7 17 8 18 9 9 10 8 11 7 12
REMARK SMILES IDX 6 13 5 14 4 15 3 16 2 17 1 18
REMARK H PARENT
REMARK Flexibility Score: inf
ROOT
ATOM      1  C   UNL     1     -18.270 -11.900  -1.985  1.00  0.00     0.004 C 
ENDROOT
BRANCH   1   2
ATOM      2  C   UNL     1     -18.625 -13.294  -2.525  1.00  0.00     0.000 C 
BRANCH   2   3
ATOM      3  C   UNL     1     -17.381 -14.169  -2.753  1.00  0.00     0.000 C 
BRANCH   3   4
ATOM      4  C   UNL     1     -16.070 -13.413  -2.479  1.00  0.00     0.000 C 
BRANCH   4   5
ATOM      5  C   UNL     1     -15.212 -14.084  -1.396  1.00  0.00     0.006 C 
BRANCH   5   6
ATOM      6  C   UNL     1     -16.044 -14.378  -0.144  1.00  0.00     0.053 C 
BRANCH   6   7
ATOM      7  C   UNL     1     -15.434 -13.729   1.057  1.00  0.00     0.041 C 
ATOM      8  O   UNL     1     -15.681 -14.170   2.209  1.00  0.00    -0.550 OA
ATOM      9  O   UNL     1     -14.556 -12.665   0.902  1.00  0.00    -0.550 OA
ENDBRANCH   6   7
ENDBRANCH   5   6
ENDBRANCH   4   5
ENDBRANCH   3   4
ENDBRANCH   2   3
ENDBRANCH   1   2
BRANCH   1  10
ATOM     10  C   UNL     1     -18.686 -11.711  -0.518  1.00  0.00     0.027 C 
BRANCH  10  11
ATOM     11  C   UNL     1     -17.832 -10.674   0.156  1.00  0.00    -0.031 C 
ATOM     12  C   UNL     1     -18.216  -9.390   0.233  1.00  0.00    -0.031 C 
BRANCH  12  13
ATOM     13  C   UNL     1     -17.379  -8.359   0.937  1.00  0.00     0.027 C 
BRANCH  13  14
ATOM     14  C   UNL     1     -15.977  -8.270   0.321  1.00  0.00     0.004 C 
BRANCH  14  15
ATOM     15  C   UNL     1     -16.023  -7.592  -1.054  1.00  0.00     0.000 C 
BRANCH  15  16
ATOM     16  C   UNL     1     -15.641  -8.579  -2.166  1.00  0.00    -0.000 C 
BRANCH  16  17
ATOM     17  C   UNL     1     -16.764  -8.769  -3.197  1.00  0.00    -0.003 C 
ATOM     18  C   UNL     1     -16.432  -8.148  -4.554  1.00  0.00     0.004 C 
ENDBRANCH  16  17
ENDBRANCH  15  16
ENDBRANCH  14  15
ENDBRANCH  13  14
ENDBRANCH  12  13
ENDBRANCH  10  11
ENDBRANCH   1  10
TORSDOF 13
ENDMDL
MODEL 7
REMARK VINA RESULT:    -5.880      2.088      5.037
REMARK INTER + INTRA:         -12.582
REMARK INTER:                 -10.329
REMARK INTRA:                  -2.252
REMARK UNBOUND:                -2.232
REMARK SMILES CCCCCCC=CCCCCCCCC(=O)[O-]
REMARK SMILES IDX 10 1 11 2 12 3 13 4 14 5 15 6 16 7 17 8 18 9 9 10 8 11 7 12
REMARK SMILES IDX 6 13 5 14 4 15 3 16 2 17 1 18
REMARK H PARENT
REMARK Flexibility Score: inf
ROOT
ATOM      1  C   UNL     1     -18.466 -12.055  -0.415  1.00  0.00     0.004 C 
ENDROOT
BRANCH   1   2
ATOM      2  C   UNL     1     -17.102 -11.780   0.239  1.00  0.00     0.000 C 
BRANCH   2   3
ATOM      3  C   UNL     1     -16.304 -13.069   0.494  1.00  0.00     0.000 C 
BRANCH   3   4
ATOM      4  C   UNL     1     -14.927 -13.057  -0.191  1.00  0.00     0.000 C 
BRANCH   4   5
ATOM      5  C   UNL     1     -14.870 -13.966  -1.427  1.00  0.00     0.006 C 
BRANCH   5   6
ATOM      6  C   UNL     1     -16.152 -14.792  -1.559  1.00  0.00     0.053 C 
BRANCH   6   7
ATOM      7  C   UNL     1     -16.919 -14.382  -2.776  1.00  0.00     0.041 C 
ATOM      8  O   UNL     1     -18.113 -14.749  -2.925  1.00  0.00    -0.550 OA
ATOM      9  O   UNL     1     -16.330 -13.556  -3.724  1.00  0.00    -0.550 OA
ENDBRANCH   6   7
ENDBRANCH   5   6
ENDBRANCH   4   5
ENDBRANCH   3   4
ENDBRANCH   2   3
ENDBRANCH   1   2
BRANCH   1  10
ATOM     10  C   UNL     1     -18.652 -11.293  -1.736  1.00  0.00     0.027 C 
BRANCH  10  11
ATOM     11  C   UNL     1     -17.431 -10.483  -2.068  1.00  0.00    -0.031 C 
ATOM     12  C   UNL     1     -17.516  -9.181  -2.382  1.00  0.00    -0.031 C 
BRANCH  12  13
ATOM     13  C   UNL     1     -16.292  -8.362  -2.682  1.00  0.00     0.027 C 
BRANCH  13  14
ATOM     14  C   UNL     1     -15.826  -7.588  -1.443  1.00  0.00     0.004 C 
BRANCH  14  15
ATOM     15  C   UNL     1     -15.152  -8.524  -0.432  1.00  0.00     0.000 C 
BRANCH  15  16
ATOM     16  C   UNL     1     -15.783  -8.376   0.959  1.00  0.00    -0.000 C 
BRANCH  16  17
ATOM     17  C   UNL     1     -17.072  -7.540   0.936  1.00  0.00    -0.003 C 
ATOM     18  C   UNL     1     -18.318  -8.366   1.258  1.00  0.00     0.004 C 
ENDBRANCH  16  17
ENDBRANCH  15  16
ENDBRANCH  14  15
ENDBRANCH  13  14
ENDBRANCH  12  13
ENDBRANCH  10  11
ENDBRANCH   1  10
TORSDOF 13
ENDMDL
MODEL 8
REMARK VINA RESULT:    -5.841      2.381      5.427
REMARK INTER + INTRA:         -12.512
REMARK INTER:                 -10.609
REMARK INTRA:                  -1.903
REMARK UNBOUND:                -2.232
REMARK SMILES CCCCCCC=CCCCCCCCC(=O)[O-]
REMARK SMILES IDX 10 1 11 2 12 3 13 4 14 5 15 6 16 7 17 8 18 9 9 10 8 11 7 12
REMARK SMILES IDX 6 13 5 14 4 15 3 16 2 17 1 18
REMARK H PARENT
REMARK Flexibility Score: inf
ROOT
ATOM      1  C   UNL     1     -18.450 -12.650  -0.648  1.00  0.00     0.004 C 
ENDROOT
BRANCH   1   2
ATOM      2  C   UNL     1     -18.826 -13.466  -1.895  1.00  0.00     0.000 C 
BRANCH   2   3
ATOM      3  C   UNL     1     -17.601 -14.113  -2.563  1.00  0.00     0.000 C 
BRANCH   3   4
ATOM      4  C   UNL     1     -16.485 -14.440  -1.558  1.00  0.00     0.000 C 
BRANCH   4   5
ATOM      5  C   UNL     1     -15.179 -13.686  -1.852  1.00  0.00     0.006 C 
BRANCH   5   6
ATOM      6  C   UNL     1     -14.264 -13.677  -0.624  1.00  0.00     0.053 C 
BRANCH   6   7
ATOM      7  C   UNL     1     -14.931 -12.985   0.523  1.00  0.00     0.041 C 
ATOM      8  O   UNL     1     -15.186 -11.755   0.459  1.00  0.00    -0.550 OA
ATOM      9  O   UNL     1     -15.313 -13.710   1.644  1.00  0.00    -0.550 OA
ENDBRANCH   6   7
ENDBRANCH   5   6
ENDBRANCH   4   5
ENDBRANCH   3   4
ENDBRANCH   2   3
ENDBRANCH   1   2
BRANCH   1  10
ATOM     10  C   UNL     1     -19.178 -11.299  -0.585  1.00  0.00     0.027 C 
BRANCH  10  11
ATOM     11  C   UNL     1     -18.620 -10.337  -1.595  1.00  0.00    -0.031 C 
ATOM     12  C   UNL     1     -17.320 -10.342  -1.926  1.00  0.00    -0.031 C 
BRANCH  12  13
ATOM     13  C   UNL     1     -16.767  -9.402  -2.961  1.00  0.00     0.027 C 
BRANCH  13  14
ATOM     14  C   UNL     1     -16.410  -8.045  -2.343  1.00  0.00     0.004 C 
BRANCH  14  15
ATOM     15  C   UNL     1     -15.566  -8.224  -1.075  1.00  0.00     0.000 C 
BRANCH  15  16
ATOM     16  C   UNL     1     -16.158  -7.427   0.096  1.00  0.00    -0.000 C 
BRANCH  16  17
ATOM     17  C   UNL     1     -16.777  -8.332   1.172  1.00  0.00    -0.003 C 
ATOM     18  C   UNL     1     -18.292  -8.161   1.288  1.00  0.00     0.004 C 
ENDBRANCH  16  17
ENDBRANCH  15  16
ENDBRANCH  14  15
ENDBRANCH  13  14
ENDBRANCH  12  13
ENDBRANCH  10  11
ENDBRANCH   1  10
TORSDOF 13
ENDMDL
MODEL 9
REMARK VINA RESULT:    -5.741      2.586      5.785
REMARK INTER + INTRA:         -12.336
REMARK INTER:                 -10.565
REMARK INTRA:                  -1.771
REMARK UNBOUND:                -2.232
REMARK SMILES CCCCCCC=CCCCCCCCC(=O)[O-]
REMARK SMILES IDX 10 1 11 2 12 3 13 4 14 5 15 6 16 7 17 8 18 9 9 10 8 11 7 12
REMARK SMILES IDX 6 13 5 14 4 15 3 16 2 17 1 18
REMARK H PARENT
REMARK Flexibility Score: inf
ROOT
ATOM      1  C   UNL     1     -15.291 -10.274  -3.616  1.00  0.00     0.004 C 
ENDROOT
BRANCH   1   2
ATOM      2  C   UNL     1     -16.052 -11.351  -2.827  1.00  0.00     0.000 C 
BRANCH   2   3
ATOM      3  C   UNL     1     -15.640 -12.776  -3.234  1.00  0.00     0.000 C 
BRANCH   3   4
ATOM      4  C   UNL     1     -16.660 -13.836  -2.785  1.00  0.00     0.000 C 
BRANCH   4   5
ATOM      5  C   UNL     1     -16.187 -14.636  -1.562  1.00  0.00     0.006 C 
BRANCH   5   6
ATOM      6  C   UNL     1     -16.603 -13.942  -0.261  1.00  0.00     0.053 C 
BRANCH   6   7
ATOM      7  C   UNL     1     -15.439 -13.832   0.672  1.00  0.00     0.041 C 
ATOM      8  O   UNL     1     -15.562 -14.164   1.879  1.00  0.00    -0.550 OA
ATOM      9  O   UNL     1     -14.205 -13.408   0.197  1.00  0.00    -0.550 OA
ENDBRANCH   6   7
ENDBRANCH   5   6
ENDBRANCH   4   5
ENDBRANCH   3   4
ENDBRANCH   2   3
ENDBRANCH   1   2
BRANCH   1  10
ATOM     10  C   UNL     1     -16.132  -9.010  -3.852  1.00  0.00     0.027 C 
BRANCH  10  11
ATOM     11  C   UNL     1     -16.529  -8.375  -2.549  1.00  0.00    -0.031 C 
ATOM     12  C   UNL     1     -15.612  -7.912  -1.685  1.00  0.00    -0.031 C 
BRANCH  12  13
ATOM     13  C   UNL     1     -16.009  -7.246  -0.397  1.00  0.00     0.027 C 
BRANCH  13  14
ATOM     14  C   UNL     1     -16.256  -8.280   0.708  1.00  0.00     0.004 C 
BRANCH  14  15
ATOM     15  C   UNL     1     -17.692  -8.187   1.238  1.00  0.00     0.000 C 
BRANCH  15  16
ATOM     16  C   UNL     1     -18.654  -9.004   0.364  1.00  0.00    -0.000 C 
BRANCH  16  17
ATOM     17  C   UNL     1     -18.186 -10.454   0.169  1.00  0.00    -0.003 C 
ATOM     18  C   UNL     1     -19.002 -11.201  -0.886  1.00  0.00     0.004 C 
ENDBRANCH  16  17
ENDBRANCH  15  16
ENDBRANCH  14  15
ENDBRANCH  13  14
ENDBRANCH  12  13
ENDBRANCH  10  11
ENDBRANCH   1  10
TORSDOF 13
ENDMDL
