MODEL 1
REMARK VINA RESULT:    -3.464      0.000      0.000
REMARK INTER + INTRA:          -3.565
REMARK INTER:                  -3.565
REMARK INTRA:                   0.000
REMARK UNBOUND:                 0.000
REMARK SMILES Nc1ncnc2nc[nH]c12
REMARK SMILES IDX 8 1 7 2 6 3 5 4 4 5 3 6 2 7 10 8 9 9 1 11
REMARK H PARENT 9 10 1 12 1 13
REMARK Flexibility Score: inf
ROOT
ATOM      1  C   UNL     1       1.201  24.591  27.688  1.00  0.00     0.199 A 
ATOM      2  N   UNL     1       0.062  25.319  27.854  1.00  0.00    -0.217 NA
ATOM      3  C   UNL     1      -0.378  25.449  26.591  1.00  0.00     0.182 A 
ATOM      4  N   UNL     1      -1.497  26.100  26.189  1.00  0.00    -0.215 NA
ATOM      5  C   UNL     1      -1.782  26.125  24.851  1.00  0.00     0.226 A 
ATOM      6  N   UNL     1      -0.952  25.507  23.950  1.00  0.00    -0.217 NA
ATOM      7  C   UNL     1       0.176  24.850  24.354  1.00  0.00     0.152 A 
ATOM      8  C   UNL     1       0.453  24.833  25.719  1.00  0.00     0.127 A 
ATOM      9  N   UNL     1       1.467  24.279  26.395  1.00  0.00    -0.340 N 
ATOM     10  H   UNL     1       2.276  23.734  26.026  1.00  0.00     0.168 HD
ENDROOT
BRANCH   7  11
ATOM     11  N   UNL     1       1.025  24.214  23.399  1.00  0.00    -0.382 N 
ATOM     12  H   UNL     1       1.170  24.615  22.447  1.00  0.00     0.158 HD
ATOM     13  H   UNL     1       1.517  23.327  23.647  1.00  0.00     0.158 HD
ENDBRANCH   7  11
TORSDOF 1
ENDMDL
MODEL 2
REMARK VINA RESULT:    -2.373      7.264      8.199
REMARK INTER + INTRA:          -2.442
REMARK INTER:                  -2.442
REMARK INTRA:                   0.000
REMARK UNBOUND:                 0.000
REMARK SMILES Nc1ncnc2nc[nH]c12
REMARK SMILES IDX 8 1 7 2 6 3 5 4 4 5 3 6 2 7 10 8 9 9 1 11
REMARK H PARENT 9 10 1 12 1 13
REMARK Flexibility Score: inf
ROOT
ATOM      1  C   UNL     1      -6.303  21.745  25.099  1.00  0.00     0.199 A 
ATOM      2  N   UNL     1      -6.395  22.800  24.244  1.00  0.00    -0.217 NA
ATOM      3  C   UNL     1      -7.136  23.672  24.947  1.00  0.00     0.182 A 
ATOM      4  N   UNL     1      -7.527  24.906  24.546  1.00  0.00    -0.215 NA
ATOM      5  C   UNL     1      -8.284  25.653  25.406  1.00  0.00     0.226 A 
ATOM      6  N   UNL     1      -8.634  25.158  26.636  1.00  0.00    -0.217 NA
ATOM      7  C   UNL     1      -8.241  23.914  27.042  1.00  0.00     0.152 A 
ATOM      8  C   UNL     1      -7.470  23.165  26.156  1.00  0.00     0.127 A 
ATOM      9  N   UNL     1      -6.950  21.937  26.276  1.00  0.00    -0.340 N 
ATOM     10  H   UNL     1      -7.019  21.276  27.080  1.00  0.00     0.168 HD
ENDROOT
BRANCH   7  11
ATOM     11  N   UNL     1      -8.616  23.418  28.327  1.00  0.00    -0.382 N 
ATOM     12  H   UNL     1      -9.429  22.775  28.446  1.00  0.00     0.158 HD
ATOM     13  H   UNL     1      -8.073  23.699  29.174  1.00  0.00     0.158 HD
ENDBRANCH   7  11
TORSDOF 1
ENDMDL
MODEL 3
REMARK VINA RESULT:    -2.262      7.334      8.179
REMARK INTER + INTRA:          -2.329
REMARK INTER:                  -2.329
REMARK INTRA:                   0.000
REMARK UNBOUND:                 0.000
REMARK SMILES Nc1ncnc2nc[nH]c12
REMARK SMILES IDX 8 1 7 2 6 3 5 4 4 5 3 6 2 7 10 8 9 9 1 11
REMARK H PARENT 9 10 1 12 1 13
REMARK Flexibility Score: inf
ROOT
ATOM      1  C   UNL     1      -6.333  22.085  24.877  1.00  0.00     0.199 A 
ATOM      2  N   UNL     1      -6.772  21.935  26.158  1.00  0.00    -0.217 NA
ATOM      3  C   UNL     1      -7.509  23.044  26.337  1.00  0.00     0.182 A 
ATOM      4  N   UNL     1      -8.182  23.394  27.460  1.00  0.00    -0.215 NA
ATOM      5  C   UNL     1      -8.881  24.569  27.453  1.00  0.00     0.226 A 
ATOM      6  N   UNL     1      -8.894  25.366  26.336  1.00  0.00    -0.217 NA
ATOM      7  C   UNL     1      -8.216  25.015  25.203  1.00  0.00     0.152 A 
ATOM      8  C   UNL     1      -7.509  23.815  25.225  1.00  0.00     0.127 A 
ATOM      9  N   UNL     1      -6.765  23.224  24.281  1.00  0.00    -0.340 N 
ATOM     10  H   UNL     1      -6.561  23.552  23.312  1.00  0.00     0.168 HD
ENDROOT
BRANCH   7  11
ATOM     11  N   UNL     1      -8.243  25.859  24.052  1.00  0.00    -0.382 N 
ATOM     12  H   UNL     1      -9.104  25.960  23.472  1.00  0.00     0.158 HD
ATOM     13  H   UNL     1      -7.389  26.391  23.775  1.00  0.00     0.158 HD
ENDBRANCH   7  11
TORSDOF 1
ENDMDL
MODEL 4
REMARK VINA RESULT:    -2.114      7.700      8.585
REMARK INTER + INTRA:          -2.176
REMARK INTER:                  -2.176
REMARK INTRA:                   0.000
REMARK UNBOUND:                 0.000
REMARK SMILES Nc1ncnc2nc[nH]c12
REMARK SMILES IDX 8 1 7 2 6 3 5 4 4 5 3 6 2 7 10 8 9 9 1 11
REMARK H PARENT 9 10 1 12 1 13
REMARK Flexibility Score: inf
ROOT
ATOM      1  C   UNL     1      -9.401  24.356  28.641  1.00  0.00     0.199 A 
ATOM      2  N   UNL     1      -9.639  25.384  27.781  1.00  0.00    -0.217 NA
ATOM      3  C   UNL     1      -8.913  25.029  26.707  1.00  0.00     0.182 A 
ATOM      4  N   UNL     1      -8.799  25.719  25.547  1.00  0.00    -0.215 NA
ATOM      5  C   UNL     1      -8.007  25.197  24.561  1.00  0.00     0.226 A 
ATOM      6  N   UNL     1      -7.351  24.007  24.753  1.00  0.00    -0.217 NA
ATOM      7  C   UNL     1      -7.465  23.310  25.922  1.00  0.00     0.152 A 
ATOM      8  C   UNL     1      -8.275  23.855  26.916  1.00  0.00     0.127 A 
ATOM      9  N   UNL     1      -8.570  23.407  28.143  1.00  0.00    -0.340 N 
ATOM     10  H   UNL     1      -8.246  22.534  28.613  1.00  0.00     0.168 HD
ENDROOT
BRANCH   7  11
ATOM     11  N   UNL     1      -6.773  22.074  26.100  1.00  0.00    -0.382 N 
ATOM     12  H   UNL     1      -5.853  22.031  26.589  1.00  0.00     0.158 HD
ATOM     13  H   UNL     1      -7.187  21.187  25.735  1.00  0.00     0.158 HD
ENDBRANCH   7  11
TORSDOF 1
ENDMDL
MODEL 5
REMARK VINA RESULT:    -2.113      7.096      8.554
REMARK INTER + INTRA:          -2.175
REMARK INTER:                  -2.175
REMARK INTRA:                   0.000
REMARK UNBOUND:                 0.000
REMARK SMILES Nc1ncnc2nc[nH]c12
REMARK SMILES IDX 8 1 7 2 6 3 5 4 4 5 3 6 2 7 10 8 9 9 1 11
REMARK H PARENT 9 10 1 12 1 13
REMARK Flexibility Score: inf
ROOT
ATOM      1  C   UNL     1      -7.558  23.929  25.184  1.00  0.00     0.199 A 
ATOM      2  N   UNL     1      -6.754  24.967  25.543  1.00  0.00    -0.217 NA
ATOM      3  C   UNL     1      -7.042  25.111  26.848  1.00  0.00     0.182 A 
ATOM      4  N   UNL     1      -6.506  26.022  27.697  1.00  0.00    -0.215 NA
ATOM      5  C   UNL     1      -6.927  26.015  28.998  1.00  0.00     0.226 A 
ATOM      6  N   UNL     1      -7.866  25.110  29.422  1.00  0.00    -0.217 NA
ATOM      7  C   UNL     1      -8.407  24.191  28.567  1.00  0.00     0.152 A 
ATOM      8  C   UNL     1      -7.969  24.209  27.245  1.00  0.00     0.127 A 
ATOM      9  N   UNL     1      -8.313  23.445  26.202  1.00  0.00    -0.340 N 
ATOM     10  H   UNL     1      -8.998  22.659  26.168  1.00  0.00     0.168 HD
ENDROOT
BRANCH   7  11
ATOM     11  N   UNL     1      -9.383  23.257  29.030  1.00  0.00    -0.382 N 
ATOM     12  H   UNL     1     -10.381  23.322  28.734  1.00  0.00     0.158 HD
ATOM     13  H   UNL     1      -9.103  22.489  29.679  1.00  0.00     0.158 HD
ENDBRANCH   7  11
TORSDOF 1
ENDMDL
MODEL 6
REMARK VINA RESULT:    -2.077      6.942      8.355
REMARK INTER + INTRA:          -2.138
REMARK INTER:                  -2.138
REMARK INTRA:                   0.000
REMARK UNBOUND:                 0.000
REMARK SMILES Nc1ncnc2nc[nH]c12
REMARK SMILES IDX 8 1 7 2 6 3 5 4 4 5 3 6 2 7 10 8 9 9 1 11
REMARK H PARENT 9 10 1 12 1 13
REMARK Flexibility Score: inf
ROOT
ATOM      1  C   UNL     1      -9.097  24.114  29.162  1.00  0.00     0.199 A 
ATOM      2  N   UNL     1      -9.590  23.557  28.021  1.00  0.00    -0.217 NA
ATOM      3  C   UNL     1      -8.717  23.986  27.095  1.00  0.00     0.182 A 
ATOM      4  N   UNL     1      -8.749  23.713  25.768  1.00  0.00    -0.215 NA
ATOM      5  C   UNL     1      -7.767  24.243  24.977  1.00  0.00     0.226 A 
ATOM      6  N   UNL     1      -6.783  25.029  25.521  1.00  0.00    -0.217 NA
ATOM      7  C   UNL     1      -6.749  25.305  26.858  1.00  0.00     0.152 A 
ATOM      8  C   UNL     1      -7.755  24.758  27.651  1.00  0.00     0.127 A 
ATOM      9  N   UNL     1      -7.977  24.854  28.968  1.00  0.00    -0.340 N 
ATOM     10  H   UNL     1      -7.424  25.372  29.685  1.00  0.00     0.168 HD
ENDROOT
BRANCH   7  11
ATOM     11  N   UNL     1      -5.715  26.124  27.403  1.00  0.00    -0.382 N 
ATOM     12  H   UNL     1      -5.230  26.844  26.825  1.00  0.00     0.158 HD
ATOM     13  H   UNL     1      -5.429  26.010  28.401  1.00  0.00     0.158 HD
ENDBRANCH   7  11
TORSDOF 1
ENDMDL
MODEL 7
REMARK VINA RESULT:    -2.059      7.502      8.545
REMARK INTER + INTRA:          -2.119
REMARK INTER:                  -2.119
REMARK INTRA:                   0.000
REMARK UNBOUND:                 0.000
REMARK SMILES Nc1ncnc2nc[nH]c12
REMARK SMILES IDX 8 1 7 2 6 3 5 4 4 5 3 6 2 7 10 8 9 9 1 11
REMARK H PARENT 9 10 1 12 1 13
REMARK Flexibility Score: inf
ROOT
ATOM      1  C   UNL     1      -9.344  24.732  28.140  1.00  0.00     0.199 A 
ATOM      2  N   UNL     1      -8.645  23.563  28.137  1.00  0.00    -0.217 NA
ATOM      3  C   UNL     1      -8.090  23.568  26.914  1.00  0.00     0.182 A 
ATOM      4  N   UNL     1      -7.282  22.614  26.391  1.00  0.00    -0.215 NA
ATOM      5  C   UNL     1      -6.810  22.795  25.119  1.00  0.00     0.226 A 
ATOM      6  N   UNL     1      -7.152  23.914  24.402  1.00  0.00    -0.217 NA
ATOM      7  C   UNL     1      -7.967  24.876  24.929  1.00  0.00     0.152 A 
ATOM      8  C   UNL     1      -8.439  24.678  26.224  1.00  0.00     0.127 A 
ATOM      9  N   UNL     1      -9.239  25.435  26.985  1.00  0.00    -0.340 N 
ATOM     10  H   UNL     1      -9.681  26.351  26.755  1.00  0.00     0.168 HD
ENDROOT
BRANCH   7  11
ATOM     11  N   UNL     1      -8.310  26.032  24.164  1.00  0.00    -0.382 N 
ATOM     12  H   UNL     1      -8.417  26.968  24.612  1.00  0.00     0.158 HD
ATOM     13  H   UNL     1      -8.460  25.951  23.134  1.00  0.00     0.158 HD
ENDBRANCH   7  11
TORSDOF 1
ENDMDL
