MODEL 1
REMARK VINA RESULT:    -4.455      0.000      0.000
REMARK INTER + INTRA:          -7.746
REMARK INTER:                  -6.799
REMARK INTRA:                  -0.946
REMARK UNBOUND:                -0.946
REMARK SMILES CCCCCCCCCC=CC(=O)[O-]
REMARK SMILES IDX 7 1 8 2 9 3 10 4 11 5 12 6 13 7 14 8 6 9 5 10 4 11 3 12 2 13
REMARK SMILES IDX 1 14
REMARK H PARENT
REMARK Flexibility Score: inf
ROOT
ATOM      1  C   UNL     1     191.458 249.186 141.023  1.00  0.00     0.000 C 
ENDROOT
BRANCH   1   2
ATOM      2  C   UNL     1     191.310 247.744 141.522  1.00  0.00     0.004 C 
BRANCH   2   3
ATOM      3  C   UNL     1     190.562 246.882 140.496  1.00  0.00     0.027 C 
BRANCH   3   4
ATOM      4  C   UNL     1     191.317 245.615 140.195  1.00  0.00    -0.025 C 
ATOM      5  C   UNL     1     191.903 245.304 139.027  1.00  0.00     0.020 C 
BRANCH   5   6
ATOM      6  C   UNL     1     191.964 246.151 137.817  1.00  0.00     0.064 C 
ATOM      7  O   UNL     1     191.335 245.790 136.789  1.00  0.00    -0.545 OA
ATOM      8  O   UNL     1     192.714 247.319 137.765  1.00  0.00    -0.545 OA
ENDBRANCH   5   6
ENDBRANCH   3   4
ENDBRANCH   2   3
ENDBRANCH   1   2
BRANCH   1   9
ATOM      9  C   UNL     1     190.732 249.383 139.686  1.00  0.00     0.000 C 
BRANCH   9  10
ATOM     10  C   UNL     1     191.318 250.577 138.915  1.00  0.00     0.000 C 
BRANCH  10  11
ATOM     11  C   UNL     1     190.246 251.598 138.500  1.00  0.00    -0.000 C 
BRANCH  11  12
ATOM     12  C   UNL     1     189.175 251.804 139.585  1.00  0.00    -0.000 C 
BRANCH  12  13
ATOM     13  C   UNL     1     189.351 253.130 140.342  1.00  0.00    -0.003 C 
ATOM     14  C   UNL     1     190.232 252.992 141.584  1.00  0.00     0.004 C 
ENDBRANCH  12  13
ENDBRANCH  11  12
ENDBRANCH  10  11
ENDBRANCH   9  10
ENDBRANCH   1   9
TORSDOF 9
ENDMDL
MODEL 2
REMARK VINA RESULT:    -4.429      6.679      9.443
REMARK INTER + INTRA:          -7.705
REMARK INTER:                  -6.017
REMARK INTRA:                  -1.688
REMARK UNBOUND:                -0.946
REMARK SMILES CCCCCCCCCC=CC(=O)[O-]
REMARK SMILES IDX 7 1 8 2 9 3 10 4 11 5 12 6 13 7 14 8 6 9 5 10 4 11 3 12 2 13
REMARK SMILES IDX 1 14
REMARK H PARENT
REMARK Flexibility Score: inf
ROOT
ATOM      1  C   UNL     1     196.024 248.688 130.374  1.00  0.00     0.000 C 
ENDROOT
BRANCH   1   2
ATOM      2  C   UNL     1     195.522 250.119 130.598  1.00  0.00     0.004 C 
BRANCH   2   3
ATOM      3  C   UNL     1     195.448 250.447 132.096  1.00  0.00     0.027 C 
BRANCH   3   4
ATOM      4  C   UNL     1     194.021 250.552 132.562  1.00  0.00    -0.025 C 
ATOM      5  C   UNL     1     193.610 250.598 133.840  1.00  0.00     0.020 C 
BRANCH   5   6
ATOM      6  C   UNL     1     194.467 250.596 135.044  1.00  0.00     0.064 C 
ATOM      7  O   UNL     1     195.180 251.605 135.284  1.00  0.00    -0.545 OA
ATOM      8  O   UNL     1     194.535 249.509 135.905  1.00  0.00    -0.545 OA
ENDBRANCH   5   6
ENDBRANCH   3   4
ENDBRANCH   2   3
ENDBRANCH   1   2
BRANCH   1   9
ATOM      9  C   UNL     1     196.650 248.117 131.653  1.00  0.00     0.000 C 
BRANCH   9  10
ATOM     10  C   UNL     1     195.934 246.828 132.085  1.00  0.00     0.000 C 
BRANCH  10  11
ATOM     11  C   UNL     1     195.125 247.004 133.381  1.00  0.00    -0.000 C 
BRANCH  11  12
ATOM     12  C   UNL     1     193.609 246.881 133.152  1.00  0.00    -0.000 C 
BRANCH  12  13
ATOM     13  C   UNL     1     193.261 246.505 131.704  1.00  0.00    -0.003 C 
ATOM     14  C   UNL     1     192.489 247.605 130.974  1.00  0.00     0.004 C 
ENDBRANCH  12  13
ENDBRANCH  11  12
ENDBRANCH  10  11
ENDBRANCH   9  10
ENDBRANCH   1   9
TORSDOF 9
ENDMDL
MODEL 3
REMARK VINA RESULT:    -4.418      7.077      9.376
REMARK INTER + INTRA:          -7.689
REMARK INTER:                  -5.943
REMARK INTRA:                  -1.746
REMARK UNBOUND:                -0.946
REMARK SMILES CCCCCCCCCC=CC(=O)[O-]
REMARK SMILES IDX 7 1 8 2 9 3 10 4 11 5 12 6 13 7 14 8 6 9 5 10 4 11 3 12 2 13
REMARK SMILES IDX 1 14
REMARK H PARENT
REMARK Flexibility Score: inf
ROOT
ATOM      1  C   UNL     1     193.219 248.626 131.427  1.00  0.00     0.000 C 
ENDROOT
BRANCH   1   2
ATOM      2  C   UNL     1     194.073 247.508 132.035  1.00  0.00     0.004 C 
BRANCH   2   3
ATOM      3  C   UNL     1     194.083 247.596 133.567  1.00  0.00     0.027 C 
BRANCH   3   4
ATOM      4  C   UNL     1     195.467 247.866 134.090  1.00  0.00    -0.025 C 
ATOM      5  C   UNL     1     195.835 248.914 134.847  1.00  0.00     0.020 C 
BRANCH   5   6
ATOM      6  C   UNL     1     194.956 249.988 135.353  1.00  0.00     0.064 C 
ATOM      7  O   UNL     1     194.305 249.793 136.412  1.00  0.00    -0.545 OA
ATOM      8  O   UNL     1     194.802 251.197 134.687  1.00  0.00    -0.545 OA
ENDBRANCH   5   6
ENDBRANCH   3   4
ENDBRANCH   2   3
ENDBRANCH   1   2
BRANCH   1   9
ATOM      9  C   UNL     1     193.949 249.974 131.492  1.00  0.00     0.000 C 
BRANCH   9  10
ATOM     10  C   UNL     1     195.244 249.937 130.666  1.00  0.00     0.000 C 
BRANCH  10  11
ATOM     11  C   UNL     1     196.482 250.339 131.484  1.00  0.00    -0.000 C 
BRANCH  11  12
ATOM     12  C   UNL     1     197.601 249.285 131.418  1.00  0.00    -0.000 C 
BRANCH  12  13
ATOM     13  C   UNL     1     197.327 248.201 130.365  1.00  0.00    -0.003 C 
ATOM     14  C   UNL     1     197.461 246.784 130.923  1.00  0.00     0.004 C 
ENDBRANCH  12  13
ENDBRANCH  11  12
ENDBRANCH  10  11
ENDBRANCH   9  10
ENDBRANCH   1   9
TORSDOF 9
ENDMDL
MODEL 4
REMARK VINA RESULT:    -4.332      7.720      9.871
REMARK INTER + INTRA:          -7.558
REMARK INTER:                  -6.262
REMARK INTRA:                  -1.296
REMARK UNBOUND:                -0.946
REMARK SMILES CCCCCCCCCC=CC(=O)[O-]
REMARK SMILES IDX 7 1 8 2 9 3 10 4 11 5 12 6 13 7 14 8 6 9 5 10 4 11 3 12 2 13
REMARK SMILES IDX 1 14
REMARK H PARENT
REMARK Flexibility Score: inf
ROOT
ATOM      1  C   UNL     1     193.186 245.896 132.297  1.00  0.00     0.000 C 
ENDROOT
BRANCH   1   2
ATOM      2  C   UNL     1     194.181 244.730 132.314  1.00  0.00     0.004 C 
BRANCH   2   3
ATOM      3  C   UNL     1     193.532 243.447 131.776  1.00  0.00     0.027 C 
BRANCH   3   4
ATOM      4  C   UNL     1     194.432 242.257 131.971  1.00  0.00    -0.025 C 
ATOM      5  C   UNL     1     195.333 241.796 131.088  1.00  0.00     0.020 C 
BRANCH   5   6
ATOM      6  C   UNL     1     195.654 242.379 129.768  1.00  0.00     0.064 C 
ATOM      7  O   UNL     1     196.567 243.241 129.690  1.00  0.00    -0.545 OA
ATOM      8  O   UNL     1     194.964 242.030 128.615  1.00  0.00    -0.545 OA
ENDBRANCH   5   6
ENDBRANCH   3   4
ENDBRANCH   2   3
ENDBRANCH   1   2
BRANCH   1   9
ATOM      9  C   UNL     1     191.764 245.411 132.606  1.00  0.00     0.000 C 
BRANCH   9  10
ATOM     10  C   UNL     1     191.388 245.710 134.066  1.00  0.00     0.000 C 
BRANCH  10  11
ATOM     11  C   UNL     1     190.558 244.585 134.708  1.00  0.00    -0.000 C 
BRANCH  11  12
ATOM     12  C   UNL     1     190.403 243.365 133.783  1.00  0.00    -0.000 C 
BRANCH  12  13
ATOM     13  C   UNL     1     190.918 242.069 134.428  1.00  0.00    -0.003 C 
ATOM     14  C   UNL     1     192.287 242.236 135.086  1.00  0.00     0.004 C 
ENDBRANCH  12  13
ENDBRANCH  11  12
ENDBRANCH  10  11
ENDBRANCH   9  10
ENDBRANCH   1   9
TORSDOF 9
ENDMDL
MODEL 5
REMARK VINA RESULT:    -4.331      6.842     10.163
REMARK INTER + INTRA:          -7.556
REMARK INTER:                  -6.278
REMARK INTRA:                  -1.278
REMARK UNBOUND:                -0.946
REMARK SMILES CCCCCCCCCC=CC(=O)[O-]
REMARK SMILES IDX 7 1 8 2 9 3 10 4 11 5 12 6 13 7 14 8 6 9 5 10 4 11 3 12 2 13
REMARK SMILES IDX 1 14
REMARK H PARENT
REMARK Flexibility Score: inf
ROOT
ATOM      1  C   UNL     1     193.821 242.021 134.518  1.00  0.00     0.000 C 
ENDROOT
BRANCH   1   2
ATOM      2  C   UNL     1     192.444 241.348 134.528  1.00  0.00     0.004 C 
BRANCH   2   3
ATOM      3  C   UNL     1     191.512 242.020 135.546  1.00  0.00     0.027 C 
BRANCH   3   4
ATOM      4  C   UNL     1     190.228 242.464 134.899  1.00  0.00    -0.025 C 
ATOM      5  C   UNL     1     189.896 243.729 134.591  1.00  0.00     0.020 C 
BRANCH   5   6
ATOM      6  C   UNL     1     190.732 244.932 134.784  1.00  0.00     0.064 C 
ATOM      7  O   UNL     1     191.151 245.550 133.771  1.00  0.00    -0.545 OA
ATOM      8  O   UNL     1     191.094 245.390 136.044  1.00  0.00    -0.545 OA
ENDBRANCH   5   6
ENDBRANCH   3   4
ENDBRANCH   2   3
ENDBRANCH   1   2
BRANCH   1   9
ATOM      9  C   UNL     1     193.836 243.230 133.574  1.00  0.00     0.000 C 
BRANCH   9  10
ATOM     10  C   UNL     1     193.093 242.913 132.266  1.00  0.00     0.000 C 
BRANCH  10  11
ATOM     11  C   UNL     1     193.986 243.065 131.024  1.00  0.00    -0.000 C 
BRANCH  11  12
ATOM     12  C   UNL     1     194.365 241.711 130.401  1.00  0.00    -0.000 C 
BRANCH  12  13
ATOM     13  C   UNL     1     195.582 241.068 131.085  1.00  0.00    -0.003 C 
ATOM     14  C   UNL     1     195.227 239.794 131.852  1.00  0.00     0.004 C 
ENDBRANCH  12  13
ENDBRANCH  11  12
ENDBRANCH  10  11
ENDBRANCH   9  10
ENDBRANCH   1   9
TORSDOF 9
ENDMDL
MODEL 6
REMARK VINA RESULT:    -4.326      7.246      9.302
REMARK INTER + INTRA:          -7.549
REMARK INTER:                  -5.894
REMARK INTRA:                  -1.655
REMARK UNBOUND:                -0.946
REMARK SMILES CCCCCCCCCC=CC(=O)[O-]
REMARK SMILES IDX 7 1 8 2 9 3 10 4 11 5 12 6 13 7 14 8 6 9 5 10 4 11 3 12 2 13
REMARK SMILES IDX 1 14
REMARK H PARENT
REMARK Flexibility Score: inf
ROOT
ATOM      1  C   UNL     1     193.379 247.933 131.083  1.00  0.00     0.000 C 
ENDROOT
BRANCH   1   2
ATOM      2  C   UNL     1     193.273 249.445 131.315  1.00  0.00     0.004 C 
BRANCH   2   3
ATOM      3  C   UNL     1     194.629 250.131 131.095  1.00  0.00     0.027 C 
BRANCH   3   4
ATOM      4  C   UNL     1     195.697 249.129 130.747  1.00  0.00    -0.025 C 
ATOM      5  C   UNL     1     197.015 249.274 130.961  1.00  0.00     0.020 C 
BRANCH   5   6
ATOM      6  C   UNL     1     197.682 250.419 131.615  1.00  0.00     0.064 C 
ATOM      7  O   UNL     1     197.821 250.410 132.865  1.00  0.00    -0.545 OA
ATOM      8  O   UNL     1     198.136 251.520 130.900  1.00  0.00    -0.545 OA
ENDBRANCH   5   6
ENDBRANCH   3   4
ENDBRANCH   2   3
ENDBRANCH   1   2
BRANCH   1   9
ATOM      9  C   UNL     1     192.721 247.153 132.227  1.00  0.00     0.000 C 
BRANCH   9  10
ATOM     10  C   UNL     1     193.304 247.575 133.585  1.00  0.00     0.000 C 
BRANCH  10  11
ATOM     11  C   UNL     1     194.792 247.217 133.729  1.00  0.00    -0.000 C 
BRANCH  11  12
ATOM     12  C   UNL     1     195.592 248.302 134.469  1.00  0.00    -0.000 C 
BRANCH  12  13
ATOM     13  C   UNL     1     194.686 249.293 135.217  1.00  0.00    -0.003 C 
ATOM     14  C   UNL     1     194.915 250.743 134.790  1.00  0.00     0.004 C 
ENDBRANCH  12  13
ENDBRANCH  11  12
ENDBRANCH  10  11
ENDBRANCH   9  10
ENDBRANCH   1   9
TORSDOF 9
ENDMDL
MODEL 7
REMARK VINA RESULT:    -4.300      7.370      8.969
REMARK INTER + INTRA:          -7.510
REMARK INTER:                  -5.917
REMARK INTRA:                  -1.593
REMARK UNBOUND:                -0.946
REMARK SMILES CCCCCCCCCC=CC(=O)[O-]
REMARK SMILES IDX 7 1 8 2 9 3 10 4 11 5 12 6 13 7 14 8 6 9 5 10 4 11 3 12 2 13
REMARK SMILES IDX 1 14
REMARK H PARENT
REMARK Flexibility Score: inf
ROOT
ATOM      1  C   UNL     1     196.226 248.392 130.337  1.00  0.00     0.000 C 
ENDROOT
BRANCH   1   2
ATOM      2  C   UNL     1     196.770 247.848 131.663  1.00  0.00     0.004 C 
BRANCH   2   3
ATOM      3  C   UNL     1     195.776 246.869 132.304  1.00  0.00     0.027 C 
BRANCH   3   4
ATOM      4  C   UNL     1     194.970 247.540 133.383  1.00  0.00    -0.025 C 
ATOM      5  C   UNL     1     193.638 247.716 133.379  1.00  0.00     0.020 C 
BRANCH   5   6
ATOM      6  C   UNL     1     192.690 247.256 132.342  1.00  0.00     0.064 C 
ATOM      7  O   UNL     1     191.973 246.249 132.577  1.00  0.00    -0.545 OA
ATOM      8  O   UNL     1     192.582 247.880 131.107  1.00  0.00    -0.545 OA
ENDBRANCH   5   6
ENDBRANCH   3   4
ENDBRANCH   2   3
ENDBRANCH   1   2
BRANCH   1   9
ATOM      9  C   UNL     1     195.495 249.724 130.548  1.00  0.00     0.000 C 
BRANCH   9  10
ATOM     10  C   UNL     1     196.481 250.902 130.518  1.00  0.00     0.000 C 
BRANCH  10  11
ATOM     11  C   UNL     1     196.649 251.571 131.892  1.00  0.00    -0.000 C 
BRANCH  11  12
ATOM     12  C   UNL     1     195.465 251.292 132.833  1.00  0.00    -0.000 C 
BRANCH  12  13
ATOM     13  C   UNL     1     195.916 250.962 134.265  1.00  0.00    -0.003 C 
ATOM     14  C   UNL     1     197.312 250.341 134.319  1.00  0.00     0.004 C 
ENDBRANCH  12  13
ENDBRANCH  11  12
ENDBRANCH  10  11
ENDBRANCH   9  10
ENDBRANCH   1   9
TORSDOF 9
ENDMDL
MODEL 8
REMARK VINA RESULT:    -4.261      6.998      9.170
REMARK INTER + INTRA:          -7.449
REMARK INTER:                  -5.782
REMARK INTRA:                  -1.667
REMARK UNBOUND:                -0.946
REMARK SMILES CCCCCCCCCC=CC(=O)[O-]
REMARK SMILES IDX 7 1 8 2 9 3 10 4 11 5 12 6 13 7 14 8 6 9 5 10 4 11 3 12 2 13
REMARK SMILES IDX 1 14
REMARK H PARENT
REMARK Flexibility Score: inf
ROOT
ATOM      1  C   UNL     1     193.727 249.276 133.059  1.00  0.00     0.000 C 
ENDROOT
BRANCH   1   2
ATOM      2  C   UNL     1     193.614 250.800 133.171  1.00  0.00     0.004 C 
BRANCH   2   3
ATOM      3  C   UNL     1     194.048 251.283 134.562  1.00  0.00     0.027 C 
BRANCH   3   4
ATOM      4  C   UNL     1     195.073 252.380 134.463  1.00  0.00    -0.025 C 
ATOM      5  C   UNL     1     196.237 252.436 135.132  1.00  0.00     0.020 C 
BRANCH   5   6
ATOM      6  C   UNL     1     196.768 251.421 136.065  1.00  0.00     0.064 C 
ATOM      7  O   UNL     1     196.564 251.563 137.299  1.00  0.00    -0.545 OA
ATOM      8  O   UNL     1     197.507 250.329 135.632  1.00  0.00    -0.545 OA
ENDBRANCH   5   6
ENDBRANCH   3   4
ENDBRANCH   2   3
ENDBRANCH   1   2
BRANCH   1   9
ATOM      9  C   UNL     1     194.804 248.733 134.007  1.00  0.00     0.000 C 
BRANCH   9  10
ATOM     10  C   UNL     1     195.792 247.829 133.253  1.00  0.00     0.000 C 
BRANCH  10  11
ATOM     11  C   UNL     1     196.322 248.475 131.962  1.00  0.00    -0.000 C 
BRANCH  11  12
ATOM     12  C   UNL     1     197.423 249.515 132.232  1.00  0.00    -0.000 C 
BRANCH  12  13
ATOM     13  C   UNL     1     197.063 250.908 131.693  1.00  0.00    -0.003 C 
ATOM     14  C   UNL     1     196.170 250.852 130.454  1.00  0.00     0.004 C 
ENDBRANCH  12  13
ENDBRANCH  11  12
ENDBRANCH  10  11
ENDBRANCH   9  10
ENDBRANCH   1   9
TORSDOF 9
ENDMDL
MODEL 9
REMARK VINA RESULT:    -4.258      7.897     10.149
REMARK INTER + INTRA:          -7.445
REMARK INTER:                  -6.178
REMARK INTRA:                  -1.267
REMARK UNBOUND:                -0.946
REMARK SMILES CCCCCCCCCC=CC(=O)[O-]
REMARK SMILES IDX 7 1 8 2 9 3 10 4 11 5 12 6 13 7 14 8 6 9 5 10 4 11 3 12 2 13
REMARK SMILES IDX 1 14
REMARK H PARENT
REMARK Flexibility Score: inf
ROOT
ATOM      1  C   UNL     1     192.715 246.679 132.300  1.00  0.00     0.000 C 
ENDROOT
BRANCH   1   2
ATOM      2  C   UNL     1     193.430 247.704 133.189  1.00  0.00     0.004 C 
BRANCH   2   3
ATOM      3  C   UNL     1     194.849 247.234 133.536  1.00  0.00     0.027 C 
BRANCH   3   4
ATOM      4  C   UNL     1     195.459 246.454 132.402  1.00  0.00    -0.025 C 
ATOM      5  C   UNL     1     196.219 246.959 131.417  1.00  0.00     0.020 C 
BRANCH   5   6
ATOM      6  C   UNL     1     196.647 248.365 131.264  1.00  0.00     0.064 C 
ATOM      7  O   UNL     1     197.769 248.713 131.715  1.00  0.00    -0.545 OA
ATOM      8  O   UNL     1     195.841 249.325 130.664  1.00  0.00    -0.545 OA
ENDBRANCH   5   6
ENDBRANCH   3   4
ENDBRANCH   2   3
ENDBRANCH   1   2
BRANCH   1   9
ATOM      9  C   UNL     1     191.820 245.755 133.135  1.00  0.00     0.000 C 
BRANCH   9  10
ATOM     10  C   UNL     1     191.930 244.301 132.651  1.00  0.00     0.000 C 
BRANCH  10  11
ATOM     11  C   UNL     1     192.904 243.465 133.498  1.00  0.00    -0.000 C 
BRANCH  11  12
ATOM     12  C   UNL     1     194.140 243.013 132.702  1.00  0.00    -0.000 C 
BRANCH  12  13
ATOM     13  C   UNL     1     193.991 243.261 131.193  1.00  0.00    -0.003 C 
ATOM     14  C   UNL     1     194.322 242.027 130.353  1.00  0.00     0.004 C 
ENDBRANCH  12  13
ENDBRANCH  11  12
ENDBRANCH  10  11
ENDBRANCH   9  10
ENDBRANCH   1   9
TORSDOF 9
ENDMDL
