MODEL 1
REMARK VINA RESULT:    -3.841      0.000      0.000
REMARK INTER + INTRA:          -8.496
REMARK INTER:                  -7.433
REMARK INTRA:                  -1.063
REMARK UNBOUND:                -1.063
REMARK SMILES CCCCCCCCCCCCCCCCCC(=O)[O-]
REMARK SMILES IDX 10 1 11 2 12 3 13 4 14 5 15 6 16 7 17 8 18 9 19 10 20 11
REMARK SMILES IDX 9 12 8 13 7 14 6 15 5 16 4 17 3 18 2 19 1 20
REMARK H PARENT
REMARK Flexibility Score: inf
ROOT
ATOM      1  C   UNL     1      -4.999  24.383  25.529  1.00  0.00     0.000 C 
ENDROOT
BRANCH   1   2
ATOM      2  C   UNL     1      -3.563  24.937  25.513  1.00  0.00     0.000 C 
BRANCH   2   3
ATOM      3  C   UNL     1      -3.459  26.319  26.193  1.00  0.00     0.000 C 
BRANCH   3   4
ATOM      4  C   UNL     1      -2.806  27.396  25.307  1.00  0.00     0.000 C 
BRANCH   4   5
ATOM      5  C   UNL     1      -1.830  26.859  24.243  1.00  0.00     0.000 C 
BRANCH   5   6
ATOM      6  C   UNL     1      -0.344  26.906  24.645  1.00  0.00     0.000 C 
BRANCH   6   7
ATOM      7  C   UNL     1       0.499  25.826  23.950  1.00  0.00     0.006 C 
BRANCH   7   8
ATOM      8  C   UNL     1      -0.224  24.477  23.959  1.00  0.00     0.053 C 
BRANCH   8   9
ATOM      9  C   UNL     1       0.427  23.528  23.003  1.00  0.00     0.041 C 
ATOM     10  O   UNL     1       1.608  23.730  22.616  1.00  0.00    -0.550 OA
ATOM     11  O   UNL     1      -0.252  22.393  22.579  1.00  0.00    -0.550 OA
ENDBRANCH   8   9
ENDBRANCH   7   8
ENDBRANCH   6   7
ENDBRANCH   5   6
ENDBRANCH   4   5
ENDBRANCH   3   4
ENDBRANCH   2   3
ENDBRANCH   1   2
BRANCH   1  12
ATOM     12  C   UNL     1      -5.212  23.314  26.613  1.00  0.00     0.000 C 
BRANCH  12  13
ATOM     13  C   UNL     1      -6.448  22.437  26.344  1.00  0.00    -0.000 C 
BRANCH  13  14
ATOM     14  C   UNL     1      -7.761  23.098  26.804  1.00  0.00    -0.000 C 
BRANCH  14  15
ATOM     15  C   UNL     1      -8.844  23.224  25.714  1.00  0.00    -0.000 C 
BRANCH  15  16
ATOM     16  C   UNL     1      -8.689  24.436  24.776  1.00  0.00    -0.000 C 
BRANCH  16  17
ATOM     17  C   UNL     1      -9.791  24.536  23.700  1.00  0.00    -0.000 C 
BRANCH  17  18
ATOM     18  C   UNL     1     -10.643  23.260  23.615  1.00  0.00    -0.000 C 
BRANCH  18  19
ATOM     19  C   UNL     1     -11.921  23.505  22.804  1.00  0.00    -0.003 C 
ATOM     20  C   UNL     1     -11.605  23.705  21.325  1.00  0.00     0.004 C 
ENDBRANCH  18  19
ENDBRANCH  17  18
ENDBRANCH  16  17
ENDBRANCH  15  16
ENDBRANCH  14  15
ENDBRANCH  13  14
ENDBRANCH  12  13
ENDBRANCH   1  12
TORSDOF 16
ENDMDL
MODEL 2
REMARK VINA RESULT:    -3.787      3.561      9.126
REMARK INTER + INTRA:          -8.392
REMARK INTER:                  -7.264
REMARK INTRA:                  -1.128
REMARK UNBOUND:                -1.063
REMARK SMILES CCCCCCCCCCCCCCCCCC(=O)[O-]
REMARK SMILES IDX 10 1 11 2 12 3 13 4 14 5 15 6 16 7 17 8 18 9 19 10 20 11
REMARK SMILES IDX 9 12 8 13 7 14 6 15 5 16 4 17 3 18 2 19 1 20
REMARK H PARENT
REMARK Flexibility Score: inf
ROOT
ATOM      1  C   UNL     1      -3.308  25.457  25.424  1.00  0.00     0.000 C 
ENDROOT
BRANCH   1   2
ATOM      2  C   UNL     1      -3.903  24.335  26.294  1.00  0.00     0.000 C 
BRANCH   2   3
ATOM      3  C   UNL     1      -5.053  23.589  25.584  1.00  0.00     0.000 C 
BRANCH   3   4
ATOM      4  C   UNL     1      -6.070  22.957  26.552  1.00  0.00     0.000 C 
BRANCH   4   5
ATOM      5  C   UNL     1      -7.539  23.339  26.292  1.00  0.00     0.000 C 
BRANCH   5   6
ATOM      6  C   UNL     1      -8.556  22.209  26.540  1.00  0.00     0.000 C 
BRANCH   6   7
ATOM      7  C   UNL     1      -9.955  22.529  25.991  1.00  0.00     0.006 C 
BRANCH   7   8
ATOM      8  C   UNL     1     -10.052  22.180  24.503  1.00  0.00     0.053 C 
BRANCH   8   9
ATOM      9  C   UNL     1     -10.343  23.405  23.696  1.00  0.00     0.041 C 
ATOM     10  O   UNL     1      -9.738  24.482  23.938  1.00  0.00    -0.550 OA
ATOM     11  O   UNL     1     -11.246  23.344  22.642  1.00  0.00    -0.550 OA
ENDBRANCH   8   9
ENDBRANCH   7   8
ENDBRANCH   6   7
ENDBRANCH   5   6
ENDBRANCH   4   5
ENDBRANCH   3   4
ENDBRANCH   2   3
ENDBRANCH   1   2
BRANCH   1  12
ATOM     12  C   UNL     1      -3.176  26.789  26.179  1.00  0.00     0.000 C 
BRANCH  12  13
ATOM     13  C   UNL     1      -2.311  27.814  25.425  1.00  0.00    -0.000 C 
BRANCH  13  14
ATOM     14  C   UNL     1      -1.915  27.339  24.015  1.00  0.00    -0.000 C 
BRANCH  14  15
ATOM     15  C   UNL     1      -0.506  27.764  23.555  1.00  0.00    -0.000 C 
BRANCH  15  16
ATOM     16  C   UNL     1       0.656  27.143  24.354  1.00  0.00    -0.000 C 
BRANCH  16  17
ATOM     17  C   UNL     1       1.627  26.308  23.492  1.00  0.00    -0.000 C 
BRANCH  17  18
ATOM     18  C   UNL     1       0.892  25.384  22.510  1.00  0.00    -0.000 C 
BRANCH  18  19
ATOM     19  C   UNL     1       0.817  23.952  23.052  1.00  0.00    -0.003 C 
ATOM     20  C   UNL     1      -0.395  23.769  23.961  1.00  0.00     0.004 C 
ENDBRANCH  18  19
ENDBRANCH  17  18
ENDBRANCH  16  17
ENDBRANCH  15  16
ENDBRANCH  14  15
ENDBRANCH  13  14
ENDBRANCH  12  13
ENDBRANCH   1  12
TORSDOF 16
ENDMDL
MODEL 3
REMARK VINA RESULT:    -3.724      1.006      1.929
REMARK INTER + INTRA:          -8.269
REMARK INTER:                  -7.171
REMARK INTRA:                  -1.098
REMARK UNBOUND:                -1.063
REMARK SMILES CCCCCCCCCCCCCCCCCC(=O)[O-]
REMARK SMILES IDX 10 1 11 2 12 3 13 4 14 5 15 6 16 7 17 8 18 9 19 10 20 11
REMARK SMILES IDX 9 12 8 13 7 14 6 15 5 16 4 17 3 18 2 19 1 20
REMARK H PARENT
REMARK Flexibility Score: inf
ROOT
ATOM      1  C   UNL     1      -3.957  25.591  25.453  1.00  0.00     0.000 C 
ENDROOT
BRANCH   1   2
ATOM      2  C   UNL     1      -3.219  26.722  26.192  1.00  0.00     0.000 C 
BRANCH   2   3
ATOM      3  C   UNL     1      -2.369  27.589  25.239  1.00  0.00     0.000 C 
BRANCH   3   4
ATOM      4  C   UNL     1      -0.950  27.874  25.763  1.00  0.00     0.000 C 
BRANCH   4   5
ATOM      5  C   UNL     1       0.168  27.059  25.086  1.00  0.00     0.000 C 
BRANCH   5   6
ATOM      6  C   UNL     1      -0.252  26.330  23.796  1.00  0.00     0.000 C 
BRANCH   6   7
ATOM      7  C   UNL     1      -0.191  24.800  23.923  1.00  0.00     0.006 C 
BRANCH   7   8
ATOM      8  C   UNL     1       1.015  24.235  23.168  1.00  0.00     0.053 C 
BRANCH   8   9
ATOM      9  C   UNL     1       0.565  23.313  22.079  1.00  0.00     0.041 C 
ATOM     10  O   UNL     1      -0.150  22.313  22.351  1.00  0.00    -0.550 OA
ATOM     11  O   UNL     1       0.893  23.586  20.757  1.00  0.00    -0.550 OA
ENDBRANCH   8   9
ENDBRANCH   7   8
ENDBRANCH   6   7
ENDBRANCH   5   6
ENDBRANCH   4   5
ENDBRANCH   3   4
ENDBRANCH   2   3
ENDBRANCH   1   2
BRANCH   1  12
ATOM     12  C   UNL     1      -3.515  24.192  25.910  1.00  0.00     0.000 C 
BRANCH  12  13
ATOM     13  C   UNL     1      -4.648  23.406  26.593  1.00  0.00    -0.000 C 
BRANCH  13  14
ATOM     14  C   UNL     1      -6.019  23.639  25.932  1.00  0.00    -0.000 C 
BRANCH  14  15
ATOM     15  C   UNL     1      -7.202  22.925  26.615  1.00  0.00    -0.000 C 
BRANCH  15  16
ATOM     16  C   UNL     1      -8.596  23.340  26.107  1.00  0.00    -0.000 C 
BRANCH  16  17
ATOM     17  C   UNL     1      -9.590  22.165  25.989  1.00  0.00    -0.000 C 
BRANCH  17  18
ATOM     18  C   UNL     1     -10.227  22.075  24.594  1.00  0.00    -0.000 C 
BRANCH  18  19
ATOM     19  C   UNL     1     -10.194  23.434  23.885  1.00  0.00    -0.003 C 
ATOM     20  C   UNL     1     -11.161  23.464  22.705  1.00  0.00     0.004 C 
ENDBRANCH  18  19
ENDBRANCH  17  18
ENDBRANCH  16  17
ENDBRANCH  15  16
ENDBRANCH  14  15
ENDBRANCH  13  14
ENDBRANCH  12  13
ENDBRANCH   1  12
TORSDOF 16
ENDMDL
MODEL 4
REMARK VINA RESULT:    -3.540     13.687     16.330
REMARK INTER + INTRA:          -7.915
REMARK INTER:                  -6.066
REMARK INTRA:                  -1.849
REMARK UNBOUND:                -1.063
REMARK SMILES CCCCCCCCCCCCCCCCCC(=O)[O-]
REMARK SMILES IDX 10 1 11 2 12 3 13 4 14 5 15 6 16 7 17 8 18 9 19 10 20 11
REMARK SMILES IDX 9 12 8 13 7 14 6 15 5 16 4 17 3 18 2 19 1 20
REMARK H PARENT
REMARK Flexibility Score: inf
ROOT
ATOM      1  C   UNL     1     -13.969  23.232  33.972  1.00  0.00     0.000 C 
ENDROOT
BRANCH   1   2
ATOM      2  C   UNL     1     -14.424  21.943  34.679  1.00  0.00     0.000 C 
BRANCH   2   3
ATOM      3  C   UNL     1     -14.773  22.180  36.164  1.00  0.00     0.000 C 
BRANCH   3   4
ATOM      4  C   UNL     1     -16.139  22.857  36.378  1.00  0.00     0.000 C 
BRANCH   4   5
ATOM      5  C   UNL     1     -17.340  22.102  35.778  1.00  0.00     0.000 C 
BRANCH   5   6
ATOM      6  C   UNL     1     -18.124  22.880  34.705  1.00  0.00     0.000 C 
BRANCH   6   7
ATOM      7  C   UNL     1     -18.096  22.198  33.329  1.00  0.00     0.006 C 
BRANCH   7   8
ATOM      8  C   UNL     1     -18.096  20.674  33.472  1.00  0.00     0.053 C 
BRANCH   8   9
ATOM      9  C   UNL     1     -17.007  20.069  32.645  1.00  0.00     0.041 C 
ATOM     10  O   UNL     1     -17.087  18.869  32.272  1.00  0.00    -0.550 OA
ATOM     11  O   UNL     1     -15.928  20.845  32.241  1.00  0.00    -0.550 OA
ENDBRANCH   8   9
ENDBRANCH   7   8
ENDBRANCH   6   7
ENDBRANCH   5   6
ENDBRANCH   4   5
ENDBRANCH   3   4
ENDBRANCH   2   3
ENDBRANCH   1   2
BRANCH   1  12
ATOM     12  C   UNL     1     -15.145  24.068  33.442  1.00  0.00     0.000 C 
BRANCH  12  13
ATOM     13  C   UNL     1     -14.723  25.052  32.338  1.00  0.00    -0.000 C 
BRANCH  13  14
ATOM     14  C   UNL     1     -15.919  25.599  31.536  1.00  0.00    -0.000 C 
BRANCH  14  15
ATOM     15  C   UNL     1     -17.252  25.653  32.308  1.00  0.00    -0.000 C 
BRANCH  15  16
ATOM     16  C   UNL     1     -17.739  27.070  32.670  1.00  0.00    -0.000 C 
BRANCH  16  17
ATOM     17  C   UNL     1     -16.901  27.751  33.774  1.00  0.00    -0.000 C 
BRANCH  17  18
ATOM     18  C   UNL     1     -17.606  27.734  35.139  1.00  0.00    -0.000 C 
BRANCH  18  19
ATOM     19  C   UNL     1     -17.838  26.298  35.620  1.00  0.00    -0.003 C 
ATOM     20  C   UNL     1     -17.614  26.178  37.125  1.00  0.00     0.004 C 
ENDBRANCH  18  19
ENDBRANCH  17  18
ENDBRANCH  16  17
ENDBRANCH  15  16
ENDBRANCH  14  15
ENDBRANCH  13  14
ENDBRANCH  12  13
ENDBRANCH   1  12
TORSDOF 16
ENDMDL
MODEL 5
REMARK VINA RESULT:    -3.355      3.841      7.414
REMARK INTER + INTRA:          -7.555
REMARK INTER:                  -6.261
REMARK INTRA:                  -1.294
REMARK UNBOUND:                -1.063
REMARK SMILES CCCCCCCCCCCCCCCCCC(=O)[O-]
REMARK SMILES IDX 10 1 11 2 12 3 13 4 14 5 15 6 16 7 17 8 18 9 19 10 20 11
REMARK SMILES IDX 9 12 8 13 7 14 6 15 5 16 4 17 3 18 2 19 1 20
REMARK H PARENT
REMARK Flexibility Score: inf
ROOT
ATOM      1  C   UNL     1       0.298  23.786  23.238  1.00  0.00     0.000 C 
ENDROOT
BRANCH   1   2
ATOM      2  C   UNL     1       1.506  24.032  22.316  1.00  0.00     0.000 C 
BRANCH   2   3
ATOM      3  C   UNL     1       1.657  22.935  21.240  1.00  0.00     0.000 C 
BRANCH   3   4
ATOM      4  C   UNL     1       0.353  22.167  20.953  1.00  0.00     0.000 C 
BRANCH   4   5
ATOM      5  C   UNL     1      -0.153  22.266  19.501  1.00  0.00     0.000 C 
BRANCH   5   6
ATOM      6  C   UNL     1       0.950  22.233  18.427  1.00  0.00     0.000 C 
BRANCH   6   7
ATOM      7  C   UNL     1       1.536  20.830  18.211  1.00  0.00     0.006 C 
BRANCH   7   8
ATOM      8  C   UNL     1       0.424  19.796  18.010  1.00  0.00     0.053 C 
BRANCH   8   9
ATOM      9  C   UNL     1       0.656  18.601  18.879  1.00  0.00     0.041 C 
ATOM     10  O   UNL     1       0.636  18.716  20.132  1.00  0.00    -0.550 OA
ATOM     11  O   UNL     1       0.844  17.350  18.305  1.00  0.00    -0.550 OA
ENDBRANCH   8   9
ENDBRANCH   7   8
ENDBRANCH   6   7
ENDBRANCH   5   6
ENDBRANCH   4   5
ENDBRANCH   3   4
ENDBRANCH   2   3
ENDBRANCH   1   2
BRANCH   1  12
ATOM     12  C   UNL     1      -0.184  25.064  23.942  1.00  0.00     0.000 C 
BRANCH  12  13
ATOM     13  C   UNL     1       0.358  26.344  23.284  1.00  0.00    -0.000 C 
BRANCH  13  14
ATOM     14  C   UNL     1      -0.473  27.593  23.632  1.00  0.00    -0.000 C 
BRANCH  14  15
ATOM     15  C   UNL     1      -1.905  27.307  24.125  1.00  0.00    -0.000 C 
BRANCH  15  16
ATOM     16  C   UNL     1      -2.157  27.616  25.614  1.00  0.00    -0.000 C 
BRANCH  16  17
ATOM     17  C   UNL     1      -3.353  26.847  26.215  1.00  0.00    -0.000 C 
BRANCH  17  18
ATOM     18  C   UNL     1      -3.605  25.509  25.506  1.00  0.00    -0.000 C 
BRANCH  18  19
ATOM     19  C   UNL     1      -3.904  24.397  26.518  1.00  0.00    -0.003 C 
ATOM     20  C   UNL     1      -4.943  23.421  25.975  1.00  0.00     0.004 C 
ENDBRANCH  18  19
ENDBRANCH  17  18
ENDBRANCH  16  17
ENDBRANCH  15  16
ENDBRANCH  14  15
ENDBRANCH  13  14
ENDBRANCH  12  13
ENDBRANCH   1  12
TORSDOF 16
ENDMDL
MODEL 6
REMARK VINA RESULT:    -3.295      1.908      2.202
REMARK INTER + INTRA:          -7.440
REMARK INTER:                  -6.617
REMARK INTRA:                  -0.823
REMARK UNBOUND:                -1.063
REMARK SMILES CCCCCCCCCCCCCCCCCC(=O)[O-]
REMARK SMILES IDX 10 1 11 2 12 3 13 4 14 5 15 6 16 7 17 8 18 9 19 10 20 11
REMARK SMILES IDX 9 12 8 13 7 14 6 15 5 16 4 17 3 18 2 19 1 20
REMARK H PARENT
REMARK Flexibility Score: inf
ROOT
ATOM      1  C   UNL     1      -4.637  24.147  25.365  1.00  0.00     0.000 C 
ENDROOT
BRANCH   1   2
ATOM      2  C   UNL     1      -3.330  24.903  25.663  1.00  0.00     0.000 C 
BRANCH   2   3
ATOM      3  C   UNL     1      -3.538  26.430  25.736  1.00  0.00     0.000 C 
BRANCH   3   4
ATOM      4  C   UNL     1      -2.224  27.232  25.769  1.00  0.00     0.000 C 
BRANCH   4   5
ATOM      5  C   UNL     1      -1.510  27.366  24.410  1.00  0.00     0.000 C 
BRANCH   5   6
ATOM      6  C   UNL     1      -0.210  26.550  24.278  1.00  0.00     0.000 C 
BRANCH   6   7
ATOM      7  C   UNL     1       0.504  26.772  22.937  1.00  0.00     0.006 C 
BRANCH   7   8
ATOM      8  C   UNL     1      -0.220  27.829  22.099  1.00  0.00     0.053 C 
BRANCH   8   9
ATOM      9  C   UNL     1      -0.151  27.483  20.645  1.00  0.00     0.041 C 
ATOM     10  O   UNL     1      -0.879  28.089  19.815  1.00  0.00    -0.550 OA
ATOM     11  O   UNL     1       0.754  26.529  20.200  1.00  0.00    -0.550 OA
ENDBRANCH   8   9
ENDBRANCH   7   8
ENDBRANCH   6   7
ENDBRANCH   5   6
ENDBRANCH   4   5
ENDBRANCH   3   4
ENDBRANCH   2   3
ENDBRANCH   1   2
BRANCH   1  12
ATOM     12  C   UNL     1      -5.275  23.540  26.624  1.00  0.00     0.000 C 
BRANCH  12  13
ATOM     13  C   UNL     1      -6.350  22.489  26.296  1.00  0.00    -0.000 C 
BRANCH  13  14
ATOM     14  C   UNL     1      -7.752  22.896  26.785  1.00  0.00    -0.000 C 
BRANCH  14  15
ATOM     15  C   UNL     1      -8.810  23.050  25.674  1.00  0.00    -0.000 C 
BRANCH  15  16
ATOM     16  C   UNL     1      -8.754  24.381  24.899  1.00  0.00    -0.000 C 
BRANCH  16  17
ATOM     17  C   UNL     1      -9.675  24.418  23.660  1.00  0.00    -0.000 C 
BRANCH  17  18
ATOM     18  C   UNL     1     -10.631  23.217  23.604  1.00  0.00    -0.000 C 
BRANCH  18  19
ATOM     19  C   UNL     1     -11.935  23.585  22.887  1.00  0.00    -0.003 C 
ATOM     20  C   UNL     1     -11.750  23.580  21.372  1.00  0.00     0.004 C 
ENDBRANCH  18  19
ENDBRANCH  17  18
ENDBRANCH  16  17
ENDBRANCH  15  16
ENDBRANCH  14  15
ENDBRANCH  13  14
ENDBRANCH  12  13
ENDBRANCH   1  12
TORSDOF 16
ENDMDL
MODEL 7
REMARK VINA RESULT:    -3.247      3.740      7.199
REMARK INTER + INTRA:          -7.347
REMARK INTER:                  -5.868
REMARK INTRA:                  -1.479
REMARK UNBOUND:                -1.063
REMARK SMILES CCCCCCCCCCCCCCCCCC(=O)[O-]
REMARK SMILES IDX 10 1 11 2 12 3 13 4 14 5 15 6 16 7 17 8 18 9 19 10 20 11
REMARK SMILES IDX 9 12 8 13 7 14 6 15 5 16 4 17 3 18 2 19 1 20
REMARK H PARENT
REMARK Flexibility Score: inf
ROOT
ATOM      1  C   UNL     1       0.259  23.682  23.195  1.00  0.00     0.000 C 
ENDROOT
BRANCH   1   2
ATOM      2  C   UNL     1       1.560  24.110  22.493  1.00  0.00     0.000 C 
BRANCH   2   3
ATOM      3  C   UNL     1       1.757  23.399  21.137  1.00  0.00     0.000 C 
BRANCH   3   4
ATOM      4  C   UNL     1       0.585  22.480  20.745  1.00  0.00     0.000 C 
BRANCH   4   5
ATOM      5  C   UNL     1       0.652  21.916  19.314  1.00  0.00     0.000 C 
BRANCH   5   6
ATOM      6  C   UNL     1      -0.541  22.290  18.414  1.00  0.00     0.000 C 
BRANCH   6   7
ATOM      7  C   UNL     1      -0.126  23.079  17.164  1.00  0.00     0.006 C 
BRANCH   7   8
ATOM      8  C   UNL     1       0.954  24.111  17.501  1.00  0.00     0.053 C 
BRANCH   8   9
ATOM      9  C   UNL     1       0.331  25.385  17.977  1.00  0.00     0.041 C 
ATOM     10  O   UNL     1       0.894  26.070  18.871  1.00  0.00    -0.550 OA
ATOM     11  O   UNL     1      -0.845  25.843  17.397  1.00  0.00    -0.550 OA
ENDBRANCH   8   9
ENDBRANCH   7   8
ENDBRANCH   6   7
ENDBRANCH   5   6
ENDBRANCH   4   5
ENDBRANCH   3   4
ENDBRANCH   2   3
ENDBRANCH   1   2
BRANCH   1  12
ATOM     12  C   UNL     1      -0.325  24.785  24.092  1.00  0.00     0.000 C 
BRANCH  12  13
ATOM     13  C   UNL     1       0.433  26.118  23.963  1.00  0.00    -0.000 C 
BRANCH  13  14
ATOM     14  C   UNL     1      -0.496  27.306  23.653  1.00  0.00    -0.000 C 
BRANCH  14  15
ATOM     15  C   UNL     1      -1.971  27.102  24.053  1.00  0.00    -0.000 C 
BRANCH  15  16
ATOM     16  C   UNL     1      -2.358  27.669  25.432  1.00  0.00    -0.000 C 
BRANCH  16  17
ATOM     17  C   UNL     1      -3.300  26.750  26.240  1.00  0.00    -0.000 C 
BRANCH  17  18
ATOM     18  C   UNL     1      -3.614  25.440  25.503  1.00  0.00    -0.000 C 
BRANCH  18  19
ATOM     19  C   UNL     1      -3.936  24.315  26.493  1.00  0.00    -0.003 C 
ATOM     20  C   UNL     1      -5.079  23.441  25.984  1.00  0.00     0.004 C 
ENDBRANCH  18  19
ENDBRANCH  17  18
ENDBRANCH  16  17
ENDBRANCH  15  16
ENDBRANCH  14  15
ENDBRANCH  13  14
ENDBRANCH  12  13
ENDBRANCH   1  12
TORSDOF 16
ENDMDL
MODEL 8
REMARK VINA RESULT:    -3.194      4.501      8.586
REMARK INTER + INTRA:          -7.244
REMARK INTER:                  -5.410
REMARK INTRA:                  -1.835
REMARK UNBOUND:                -1.063
REMARK SMILES CCCCCCCCCCCCCCCCCC(=O)[O-]
REMARK SMILES IDX 10 1 11 2 12 3 13 4 14 5 15 6 16 7 17 8 18 9 19 10 20 11
REMARK SMILES IDX 9 12 8 13 7 14 6 15 5 16 4 17 3 18 2 19 1 20
REMARK H PARENT
REMARK Flexibility Score: inf
ROOT
ATOM      1  C   UNL     1       2.027  24.953  22.913  1.00  0.00     0.000 C 
ENDROOT
BRANCH   1   2
ATOM      2  C   UNL     1       0.669  25.670  22.814  1.00  0.00     0.000 C 
BRANCH   2   3
ATOM      3  C   UNL     1       0.555  26.850  23.802  1.00  0.00     0.000 C 
BRANCH   3   4
ATOM      4  C   UNL     1      -0.752  27.652  23.658  1.00  0.00     0.000 C 
BRANCH   4   5
ATOM      5  C   UNL     1      -2.004  26.964  24.232  1.00  0.00     0.000 C 
BRANCH   5   6
ATOM      6  C   UNL     1      -2.342  27.341  25.687  1.00  0.00     0.000 C 
BRANCH   6   7
ATOM      7  C   UNL     1      -3.479  26.495  26.278  1.00  0.00     0.006 C 
BRANCH   7   8
ATOM      8  C   UNL     1      -3.620  25.167  25.530  1.00  0.00     0.053 C 
BRANCH   8   9
ATOM      9  C   UNL     1      -4.276  24.142  26.400  1.00  0.00     0.041 C 
ATOM     10  O   UNL     1      -5.074  23.306  25.902  1.00  0.00    -0.550 OA
ATOM     11  O   UNL     1      -3.968  24.078  27.753  1.00  0.00    -0.550 OA
ENDBRANCH   8   9
ENDBRANCH   7   8
ENDBRANCH   6   7
ENDBRANCH   5   6
ENDBRANCH   4   5
ENDBRANCH   3   4
ENDBRANCH   2   3
ENDBRANCH   1   2
BRANCH   1  12
ATOM     12  C   UNL     1       2.007  23.549  22.288  1.00  0.00     0.000 C 
BRANCH  12  13
ATOM     13  C   UNL     1       0.582  22.988  22.135  1.00  0.00    -0.000 C 
BRANCH  13  14
ATOM     14  C   UNL     1       0.385  22.207  20.823  1.00  0.00    -0.000 C 
BRANCH  14  15
ATOM     15  C   UNL     1       1.638  22.101  19.932  1.00  0.00    -0.000 C 
BRANCH  15  16
ATOM     16  C   UNL     1       1.477  22.673  18.510  1.00  0.00    -0.000 C 
BRANCH  16  17
ATOM     17  C   UNL     1       0.158  23.445  18.296  1.00  0.00    -0.000 C 
BRANCH  17  18
ATOM     18  C   UNL     1       0.394  24.922  17.943  1.00  0.00    -0.000 C 
BRANCH  18  19
ATOM     19  C   UNL     1       0.588  25.765  19.208  1.00  0.00    -0.003 C 
ATOM     20  C   UNL     1       2.034  26.233  19.343  1.00  0.00     0.004 C 
ENDBRANCH  18  19
ENDBRANCH  17  18
ENDBRANCH  16  17
ENDBRANCH  15  16
ENDBRANCH  14  15
ENDBRANCH  13  14
ENDBRANCH  12  13
ENDBRANCH   1  12
TORSDOF 16
ENDMDL
MODEL 9
REMARK VINA RESULT:    -3.184      4.483      8.658
REMARK INTER + INTRA:          -7.224
REMARK INTER:                  -6.123
REMARK INTRA:                  -1.101
REMARK UNBOUND:                -1.063
REMARK SMILES CCCCCCCCCCCCCCCCCC(=O)[O-]
REMARK SMILES IDX 10 1 11 2 12 3 13 4 14 5 15 6 16 7 17 8 18 9 19 10 20 11
REMARK SMILES IDX 9 12 8 13 7 14 6 15 5 16 4 17 3 18 2 19 1 20
REMARK H PARENT
REMARK Flexibility Score: inf
ROOT
ATOM      1  C   UNL     1       0.255  23.686  23.211  1.00  0.00     0.000 C 
ENDROOT
BRANCH   1   2
ATOM      2  C   UNL     1      -0.500  24.518  24.263  1.00  0.00     0.000 C 
BRANCH   2   3
ATOM      3  C   UNL     1       0.063  25.949  24.395  1.00  0.00     0.000 C 
BRANCH   3   4
ATOM      4  C   UNL     1      -0.718  26.998  23.582  1.00  0.00     0.000 C 
BRANCH   4   5
ATOM      5  C   UNL     1      -2.137  27.297  24.099  1.00  0.00     0.000 C 
BRANCH   5   6
ATOM      6  C   UNL     1      -2.271  27.343  25.633  1.00  0.00     0.000 C 
BRANCH   6   7
ATOM      7  C   UNL     1      -3.476  26.546  26.154  1.00  0.00     0.006 C 
BRANCH   7   8
ATOM      8  C   UNL     1      -3.572  25.183  25.464  1.00  0.00     0.053 C 
BRANCH   8   9
ATOM      9  C   UNL     1      -4.248  24.190  26.355  1.00  0.00     0.041 C 
ATOM     10  O   UNL     1      -5.098  23.391  25.883  1.00  0.00    -0.550 OA
ATOM     11  O   UNL     1      -3.901  24.112  27.698  1.00  0.00    -0.550 OA
ENDBRANCH   8   9
ENDBRANCH   7   8
ENDBRANCH   6   7
ENDBRANCH   5   6
ENDBRANCH   4   5
ENDBRANCH   3   4
ENDBRANCH   2   3
ENDBRANCH   1   2
BRANCH   1  12
ATOM     12  C   UNL     1       1.599  24.312  22.808  1.00  0.00     0.000 C 
BRANCH  12  13
ATOM     13  C   UNL     1       1.943  24.075  21.327  1.00  0.00    -0.000 C 
BRANCH  13  14
ATOM     14  C   UNL     1       1.383  22.745  20.790  1.00  0.00    -0.000 C 
BRANCH  14  15
ATOM     15  C   UNL     1       1.164  22.699  19.265  1.00  0.00    -0.000 C 
BRANCH  15  16
ATOM     16  C   UNL     1      -0.110  21.960  18.811  1.00  0.00    -0.000 C 
BRANCH  16  17
ATOM     17  C   UNL     1       0.109  21.034  17.595  1.00  0.00    -0.000 C 
BRANCH  17  18
ATOM     18  C   UNL     1       1.284  20.067  17.799  1.00  0.00    -0.000 C 
BRANCH  18  19
ATOM     19  C   UNL     1       0.786  18.633  18.011  1.00  0.00    -0.003 C 
ATOM     20  C   UNL     1       0.547  18.345  19.490  1.00  0.00     0.004 C 
ENDBRANCH  18  19
ENDBRANCH  17  18
ENDBRANCH  16  17
ENDBRANCH  15  16
ENDBRANCH  14  15
ENDBRANCH  13  14
ENDBRANCH  12  13
ENDBRANCH   1  12
TORSDOF 16
ENDMDL
