MODEL 1
REMARK VINA RESULT:    -3.394      0.000      0.000
REMARK INTER + INTRA:          -5.596
REMARK INTER:                  -5.180
REMARK INTRA:                  -0.416
REMARK UNBOUND:                -0.416
REMARK SMILES O=C([O-])CCCCCCCCC(=O)[O-]
REMARK SMILES IDX 7 1 6 2 5 3 4 4 2 5 1 6 3 7 8 8 9 9 10 10 11 11 12 12 13 13
REMARK SMILES IDX 14 14
REMARK H PARENT
REMARK Flexibility Score: inf
ROOT
ATOM      1  C   UNL     1     -31.171  -1.735 -34.858  1.00  0.00     0.000 C 
ENDROOT
BRANCH   1   2
ATOM      2  C   UNL     1     -32.390  -1.083 -34.183  1.00  0.00     0.000 C 
BRANCH   2   3
ATOM      3  C   UNL     1     -33.517  -2.091 -33.890  1.00  0.00     0.006 C 
BRANCH   3   4
ATOM      4  C   UNL     1     -33.028  -3.526 -33.634  1.00  0.00     0.053 C 
BRANCH   4   5
ATOM      5  C   UNL     1     -34.123  -4.413 -33.129  1.00  0.00     0.041 C 
ATOM      6  O   UNL     1     -34.772  -5.137 -33.930  1.00  0.00    -0.550 OA
ATOM      7  O   UNL     1     -34.403  -4.469 -31.769  1.00  0.00    -0.550 OA
ENDBRANCH   4   5
ENDBRANCH   3   4
ENDBRANCH   2   3
ENDBRANCH   1   2
BRANCH   1   8
ATOM      8  C   UNL     1     -30.938  -1.218 -36.286  1.00  0.00     0.000 C 
BRANCH   8   9
ATOM      9  C   UNL     1     -31.970  -0.156 -36.705  1.00  0.00     0.000 C 
BRANCH   9  10
ATOM     10  C   UNL     1     -32.219  -0.146 -38.227  1.00  0.00     0.006 C 
BRANCH  10  11
ATOM     11  C   UNL     1     -33.053   1.053 -38.705  1.00  0.00     0.053 C 
BRANCH  11  12
ATOM     12  C   UNL     1     -32.220   2.090 -39.391  1.00  0.00     0.041 C 
ATOM     13  O   UNL     1     -32.756   3.141 -39.833  1.00  0.00    -0.550 OA
ATOM     14  O   UNL     1     -30.850   1.908 -39.519  1.00  0.00    -0.550 OA
ENDBRANCH  11  12
ENDBRANCH  10  11
ENDBRANCH   9  10
ENDBRANCH   8   9
ENDBRANCH   1   8
TORSDOF 9
ENDMDL
MODEL 2
REMARK VINA RESULT:    -3.347      1.469      7.438
REMARK INTER + INTRA:          -5.524
REMARK INTER:                  -5.025
REMARK INTRA:                  -0.499
REMARK UNBOUND:                -0.416
REMARK SMILES O=C([O-])CCCCCCCCC(=O)[O-]
REMARK SMILES IDX 7 1 6 2 5 3 4 4 2 5 1 6 3 7 8 8 9 9 10 10 11 11 12 12 13 13
REMARK SMILES IDX 14 14
REMARK H PARENT
REMARK Flexibility Score: inf
ROOT
ATOM      1  C   UNL     1     -31.229  -1.852 -34.885  1.00  0.00     0.000 C 
ENDROOT
BRANCH   1   2
ATOM      2  C   UNL     1     -30.906  -1.228 -36.254  1.00  0.00     0.000 C 
BRANCH   2   3
ATOM      3  C   UNL     1     -31.971  -0.213 -36.711  1.00  0.00     0.006 C 
BRANCH   3   4
ATOM      4  C   UNL     1     -32.268  -0.249 -38.219  1.00  0.00     0.053 C 
BRANCH   4   5
ATOM      5  C   UNL     1     -31.016  -0.283 -39.039  1.00  0.00     0.041 C 
ATOM      6  O   UNL     1     -30.736  -1.300 -39.726  1.00  0.00    -0.550 OA
ATOM      7  O   UNL     1     -30.176   0.824 -39.075  1.00  0.00    -0.550 OA
ENDBRANCH   4   5
ENDBRANCH   3   4
ENDBRANCH   2   3
ENDBRANCH   1   2
BRANCH   1   8
ATOM      8  C   UNL     1     -32.376  -1.129 -34.162  1.00  0.00     0.000 C 
BRANCH   8   9
ATOM      9  C   UNL     1     -33.546  -2.070 -33.821  1.00  0.00     0.000 C 
BRANCH   9  10
ATOM     10  C   UNL     1     -33.093  -3.535 -33.656  1.00  0.00     0.006 C 
BRANCH  10  11
ATOM     11  C   UNL     1     -34.259  -4.529 -33.542  1.00  0.00     0.053 C 
BRANCH  11  12
ATOM     12  C   UNL     1     -34.365  -5.131 -32.176  1.00  0.00     0.041 C 
ATOM     13  O   UNL     1     -34.538  -4.392 -31.171  1.00  0.00    -0.550 OA
ATOM     14  O   UNL     1     -34.298  -6.509 -32.017  1.00  0.00    -0.550 OA
ENDBRANCH  11  12
ENDBRANCH  10  11
ENDBRANCH   9  10
ENDBRANCH   8   9
ENDBRANCH   1   8
TORSDOF 9
ENDMDL
MODEL 3
REMARK VINA RESULT:    -3.331      3.518      5.097
REMARK INTER + INTRA:          -5.500
REMARK INTER:                  -4.797
REMARK INTRA:                  -0.703
REMARK UNBOUND:                -0.416
REMARK SMILES O=C([O-])CCCCCCCCC(=O)[O-]
REMARK SMILES IDX 7 1 6 2 5 3 4 4 2 5 1 6 3 7 8 8 9 9 10 10 11 11 12 12 13 13
REMARK SMILES IDX 14 14
REMARK H PARENT
REMARK Flexibility Score: inf
ROOT
ATOM      1  C   UNL     1     -33.817  -4.323 -33.445  1.00  0.00     0.000 C 
ENDROOT
BRANCH   1   2
ATOM      2  C   UNL     1     -34.903  -5.379 -33.171  1.00  0.00     0.000 C 
BRANCH   2   3
ATOM      3  C   UNL     1     -34.909  -5.860 -31.708  1.00  0.00     0.006 C 
BRANCH   3   4
ATOM      4  C   UNL     1     -34.497  -7.330 -31.526  1.00  0.00     0.053 C 
BRANCH   4   5
ATOM      5  C   UNL     1     -33.135  -7.462 -30.921  1.00  0.00     0.041 C 
ATOM      6  O   UNL     1     -32.929  -8.294 -29.998  1.00  0.00    -0.550 OA
ATOM      7  O   UNL     1     -32.081  -6.692 -31.399  1.00  0.00    -0.550 OA
ENDBRANCH   4   5
ENDBRANCH   3   4
ENDBRANCH   2   3
ENDBRANCH   1   2
BRANCH   1   8
ATOM      8  C   UNL     1     -33.454  -3.509 -32.194  1.00  0.00     0.000 C 
BRANCH   8   9
ATOM      9  C   UNL     1     -33.403  -1.995 -32.468  1.00  0.00     0.000 C 
BRANCH   9  10
ATOM     10  C   UNL     1     -33.216  -1.675 -33.965  1.00  0.00     0.006 C 
BRANCH  10  11
ATOM     11  C   UNL     1     -31.842  -1.073 -34.297  1.00  0.00     0.053 C 
BRANCH  11  12
ATOM     12  C   UNL     1     -31.013  -1.980 -35.151  1.00  0.00     0.041 C 
ATOM     13  O   UNL     1     -30.715  -3.134 -34.746  1.00  0.00    -0.550 OA
ATOM     14  O   UNL     1     -30.591  -1.560 -36.406  1.00  0.00    -0.550 OA
ENDBRANCH  11  12
ENDBRANCH  10  11
ENDBRANCH   9  10
ENDBRANCH   8   9
ENDBRANCH   1   8
TORSDOF 9
ENDMDL
MODEL 4
REMARK VINA RESULT:    -3.319      1.369      1.931
REMARK INTER + INTRA:          -5.482
REMARK INTER:                  -4.995
REMARK INTRA:                  -0.487
REMARK UNBOUND:                -0.416
REMARK SMILES O=C([O-])CCCCCCCCC(=O)[O-]
REMARK SMILES IDX 7 1 6 2 5 3 4 4 2 5 1 6 3 7 8 8 9 9 10 10 11 11 12 12 13 13
REMARK SMILES IDX 14 14
REMARK H PARENT
REMARK Flexibility Score: inf
ROOT
ATOM      1  C   UNL     1     -32.072  -1.157 -34.059  1.00  0.00     0.000 C 
ENDROOT
BRANCH   1   2
ATOM      2  C   UNL     1     -33.361  -1.968 -33.839  1.00  0.00     0.000 C 
BRANCH   2   3
ATOM      3  C   UNL     1     -33.091  -3.468 -33.623  1.00  0.00     0.006 C 
BRANCH   3   4
ATOM      4  C   UNL     1     -33.875  -4.087 -32.455  1.00  0.00     0.053 C 
BRANCH   4   5
ATOM      5  C   UNL     1     -34.677  -5.276 -32.882  1.00  0.00     0.041 C 
ATOM      6  O   UNL     1     -35.122  -5.351 -34.058  1.00  0.00    -0.550 OA
ATOM      7  O   UNL     1     -34.904  -6.320 -31.994  1.00  0.00    -0.550 OA
ENDBRANCH   4   5
ENDBRANCH   3   4
ENDBRANCH   2   3
ENDBRANCH   1   2
BRANCH   1   8
ATOM      8  C   UNL     1     -31.013  -1.934 -34.858  1.00  0.00     0.000 C 
BRANCH   8   9
ATOM      9  C   UNL     1     -30.762  -1.328 -36.250  1.00  0.00     0.000 C 
BRANCH   9  10
ATOM     10  C   UNL     1     -31.700  -0.142 -36.553  1.00  0.00     0.006 C 
BRANCH  10  11
ATOM     11  C   UNL     1     -32.228  -0.131 -37.996  1.00  0.00     0.053 C 
BRANCH  11  12
ATOM     12  C   UNL     1     -31.126  -0.151 -39.008  1.00  0.00     0.041 C 
ATOM     13  O   UNL     1     -30.424   0.877 -39.199  1.00  0.00    -0.550 OA
ATOM     14  O   UNL     1     -30.857  -1.312 -39.720  1.00  0.00    -0.550 OA
ENDBRANCH  11  12
ENDBRANCH  10  11
ENDBRANCH   9  10
ENDBRANCH   8   9
ENDBRANCH   1   8
TORSDOF 9
ENDMDL
MODEL 5
REMARK VINA RESULT:    -3.317      8.209     10.980
REMARK INTER + INTRA:          -5.478
REMARK INTER:                  -5.090
REMARK INTRA:                  -0.387
REMARK UNBOUND:                -0.416
REMARK SMILES O=C([O-])CCCCCCCCC(=O)[O-]
REMARK SMILES IDX 7 1 6 2 5 3 4 4 2 5 1 6 3 7 8 8 9 9 10 10 11 11 12 12 13 13
REMARK SMILES IDX 14 14
REMARK H PARENT
REMARK Flexibility Score: inf
ROOT
ATOM      1  C   UNL     1     -26.897   5.094 -35.036  1.00  0.00     0.000 C 
ENDROOT
BRANCH   1   2
ATOM      2  C   UNL     1     -26.611   5.294 -36.534  1.00  0.00     0.000 C 
BRANCH   2   3
ATOM      3  C   UNL     1     -27.300   4.238 -37.418  1.00  0.00     0.006 C 
BRANCH   3   4
ATOM      4  C   UNL     1     -28.809   4.464 -37.607  1.00  0.00     0.053 C 
BRANCH   4   5
ATOM      5  C   UNL     1     -29.111   5.237 -38.852  1.00  0.00     0.041 C 
ATOM      6  O   UNL     1     -29.449   4.635 -39.905  1.00  0.00    -0.550 OA
ATOM      7  O   UNL     1     -29.056   6.626 -38.841  1.00  0.00    -0.550 OA
ENDBRANCH   4   5
ENDBRANCH   3   4
ENDBRANCH   2   3
ENDBRANCH   1   2
BRANCH   1   8
ATOM      8  C   UNL     1     -26.108   3.920 -34.435  1.00  0.00     0.000 C 
BRANCH   8   9
ATOM      9  C   UNL     1     -24.590   4.055 -34.651  1.00  0.00     0.000 C 
BRANCH   9  10
ATOM     10  C   UNL     1     -23.837   4.377 -33.345  1.00  0.00     0.006 C 
BRANCH  10  11
ATOM     11  C   UNL     1     -24.417   5.579 -32.582  1.00  0.00     0.053 C 
BRANCH  11  12
ATOM     12  C   UNL     1     -23.959   5.627 -31.159  1.00  0.00     0.041 C 
ATOM     13  O   UNL     1     -24.031   6.702 -30.507  1.00  0.00    -0.550 OA
ATOM     14  O   UNL     1     -23.477   4.479 -30.544  1.00  0.00    -0.550 OA
ENDBRANCH  11  12
ENDBRANCH  10  11
ENDBRANCH   9  10
ENDBRANCH   8   9
ENDBRANCH   1   8
TORSDOF 9
ENDMDL
MODEL 6
REMARK VINA RESULT:    -3.309      6.188      9.397
REMARK INTER + INTRA:          -5.466
REMARK INTER:                  -5.024
REMARK INTRA:                  -0.442
REMARK UNBOUND:                -0.416
REMARK SMILES O=C([O-])CCCCCCCCC(=O)[O-]
REMARK SMILES IDX 7 1 6 2 5 3 4 4 2 5 1 6 3 7 8 8 9 9 10 10 11 11 12 12 13 13
REMARK SMILES IDX 14 14
REMARK H PARENT
REMARK Flexibility Score: inf
ROOT
ATOM      1  C   UNL     1     -32.663  -7.803 -29.271  1.00  0.00     0.000 C 
ENDROOT
BRANCH   1   2
ATOM      2  C   UNL     1     -32.454  -9.327 -29.225  1.00  0.00     0.000 C 
BRANCH   2   3
ATOM      3  C   UNL     1     -32.398  -9.875 -27.787  1.00  0.00     0.006 C 
BRANCH   3   4
ATOM      4  C   UNL     1     -32.172  -8.800 -26.711  1.00  0.00     0.053 C 
BRANCH   4   5
ATOM      5  C   UNL     1     -32.845  -9.146 -25.420  1.00  0.00     0.041 C 
ATOM      6  O   UNL     1     -33.505  -8.275 -24.795  1.00  0.00    -0.550 OA
ATOM      7  O   UNL     1     -32.773 -10.442 -24.922  1.00  0.00    -0.550 OA
ENDBRANCH   4   5
ENDBRANCH   3   4
ENDBRANCH   2   3
ENDBRANCH   1   2
BRANCH   1   8
ATOM      8  C   UNL     1     -32.653  -7.248 -30.704  1.00  0.00     0.000 C 
BRANCH   8   9
ATOM      9  C   UNL     1     -33.901  -7.659 -31.506  1.00  0.00     0.000 C 
BRANCH   9  10
ATOM     10  C   UNL     1     -35.058  -6.651 -31.351  1.00  0.00     0.006 C 
BRANCH  10  11
ATOM     11  C   UNL     1     -34.664  -5.207 -31.699  1.00  0.00     0.053 C 
BRANCH  11  12
ATOM     12  C   UNL     1     -34.490  -5.003 -33.172  1.00  0.00     0.041 C 
ATOM     13  O   UNL     1     -35.362  -5.424 -33.976  1.00  0.00    -0.550 OA
ATOM     14  O   UNL     1     -33.378  -4.324 -33.652  1.00  0.00    -0.550 OA
ENDBRANCH  11  12
ENDBRANCH  10  11
ENDBRANCH   9  10
ENDBRANCH   8   9
ENDBRANCH   1   8
TORSDOF 9
ENDMDL
MODEL 7
REMARK VINA RESULT:    -3.303      4.336      7.982
REMARK INTER + INTRA:          -5.457
REMARK INTER:                  -4.938
REMARK INTRA:                  -0.518
REMARK UNBOUND:                -0.416
REMARK SMILES O=C([O-])CCCCCCCCC(=O)[O-]
REMARK SMILES IDX 7 1 6 2 5 3 4 4 2 5 1 6 3 7 8 8 9 9 10 10 11 11 12 12 13 13
REMARK SMILES IDX 14 14
REMARK H PARENT
REMARK Flexibility Score: inf
ROOT
ATOM      1  C   UNL     1     -30.748   3.745 -38.477  1.00  0.00     0.000 C 
ENDROOT
BRANCH   1   2
ATOM      2  C   UNL     1     -30.480   5.237 -38.744  1.00  0.00     0.000 C 
BRANCH   2   3
ATOM      3  C   UNL     1     -29.000   5.617 -38.559  1.00  0.00     0.006 C 
BRANCH   3   4
ATOM      4  C   UNL     1     -28.078   4.426 -38.248  1.00  0.00     0.053 C 
BRANCH   4   5
ATOM      5  C   UNL     1     -27.225   4.675 -37.043  1.00  0.00     0.041 C 
ATOM      6  O   UNL     1     -26.859   3.713 -36.316  1.00  0.00    -0.550 OA
ATOM      7  O   UNL     1     -26.802   5.964 -36.742  1.00  0.00    -0.550 OA
ENDBRANCH   4   5
ENDBRANCH   3   4
ENDBRANCH   2   3
ENDBRANCH   1   2
BRANCH   1   8
ATOM      8  C   UNL     1     -31.270   3.006 -39.719  1.00  0.00     0.000 C 
BRANCH   8   9
ATOM      9  C   UNL     1     -32.697   2.462 -39.527  1.00  0.00     0.000 C 
BRANCH   9  10
ATOM     10  C   UNL     1     -32.873   1.740 -38.175  1.00  0.00     0.006 C 
BRANCH  10  11
ATOM     11  C   UNL     1     -33.039   0.218 -38.310  1.00  0.00     0.053 C 
BRANCH  11  12
ATOM     12  C   UNL     1     -31.729  -0.504 -38.279  1.00  0.00     0.041 C 
ATOM     13  O   UNL     1     -31.123  -0.763 -39.353  1.00  0.00    -0.550 OA
ATOM     14  O   UNL     1     -31.163  -0.867 -37.064  1.00  0.00    -0.550 OA
ENDBRANCH  11  12
ENDBRANCH  10  11
ENDBRANCH   9  10
ENDBRANCH   8   9
ENDBRANCH   1   8
TORSDOF 9
ENDMDL
MODEL 8
REMARK VINA RESULT:    -3.289      4.224      6.333
REMARK INTER + INTRA:          -5.435
REMARK INTER:                  -4.848
REMARK INTRA:                  -0.587
REMARK UNBOUND:                -0.416
REMARK SMILES O=C([O-])CCCCCCCCC(=O)[O-]
REMARK SMILES IDX 7 1 6 2 5 3 4 4 2 5 1 6 3 7 8 8 9 9 10 10 11 11 12 12 13 13
REMARK SMILES IDX 14 14
REMARK H PARENT
REMARK Flexibility Score: inf
ROOT
ATOM      1  C   UNL     1     -34.549  -5.127 -30.150  1.00  0.00     0.000 C 
ENDROOT
BRANCH   1   2
ATOM      2  C   UNL     1     -35.292  -6.192 -30.975  1.00  0.00     0.000 C 
BRANCH   2   3
ATOM      3  C   UNL     1     -34.348  -7.263 -31.551  1.00  0.00     0.006 C 
BRANCH   3   4
ATOM      4  C   UNL     1     -33.135  -7.579 -30.660  1.00  0.00     0.053 C 
BRANCH   4   5
ATOM      5  C   UNL     1     -32.863  -9.048 -30.579  1.00  0.00     0.041 C 
ATOM      6  O   UNL     1     -32.359  -9.543 -29.536  1.00  0.00    -0.550 OA
ATOM      7  O   UNL     1     -33.201  -9.879 -31.640  1.00  0.00    -0.550 OA
ENDBRANCH   4   5
ENDBRANCH   3   4
ENDBRANCH   2   3
ENDBRANCH   1   2
BRANCH   1   8
ATOM      8  C   UNL     1     -34.246  -3.857 -30.959  1.00  0.00     0.000 C 
BRANCH   8   9
ATOM      9  C   UNL     1     -33.023  -4.021 -31.880  1.00  0.00     0.000 C 
BRANCH   9  10
ATOM     10  C   UNL     1     -33.379  -3.837 -33.369  1.00  0.00     0.006 C 
BRANCH  10  11
ATOM     11  C   UNL     1     -33.815  -2.406 -33.723  1.00  0.00     0.053 C 
BRANCH  11  12
ATOM     12  C   UNL     1     -32.663  -1.452 -33.767  1.00  0.00     0.041 C 
ATOM     13  O   UNL     1     -31.832  -1.508 -34.711  1.00  0.00    -0.550 OA
ATOM     14  O   UNL     1     -32.523  -0.486 -32.780  1.00  0.00    -0.550 OA
ENDBRANCH  11  12
ENDBRANCH  10  11
ENDBRANCH   9  10
ENDBRANCH   8   9
ENDBRANCH   1   8
TORSDOF 9
ENDMDL
MODEL 9
REMARK VINA RESULT:    -3.242      5.975      8.258
REMARK INTER + INTRA:          -5.364
REMARK INTER:                  -4.507
REMARK INTRA:                  -0.856
REMARK UNBOUND:                -0.416
REMARK SMILES O=C([O-])CCCCCCCCC(=O)[O-]
REMARK SMILES IDX 7 1 6 2 5 3 4 4 2 5 1 6 3 7 8 8 9 9 10 10 11 11 12 12 13 13
REMARK SMILES IDX 14 14
REMARK H PARENT
REMARK Flexibility Score: inf
ROOT
ATOM      1  C   UNL     1     -33.442  -2.158 -32.124  1.00  0.00     0.000 C 
ENDROOT
BRANCH   1   2
ATOM      2  C   UNL     1     -33.556  -2.832 -33.503  1.00  0.00     0.000 C 
BRANCH   2   3
ATOM      3  C   UNL     1     -33.439  -4.365 -33.426  1.00  0.00     0.006 C 
BRANCH   3   4
ATOM      4  C   UNL     1     -34.790  -5.098 -33.389  1.00  0.00     0.053 C 
BRANCH   4   5
ATOM      5  C   UNL     1     -34.881  -6.054 -32.241  1.00  0.00     0.041 C 
ATOM      6  O   UNL     1     -33.834  -6.473 -31.681  1.00  0.00    -0.550 OA
ATOM      7  O   UNL     1     -36.123  -6.454 -31.763  1.00  0.00    -0.550 OA
ENDBRANCH   4   5
ENDBRANCH   3   4
ENDBRANCH   2   3
ENDBRANCH   1   2
BRANCH   1   8
ATOM      8  C   UNL     1     -32.473  -2.892 -31.185  1.00  0.00     0.000 C 
BRANCH   8   9
ATOM      9  C   UNL     1     -33.128  -3.284 -29.848  1.00  0.00     0.000 C 
BRANCH   9  10
ATOM     10  C   UNL     1     -34.669  -3.282 -29.926  1.00  0.00     0.006 C 
BRANCH  10  11
ATOM     11  C   UNL     1     -35.342  -2.580 -28.736  1.00  0.00     0.053 C 
BRANCH  11  12
ATOM     12  C   UNL     1     -35.670  -3.528 -27.625  1.00  0.00     0.041 C 
ATOM     13  O   UNL     1     -35.832  -3.097 -26.453  1.00  0.00    -0.550 OA
ATOM     14  O   UNL     1     -35.822  -4.883 -27.890  1.00  0.00    -0.550 OA
ENDBRANCH  11  12
ENDBRANCH  10  11
ENDBRANCH   9  10
ENDBRANCH   8   9
ENDBRANCH   1   8
TORSDOF 9
ENDMDL
