MODEL 1
REMARK VINA RESULT:    -6.814      0.000      0.000
REMARK INTER + INTRA:          -7.309
REMARK INTER:                  -7.213
REMARK INTRA:                  -0.097
REMARK UNBOUND:                -0.097
REMARK SMILES C=C(C)[C@H]1CC=C(C)C(=O)C1
REMARK SMILES IDX 8 1 7 2 6 3 5 4 4 5 11 6 9 7 10 8 2 9 1 10 3 11
REMARK H PARENT
REMARK Flexibility Score: inf
ROOT
ATOM      1  C   UNL     1     101.534  45.610  54.755  1.00  0.00     0.048 C 
ATOM      2  C   UNL     1     102.422  46.811  54.583  1.00  0.00    -0.012 C 
ATOM      3  C   UNL     1     102.692  47.273  53.350  1.00  0.00    -0.019 C 
ATOM      4  C   UNL     1     103.589  48.461  53.120  1.00  0.00     0.036 C 
ATOM      5  C   UNL     1     103.474  49.474  54.274  1.00  0.00     0.025 C 
ATOM      6  C   UNL     1     103.753  48.784  55.622  1.00  0.00     0.089 C 
ATOM      7  C   UNL     1     102.896  47.557  55.775  1.00  0.00     0.158 C 
ATOM      8  O   UNL     1     102.614  47.146  56.934  1.00  0.00    -0.295 OA
ENDROOT
BRANCH   5   9
ATOM      9  C   UNL     1     104.391  50.669  54.060  1.00  0.00    -0.077 C 
ATOM     10  C   UNL     1     105.707  50.483  53.867  1.00  0.00     0.008 C 
ATOM     11  C   UNL     1     103.856  52.080  54.055  1.00  0.00     0.039 C 
ENDBRANCH   5   9
TORSDOF 1
ENDMDL
MODEL 2
REMARK VINA RESULT:    -6.763     10.162     11.280
REMARK INTER + INTRA:          -7.255
REMARK INTER:                  -7.158
REMARK INTRA:                  -0.097
REMARK UNBOUND:                -0.097
REMARK SMILES C=C(C)[C@H]1CC=C(C)C(=O)C1
REMARK SMILES IDX 8 1 7 2 6 3 5 4 4 5 11 6 9 7 10 8 2 9 1 10 3 11
REMARK H PARENT
REMARK Flexibility Score: inf
ROOT
ATOM      1  C   UNL     1     108.714  45.094  64.546  1.00  0.00     0.048 C 
ATOM      2  C   UNL     1     108.293  46.536  64.600  1.00  0.00    -0.012 C 
ATOM      3  C   UNL     1     108.026  47.113  65.785  1.00  0.00    -0.019 C 
ATOM      4  C   UNL     1     107.583  48.547  65.894  1.00  0.00     0.036 C 
ATOM      5  C   UNL     1     108.216  49.408  64.785  1.00  0.00     0.025 C 
ATOM      6  C   UNL     1     107.911  48.808  63.401  1.00  0.00     0.089 C 
ATOM      7  C   UNL     1     108.292  47.353  63.361  1.00  0.00     0.158 C 
ATOM      8  O   UNL     1     108.577  46.823  62.252  1.00  0.00    -0.295 OA
ENDROOT
BRANCH   5   9
ATOM      9  C   UNL     1     107.758  50.857  64.876  1.00  0.00    -0.077 C 
ATOM     10  C   UNL     1     106.455  51.145  65.016  1.00  0.00     0.008 C 
ATOM     11  C   UNL     1     108.745  51.998  64.815  1.00  0.00     0.039 C 
ENDBRANCH   5   9
TORSDOF 1
ENDMDL
MODEL 3
REMARK VINA RESULT:    -5.842     10.245     11.565
REMARK INTER + INTRA:          -6.280
REMARK INTER:                  -6.182
REMARK INTRA:                  -0.099
REMARK UNBOUND:                -0.097
REMARK SMILES C=C(C)[C@H]1CC=C(C)C(=O)C1
REMARK SMILES IDX 8 1 7 2 6 3 5 4 4 5 11 6 9 7 10 8 2 9 1 10 3 11
REMARK H PARENT
REMARK Flexibility Score: inf
ROOT
ATOM      1  C   UNL     1     108.153  52.443  64.873  1.00  0.00     0.048 C 
ATOM      2  C   UNL     1     108.149  50.998  64.460  1.00  0.00    -0.012 C 
ATOM      3  C   UNL     1     109.190  50.493  63.775  1.00  0.00    -0.019 C 
ATOM      4  C   UNL     1     109.228  49.058  63.321  1.00  0.00     0.036 C 
ATOM      5  C   UNL     1     108.492  48.143  64.317  1.00  0.00     0.025 C 
ATOM      6  C   UNL     1     107.055  48.644  64.544  1.00  0.00     0.089 C 
ATOM      7  C   UNL     1     107.056  50.102  64.914  1.00  0.00     0.158 C 
ATOM      8  O   UNL     1     106.095  50.565  65.588  1.00  0.00    -0.295 OA
ENDROOT
BRANCH   5   9
ATOM      9  C   UNL     1     108.510  46.692  63.857  1.00  0.00    -0.077 C 
ATOM     10  C   UNL     1     108.696  46.398  62.561  1.00  0.00     0.008 C 
ATOM     11  C   UNL     1     108.324  45.555  64.833  1.00  0.00     0.039 C 
ENDBRANCH   5   9
TORSDOF 1
ENDMDL
MODEL 4
REMARK VINA RESULT:    -5.335      1.418      2.064
REMARK INTER + INTRA:          -5.744
REMARK INTER:                  -5.656
REMARK INTRA:                  -0.087
REMARK UNBOUND:                -0.097
REMARK SMILES C=C(C)[C@H]1CC=C(C)C(=O)C1
REMARK SMILES IDX 8 1 7 2 6 3 5 4 4 5 11 6 9 7 10 8 2 9 1 10 3 11
REMARK H PARENT
REMARK Flexibility Score: inf
ROOT
ATOM      1  C   UNL     1     101.616  45.610  55.128  1.00  0.00     0.048 C 
ATOM      2  C   UNL     1     102.271  46.936  54.861  1.00  0.00    -0.012 C 
ATOM      3  C   UNL     1     102.805  47.637  55.877  1.00  0.00    -0.019 C 
ATOM      4  C   UNL     1     103.455  48.979  55.668  1.00  0.00     0.036 C 
ATOM      5  C   UNL     1     104.132  49.057  54.287  1.00  0.00     0.025 C 
ATOM      6  C   UNL     1     103.122  48.719  53.175  1.00  0.00     0.089 C 
ATOM      7  C   UNL     1     102.435  47.412  53.465  1.00  0.00     0.158 C 
ATOM      8  O   UNL     1     101.967  46.739  52.506  1.00  0.00    -0.295 OA
ENDROOT
BRANCH   5   9
ATOM      9  C   UNL     1     104.776  50.417  54.059  1.00  0.00    -0.077 C 
ATOM     10  C   UNL     1     106.094  50.507  53.821  1.00  0.00     0.008 C 
ATOM     11  C   UNL     1     103.961  51.687  54.089  1.00  0.00     0.039 C 
ENDBRANCH   5   9
TORSDOF 1
ENDMDL
MODEL 5
REMARK VINA RESULT:    -5.246     10.352     11.313
REMARK INTER + INTRA:          -5.649
REMARK INTER:                  -5.562
REMARK INTRA:                  -0.087
REMARK UNBOUND:                -0.097
REMARK SMILES C=C(C)[C@H]1CC=C(C)C(=O)C1
REMARK SMILES IDX 8 1 7 2 6 3 5 4 4 5 11 6 9 7 10 8 2 9 1 10 3 11
REMARK H PARENT
REMARK Flexibility Score: inf
ROOT
ATOM      1  C   UNL     1     108.559  45.106  64.134  1.00  0.00     0.048 C 
ATOM      2  C   UNL     1     108.374  46.588  64.299  1.00  0.00    -0.012 C 
ATOM      3  C   UNL     1     108.072  47.349  63.231  1.00  0.00    -0.019 C 
ATOM      4  C   UNL     1     107.895  48.840  63.338  1.00  0.00     0.036 C 
ATOM      5  C   UNL     1     107.310  49.232  64.707  1.00  0.00     0.025 C 
ATOM      6  C   UNL     1     108.181  48.667  65.844  1.00  0.00     0.089 C 
ATOM      7  C   UNL     1     108.402  47.191  65.655  1.00  0.00     0.158 C 
ATOM      8  O   UNL     1     108.650  46.473  66.662  1.00  0.00    -0.295 OA
ENDROOT
BRANCH   5   9
ATOM      9  C   UNL     1     107.144  50.740  64.831  1.00  0.00    -0.077 C 
ATOM     10  C   UNL     1     105.921  51.276  64.970  1.00  0.00     0.008 C 
ATOM     11  C   UNL     1     108.336  51.667  64.804  1.00  0.00     0.039 C 
ENDBRANCH   5   9
TORSDOF 1
ENDMDL
MODEL 6
REMARK VINA RESULT:    -5.006      2.004      4.673
REMARK INTER + INTRA:          -5.396
REMARK INTER:                  -5.298
REMARK INTRA:                  -0.098
REMARK UNBOUND:                -0.097
REMARK SMILES C=C(C)[C@H]1CC=C(C)C(=O)C1
REMARK SMILES IDX 8 1 7 2 6 3 5 4 4 5 11 6 9 7 10 8 2 9 1 10 3 11
REMARK H PARENT
REMARK Flexibility Score: inf
ROOT
ATOM      1  C   UNL     1     104.295  52.507  53.945  1.00  0.00     0.048 C 
ATOM      2  C   UNL     1     103.904  51.160  54.484  1.00  0.00    -0.012 C 
ATOM      3  C   UNL     1     102.772  51.026  55.198  1.00  0.00    -0.019 C 
ATOM      4  C   UNL     1     102.344  49.704  55.777  1.00  0.00     0.036 C 
ATOM      5  C   UNL     1     102.785  48.535  54.875  1.00  0.00     0.025 C 
ATOM      6  C   UNL     1     104.303  48.597  54.623  1.00  0.00     0.089 C 
ATOM      7  C   UNL     1     104.700  49.960  54.125  1.00  0.00     0.158 C 
ATOM      8  O   UNL     1     105.743  50.077  53.426  1.00  0.00    -0.295 OA
ENDROOT
BRANCH   5   9
ATOM      9  C   UNL     1     102.373  47.193  55.462  1.00  0.00    -0.077 C 
ATOM     10  C   UNL     1     102.384  47.006  56.791  1.00  0.00     0.008 C 
ATOM     11  C   UNL     1     101.941  46.048  54.578  1.00  0.00     0.039 C 
ENDBRANCH   5   9
TORSDOF 1
ENDMDL
MODEL 7
REMARK VINA RESULT:    -4.815     10.465     11.707
REMARK INTER + INTRA:          -5.193
REMARK INTER:                  -5.103
REMARK INTRA:                  -0.090
REMARK UNBOUND:                -0.097
REMARK SMILES C=C(C)[C@H]1CC=C(C)C(=O)C1
REMARK SMILES IDX 8 1 7 2 6 3 5 4 4 5 11 6 9 7 10 8 2 9 1 10 3 11
REMARK H PARENT
REMARK Flexibility Score: inf
ROOT
ATOM      1  C   UNL     1     106.913  52.413  65.018  1.00  0.00     0.048 C 
ATOM      2  C   UNL     1     107.358  50.983  64.894  1.00  0.00    -0.012 C 
ATOM      3  C   UNL     1     106.501  49.987  65.184  1.00  0.00    -0.019 C 
ATOM      4  C   UNL     1     106.900  48.538  65.094  1.00  0.00     0.036 C 
ATOM      5  C   UNL     1     107.930  48.316  63.971  1.00  0.00     0.025 C 
ATOM      6  C   UNL     1     109.144  49.244  64.166  1.00  0.00     0.089 C 
ATOM      7  C   UNL     1     108.696  50.670  64.334  1.00  0.00     0.158 C 
ATOM      8  O   UNL     1     109.489  51.602  64.027  1.00  0.00    -0.295 OA
ENDROOT
BRANCH   5   9
ATOM      9  C   UNL     1     108.354  46.857  63.885  1.00  0.00    -0.077 C 
ATOM     10  C   UNL     1     108.718  46.329  62.706  1.00  0.00     0.008 C 
ATOM     11  C   UNL     1     108.380  45.972  65.108  1.00  0.00     0.039 C 
ENDBRANCH   5   9
TORSDOF 1
ENDMDL
MODEL 8
REMARK VINA RESULT:    -4.683     16.942     17.983
REMARK INTER + INTRA:          -5.053
REMARK INTER:                  -4.956
REMARK INTRA:                  -0.097
REMARK UNBOUND:                -0.097
REMARK SMILES C=C(C)[C@H]1CC=C(C)C(=O)C1
REMARK SMILES IDX 8 1 7 2 6 3 5 4 4 5 11 6 9 7 10 8 2 9 1 10 3 11
REMARK H PARENT
REMARK Flexibility Score: inf
ROOT
ATOM      1  C   UNL     1     100.978  32.875  63.288  1.00  0.00     0.048 C 
ATOM      2  C   UNL     1      99.670  33.523  63.648  1.00  0.00    -0.012 C 
ATOM      3  C   UNL     1      99.180  33.396  64.894  1.00  0.00    -0.019 C 
ATOM      4  C   UNL     1      97.866  34.009  65.301  1.00  0.00     0.036 C 
ATOM      5  C   UNL     1      97.608  35.323  64.541  1.00  0.00     0.025 C 
ATOM      6  C   UNL     1      97.695  35.088  63.022  1.00  0.00     0.089 C 
ATOM      7  C   UNL     1      98.984  34.400  62.667  1.00  0.00     0.158 C 
ATOM      8  O   UNL     1      99.461  34.549  61.508  1.00  0.00    -0.295 OA
ENDROOT
BRANCH   5   9
ATOM      9  C   UNL     1      96.273  35.939  64.933  1.00  0.00    -0.077 C 
ATOM     10  C   UNL     1      95.802  37.007  64.269  1.00  0.00     0.008 C 
ATOM     11  C   UNL     1      95.447  35.373  66.063  1.00  0.00     0.039 C 
ENDBRANCH   5   9
TORSDOF 1
ENDMDL
MODEL 9
REMARK VINA RESULT:    -4.619      1.791      3.201
REMARK INTER + INTRA:          -4.986
REMARK INTER:                  -4.897
REMARK INTRA:                  -0.089
REMARK UNBOUND:                -0.097
REMARK SMILES C=C(C)[C@H]1CC=C(C)C(=O)C1
REMARK SMILES IDX 8 1 7 2 6 3 5 4 4 5 11 6 9 7 10 8 2 9 1 10 3 11
REMARK H PARENT
REMARK Flexibility Score: inf
ROOT
ATOM      1  C   UNL     1     102.383  47.136  52.131  1.00  0.00     0.048 C 
ATOM      2  C   UNL     1     102.720  47.586  53.525  1.00  0.00    -0.012 C 
ATOM      3  C   UNL     1     103.381  48.742  53.715  1.00  0.00    -0.019 C 
ATOM      4  C   UNL     1     103.759  49.230  55.088  1.00  0.00     0.036 C 
ATOM      5  C   UNL     1     102.715  48.802  56.135  1.00  0.00     0.025 C 
ATOM      6  C   UNL     1     102.509  47.277  56.095  1.00  0.00     0.089 C 
ATOM      7  C   UNL     1     102.215  46.821  54.693  1.00  0.00     0.158 C 
ATOM      8  O   UNL     1     101.563  45.755  54.518  1.00  0.00    -0.295 OA
ENDROOT
BRANCH   5   9
ATOM      9  C   UNL     1     103.099  49.276  57.530  1.00  0.00    -0.077 C 
ATOM     10  C   UNL     1     102.813  50.528  57.919  1.00  0.00     0.008 C 
ATOM     11  C   UNL     1     103.800  48.362  58.505  1.00  0.00     0.039 C 
ENDBRANCH   5   9
TORSDOF 1
ENDMDL
