MODEL 1
REMARK VINA RESULT:     2.541      0.000      0.000
REMARK INTER + INTRA:           5.951
REMARK INTER:                   3.879
REMARK INTRA:                   2.073
REMARK UNBOUND:                 2.073
REMARK SMILES CC1=CCC[C@H](C)C(=O)C[C@H](C(C)C)C(=O)C1
REMARK SMILES IDX 8 1 9 2 6 3 7 4 5 5 4 6 3 7 2 8 1 9 10 11 11 12 15 13 16 14
REMARK SMILES IDX 17 15 12 17 13 18 14 19
REMARK H PARENT
REMARK Flexibility Score: 70.00
ROOT
ATOM      1  C   UNL     1      -2.741  12.596   8.630  1.00  0.00     0.136 C 
ATOM      2  O   UNL     1      -2.004  13.451   9.100  1.00  0.00    -0.299 OA
ENDROOT
BRANCH   1   3
ATOM      3  C   UNL     1      -2.240  11.671   7.527  1.00  0.00     0.053 C 
ATOM      4  C   UNL     1      -2.424  10.185   7.882  1.00  0.00     0.016 C 
BRANCH   3   5
ATOM      5  C   UNL     1      -2.870  12.000   6.154  1.00  0.00     0.015 C 
BRANCH   5   6
ATOM      6  C   UNL     1      -2.297  13.278   5.514  1.00  0.00     0.028 C 
BRANCH   6   7
ATOM      7  C   UNL     1      -3.187  14.485   5.689  1.00  0.00    -0.028 C 
ATOM      8  C   UNL     1      -4.547  14.496   5.681  1.00  0.00    -0.070 CG0
ATOM      9  C   UNL     1      -5.221  15.845   5.750  1.00  0.00     0.039 C 
ATOM     10  G   UNL     1      -5.428  13.249   5.686  1.00  0.00     0.000 G0
ENDBRANCH   6   7
ENDBRANCH   5   6
ENDBRANCH   3   5
ENDBRANCH   1   3
BRANCH   1  11
ATOM     11  C   UNL     1      -4.166  12.498   9.123  1.00  0.00     0.087 C 
BRANCH  11  12
ATOM     12  C   UNL     1      -5.195  13.332   8.304  1.00  0.00     0.066 C 
BRANCH  12  13
ATOM     13  C   UNL     1      -5.605  12.596   7.030  1.00  0.00     0.140 C 
ATOM     14  O   UNL     1      -6.114  11.485   7.091  1.00  0.00    -0.299 OA
BRANCH  13  15
ATOM     15  C   UNL     1      -5.462  13.269   5.687  1.00  0.00     0.106 CG0
ATOM     16  G   UNL     1      -4.560  14.501   5.676  1.00  0.00     0.000 G0
ENDBRANCH  13  15
ENDBRANCH  12  13
BRANCH  12  17
ATOM     17  C   UNL     1      -6.432  13.838   9.125  1.00  0.00    -0.006 C 
ATOM     18  C   UNL     1      -6.635  15.362   9.037  1.00  0.00     0.008 C 
ATOM     19  C   UNL     1      -7.725  13.146   8.648  1.00  0.00     0.008 C 
ENDBRANCH  12  17
ENDBRANCH  11  12
ENDBRANCH   1  11
TORSDOF 1
ENDMDL
MODEL 2
REMARK VINA RESULT:     2.894      1.909      3.856
REMARK INTER + INTRA:           6.489
REMARK INTER:                   5.819
REMARK INTRA:                   0.671
REMARK UNBOUND:                 2.073
REMARK SMILES CC1=CCC[C@H](C)C(=O)C[C@H](C(C)C)C(=O)C1
REMARK SMILES IDX 8 1 9 2 6 3 7 4 5 5 4 6 3 7 2 8 1 9 10 11 11 12 15 13 16 14
REMARK SMILES IDX 17 15 12 17 13 18 14 19
REMARK H PARENT
REMARK Flexibility Score: 70.00
ROOT
ATOM      1  C   UNL     1      -2.599  12.183   6.862  1.00  0.00     0.136 C 
ATOM      2  O   UNL     1      -2.083  11.709   5.860  1.00  0.00    -0.299 OA
ENDROOT
BRANCH   1   3
ATOM      3  C   UNL     1      -2.912  11.294   8.060  1.00  0.00     0.053 C 
ATOM      4  C   UNL     1      -1.643  10.690   8.686  1.00  0.00     0.016 C 
BRANCH   3   5
ATOM      5  C   UNL     1      -3.769  12.021   9.122  1.00  0.00     0.015 C 
BRANCH   5   6
ATOM      6  C   UNL     1      -5.248  11.594   9.105  1.00  0.00     0.028 C 
BRANCH   6   7
ATOM      7  C   UNL     1      -5.817  11.465   7.713  1.00  0.00    -0.028 C 
ATOM      8  C   UNL     1      -6.214  12.483   6.903  1.00  0.00    -0.070 CG0
ATOM      9  C   UNL     1      -6.870  12.105   5.597  1.00  0.00     0.039 C 
ATOM     10  G   UNL     1      -5.974  13.965   7.186  1.00  0.00     0.000 G0
ENDBRANCH   6   7
ENDBRANCH   5   6
ENDBRANCH   3   5
ENDBRANCH   1   3
BRANCH   1  11
ATOM     11  C   UNL     1      -2.963  13.650   6.881  1.00  0.00     0.087 C 
BRANCH  11  12
ATOM     12  C   UNL     1      -3.825  14.120   5.673  1.00  0.00     0.066 C 
BRANCH  12  13
ATOM     13  C   UNL     1      -5.163  14.688   6.142  1.00  0.00     0.140 C 
ATOM     14  O   UNL     1      -5.621  15.700   5.631  1.00  0.00    -0.299 OA
BRANCH  13  15
ATOM     15  C   UNL     1      -5.972  13.957   7.185  1.00  0.00     0.106 CG0
ATOM     16  G   UNL     1      -6.199  12.473   6.902  1.00  0.00     0.000 G0
ENDBRANCH  13  15
ENDBRANCH  12  13
BRANCH  12  17
ATOM     17  C   UNL     1      -3.087  15.080   4.674  1.00  0.00    -0.006 C 
ATOM     18  C   UNL     1      -1.650  14.632   4.354  1.00  0.00     0.008 C 
ATOM     19  C   UNL     1      -3.868  15.194   3.349  1.00  0.00     0.008 C 
ENDBRANCH  12  17
ENDBRANCH  11  12
ENDBRANCH   1  11
TORSDOF 1
ENDMDL
MODEL 3
REMARK VINA RESULT:     3.018      1.368      2.141
REMARK INTER + INTRA:           6.679
REMARK INTER:                   4.504
REMARK INTRA:                   2.175
REMARK UNBOUND:                 2.073
REMARK SMILES CC1=CCC[C@H](C)C(=O)C[C@H](C(C)C)C(=O)C1
REMARK SMILES IDX 8 1 9 2 6 3 7 4 5 5 4 6 3 7 2 8 1 9 10 11 11 12 15 13 16 14
REMARK SMILES IDX 17 15 12 17 13 18 14 19
REMARK H PARENT
REMARK Flexibility Score: 70.00
ROOT
ATOM      1  C   UNL     1      -3.237  12.207   8.588  1.00  0.00     0.136 C 
ATOM      2  O   UNL     1      -2.873  13.250   9.111  1.00  0.00    -0.299 OA
ENDROOT
BRANCH   1   3
ATOM      3  C   UNL     1      -2.373  11.536   7.527  1.00  0.00     0.053 C 
ATOM      4  C   UNL     1      -2.488  10.002   7.564  1.00  0.00     0.016 C 
BRANCH   3   5
ATOM      5  C   UNL     1      -2.655  12.084   6.108  1.00  0.00     0.015 C 
BRANCH   5   6
ATOM      6  C   UNL     1      -2.515  13.614   6.010  1.00  0.00     0.028 C 
BRANCH   6   7
ATOM      7  C   UNL     1      -3.767  14.299   5.520  1.00  0.00    -0.028 C 
ATOM      8  C   UNL     1      -4.835  14.673   6.276  1.00  0.00    -0.070 CG0
ATOM      9  C   UNL     1      -6.031  15.232   5.543  1.00  0.00     0.039 C 
ATOM     10  G   UNL     1      -4.875  14.639   7.802  1.00  0.00     0.000 G0
ENDBRANCH   6   7
ENDBRANCH   5   6
ENDBRANCH   3   5
ENDBRANCH   1   3
BRANCH   1  11
ATOM     11  C   UNL     1      -4.574  11.616   8.973  1.00  0.00     0.087 C 
BRANCH  11  12
ATOM     12  C   UNL     1      -5.787  12.184   8.179  1.00  0.00     0.066 C 
BRANCH  12  13
ATOM     13  C   UNL     1      -5.922  13.691   8.388  1.00  0.00     0.140 C 
ATOM     14  O   UNL     1      -6.814  14.142   9.093  1.00  0.00    -0.299 OA
BRANCH  13  15
ATOM     15  C   UNL     1      -4.905  14.633   7.792  1.00  0.00     0.106 CG0
ATOM     16  G   UNL     1      -4.863  14.655   6.266  1.00  0.00     0.000 G0
ENDBRANCH  13  15
ENDBRANCH  12  13
BRANCH  12  17
ATOM     17  C   UNL     1      -5.822  11.787   6.661  1.00  0.00    -0.006 C 
ATOM     18  C   UNL     1      -5.865  10.265   6.434  1.00  0.00     0.008 C 
ATOM     19  C   UNL     1      -7.041  12.418   5.959  1.00  0.00     0.008 C 
ENDBRANCH  12  17
ENDBRANCH  11  12
ENDBRANCH   1  11
TORSDOF 1
ENDMDL
MODEL 4
REMARK VINA RESULT:     3.162      1.736      3.665
REMARK INTER + INTRA:           6.899
REMARK INTER:                   3.756
REMARK INTRA:                   3.143
REMARK UNBOUND:                 2.073
REMARK SMILES CC1=CCC[C@H](C)C(=O)C[C@H](C(C)C)C(=O)C1
REMARK SMILES IDX 8 1 9 2 6 3 7 4 5 5 4 6 3 7 2 8 1 9 10 11 11 12 15 13 16 14
REMARK SMILES IDX 17 15 12 17 13 18 14 19
REMARK H PARENT
REMARK Flexibility Score: 70.00
ROOT
ATOM      1  C   UNL     1      -2.735  12.902   7.227  1.00  0.00     0.136 C 
ATOM      2  O   UNL     1      -2.618  13.258   8.390  1.00  0.00    -0.299 OA
ENDROOT
BRANCH   1   3
ATOM      3  C   UNL     1      -3.001  11.439   6.893  1.00  0.00     0.053 C 
ATOM      4  C   UNL     1      -2.019  10.491   7.603  1.00  0.00     0.016 C 
BRANCH   3   5
ATOM      5  C   UNL     1      -4.468  11.032   7.167  1.00  0.00     0.015 C 
BRANCH   5   6
ATOM      6  C   UNL     1      -4.819  10.998   8.666  1.00  0.00     0.028 C 
BRANCH   6   7
ATOM      7  C   UNL     1      -5.636  12.185   9.115  1.00  0.00    -0.028 C 
ATOM      8  C   UNL     1      -6.025  13.238   8.347  1.00  0.00    -0.070 CG0
ATOM      9  C   UNL     1      -6.734  14.372   9.047  1.00  0.00     0.039 C 
ATOM     10  G   UNL     1      -5.866  13.315   6.830  1.00  0.00     0.000 G0
ENDBRANCH   6   7
ENDBRANCH   5   6
ENDBRANCH   3   5
ENDBRANCH   1   3
BRANCH   1  11
ATOM     11  C   UNL     1      -2.569  13.921   6.123  1.00  0.00     0.087 C 
BRANCH  11  12
ATOM     12  C   UNL     1      -3.888  14.302   5.387  1.00  0.00     0.066 C 
BRANCH  12  13
ATOM     13  C   UNL     1      -5.025  14.523   6.382  1.00  0.00     0.140 C 
ATOM     14  O   UNL     1      -5.295  15.649   6.777  1.00  0.00    -0.299 OA
BRANCH  13  15
ATOM     15  C   UNL     1      -5.881  13.362   6.824  1.00  0.00     0.106 CG0
ATOM     16  G   UNL     1      -6.037  13.215   8.336  1.00  0.00     0.000 G0
ENDBRANCH  13  15
ENDBRANCH  12  13
BRANCH  12  17
ATOM     17  C   UNL     1      -3.751  15.485   4.365  1.00  0.00    -0.006 C 
ATOM     18  C   UNL     1      -3.824  15.027   2.897  1.00  0.00     0.008 C 
ATOM     19  C   UNL     1      -4.850  16.540   4.601  1.00  0.00     0.008 C 
ENDBRANCH  12  17
ENDBRANCH  11  12
ENDBRANCH   1  11
TORSDOF 1
ENDMDL
MODEL 5
REMARK VINA RESULT:     3.256      2.035      4.644
REMARK INTER + INTRA:           7.043
REMARK INTER:                   5.547
REMARK INTRA:                   1.496
REMARK UNBOUND:                 2.073
REMARK SMILES CC1=CCC[C@H](C)C(=O)C[C@H](C(C)C)C(=O)C1
REMARK SMILES IDX 8 1 9 2 6 3 7 4 5 5 4 6 3 7 2 8 1 9 10 11 11 12 15 13 16 14
REMARK SMILES IDX 17 15 12 17 13 18 14 19
REMARK H PARENT
REMARK Flexibility Score: 70.00
ROOT
ATOM      1  C   UNL     1      -5.869  13.746   7.330  1.00  0.00     0.136 C 
ATOM      2  O   UNL     1      -5.750  14.132   8.483  1.00  0.00    -0.299 OA
ENDROOT
BRANCH   1   3
ATOM      3  C   UNL     1      -6.539  12.411   7.030  1.00  0.00     0.053 C 
ATOM      4  C   UNL     1      -6.844  12.233   5.533  1.00  0.00     0.016 C 
BRANCH   3   5
ATOM      5  C   UNL     1      -5.732  11.212   7.583  1.00  0.00     0.015 C 
BRANCH   5   6
ATOM      6  C   UNL     1      -5.152  11.467   8.986  1.00  0.00     0.028 C 
BRANCH   6   7
ATOM      7  C   UNL     1      -3.712  11.039   9.125  1.00  0.00    -0.028 C 
ATOM      8  C   UNL     1      -2.625  11.674   8.608  1.00  0.00    -0.070 CG0
ATOM      9  C   UNL     1      -1.289  10.990   8.771  1.00  0.00     0.039 C 
ATOM     10  G   UNL     1      -2.653  13.052   7.950  1.00  0.00     0.000 G0
ENDBRANCH   6   7
ENDBRANCH   5   6
ENDBRANCH   3   5
ENDBRANCH   1   3
BRANCH   1  11
ATOM     11  C   UNL     1      -5.304  14.587   6.208  1.00  0.00     0.087 C 
BRANCH  11  12
ATOM     12  C   UNL     1      -3.770  14.429   5.988  1.00  0.00     0.066 C 
BRANCH  12  13
ATOM     13  C   UNL     1      -3.267  13.108   6.566  1.00  0.00     0.140 C 
ATOM     14  O   UNL     1      -3.274  12.091   5.887  1.00  0.00    -0.299 OA
BRANCH  13  15
ATOM     15  C   UNL     1      -2.680  13.063   7.955  1.00  0.00     0.106 CG0
ATOM     16  G   UNL     1      -2.629  11.675   8.589  1.00  0.00     0.000 G0
ENDBRANCH  13  15
ENDBRANCH  12  13
BRANCH  12  17
ATOM     17  C   UNL     1      -3.292  14.654   4.511  1.00  0.00    -0.006 C 
ATOM     18  C   UNL     1      -3.898  15.913   3.863  1.00  0.00     0.008 C 
ATOM     19  C   UNL     1      -1.756  14.764   4.444  1.00  0.00     0.008 C 
ENDBRANCH  12  17
ENDBRANCH  11  12
ENDBRANCH   1  11
TORSDOF 1
ENDMDL
MODEL 6
REMARK VINA RESULT:     3.470      1.709      4.182
REMARK INTER + INTRA:           7.368
REMARK INTER:                   5.432
REMARK INTRA:                   1.936
REMARK UNBOUND:                 2.073
REMARK SMILES CC1=CCC[C@H](C)C(=O)C[C@H](C(C)C)C(=O)C1
REMARK SMILES IDX 8 1 9 2 6 3 7 4 5 5 4 6 3 7 2 8 1 9 10 11 11 12 15 13 16 14
REMARK SMILES IDX 17 15 12 17 13 18 14 19
REMARK H PARENT
REMARK Flexibility Score: 70.00
ROOT
ATOM      1  C   UNL     1      -2.685  12.973   6.522  1.00  0.00     0.136 C 
ATOM      2  O   UNL     1      -2.993  11.891   6.043  1.00  0.00    -0.299 OA
ENDROOT
BRANCH   1   3
ATOM      3  C   UNL     1      -3.022  14.264   5.785  1.00  0.00     0.053 C 
ATOM      4  C   UNL     1      -2.143  14.471   4.539  1.00  0.00     0.016 C 
BRANCH   3   5
ATOM      5  C   UNL     1      -4.525  14.363   5.432  1.00  0.00     0.015 C 
BRANCH   5   6
ATOM      6  C   UNL     1      -5.346  15.126   6.487  1.00  0.00     0.028 C 
BRANCH   6   7
ATOM      7  C   UNL     1      -6.341  14.255   7.215  1.00  0.00    -0.028 C 
ATOM      8  C   UNL     1      -6.077  13.421   8.256  1.00  0.00    -0.070 CG0
ATOM      9  C   UNL     1      -7.212  12.552   8.744  1.00  0.00     0.039 C 
ATOM     10  G   UNL     1      -4.749  13.359   9.008  1.00  0.00     0.000 G0
ENDBRANCH   6   7
ENDBRANCH   5   6
ENDBRANCH   3   5
ENDBRANCH   1   3
BRANCH   1  11
ATOM     11  C   UNL     1      -1.929  13.013   7.830  1.00  0.00     0.087 C 
BRANCH  11  12
ATOM     12  C   UNL     1      -2.477  12.053   8.926  1.00  0.00     0.066 C 
BRANCH  12  13
ATOM     13  C   UNL     1      -4.004  12.059   8.946  1.00  0.00     0.140 C 
ATOM     14  O   UNL     1      -4.629  11.008   8.979  1.00  0.00    -0.299 OA
BRANCH  13  15
ATOM     15  C   UNL     1      -4.755  13.366   9.010  1.00  0.00     0.106 CG0
ATOM     16  G   UNL     1      -6.066  13.394   8.227  1.00  0.00     0.000 G0
ENDBRANCH  13  15
ENDBRANCH  12  13
BRANCH  12  17
ATOM     17  C   UNL     1      -1.887  10.599   8.881  1.00  0.00    -0.006 C 
ATOM     18  C   UNL     1      -2.156   9.878   7.547  1.00  0.00     0.008 C 
ATOM     19  C   UNL     1      -0.365  10.619   9.125  1.00  0.00     0.008 C 
ENDBRANCH  12  17
ENDBRANCH  11  12
ENDBRANCH   1  11
TORSDOF 1
ENDMDL
MODEL 7
REMARK VINA RESULT:     3.923      1.800      4.452
REMARK INTER + INTRA:           8.060
REMARK INTER:                   7.803
REMARK INTRA:                   0.257
REMARK UNBOUND:                 2.073
REMARK SMILES CC1=CCC[C@H](C)C(=O)C[C@H](C(C)C)C(=O)C1
REMARK SMILES IDX 8 1 9 2 6 3 7 4 5 5 4 6 3 7 2 8 1 9 10 11 11 12 15 13 16 14
REMARK SMILES IDX 17 15 12 17 13 18 14 19
REMARK H PARENT
REMARK Flexibility Score: 70.00
ROOT
ATOM      1  C   UNL     1      -6.147  12.689   6.517  1.00  0.00     0.136 C 
ATOM      2  O   UNL     1      -7.222  12.169   6.255  1.00  0.00    -0.299 OA
ENDROOT
BRANCH   1   3
ATOM      3  C   UNL     1      -5.680  12.801   7.963  1.00  0.00     0.053 C 
ATOM      4  C   UNL     1      -6.500  13.826   8.764  1.00  0.00     0.016 C 
BRANCH   3   5
ATOM      5  C   UNL     1      -5.648  11.429   8.677  1.00  0.00     0.015 C 
BRANCH   5   6
ATOM      6  C   UNL     1      -4.221  10.895   8.901  1.00  0.00     0.028 C 
BRANCH   6   7
ATOM      7  C   UNL     1      -3.203  11.986   9.125  1.00  0.00    -0.028 C 
ATOM      8  C   UNL     1      -2.425  12.574   8.177  1.00  0.00    -0.070 CG0
ATOM      9  C   UNL     1      -1.385  13.558   8.657  1.00  0.00     0.039 C 
ATOM     10  G   UNL     1      -2.581  12.368   6.672  1.00  0.00     0.000 G0
ENDBRANCH   6   7
ENDBRANCH   5   6
ENDBRANCH   3   5
ENDBRANCH   1   3
BRANCH   1  11
ATOM     11  C   UNL     1      -5.310  13.258   5.395  1.00  0.00     0.087 C 
BRANCH  11  12
ATOM     12  C   UNL     1      -4.229  14.284   5.848  1.00  0.00     0.066 C 
BRANCH  12  13
ATOM     13  C   UNL     1      -2.843  13.643   5.875  1.00  0.00     0.140 C 
ATOM     14  O   UNL     1      -1.898  14.185   5.318  1.00  0.00    -0.299 OA
BRANCH  13  15
ATOM     15  C   UNL     1      -2.608  12.377   6.660  1.00  0.00     0.106 CG0
ATOM     16  G   UNL     1      -2.441  12.573   8.165  1.00  0.00     0.000 G0
ENDBRANCH  13  15
ENDBRANCH  12  13
BRANCH  12  17
ATOM     17  C   UNL     1      -4.244  15.643   5.064  1.00  0.00    -0.006 C 
ATOM     18  C   UNL     1      -4.142  15.462   3.538  1.00  0.00     0.008 C 
ATOM     19  C   UNL     1      -5.526  16.440   5.375  1.00  0.00     0.008 C 
ENDBRANCH  12  17
ENDBRANCH  11  12
ENDBRANCH   1  11
TORSDOF 1
ENDMDL
MODEL 8
REMARK VINA RESULT:     3.972      1.656      2.757
REMARK INTER + INTRA:           8.135
REMARK INTER:                   5.101
REMARK INTRA:                   3.034
REMARK UNBOUND:                 2.073
REMARK SMILES CC1=CCC[C@H](C)C(=O)C[C@H](C(C)C)C(=O)C1
REMARK SMILES IDX 8 1 9 2 6 3 7 4 5 5 4 6 3 7 2 8 1 9 10 11 11 12 15 13 16 14
REMARK SMILES IDX 17 15 12 17 13 18 14 19
REMARK H PARENT
REMARK Flexibility Score: 70.00
ROOT
ATOM      1  C   UNL     1      -4.975  12.121   8.881  1.00  0.00     0.136 C 
ATOM      2  O   UNL     1      -5.766  11.195   8.986  1.00  0.00    -0.299 OA
ENDROOT
BRANCH   1   3
ATOM      3  C   UNL     1      -3.488  11.894   9.124  1.00  0.00     0.053 C 
ATOM      4  C   UNL     1      -3.117  10.401   9.120  1.00  0.00     0.016 C 
BRANCH   3   5
ATOM      5  C   UNL     1      -2.603  12.692   8.137  1.00  0.00     0.015 C 
BRANCH   5   6
ATOM      6  C   UNL     1      -2.314  11.933   6.830  1.00  0.00     0.028 C 
BRANCH   6   7
ATOM      7  C   UNL     1      -2.250  12.830   5.618  1.00  0.00    -0.028 C 
ATOM      8  C   UNL     1      -2.959  13.974   5.419  1.00  0.00    -0.070 CG0
ATOM      9  C   UNL     1      -2.821  14.640   4.071  1.00  0.00     0.039 C 
ATOM     10  G   UNL     1      -3.815  14.664   6.480  1.00  0.00     0.000 G0
ENDBRANCH   6   7
ENDBRANCH   5   6
ENDBRANCH   3   5
ENDBRANCH   1   3
BRANCH   1  11
ATOM     11  C   UNL     1      -5.495  13.502   8.552  1.00  0.00     0.087 C 
BRANCH  11  12
ATOM     12  C   UNL     1      -6.146  13.631   7.144  1.00  0.00     0.066 C 
BRANCH  12  13
ATOM     13  C   UNL     1      -5.312  14.531   6.235  1.00  0.00     0.140 C 
ATOM     14  O   UNL     1      -5.847  15.199   5.361  1.00  0.00    -0.299 OA
BRANCH  13  15
ATOM     15  C   UNL     1      -3.826  14.668   6.460  1.00  0.00     0.106 CG0
ATOM     16  G   UNL     1      -2.950  13.966   5.425  1.00  0.00     0.000 G0
ENDBRANCH  13  15
ENDBRANCH  12  13
BRANCH  12  17
ATOM     17  C   UNL     1      -6.510  12.266   6.460  1.00  0.00    -0.006 C 
ATOM     18  C   UNL     1      -7.281  12.437   5.139  1.00  0.00     0.008 C 
ATOM     19  C   UNL     1      -5.239  11.440   6.179  1.00  0.00     0.008 C 
ENDBRANCH  12  17
ENDBRANCH  11  12
ENDBRANCH   1  11
TORSDOF 1
ENDMDL
MODEL 9
REMARK VINA RESULT:     4.143      2.007      3.715
REMARK INTER + INTRA:           8.396
REMARK INTER:                   3.987
REMARK INTRA:                   4.408
REMARK UNBOUND:                 2.073
REMARK SMILES CC1=CCC[C@H](C)C(=O)C[C@H](C(C)C)C(=O)C1
REMARK SMILES IDX 8 1 9 2 6 3 7 4 5 5 4 6 3 7 2 8 1 9 10 11 11 12 15 13 16 14
REMARK SMILES IDX 17 15 12 17 13 18 14 19
REMARK H PARENT
REMARK Flexibility Score: 70.00
ROOT
ATOM      1  C   UNL     1      -5.364  14.391   6.310  1.00  0.00     0.136 C 
ATOM      2  O   UNL     1      -5.429  15.355   7.058  1.00  0.00    -0.299 OA
ENDROOT
BRANCH   1   3
ATOM      3  C   UNL     1      -4.313  14.343   5.207  1.00  0.00     0.053 C 
ATOM      4  C   UNL     1      -4.050  15.727   4.589  1.00  0.00     0.016 C 
BRANCH   3   5
ATOM      5  C   UNL     1      -2.996  13.682   5.680  1.00  0.00     0.015 C 
BRANCH   5   6
ATOM      6  C   UNL     1      -2.885  13.580   7.212  1.00  0.00     0.028 C 
BRANCH   6   7
ATOM      7  C   UNL     1      -2.277  12.281   7.681  1.00  0.00    -0.028 C 
ATOM      8  C   UNL     1      -2.840  11.386   8.537  1.00  0.00    -0.070 CG0
ATOM      9  C   UNL     1      -1.989  10.213   8.961  1.00  0.00     0.039 C 
ATOM     10  G   UNL     1      -4.285  11.443   9.030  1.00  0.00     0.000 G0
ENDBRANCH   6   7
ENDBRANCH   5   6
ENDBRANCH   3   5
ENDBRANCH   1   3
BRANCH   1  11
ATOM     11  C   UNL     1      -6.365  13.270   6.462  1.00  0.00     0.087 C 
BRANCH  11  12
ATOM     12  C   UNL     1      -6.355  12.576   7.856  1.00  0.00     0.066 C 
BRANCH  12  13
ATOM     13  C   UNL     1      -5.312  11.461   7.906  1.00  0.00     0.140 C 
ATOM     14  O   UNL     1      -5.253  10.627   7.013  1.00  0.00    -0.299 OA
BRANCH  13  15
ATOM     15  C   UNL     1      -4.291  11.427   9.016  1.00  0.00     0.106 CG0
ATOM     16  G   UNL     1      -2.837  11.375   8.552  1.00  0.00     0.000 G0
ENDBRANCH  13  15
ENDBRANCH  12  13
BRANCH  12  17
ATOM     17  C   UNL     1      -6.239  13.556   9.077  1.00  0.00    -0.006 C 
ATOM     18  C   UNL     1      -4.950  14.398   9.056  1.00  0.00     0.008 C 
ATOM     19  C   UNL     1      -7.446  14.514   9.125  1.00  0.00     0.008 C 
ENDBRANCH  12  17
ENDBRANCH  11  12
ENDBRANCH   1  11
TORSDOF 1
ENDMDL
