MODEL 1
REMARK VINA RESULT:    -3.746      0.000      0.000
REMARK INTER + INTRA:          -4.915
REMARK INTER:                  -4.621
REMARK INTRA:                  -0.294
REMARK UNBOUND:                -0.294
REMARK SMILES C=CC[C@H](C)C(=O)CC
REMARK SMILES IDX 4 1 5 2 6 3 7 4 8 5 9 6 3 7 2 8 1 9
REMARK H PARENT
REMARK Flexibility Score: inf
ROOT
ATOM      1  C   UNL     1      44.113  62.293  45.335  1.00  0.00     0.057 C 
ATOM      2  C   UNL     1      45.394  61.486  45.075  1.00  0.00     0.016 C 
ENDROOT
BRANCH   1   3
ATOM      3  C   UNL     1      42.893  61.516  44.886  1.00  0.00     0.135 C 
ATOM      4  O   UNL     1      42.536  60.544  45.534  1.00  0.00    -0.299 OA
BRANCH   3   5
ATOM      5  C   UNL     1      42.088  61.922  43.675  1.00  0.00     0.072 C 
ATOM      6  C   UNL     1      42.499  61.111  42.451  1.00  0.00     0.012 C 
ENDBRANCH   3   5
ENDBRANCH   1   3
BRANCH   1   7
ATOM      7  C   UNL     1      44.157  63.678  44.659  1.00  0.00     0.038 C 
BRANCH   7   8
ATOM      8  C   UNL     1      44.129  64.789  45.676  1.00  0.00    -0.034 C 
ATOM      9  C   UNL     1      45.249  65.370  46.118  1.00  0.00     0.004 C 
ENDBRANCH   7   8
ENDBRANCH   1   7
TORSDOF 4
ENDMDL
MODEL 2
REMARK VINA RESULT:    -3.686     21.445     22.180
REMARK INTER + INTRA:          -4.842
REMARK INTER:                  -4.396
REMARK INTRA:                  -0.446
REMARK UNBOUND:                -0.294
REMARK SMILES C=CC[C@H](C)C(=O)CC
REMARK SMILES IDX 4 1 5 2 6 3 7 4 8 5 9 6 3 7 2 8 1 9
REMARK H PARENT
REMARK Flexibility Score: inf
ROOT
ATOM      1  C   UNL     1      60.350  69.778  30.827  1.00  0.00     0.057 C 
ATOM      2  C   UNL     1      61.108  71.085  30.551  1.00  0.00     0.016 C 
ENDROOT
BRANCH   1   3
ATOM      3  C   UNL     1      59.027  70.062  31.507  1.00  0.00     0.135 C 
ATOM      4  O   UNL     1      59.023  70.403  32.681  1.00  0.00    -0.299 OA
BRANCH   3   5
ATOM      5  C   UNL     1      57.712  69.964  30.771  1.00  0.00     0.072 C 
ATOM      6  C   UNL     1      57.673  68.721  29.889  1.00  0.00     0.012 C 
ENDBRANCH   3   5
ENDBRANCH   1   3
BRANCH   1   7
ATOM      7  C   UNL     1      61.190  68.790  31.661  1.00  0.00     0.038 C 
BRANCH   7   8
ATOM      8  C   UNL     1      60.719  67.372  31.475  1.00  0.00    -0.034 C 
ATOM      9  C   UNL     1      60.181  66.668  32.477  1.00  0.00     0.004 C 
ENDBRANCH   7   8
ENDBRANCH   1   7
TORSDOF 4
ENDMDL
MODEL 3
REMARK VINA RESULT:    -3.666     15.080     17.228
REMARK INTER + INTRA:          -4.817
REMARK INTER:                  -4.345
REMARK INTRA:                  -0.472
REMARK UNBOUND:                -0.294
REMARK SMILES C=CC[C@H](C)C(=O)CC
REMARK SMILES IDX 4 1 5 2 6 3 7 4 8 5 9 6 3 7 2 8 1 9
REMARK H PARENT
REMARK Flexibility Score: inf
ROOT
ATOM      1  C   UNL     1      43.620  58.680  27.134  1.00  0.00     0.057 C 
ATOM      2  C   UNL     1      44.265  57.304  26.908  1.00  0.00     0.016 C 
ENDROOT
BRANCH   1   3
ATOM      3  C   UNL     1      44.467  59.518  28.069  1.00  0.00     0.135 C 
ATOM      4  O   UNL     1      45.668  59.299  28.140  1.00  0.00    -0.299 OA
BRANCH   3   5
ATOM      5  C   UNL     1      43.879  60.635  28.897  1.00  0.00     0.072 C 
ATOM      6  C   UNL     1      44.208  60.448  30.375  1.00  0.00     0.012 C 
ENDBRANCH   3   5
ENDBRANCH   1   3
BRANCH   1   7
ATOM      7  C   UNL     1      42.178  58.561  27.666  1.00  0.00     0.038 C 
BRANCH   7   8
ATOM      8  C   UNL     1      42.035  57.408  28.624  1.00  0.00    -0.034 C 
ATOM      9  C   UNL     1      41.877  57.596  29.938  1.00  0.00     0.004 C 
ENDBRANCH   7   8
ENDBRANCH   1   7
TORSDOF 4
ENDMDL
MODEL 4
REMARK VINA RESULT:    -3.637     15.646     16.740
REMARK INTER + INTRA:          -4.782
REMARK INTER:                  -4.581
REMARK INTRA:                  -0.201
REMARK UNBOUND:                -0.294
REMARK SMILES C=CC[C@H](C)C(=O)CC
REMARK SMILES IDX 4 1 5 2 6 3 7 4 8 5 9 6 3 7 2 8 1 9
REMARK H PARENT
REMARK Flexibility Score: inf
ROOT
ATOM      1  C   UNL     1      59.291  58.447  45.260  1.00  0.00     0.057 C 
ATOM      2  C   UNL     1      58.387  59.013  46.365  1.00  0.00     0.016 C 
ENDROOT
BRANCH   1   3
ATOM      3  C   UNL     1      60.227  59.516  44.735  1.00  0.00     0.135 C 
ATOM      4  O   UNL     1      61.218  59.180  44.104  1.00  0.00    -0.299 OA
BRANCH   3   5
ATOM      5  C   UNL     1      59.959  60.987  44.945  1.00  0.00     0.072 C 
ATOM      6  C   UNL     1      60.989  61.598  45.890  1.00  0.00     0.012 C 
ENDBRANCH   3   5
ENDBRANCH   1   3
BRANCH   1   7
ATOM      7  C   UNL     1      58.475  57.825  44.109  1.00  0.00     0.038 C 
BRANCH   7   8
ATOM      8  C   UNL     1      58.513  56.320  44.155  1.00  0.00    -0.034 C 
ATOM      9  C   UNL     1      57.437  55.596  44.479  1.00  0.00     0.004 C 
ENDBRANCH   7   8
ENDBRANCH   1   7
TORSDOF 4
ENDMDL
MODEL 5
REMARK VINA RESULT:    -3.627     16.699     18.004
REMARK INTER + INTRA:          -4.769
REMARK INTER:                  -4.302
REMARK INTRA:                  -0.468
REMARK UNBOUND:                -0.294
REMARK SMILES C=CC[C@H](C)C(=O)CC
REMARK SMILES IDX 4 1 5 2 6 3 7 4 8 5 9 6 3 7 2 8 1 9
REMARK H PARENT
REMARK Flexibility Score: inf
ROOT
ATOM      1  C   UNL     1      43.743  57.143  27.198  1.00  0.00     0.057 C 
ATOM      2  C   UNL     1      43.066  56.704  28.505  1.00  0.00     0.016 C 
ENDROOT
BRANCH   1   3
ATOM      3  C   UNL     1      45.232  56.867  27.249  1.00  0.00     0.135 C 
ATOM      4  O   UNL     1      45.618  55.756  27.581  1.00  0.00    -0.299 OA
BRANCH   3   5
ATOM      5  C   UNL     1      46.253  57.914  26.876  1.00  0.00     0.072 C 
ATOM      6  C   UNL     1      47.143  58.254  28.067  1.00  0.00     0.012 C 
ENDBRANCH   3   5
ENDBRANCH   1   3
BRANCH   1   7
ATOM      7  C   UNL     1      43.475  58.627  26.879  1.00  0.00     0.038 C 
BRANCH   7   8
ATOM      8  C   UNL     1      43.029  59.383  28.102  1.00  0.00    -0.034 C 
ATOM      9  C   UNL     1      43.778  60.344  28.652  1.00  0.00     0.004 C 
ENDBRANCH   7   8
ENDBRANCH   1   7
TORSDOF 4
ENDMDL
MODEL 6
REMARK VINA RESULT:    -3.626     21.600     22.369
REMARK INTER + INTRA:          -4.767
REMARK INTER:                  -4.378
REMARK INTRA:                  -0.390
REMARK UNBOUND:                -0.294
REMARK SMILES C=CC[C@H](C)C(=O)CC
REMARK SMILES IDX 4 1 5 2 6 3 7 4 8 5 9 6 3 7 2 8 1 9
REMARK H PARENT
REMARK Flexibility Score: inf
ROOT
ATOM      1  C   UNL     1      59.852  68.402  30.963  1.00  0.00     0.057 C 
ATOM      2  C   UNL     1      60.602  67.198  31.552  1.00  0.00     0.016 C 
ENDROOT
BRANCH   1   3
ATOM      3  C   UNL     1      60.373  69.696  31.553  1.00  0.00     0.135 C 
ATOM      4  O   UNL     1      60.010  70.026  32.672  1.00  0.00    -0.299 OA
BRANCH   3   5
ATOM      5  C   UNL     1      61.349  70.577  30.812  1.00  0.00     0.072 C 
ATOM      6  C   UNL     1      60.645  71.800  30.232  1.00  0.00     0.012 C 
ENDBRANCH   3   5
ENDBRANCH   1   3
BRANCH   1   7
ATOM      7  C   UNL     1      58.327  68.286  31.165  1.00  0.00     0.038 C 
BRANCH   7   8
ATOM      8  C   UNL     1      57.572  69.070  30.125  1.00  0.00    -0.034 C 
ATOM      9  C   UNL     1      56.896  70.182  30.431  1.00  0.00     0.004 C 
ENDBRANCH   7   8
ENDBRANCH   1   7
TORSDOF 4
ENDMDL
MODEL 7
REMARK VINA RESULT:    -3.584     16.559     17.820
REMARK INTER + INTRA:          -4.716
REMARK INTER:                  -4.267
REMARK INTRA:                  -0.449
REMARK UNBOUND:                -0.294
REMARK SMILES C=CC[C@H](C)C(=O)CC
REMARK SMILES IDX 4 1 5 2 6 3 7 4 8 5 9 6 3 7 2 8 1 9
REMARK H PARENT
REMARK Flexibility Score: inf
ROOT
ATOM      1  C   UNL     1      44.048  59.173  28.229  1.00  0.00     0.057 C 
ATOM      2  C   UNL     1      44.024  60.618  28.750  1.00  0.00     0.016 C 
ENDROOT
BRANCH   1   3
ATOM      3  C   UNL     1      45.307  58.915  27.428  1.00  0.00     0.135 C 
ATOM      4  O   UNL     1      46.090  59.835  27.241  1.00  0.00    -0.299 OA
BRANCH   3   5
ATOM      5  C   UNL     1      45.638  57.550  26.876  1.00  0.00     0.072 C 
ATOM      6  C   UNL     1      45.973  56.575  27.999  1.00  0.00     0.012 C 
ENDBRANCH   3   5
ENDBRANCH   1   3
BRANCH   1   7
ATOM      7  C   UNL     1      42.794  58.840  27.395  1.00  0.00     0.038 C 
BRANCH   7   8
ATOM      8  C   UNL     1      41.875  57.901  28.130  1.00  0.00    -0.034 C 
ATOM      9  C   UNL     1      42.334  56.823  28.774  1.00  0.00     0.004 C 
ENDBRANCH   7   8
ENDBRANCH   1   7
TORSDOF 4
ENDMDL
MODEL 8
REMARK VINA RESULT:    -3.534     21.015     21.692
REMARK INTER + INTRA:          -4.654
REMARK INTER:                  -4.227
REMARK INTRA:                  -0.427
REMARK UNBOUND:                -0.294
REMARK SMILES C=CC[C@H](C)C(=O)CC
REMARK SMILES IDX 4 1 5 2 6 3 7 4 8 5 9 6 3 7 2 8 1 9
REMARK H PARENT
REMARK Flexibility Score: inf
ROOT
ATOM      1  C   UNL     1      57.279  70.262  30.648  1.00  0.00     0.057 C 
ATOM      2  C   UNL     1      55.873  70.255  31.268  1.00  0.00     0.016 C 
ENDROOT
BRANCH   1   3
ATOM      3  C   UNL     1      57.753  68.848  30.386  1.00  0.00     0.135 C 
ATOM      4  O   UNL     1      57.613  68.371  29.270  1.00  0.00    -0.299 OA
BRANCH   3   5
ATOM      5  C   UNL     1      58.419  68.016  31.456  1.00  0.00     0.072 C 
ATOM      6  C   UNL     1      59.836  67.631  31.043  1.00  0.00     0.012 C 
ENDBRANCH   3   5
ENDBRANCH   1   3
BRANCH   1   7
ATOM      7  C   UNL     1      58.293  71.024  31.525  1.00  0.00     0.038 C 
BRANCH   7   8
ATOM      8  C   UNL     1      59.338  71.713  30.688  1.00  0.00    -0.034 C 
ATOM      9  C   UNL     1      60.596  71.268  30.622  1.00  0.00     0.004 C 
ENDBRANCH   7   8
ENDBRANCH   1   7
TORSDOF 4
ENDMDL
MODEL 9
REMARK VINA RESULT:    -3.521     16.150     17.248
REMARK INTER + INTRA:          -4.638
REMARK INTER:                  -4.172
REMARK INTRA:                  -0.466
REMARK UNBOUND:                -0.294
REMARK SMILES C=CC[C@H](C)C(=O)CC
REMARK SMILES IDX 4 1 5 2 6 3 7 4 8 5 9 6 3 7 2 8 1 9
REMARK H PARENT
REMARK Flexibility Score: inf
ROOT
ATOM      1  C   UNL     1      42.969  59.224  28.181  1.00  0.00     0.057 C 
ATOM      2  C   UNL     1      43.879  60.323  28.750  1.00  0.00     0.016 C 
ENDROOT
BRANCH   1   3
ATOM      3  C   UNL     1      42.726  58.144  29.214  1.00  0.00     0.135 C 
ATOM      4  O   UNL     1      42.821  58.424  30.400  1.00  0.00    -0.299 OA
BRANCH   3   5
ATOM      5  C   UNL     1      42.345  56.736  28.825  1.00  0.00     0.072 C 
ATOM      6  C   UNL     1      43.273  55.719  29.483  1.00  0.00     0.012 C 
ENDBRANCH   3   5
ENDBRANCH   1   3
BRANCH   1   7
ATOM      7  C   UNL     1      43.539  58.618  26.882  1.00  0.00     0.038 C 
BRANCH   7   8
ATOM      8  C   UNL     1      45.045  58.626  26.884  1.00  0.00    -0.034 C 
ATOM      9  C   UNL     1      45.758  57.496  26.879  1.00  0.00     0.004 C 
ENDBRANCH   7   8
ENDBRANCH   1   7
TORSDOF 4
ENDMDL
