MODEL 1
REMARK VINA RESULT:    -3.727      0.000      0.000
REMARK INTER + INTRA:          -9.074
REMARK INTER:                  -6.777
REMARK INTRA:                  -2.297
REMARK UNBOUND:                -2.297
REMARK SMILES CCCCCCCCCCCCCC[C@@H](C)C(=O)[O-]
REMARK SMILES IDX 9 1 10 2 11 3 12 4 13 5 14 6 15 7 16 8 17 9 18 10 19 11 8 12
REMARK SMILES IDX 7 13 6 14 5 15 4 16 3 17 2 18 1 19
REMARK H PARENT
REMARK Flexibility Score: inf
ROOT
ATOM      1  C   UNL     1       0.578 -10.048   8.363  1.00  0.00     0.000 C 
ENDROOT
BRANCH   1   2
ATOM      2  C   UNL     1      -0.124  -8.708   8.083  1.00  0.00     0.000 C 
BRANCH   2   3
ATOM      3  C   UNL     1      -0.351  -8.458   6.581  1.00  0.00     0.000 C 
BRANCH   3   4
ATOM      4  C   UNL     1      -1.823  -8.168   6.219  1.00  0.00     0.000 C 
BRANCH   4   5
ATOM      5  C   UNL     1      -2.805  -9.050   7.011  1.00  0.00     0.001 C 
BRANCH   5   6
ATOM      6  C   UNL     1      -2.913 -10.480   6.431  1.00  0.00     0.009 C 
BRANCH   6   7
ATOM      7  C   UNL     1      -3.287 -11.582   7.450  1.00  0.00     0.032 C 
ATOM      8  C   UNL     1      -2.952 -11.186   8.897  1.00  0.00     0.014 C 
BRANCH   7   9
ATOM      9  C   UNL     1      -4.717 -12.030   7.306  1.00  0.00     0.044 C 
ATOM     10  O   UNL     1      -5.580 -11.730   8.175  1.00  0.00    -0.550 OA
ATOM     11  O   UNL     1      -5.106 -12.737   6.176  1.00  0.00    -0.550 OA
ENDBRANCH   7   9
ENDBRANCH   6   7
ENDBRANCH   5   6
ENDBRANCH   4   5
ENDBRANCH   3   4
ENDBRANCH   2   3
ENDBRANCH   1   2
BRANCH   1  12
ATOM     12  C   UNL     1       0.971 -10.792   7.077  1.00  0.00     0.000 C 
BRANCH  12  13
ATOM     13  C   UNL     1       0.420 -12.227   7.034  1.00  0.00    -0.000 C 
BRANCH  13  14
ATOM     14  C   UNL     1      -0.062 -12.632   5.632  1.00  0.00    -0.000 C 
BRANCH  14  15
ATOM     15  C   UNL     1       0.378 -14.052   5.240  1.00  0.00    -0.000 C 
BRANCH  15  16
ATOM     16  C   UNL     1       1.590 -14.497   6.068  1.00  0.00    -0.000 C 
BRANCH  16  17
ATOM     17  C   UNL     1       2.842 -14.621   5.187  1.00  0.00    -0.000 C 
BRANCH  17  18
ATOM     18  C   UNL     1       4.123 -14.182   5.914  1.00  0.00    -0.003 C 
ATOM     19  C   UNL     1       3.989 -12.808   6.571  1.00  0.00     0.004 C 
ENDBRANCH  17  18
ENDBRANCH  16  17
ENDBRANCH  15  16
ENDBRANCH  14  15
ENDBRANCH  13  14
ENDBRANCH  12  13
ENDBRANCH   1  12
TORSDOF 14
ENDMDL
MODEL 2
REMARK VINA RESULT:    -3.705     14.283     16.382
REMARK INTER + INTRA:          -9.035
REMARK INTER:                  -6.735
REMARK INTRA:                  -2.300
REMARK UNBOUND:                -2.297
REMARK SMILES CCCCCCCCCCCCCC[C@@H](C)C(=O)[O-]
REMARK SMILES IDX 9 1 10 2 11 3 12 4 13 5 14 6 15 7 16 8 17 9 18 10 19 11 8 12
REMARK SMILES IDX 7 13 6 14 5 15 4 16 3 17 2 18 1 19
REMARK H PARENT
REMARK Flexibility Score: inf
ROOT
ATOM      1  C   UNL     1     -12.187   0.654   8.851  1.00  0.00     0.000 C 
ENDROOT
BRANCH   1   2
ATOM      2  C   UNL     1     -10.856   0.664   9.622  1.00  0.00     0.000 C 
BRANCH   2   3
ATOM      3  C   UNL     1      -9.718  -0.030   8.853  1.00  0.00     0.000 C 
BRANCH   3   4
ATOM      4  C   UNL     1      -8.503   0.885   8.590  1.00  0.00     0.000 C 
BRANCH   4   5
ATOM      5  C   UNL     1      -8.890   2.374   8.550  1.00  0.00     0.001 C 
BRANCH   5   6
ATOM      6  C   UNL     1      -7.827   3.241   7.834  1.00  0.00     0.009 C 
BRANCH   6   7
ATOM      7  C   UNL     1      -6.985   2.506   6.765  1.00  0.00     0.032 C 
ATOM      8  C   UNL     1      -7.279   3.000   5.340  1.00  0.00     0.014 C 
BRANCH   7   9
ATOM      9  C   UNL     1      -5.512   2.536   7.079  1.00  0.00     0.044 C 
ATOM     10  O   UNL     1      -4.779   1.541   6.836  1.00  0.00    -0.550 OA
ATOM     11  O   UNL     1      -4.942   3.693   7.594  1.00  0.00    -0.550 OA
ENDBRANCH   7   9
ENDBRANCH   6   7
ENDBRANCH   5   6
ENDBRANCH   4   5
ENDBRANCH   3   4
ENDBRANCH   2   3
ENDBRANCH   1   2
BRANCH   1  12
ATOM     12  C   UNL     1     -12.584   2.046   8.334  1.00  0.00     0.000 C 
BRANCH  12  13
ATOM     13  C   UNL     1     -12.816   2.066   6.814  1.00  0.00    -0.000 C 
BRANCH  13  14
ATOM     14  C   UNL     1     -11.530   2.352   6.022  1.00  0.00    -0.000 C 
BRANCH  14  15
ATOM     15  C   UNL     1     -11.208   1.254   4.996  1.00  0.00    -0.000 C 
BRANCH  15  16
ATOM     16  C   UNL     1      -9.860   0.592   5.307  1.00  0.00    -0.000 C 
BRANCH  16  17
ATOM     17  C   UNL     1      -9.915  -0.919   5.037  1.00  0.00    -0.000 C 
BRANCH  17  18
ATOM     18  C   UNL     1      -9.234  -1.309   3.716  1.00  0.00    -0.003 C 
ATOM     19  C   UNL     1      -8.140  -0.325   3.301  1.00  0.00     0.004 C 
ENDBRANCH  17  18
ENDBRANCH  16  17
ENDBRANCH  15  16
ENDBRANCH  14  15
ENDBRANCH  13  14
ENDBRANCH  12  13
ENDBRANCH   1  12
TORSDOF 14
ENDMDL
MODEL 3
REMARK VINA RESULT:    -3.627     14.361     16.838
REMARK INTER + INTRA:          -8.894
REMARK INTER:                  -6.412
REMARK INTRA:                  -2.482
REMARK UNBOUND:                -2.297
REMARK SMILES CCCCCCCCCCCCCC[C@@H](C)C(=O)[O-]
REMARK SMILES IDX 9 1 10 2 11 3 12 4 13 5 14 6 15 7 16 8 17 9 18 10 19 11 8 12
REMARK SMILES IDX 7 13 6 14 5 15 4 16 3 17 2 18 1 19
REMARK H PARENT
REMARK Flexibility Score: inf
ROOT
ATOM      1  C   UNL     1     -10.790   1.555   4.376  1.00  0.00     0.000 C 
ENDROOT
BRANCH   1   2
ATOM      2  C   UNL     1     -10.649   3.022   4.817  1.00  0.00     0.000 C 
BRANCH   2   3
ATOM      3  C   UNL     1      -9.391   3.270   5.668  1.00  0.00     0.000 C 
BRANCH   3   4
ATOM      4  C   UNL     1      -8.375   4.225   5.006  1.00  0.00     0.000 C 
BRANCH   4   5
ATOM      5  C   UNL     1      -6.966   3.612   4.921  1.00  0.00     0.001 C 
BRANCH   5   6
ATOM      6  C   UNL     1      -6.721   2.541   6.010  1.00  0.00     0.009 C 
BRANCH   6   7
ATOM      7  C   UNL     1      -5.869   3.005   7.214  1.00  0.00     0.032 C 
ATOM      8  C   UNL     1      -6.727   3.450   8.408  1.00  0.00     0.014 C 
BRANCH   7   9
ATOM      9  C   UNL     1      -4.839   1.980   7.612  1.00  0.00     0.044 C 
ATOM     10  O   UNL     1      -4.217   1.316   6.739  1.00  0.00    -0.550 OA
ATOM     11  O   UNL     1      -4.529   1.800   8.953  1.00  0.00    -0.550 OA
ENDBRANCH   7   9
ENDBRANCH   6   7
ENDBRANCH   5   6
ENDBRANCH   4   5
ENDBRANCH   3   4
ENDBRANCH   2   3
ENDBRANCH   1   2
BRANCH   1  12
ATOM     12  C   UNL     1      -9.646   0.669   4.892  1.00  0.00     0.000 C 
BRANCH  12  13
ATOM     13  C   UNL     1     -10.153  -0.552   5.679  1.00  0.00    -0.000 C 
BRANCH  13  14
ATOM     14  C   UNL     1      -9.646  -0.573   7.130  1.00  0.00    -0.000 C 
BRANCH  14  15
ATOM     15  C   UNL     1     -10.083   0.664   7.929  1.00  0.00    -0.000 C 
BRANCH  15  16
ATOM     16  C   UNL     1     -11.556   0.556   8.344  1.00  0.00    -0.000 C 
BRANCH  16  17
ATOM     17  C   UNL     1     -12.309   1.860   8.041  1.00  0.00    -0.000 C 
BRANCH  17  18
ATOM     18  C   UNL     1     -13.335   1.701   6.908  1.00  0.00    -0.003 C 
ATOM     19  C   UNL     1     -13.678   0.239   6.622  1.00  0.00     0.004 C 
ENDBRANCH  17  18
ENDBRANCH  16  17
ENDBRANCH  15  16
ENDBRANCH  14  15
ENDBRANCH  13  14
ENDBRANCH  12  13
ENDBRANCH   1  12
TORSDOF 14
ENDMDL
MODEL 4
REMARK VINA RESULT:    -3.609     13.915     15.971
REMARK INTER + INTRA:          -8.860
REMARK INTER:                  -6.991
REMARK INTRA:                  -1.868
REMARK UNBOUND:                -2.297
REMARK SMILES CCCCCCCCCCCCCC[C@@H](C)C(=O)[O-]
REMARK SMILES IDX 9 1 10 2 11 3 12 4 13 5 14 6 15 7 16 8 17 9 18 10 19 11 8 12
REMARK SMILES IDX 7 13 6 14 5 15 4 16 3 17 2 18 1 19
REMARK H PARENT
REMARK Flexibility Score: inf
ROOT
ATOM      1  C   UNL     1      -8.841   1.016   8.613  1.00  0.00     0.000 C 
ENDROOT
BRANCH   1   2
ATOM      2  C   UNL     1      -9.026   2.399   9.262  1.00  0.00     0.000 C 
BRANCH   2   3
ATOM      3  C   UNL     1      -8.719   3.556   8.295  1.00  0.00     0.000 C 
BRANCH   3   4
ATOM      4  C   UNL     1      -8.201   3.090   6.918  1.00  0.00     0.000 C 
BRANCH   4   5
ATOM      5  C   UNL     1      -6.935   3.850   6.482  1.00  0.00     0.001 C 
BRANCH   5   6
ATOM      6  C   UNL     1      -5.830   3.826   7.565  1.00  0.00     0.009 C 
BRANCH   6   7
ATOM      7  C   UNL     1      -4.519   3.115   7.157  1.00  0.00     0.032 C 
ATOM      8  C   UNL     1      -3.267   3.847   7.665  1.00  0.00     0.014 C 
BRANCH   7   9
ATOM      9  C   UNL     1      -4.516   1.659   7.542  1.00  0.00     0.044 C 
ATOM     10  O   UNL     1      -5.367   1.203   8.352  1.00  0.00    -0.550 OA
ATOM     11  O   UNL     1      -3.599   0.795   6.958  1.00  0.00    -0.550 OA
ENDBRANCH   7   9
ENDBRANCH   6   7
ENDBRANCH   5   6
ENDBRANCH   4   5
ENDBRANCH   3   4
ENDBRANCH   2   3
ENDBRANCH   1   2
BRANCH   1  12
ATOM     12  C   UNL     1     -10.129   0.179   8.624  1.00  0.00     0.000 C 
BRANCH  12  13
ATOM     13  C   UNL     1     -11.353   0.972   8.135  1.00  0.00    -0.000 C 
BRANCH  13  14
ATOM     14  C   UNL     1     -11.845   0.507   6.755  1.00  0.00    -0.000 C 
BRANCH  14  15
ATOM     15  C   UNL     1     -11.446   1.471   5.626  1.00  0.00    -0.000 C 
BRANCH  15  16
ATOM     16  C   UNL     1     -10.281   0.904   4.807  1.00  0.00    -0.000 C 
BRANCH  16  17
ATOM     17  C   UNL     1     -10.102  -0.598   5.073  1.00  0.00    -0.000 C 
BRANCH  17  18
ATOM     18  C   UNL     1      -9.283  -1.300   3.978  1.00  0.00    -0.003 C 
ATOM     19  C   UNL     1      -8.242  -0.381   3.338  1.00  0.00     0.004 C 
ENDBRANCH  17  18
ENDBRANCH  16  17
ENDBRANCH  15  16
ENDBRANCH  14  15
ENDBRANCH  13  14
ENDBRANCH  12  13
ENDBRANCH   1  12
TORSDOF 14
ENDMDL
MODEL 5
REMARK VINA RESULT:    -3.599     13.308     16.081
REMARK INTER + INTRA:          -8.841
REMARK INTER:                  -7.027
REMARK INTRA:                  -1.814
REMARK UNBOUND:                -2.297
REMARK SMILES CCCCCCCCCCCCCC[C@@H](C)C(=O)[O-]
REMARK SMILES IDX 9 1 10 2 11 3 12 4 13 5 14 6 15 7 16 8 17 9 18 10 19 11 8 12
REMARK SMILES IDX 7 13 6 14 5 15 4 16 3 17 2 18 1 19
REMARK H PARENT
REMARK Flexibility Score: inf
ROOT
ATOM      1  C   UNL     1      -7.310   2.564   5.916  1.00  0.00     0.000 C 
ENDROOT
BRANCH   1   2
ATOM      2  C   UNL     1      -7.780   2.450   7.377  1.00  0.00     0.000 C 
BRANCH   2   3
ATOM      3  C   UNL     1      -6.867   3.209   8.357  1.00  0.00     0.000 C 
BRANCH   3   4
ATOM      4  C   UNL     1      -6.564   2.425   9.651  1.00  0.00     0.000 C 
BRANCH   4   5
ATOM      5  C   UNL     1      -5.063   2.424   9.995  1.00  0.00     0.001 C 
BRANCH   5   6
ATOM      6  C   UNL     1      -4.208   3.113   8.907  1.00  0.00     0.009 C 
BRANCH   6   7
ATOM      7  C   UNL     1      -2.983   2.305   8.417  1.00  0.00     0.032 C 
ATOM      8  C   UNL     1      -1.995   1.986   9.550  1.00  0.00     0.014 C 
BRANCH   7   9
ATOM      9  C   UNL     1      -3.383   1.070   7.654  1.00  0.00     0.044 C 
ATOM     10  O   UNL     1      -4.314   1.108   6.805  1.00  0.00    -0.550 OA
ATOM     11  O   UNL     1      -2.684  -0.114   7.846  1.00  0.00    -0.550 OA
ENDBRANCH   7   9
ENDBRANCH   6   7
ENDBRANCH   5   6
ENDBRANCH   4   5
ENDBRANCH   3   4
ENDBRANCH   2   3
ENDBRANCH   1   2
BRANCH   1  12
ATOM     12  C   UNL     1      -8.112   3.602   5.115  1.00  0.00     0.000 C 
BRANCH  12  13
ATOM     13  C   UNL     1      -9.416   4.013   5.820  1.00  0.00    -0.000 C 
BRANCH  13  14
ATOM     14  C   UNL     1     -10.659   3.374   5.180  1.00  0.00    -0.000 C 
BRANCH  14  15
ATOM     15  C   UNL     1     -11.385   2.408   6.130  1.00  0.00    -0.000 C 
BRANCH  15  16
ATOM     16  C   UNL     1     -11.475   1.004   5.519  1.00  0.00    -0.000 C 
BRANCH  16  17
ATOM     17  C   UNL     1     -10.465   0.837   4.374  1.00  0.00    -0.000 C 
BRANCH  17  18
ATOM     18  C   UNL     1      -9.510  -0.347   4.596  1.00  0.00    -0.003 C 
ATOM     19  C   UNL     1      -8.472  -0.487   3.483  1.00  0.00     0.004 C 
ENDBRANCH  17  18
ENDBRANCH  16  17
ENDBRANCH  15  16
ENDBRANCH  14  15
ENDBRANCH  13  14
ENDBRANCH  12  13
ENDBRANCH   1  12
TORSDOF 14
ENDMDL
MODEL 6
REMARK VINA RESULT:    -3.553     13.941     16.295
REMARK INTER + INTRA:          -8.757
REMARK INTER:                  -6.463
REMARK INTRA:                  -2.295
REMARK UNBOUND:                -2.297
REMARK SMILES CCCCCCCCCCCCCC[C@@H](C)C(=O)[O-]
REMARK SMILES IDX 9 1 10 2 11 3 12 4 13 5 14 6 15 7 16 8 17 9 18 10 19 11 8 12
REMARK SMILES IDX 7 13 6 14 5 15 4 16 3 17 2 18 1 19
REMARK H PARENT
REMARK Flexibility Score: inf
ROOT
ATOM      1  C   UNL     1      -9.003   5.005   7.557  1.00  0.00     0.000 C 
ENDROOT
BRANCH   1   2
ATOM      2  C   UNL     1      -9.841   4.151   8.525  1.00  0.00     0.000 C 
BRANCH   2   3
ATOM      3  C   UNL     1      -8.977   3.243   9.417  1.00  0.00     0.000 C 
BRANCH   3   4
ATOM      4  C   UNL     1      -9.050   1.750   9.033  1.00  0.00     0.000 C 
BRANCH   4   5
ATOM      5  C   UNL     1      -7.816   1.291   8.235  1.00  0.00     0.001 C 
BRANCH   5   6
ATOM      6  C   UNL     1      -6.567   2.152   8.532  1.00  0.00     0.009 C 
BRANCH   6   7
ATOM      7  C   UNL     1      -5.665   2.454   7.313  1.00  0.00     0.032 C 
ATOM      8  C   UNL     1      -5.526   3.959   7.039  1.00  0.00     0.014 C 
BRANCH   7   9
ATOM      9  C   UNL     1      -4.325   1.773   7.412  1.00  0.00     0.044 C 
ATOM     10  O   UNL     1      -3.263   2.391   7.131  1.00  0.00    -0.550 OA
ATOM     11  O   UNL     1      -4.250   0.465   7.872  1.00  0.00    -0.550 OA
ENDBRANCH   7   9
ENDBRANCH   6   7
ENDBRANCH   5   6
ENDBRANCH   4   5
ENDBRANCH   3   4
ENDBRANCH   2   3
ENDBRANCH   1   2
BRANCH   1  12
ATOM     12  C   UNL     1      -9.126   4.541   6.098  1.00  0.00     0.000 C 
BRANCH  12  13
ATOM     13  C   UNL     1     -10.289   3.557   5.888  1.00  0.00    -0.000 C 
BRANCH  13  14
ATOM     14  C   UNL     1      -9.818   2.183   5.384  1.00  0.00    -0.000 C 
BRANCH  14  15
ATOM     15  C   UNL     1     -10.986   1.240   5.053  1.00  0.00    -0.000 C 
BRANCH  15  16
ATOM     16  C   UNL     1     -10.891  -0.056   5.868  1.00  0.00    -0.000 C 
BRANCH  16  17
ATOM     17  C   UNL     1      -9.619  -0.839   5.508  1.00  0.00    -0.000 C 
BRANCH  17  18
ATOM     18  C   UNL     1      -9.513  -1.137   4.004  1.00  0.00    -0.003 C 
ATOM     19  C   UNL     1      -8.253  -0.545   3.372  1.00  0.00     0.004 C 
ENDBRANCH  17  18
ENDBRANCH  16  17
ENDBRANCH  15  16
ENDBRANCH  14  15
ENDBRANCH  13  14
ENDBRANCH  12  13
ENDBRANCH   1  12
TORSDOF 14
ENDMDL
MODEL 7
REMARK VINA RESULT:    -3.531      2.764      5.551
REMARK INTER + INTRA:          -8.718
REMARK INTER:                  -5.904
REMARK INTRA:                  -2.814
REMARK UNBOUND:                -2.297
REMARK SMILES CCCCCCCCCCCCCC[C@@H](C)C(=O)[O-]
REMARK SMILES IDX 9 1 10 2 11 3 12 4 13 5 14 6 15 7 16 8 17 9 18 10 19 11 8 12
REMARK SMILES IDX 7 13 6 14 5 15 4 16 3 17 2 18 1 19
REMARK H PARENT
REMARK Flexibility Score: inf
ROOT
ATOM      1  C   UNL     1       0.100  -8.647   9.176  1.00  0.00     0.000 C 
ENDROOT
BRANCH   1   2
ATOM      2  C   UNL     1       0.776  -9.441  10.307  1.00  0.00     0.000 C 
BRANCH   2   3
ATOM      3  C   UNL     1       0.897 -10.943   9.991  1.00  0.00     0.000 C 
BRANCH   3   4
ATOM      4  C   UNL     1      -0.460 -11.632   9.736  1.00  0.00     0.000 C 
BRANCH   4   5
ATOM      5  C   UNL     1      -0.352 -12.774   8.710  1.00  0.00     0.001 C 
BRANCH   5   6
ATOM      6  C   UNL     1       0.439 -12.360   7.447  1.00  0.00     0.009 C 
BRANCH   6   7
ATOM      7  C   UNL     1       0.019 -13.071   6.140  1.00  0.00     0.032 C 
ATOM      8  C   UNL     1      -0.636 -12.115   5.132  1.00  0.00     0.014 C 
BRANCH   7   9
ATOM      9  C   UNL     1       1.153 -13.849   5.524  1.00  0.00     0.044 C 
ATOM     10  O   UNL     1       2.347 -13.630   5.865  1.00  0.00    -0.550 OA
ATOM     11  O   UNL     1       0.879 -14.858   4.610  1.00  0.00    -0.550 OA
ENDBRANCH   7   9
ENDBRANCH   6   7
ENDBRANCH   5   6
ENDBRANCH   4   5
ENDBRANCH   3   4
ENDBRANCH   2   3
ENDBRANCH   1   2
BRANCH   1  12
ATOM     12  C   UNL     1       0.856  -8.756   7.842  1.00  0.00     0.000 C 
BRANCH  12  13
ATOM     13  C   UNL     1      -0.084  -8.720   6.626  1.00  0.00    -0.000 C 
BRANCH  13  14
ATOM     14  C   UNL     1      -1.528  -8.353   7.006  1.00  0.00    -0.000 C 
BRANCH  14  15
ATOM     15  C   UNL     1      -2.559  -9.351   6.456  1.00  0.00    -0.000 C 
BRANCH  15  16
ATOM     16  C   UNL     1      -3.060 -10.286   7.564  1.00  0.00    -0.000 C 
BRANCH  16  17
ATOM     17  C   UNL     1      -3.991 -11.365   6.992  1.00  0.00    -0.000 C 
BRANCH  17  18
ATOM     18  C   UNL     1      -3.820 -12.724   7.689  1.00  0.00    -0.003 C 
ATOM     19  C   UNL     1      -3.603 -13.872   6.703  1.00  0.00     0.004 C 
ENDBRANCH  17  18
ENDBRANCH  16  17
ENDBRANCH  15  16
ENDBRANCH  14  15
ENDBRANCH  13  14
ENDBRANCH  12  13
ENDBRANCH   1  12
TORSDOF 14
ENDMDL
MODEL 8
REMARK VINA RESULT:    -3.528      3.312      5.747
REMARK INTER + INTRA:          -8.713
REMARK INTER:                  -6.617
REMARK INTRA:                  -2.096
REMARK UNBOUND:                -2.297
REMARK SMILES CCCCCCCCCCCCCC[C@@H](C)C(=O)[O-]
REMARK SMILES IDX 9 1 10 2 11 3 12 4 13 5 14 6 15 7 16 8 17 9 18 10 19 11 8 12
REMARK SMILES IDX 7 13 6 14 5 15 4 16 3 17 2 18 1 19
REMARK H PARENT
REMARK Flexibility Score: inf
ROOT
ATOM      1  C   UNL     1      -1.111  -8.509   6.561  1.00  0.00     0.000 C 
ENDROOT
BRANCH   1   2
ATOM      2  C   UNL     1       0.110  -8.522   7.497  1.00  0.00     0.000 C 
BRANCH   2   3
ATOM      3  C   UNL     1       1.002  -9.760   7.295  1.00  0.00     0.000 C 
BRANCH   3   4
ATOM      4  C   UNL     1       0.681 -10.918   8.264  1.00  0.00     0.000 C 
BRANCH   4   5
ATOM      5  C   UNL     1       0.209 -12.184   7.526  1.00  0.00     0.001 C 
BRANCH   5   6
ATOM      6  C   UNL     1       1.021 -12.453   6.237  1.00  0.00     0.009 C 
BRANCH   6   7
ATOM      7  C   UNL     1       2.002 -13.647   6.310  1.00  0.00     0.032 C 
ATOM      8  C   UNL     1       1.775 -14.666   5.183  1.00  0.00     0.014 C 
BRANCH   7   9
ATOM      9  C   UNL     1       3.438 -13.200   6.386  1.00  0.00     0.044 C 
ATOM     10  O   UNL     1       3.749 -12.115   6.945  1.00  0.00    -0.550 OA
ATOM     11  O   UNL     1       4.440 -14.019   5.882  1.00  0.00    -0.550 OA
ENDBRANCH   7   9
ENDBRANCH   6   7
ENDBRANCH   5   6
ENDBRANCH   4   5
ENDBRANCH   3   4
ENDBRANCH   2   3
ENDBRANCH   1   2
BRANCH   1  12
ATOM     12  C   UNL     1      -2.440  -8.384   7.323  1.00  0.00     0.000 C 
BRANCH  12  13
ATOM     13  C   UNL     1      -2.892  -9.717   7.943  1.00  0.00    -0.000 C 
BRANCH  13  14
ATOM     14  C   UNL     1      -3.104 -10.817   6.890  1.00  0.00    -0.000 C 
BRANCH  14  15
ATOM     15  C   UNL     1      -3.661 -12.116   7.492  1.00  0.00    -0.000 C 
BRANCH  15  16
ATOM     16  C   UNL     1      -3.258 -13.330   6.647  1.00  0.00    -0.000 C 
BRANCH  16  17
ATOM     17  C   UNL     1      -2.950 -12.914   5.200  1.00  0.00    -0.000 C 
BRANCH  17  18
ATOM     18  C   UNL     1      -1.820 -13.746   4.574  1.00  0.00    -0.003 C 
ATOM     19  C   UNL     1      -2.233 -14.410   3.260  1.00  0.00     0.004 C 
ENDBRANCH  17  18
ENDBRANCH  16  17
ENDBRANCH  15  16
ENDBRANCH  14  15
ENDBRANCH  13  14
ENDBRANCH  12  13
ENDBRANCH   1  12
TORSDOF 14
ENDMDL
MODEL 9
REMARK VINA RESULT:    -3.515     14.126     16.512
REMARK INTER + INTRA:          -8.689
REMARK INTER:                  -6.373
REMARK INTRA:                  -2.315
REMARK UNBOUND:                -2.297
REMARK SMILES CCCCCCCCCCCCCC[C@@H](C)C(=O)[O-]
REMARK SMILES IDX 9 1 10 2 11 3 12 4 13 5 14 6 15 7 16 8 17 9 18 10 19 11 8 12
REMARK SMILES IDX 7 13 6 14 5 15 4 16 3 17 2 18 1 19
REMARK H PARENT
REMARK Flexibility Score: inf
ROOT
ATOM      1  C   UNL     1      -9.359   4.744   7.552  1.00  0.00     0.000 C 
ENDROOT
BRANCH   1   2
ATOM      2  C   UNL     1     -10.230   4.590   6.293  1.00  0.00     0.000 C 
BRANCH   2   3
ATOM      3  C   UNL     1      -9.404   4.282   5.031  1.00  0.00     0.000 C 
BRANCH   3   4
ATOM      4  C   UNL     1      -7.880   4.385   5.250  1.00  0.00     0.000 C 
BRANCH   4   5
ATOM      5  C   UNL     1      -7.172   3.027   5.093  1.00  0.00     0.001 C 
BRANCH   5   6
ATOM      6  C   UNL     1      -6.776   2.408   6.453  1.00  0.00     0.009 C 
BRANCH   6   7
ATOM      7  C   UNL     1      -5.463   2.947   7.069  1.00  0.00     0.032 C 
ATOM      8  C   UNL     1      -5.702   4.118   8.034  1.00  0.00     0.014 C 
BRANCH   7   9
ATOM      9  C   UNL     1      -4.639   1.856   7.699  1.00  0.00     0.044 C 
ATOM     10  O   UNL     1      -4.005   1.031   6.988  1.00  0.00    -0.550 OA
ATOM     11  O   UNL     1      -4.530   1.787   9.082  1.00  0.00    -0.550 OA
ENDBRANCH   7   9
ENDBRANCH   6   7
ENDBRANCH   5   6
ENDBRANCH   4   5
ENDBRANCH   3   4
ENDBRANCH   2   3
ENDBRANCH   1   2
BRANCH   1  12
ATOM     12  C   UNL     1      -9.482   3.547   8.508  1.00  0.00     0.000 C 
BRANCH  12  13
ATOM     13  C   UNL     1     -10.562   2.546   8.064  1.00  0.00    -0.000 C 
BRANCH  13  14
ATOM     14  C   UNL     1      -9.983   1.163   7.726  1.00  0.00    -0.000 C 
BRANCH  14  15
ATOM     15  C   UNL     1     -10.975   0.276   6.958  1.00  0.00    -0.000 C 
BRANCH  15  16
ATOM     16  C   UNL     1     -11.088   0.720   5.494  1.00  0.00    -0.000 C 
BRANCH  16  17
ATOM     17  C   UNL     1      -9.705   0.770   4.827  1.00  0.00    -0.000 C 
BRANCH  17  18
ATOM     18  C   UNL     1      -9.263  -0.596   4.279  1.00  0.00    -0.003 C 
ATOM     19  C   UNL     1      -8.141  -0.485   3.247  1.00  0.00     0.004 C 
ENDBRANCH  17  18
ENDBRANCH  16  17
ENDBRANCH  15  16
ENDBRANCH  14  15
ENDBRANCH  13  14
ENDBRANCH  12  13
ENDBRANCH   1  12
TORSDOF 14
ENDMDL
