MODEL 1
REMARK VINA RESULT:    -3.979      0.000      0.000
REMARK INTER + INTRA:          -6.076
REMARK INTER:                  -5.607
REMARK INTRA:                  -0.469
REMARK UNBOUND:                -0.469
REMARK SMILES CCCCCCCCC(=O)[O-]
REMARK SMILES IDX 6 1 7 2 8 3 9 4 10 5 11 6 5 7 4 8 3 9 2 10 1 11
REMARK H PARENT
REMARK Flexibility Score: inf
ROOT
ATOM      1  C   UNL     1       9.056  -5.510  -2.935  1.00  0.00     0.000 C 
ENDROOT
BRANCH   1   2
ATOM      2  C   UNL     1       8.389  -6.812  -3.424  1.00  0.00     0.006 C 
BRANCH   2   3
ATOM      3  C   UNL     1       8.014  -7.792  -2.302  1.00  0.00     0.053 C 
BRANCH   3   4
ATOM      4  C   UNL     1       7.728  -9.164  -2.832  1.00  0.00     0.041 C 
ATOM      5  O   UNL     1       7.878 -10.173  -2.095  1.00  0.00    -0.550 OA
ATOM      6  O   UNL     1       7.262  -9.323  -4.131  1.00  0.00    -0.550 OA
ENDBRANCH   3   4
ENDBRANCH   2   3
ENDBRANCH   1   2
BRANCH   1   7
ATOM      7  C   UNL     1       8.847  -4.284  -3.847  1.00  0.00     0.000 C 
BRANCH   7   8
ATOM      8  C   UNL     1       7.526  -4.272  -4.638  1.00  0.00    -0.000 C 
BRANCH   8   9
ATOM      9  C   UNL     1       7.694  -3.742  -6.072  1.00  0.00    -0.000 C 
BRANCH   9  10
ATOM     10  C   UNL     1       8.849  -4.425  -6.821  1.00  0.00    -0.003 C 
ATOM     11  C   UNL     1       8.444  -5.762  -7.441  1.00  0.00     0.004 C 
ENDBRANCH   9  10
ENDBRANCH   8   9
ENDBRANCH   7   8
ENDBRANCH   1   7
TORSDOF 7
ENDMDL
MODEL 2
REMARK VINA RESULT:    -3.955      1.001      1.546
REMARK INTER + INTRA:          -6.042
REMARK INTER:                  -5.663
REMARK INTRA:                  -0.379
REMARK UNBOUND:                -0.469
REMARK SMILES CCCCCCCCC(=O)[O-]
REMARK SMILES IDX 6 1 7 2 8 3 9 4 10 5 11 6 5 7 4 8 3 9 2 10 1 11
REMARK H PARENT
REMARK Flexibility Score: inf
ROOT
ATOM      1  C   UNL     1       8.314  -6.705  -4.110  1.00  0.00     0.000 C 
ENDROOT
BRANCH   1   2
ATOM      2  C   UNL     1       8.271  -8.082  -3.416  1.00  0.00     0.006 C 
BRANCH   2   3
ATOM      3  C   UNL     1       7.832  -8.037  -1.944  1.00  0.00     0.053 C 
BRANCH   3   4
ATOM      4  C   UNL     1       7.740  -9.408  -1.347  1.00  0.00     0.041 C 
ATOM      5  O   UNL     1       7.535  -9.551  -0.113  1.00  0.00    -0.550 OA
ATOM      6  O   UNL     1       7.849 -10.529  -2.161  1.00  0.00    -0.550 OA
ENDBRANCH   3   4
ENDBRANCH   2   3
ENDBRANCH   1   2
BRANCH   1   7
ATOM      7  C   UNL     1       8.716  -5.526  -3.201  1.00  0.00     0.000 C 
BRANCH   7   8
ATOM      8  C   UNL     1       8.545  -4.129  -3.826  1.00  0.00    -0.000 C 
BRANCH   8   9
ATOM      9  C   UNL     1       7.391  -4.066  -4.841  1.00  0.00    -0.000 C 
BRANCH   9  10
ATOM     10  C   UNL     1       7.852  -3.591  -6.228  1.00  0.00    -0.003 C 
ATOM     11  C   UNL     1       8.019  -4.740  -7.223  1.00  0.00     0.004 C 
ENDBRANCH   9  10
ENDBRANCH   8   9
ENDBRANCH   7   8
ENDBRANCH   1   7
TORSDOF 7
ENDMDL
MODEL 3
REMARK VINA RESULT:    -3.876      2.298      3.394
REMARK INTER + INTRA:          -5.931
REMARK INTER:                  -5.751
REMARK INTRA:                  -0.180
REMARK UNBOUND:                -0.469
REMARK SMILES CCCCCCCCC(=O)[O-]
REMARK SMILES IDX 6 1 7 2 8 3 9 4 10 5 11 6 5 7 4 8 3 9 2 10 1 11
REMARK H PARENT
REMARK Flexibility Score: inf
ROOT
ATOM      1  C   UNL     1       7.761  -8.106  -2.003  1.00  0.00     0.000 C 
ENDROOT
BRANCH   1   2
ATOM      2  C   UNL     1       8.294  -9.345  -1.254  1.00  0.00     0.006 C 
BRANCH   2   3
ATOM      3  C   UNL     1       8.452  -9.151   0.262  1.00  0.00     0.053 C 
BRANCH   3   4
ATOM      4  C   UNL     1       7.434  -9.933   1.033  1.00  0.00     0.041 C 
ATOM      5  O   UNL     1       7.788 -10.915   1.737  1.00  0.00    -0.550 OA
ATOM      6  O   UNL     1       6.097  -9.557   1.000  1.00  0.00    -0.550 OA
ENDBRANCH   3   4
ENDBRANCH   2   3
ENDBRANCH   1   2
BRANCH   1   7
ATOM      7  C   UNL     1       8.829  -7.059  -2.380  1.00  0.00     0.000 C 
BRANCH   7   8
ATOM      8  C   UNL     1       8.579  -6.315  -3.705  1.00  0.00    -0.000 C 
BRANCH   8   9
ATOM      9  C   UNL     1       8.361  -4.805  -3.510  1.00  0.00    -0.000 C 
BRANCH   9  10
ATOM     10  C   UNL     1       7.248  -4.250  -4.411  1.00  0.00    -0.003 C 
ATOM     11  C   UNL     1       7.737  -3.912  -5.819  1.00  0.00     0.004 C 
ENDBRANCH   9  10
ENDBRANCH   8   9
ENDBRANCH   7   8
ENDBRANCH   1   7
TORSDOF 7
ENDMDL
MODEL 4
REMARK VINA RESULT:    -3.802      2.167      4.623
REMARK INTER + INTRA:          -5.827
REMARK INTER:                  -5.369
REMARK INTRA:                  -0.458
REMARK UNBOUND:                -0.469
REMARK SMILES CCCCCCCCC(=O)[O-]
REMARK SMILES IDX 6 1 7 2 8 3 9 4 10 5 11 6 5 7 4 8 3 9 2 10 1 11
REMARK H PARENT
REMARK Flexibility Score: inf
ROOT
ATOM      1  C   UNL     1       7.530  -4.273  -5.130  1.00  0.00     0.000 C 
ENDROOT
BRANCH   1   2
ATOM      2  C   UNL     1       7.879  -3.926  -6.592  1.00  0.00     0.006 C 
BRANCH   2   3
ATOM      3  C   UNL     1       9.025  -4.761  -7.185  1.00  0.00     0.053 C 
BRANCH   3   4
ATOM      4  C   UNL     1       8.577  -6.141  -7.556  1.00  0.00     0.041 C 
ATOM      5  O   UNL     1       9.033  -7.143  -6.946  1.00  0.00    -0.550 OA
ATOM      6  O   UNL     1       7.628  -6.318  -8.555  1.00  0.00    -0.550 OA
ENDBRANCH   3   4
ENDBRANCH   2   3
ENDBRANCH   1   2
BRANCH   1   7
ATOM      7  C   UNL     1       8.646  -3.992  -4.105  1.00  0.00     0.000 C 
BRANCH   7   8
ATOM      8  C   UNL     1       8.899  -5.118  -3.085  1.00  0.00    -0.000 C 
BRANCH   8   9
ATOM      9  C   UNL     1       8.446  -6.497  -3.594  1.00  0.00    -0.000 C 
BRANCH   9  10
ATOM     10  C   UNL     1       8.226  -7.502  -2.453  1.00  0.00    -0.003 C 
ATOM     11  C   UNL     1       7.832  -8.891  -2.955  1.00  0.00     0.004 C 
ENDBRANCH   9  10
ENDBRANCH   8   9
ENDBRANCH   7   8
ENDBRANCH   1   7
TORSDOF 7
ENDMDL
MODEL 5
REMARK VINA RESULT:    -3.779      4.891      6.768
REMARK INTER + INTRA:          -5.794
REMARK INTER:                  -5.528
REMARK INTRA:                  -0.266
REMARK UNBOUND:                -0.469
REMARK SMILES CCCCCCCCC(=O)[O-]
REMARK SMILES IDX 6 1 7 2 8 3 9 4 10 5 11 6 5 7 4 8 3 9 2 10 1 11
REMARK H PARENT
REMARK Flexibility Score: inf
ROOT
ATOM      1  C   UNL     1       7.186  -9.571   1.053  1.00  0.00     0.000 C 
ENDROOT
BRANCH   1   2
ATOM      2  C   UNL     1       6.784 -10.429   2.270  1.00  0.00     0.006 C 
BRANCH   2   3
ATOM      3  C   UNL     1       5.270 -10.651   2.416  1.00  0.00     0.053 C 
BRANCH   3   4
ATOM      4  C   UNL     1       4.796 -10.363   3.808  1.00  0.00     0.041 C 
ATOM      5  O   UNL     1       5.322 -10.946   4.791  1.00  0.00    -0.550 OA
ATOM      6  O   UNL     1       3.794  -9.423   4.019  1.00  0.00    -0.550 OA
ENDBRANCH   3   4
ENDBRANCH   2   3
ENDBRANCH   1   2
BRANCH   1   7
ATOM      7  C   UNL     1       8.674  -9.655   0.655  1.00  0.00     0.000 C 
BRANCH   7   8
ATOM      8  C   UNL     1       9.024  -9.037  -0.711  1.00  0.00    -0.000 C 
BRANCH   8   9
ATOM      9  C   UNL     1       7.912  -9.232  -1.756  1.00  0.00    -0.000 C 
BRANCH   9  10
ATOM     10  C   UNL     1       7.984  -8.199  -2.891  1.00  0.00    -0.003 C 
ATOM     11  C   UNL     1       8.698  -6.912  -2.478  1.00  0.00     0.004 C 
ENDBRANCH   9  10
ENDBRANCH   8   9
ENDBRANCH   7   8
ENDBRANCH   1   7
TORSDOF 7
ENDMDL
MODEL 6
REMARK VINA RESULT:    -3.753      5.994      8.040
REMARK INTER + INTRA:          -5.758
REMARK INTER:                  -5.583
REMARK INTRA:                  -0.175
REMARK UNBOUND:                -0.469
REMARK SMILES CCCCCCCCC(=O)[O-]
REMARK SMILES IDX 6 1 7 2 8 3 9 4 10 5 11 6 5 7 4 8 3 9 2 10 1 11
REMARK H PARENT
REMARK Flexibility Score: inf
ROOT
ATOM      1  C   UNL     1       6.796 -10.786   2.990  1.00  0.00     0.000 C 
ENDROOT
BRANCH   1   2
ATOM      2  C   UNL     1       5.367 -10.816   3.572  1.00  0.00     0.006 C 
BRANCH   2   3
ATOM      3  C   UNL     1       5.015  -9.605   4.450  1.00  0.00     0.053 C 
BRANCH   3   4
ATOM      4  C   UNL     1       3.560  -9.259   4.366  1.00  0.00     0.041 C 
ATOM      5  O   UNL     1       2.702 -10.162   4.185  1.00  0.00    -0.550 OA
ATOM      6  O   UNL     1       3.149  -7.941   4.520  1.00  0.00    -0.550 OA
ENDBRANCH   3   4
ENDBRANCH   2   3
ENDBRANCH   1   2
BRANCH   1   7
ATOM      7  C   UNL     1       6.981  -9.882   1.755  1.00  0.00     0.000 C 
BRANCH   7   8
ATOM      8  C   UNL     1       8.285 -10.108   0.967  1.00  0.00    -0.000 C 
BRANCH   8   9
ATOM      9  C   UNL     1       8.599  -8.960  -0.008  1.00  0.00    -0.000 C 
BRANCH   9  10
ATOM     10  C   UNL     1       7.793  -9.059  -1.312  1.00  0.00    -0.003 C 
ATOM     11  C   UNL     1       7.978  -7.842  -2.218  1.00  0.00     0.004 C 
ENDBRANCH   9  10
ENDBRANCH   8   9
ENDBRANCH   7   8
ENDBRANCH   1   7
TORSDOF 7
ENDMDL
MODEL 7
REMARK VINA RESULT:    -3.722     20.351     21.703
REMARK INTER + INTRA:          -5.714
REMARK INTER:                  -5.411
REMARK INTRA:                  -0.303
REMARK UNBOUND:                -0.469
REMARK SMILES CCCCCCCCC(=O)[O-]
REMARK SMILES IDX 6 1 7 2 8 3 9 4 10 5 11 6 5 7 4 8 3 9 2 10 1 11
REMARK H PARENT
REMARK Flexibility Score: inf
ROOT
ATOM      1  C   UNL     1      -7.838   8.810  -8.860  1.00  0.00     0.000 C 
ENDROOT
BRANCH   1   2
ATOM      2  C   UNL     1      -8.728   8.380  -7.676  1.00  0.00     0.006 C 
BRANCH   2   3
ATOM      3  C   UNL     1      -8.703   6.873  -7.378  1.00  0.00     0.053 C 
BRANCH   3   4
ATOM      4  C   UNL     1     -10.031   6.230  -7.640  1.00  0.00     0.041 C 
ATOM      5  O   UNL     1     -11.097   6.837  -7.358  1.00  0.00    -0.550 OA
ATOM      6  O   UNL     1     -10.089   4.972  -8.226  1.00  0.00    -0.550 OA
ENDBRANCH   3   4
ENDBRANCH   2   3
ENDBRANCH   1   2
BRANCH   1   7
ATOM      7  C   UNL     1      -6.827   7.748  -9.339  1.00  0.00     0.000 C 
BRANCH   7   8
ATOM      8  C   UNL     1      -6.855   7.450 -10.849  1.00  0.00    -0.000 C 
BRANCH   8   9
ATOM      9  C   UNL     1      -5.489   6.999 -11.393  1.00  0.00    -0.000 C 
BRANCH   9  10
ATOM     10  C   UNL     1      -5.535   5.590 -12.005  1.00  0.00    -0.003 C 
ATOM     11  C   UNL     1      -6.828   4.843 -11.678  1.00  0.00     0.004 C 
ENDBRANCH   9  10
ENDBRANCH   8   9
ENDBRANCH   7   8
ENDBRANCH   1   7
TORSDOF 7
ENDMDL
MODEL 8
REMARK VINA RESULT:    -3.567     20.635     21.788
REMARK INTER + INTRA:          -5.496
REMARK INTER:                  -4.885
REMARK INTRA:                  -0.611
REMARK UNBOUND:                -0.469
REMARK SMILES CCCCCCCCC(=O)[O-]
REMARK SMILES IDX 6 1 7 2 8 3 9 4 10 5 11 6 5 7 4 8 3 9 2 10 1 11
REMARK H PARENT
REMARK Flexibility Score: inf
ROOT
ATOM      1  C   UNL     1      -8.810   6.861  -7.428  1.00  0.00     0.000 C 
ENDROOT
BRANCH   1   2
ATOM      2  C   UNL     1     -10.132   6.333  -8.022  1.00  0.00     0.006 C 
BRANCH   2   3
ATOM      3  C   UNL     1     -10.030   4.936  -8.654  1.00  0.00     0.053 C 
BRANCH   3   4
ATOM      4  C   UNL     1      -9.622   5.003 -10.094  1.00  0.00     0.041 C 
ATOM      5  O   UNL     1      -9.915   6.009 -10.791  1.00  0.00    -0.550 OA
ATOM      6  O   UNL     1      -8.889   3.966 -10.657  1.00  0.00    -0.550 OA
ENDBRANCH   3   4
ENDBRANCH   2   3
ENDBRANCH   1   2
BRANCH   1   7
ATOM      7  C   UNL     1      -8.423   8.290  -7.858  1.00  0.00     0.000 C 
BRANCH   7   8
ATOM      8  C   UNL     1      -7.789   8.406  -9.257  1.00  0.00    -0.000 C 
BRANCH   8   9
ATOM      9  C   UNL     1      -6.507   7.569  -9.402  1.00  0.00    -0.000 C 
BRANCH   9  10
ATOM     10  C   UNL     1      -6.432   6.835 -10.750  1.00  0.00    -0.003 C 
ATOM     11  C   UNL     1      -5.183   7.197 -11.554  1.00  0.00     0.004 C 
ENDBRANCH   9  10
ENDBRANCH   8   9
ENDBRANCH   7   8
ENDBRANCH   1   7
TORSDOF 7
ENDMDL
MODEL 9
REMARK VINA RESULT:    -3.545      3.034      5.904
REMARK INTER + INTRA:          -5.465
REMARK INTER:                  -5.254
REMARK INTRA:                  -0.211
REMARK UNBOUND:                -0.469
REMARK SMILES CCCCCCCCC(=O)[O-]
REMARK SMILES IDX 6 1 7 2 8 3 9 4 10 5 11 6 5 7 4 8 3 9 2 10 1 11
REMARK H PARENT
REMARK Flexibility Score: inf
ROOT
ATOM      1  C   UNL     1       8.010  -5.242  -3.676  1.00  0.00     0.000 C 
ENDROOT
BRANCH   1   2
ATOM      2  C   UNL     1       8.998  -4.370  -4.478  1.00  0.00     0.006 C 
BRANCH   2   3
ATOM      3  C   UNL     1       9.125  -4.755  -5.960  1.00  0.00     0.053 C 
BRANCH   3   4
ATOM      4  C   UNL     1       7.996  -4.205  -6.777  1.00  0.00     0.041 C 
ATOM      5  O   UNL     1       7.348  -4.957  -7.551  1.00  0.00    -0.550 OA
ATOM      6  O   UNL     1       7.640  -2.868  -6.659  1.00  0.00    -0.550 OA
ENDBRANCH   3   4
ENDBRANCH   2   3
ENDBRANCH   1   2
BRANCH   1   7
ATOM      7  C   UNL     1       8.364  -6.741  -3.608  1.00  0.00     0.000 C 
BRANCH   7   8
ATOM      8  C   UNL     1       8.844  -7.240  -2.233  1.00  0.00    -0.000 C 
BRANCH   8   9
ATOM      9  C   UNL     1       7.980  -8.386  -1.680  1.00  0.00    -0.000 C 
BRANCH   9  10
ATOM     10  C   UNL     1       8.649  -9.111  -0.501  1.00  0.00    -0.003 C 
ATOM     11  C   UNL     1       7.678  -9.402   0.643  1.00  0.00     0.004 C 
ENDBRANCH   9  10
ENDBRANCH   8   9
ENDBRANCH   7   8
ENDBRANCH   1   7
TORSDOF 7
ENDMDL
