MODEL 1
REMARK VINA RESULT:    -4.698      0.000      0.000
REMARK INTER + INTRA:          -9.525
REMARK INTER:                  -8.680
REMARK INTRA:                  -0.845
REMARK UNBOUND:                -0.845
REMARK SMILES CCCCCCCCCCCCCCCCO
REMARK SMILES IDX 9 1 8 2 7 3 6 4 5 5 4 6 3 7 2 8 1 9 10 10 11 11 12 12 13 13
REMARK SMILES IDX 14 14 15 15 16 16 17 17
REMARK H PARENT 17 18
REMARK Flexibility Score: inf
ROOT
ATOM      1  C   UNL     1      12.403  16.010  24.910  1.00  0.00     0.000 C 
ENDROOT
BRANCH   1   2
ATOM      2  C   UNL     1      11.133  15.275  24.445  1.00  0.00    -0.000 C 
BRANCH   2   3
ATOM      3  C   UNL     1      11.334  14.518  23.123  1.00  0.00    -0.000 C 
BRANCH   3   4
ATOM      4  C   UNL     1      10.089  14.625  22.235  1.00  0.00    -0.000 C 
BRANCH   4   5
ATOM      5  C   UNL     1       9.129  13.453  22.485  1.00  0.00    -0.000 C 
BRANCH   5   6
ATOM      6  C   UNL     1       7.649  13.882  22.404  1.00  0.00    -0.000 C 
BRANCH   6   7
ATOM      7  C   UNL     1       6.681  12.887  23.066  1.00  0.00    -0.000 C 
BRANCH   7   8
ATOM      8  C   UNL     1       6.480  11.609  22.242  1.00  0.00    -0.003 C 
ATOM      9  C   UNL     1       5.272  10.819  22.736  1.00  0.00     0.004 C 
ENDBRANCH   7   8
ENDBRANCH   6   7
ENDBRANCH   5   6
ENDBRANCH   4   5
ENDBRANCH   3   4
ENDBRANCH   2   3
ENDBRANCH   1   2
BRANCH   1  10
ATOM     10  C   UNL     1      12.187  17.471  25.356  1.00  0.00     0.000 C 
BRANCH  10  11
ATOM     11  C   UNL     1      13.310  18.450  24.965  1.00  0.00     0.000 C 
BRANCH  11  12
ATOM     12  C   UNL     1      14.313  17.840  23.971  1.00  0.00     0.000 C 
BRANCH  12  13
ATOM     13  C   UNL     1      14.382  18.620  22.648  1.00  0.00     0.000 C 
BRANCH  13  14
ATOM     14  C   UNL     1      12.995  19.016  22.119  1.00  0.00     0.002 C 
BRANCH  14  15
ATOM     15  C   UNL     1      13.041  20.389  21.434  1.00  0.00     0.028 C 
BRANCH  15  16
ATOM     16  C   UNL     1      12.152  21.414  22.143  1.00  0.00     0.156 C 
BRANCH  16  17
ATOM     17  O   UNL     1      12.759  21.867  23.324  1.00  0.00    -0.396 OA
ATOM     18  H   UNL     1      13.691  21.525  23.318  1.00  0.00     0.210 HD
ENDBRANCH  16  17
ENDBRANCH  15  16
ENDBRANCH  14  15
ENDBRANCH  13  14
ENDBRANCH  12  13
ENDBRANCH  11  12
ENDBRANCH  10  11
ENDBRANCH   1  10
TORSDOF 15
ENDMDL
MODEL 2
REMARK VINA RESULT:    -4.675      1.708      2.901
REMARK INTER + INTRA:          -9.482
REMARK INTER:                  -8.318
REMARK INTRA:                  -1.165
REMARK UNBOUND:                -0.845
REMARK SMILES CCCCCCCCCCCCCCCCO
REMARK SMILES IDX 9 1 8 2 7 3 6 4 5 5 4 6 3 7 2 8 1 9 10 10 11 11 12 12 13 13
REMARK SMILES IDX 14 14 15 15 16 16 17 17
REMARK H PARENT 17 18
REMARK Flexibility Score: inf
ROOT
ATOM      1  C   UNL     1      10.577  15.197  22.367  1.00  0.00     0.000 C 
ENDROOT
BRANCH   1   2
ATOM      2  C   UNL     1      10.780  13.700  22.666  1.00  0.00    -0.000 C 
BRANCH   2   3
ATOM      3  C   UNL     1      10.273  12.793  21.535  1.00  0.00    -0.000 C 
BRANCH   3   4
ATOM      4  C   UNL     1       9.999  11.375  22.051  1.00  0.00    -0.000 C 
BRANCH   4   5
ATOM      5  C   UNL     1       8.859  10.712  21.263  1.00  0.00    -0.000 C 
BRANCH   5   6
ATOM      6  C   UNL     1       7.750  11.715  20.884  1.00  0.00    -0.000 C 
BRANCH   6   7
ATOM      7  C   UNL     1       6.435  11.500  21.652  1.00  0.00    -0.000 C 
BRANCH   7   8
ATOM      8  C   UNL     1       6.475  12.065  23.078  1.00  0.00    -0.003 C 
ATOM      9  C   UNL     1       6.972  13.508  23.085  1.00  0.00     0.004 C 
ENDBRANCH   7   8
ENDBRANCH   6   7
ENDBRANCH   5   6
ENDBRANCH   4   5
ENDBRANCH   3   4
ENDBRANCH   2   3
ENDBRANCH   1   2
BRANCH   1  10
ATOM     10  C   UNL     1      11.001  16.155  23.499  1.00  0.00     0.000 C 
BRANCH  10  11
ATOM     11  C   UNL     1      11.647  15.480  24.723  1.00  0.00     0.000 C 
BRANCH  11  12
ATOM     12  C   UNL     1      12.698  16.370  25.408  1.00  0.00     0.000 C 
BRANCH  12  13
ATOM     13  C   UNL     1      12.889  17.716  24.692  1.00  0.00     0.000 C 
BRANCH  13  14
ATOM     14  C   UNL     1      14.167  17.759  23.839  1.00  0.00     0.002 C 
BRANCH  14  15
ATOM     15  C   UNL     1      14.222  19.042  22.999  1.00  0.00     0.028 C 
BRANCH  15  16
ATOM     16  C   UNL     1      15.614  19.682  23.019  1.00  0.00     0.156 C 
BRANCH  16  17
ATOM     17  O   UNL     1      16.240  19.469  24.256  1.00  0.00    -0.396 OA
ATOM     18  H   UNL     1      17.218  19.475  24.089  1.00  0.00     0.210 HD
ENDBRANCH  16  17
ENDBRANCH  15  16
ENDBRANCH  14  15
ENDBRANCH  13  14
ENDBRANCH  12  13
ENDBRANCH  11  12
ENDBRANCH  10  11
ENDBRANCH   1  10
TORSDOF 15
ENDMDL
MODEL 3
REMARK VINA RESULT:    -4.633      2.355      5.097
REMARK INTER + INTRA:          -9.406
REMARK INTER:                  -7.822
REMARK INTRA:                  -1.584
REMARK UNBOUND:                -0.845
REMARK SMILES CCCCCCCCCCCCCCCCO
REMARK SMILES IDX 9 1 8 2 7 3 6 4 5 5 4 6 3 7 2 8 1 9 10 10 11 11 12 12 13 13
REMARK SMILES IDX 14 14 15 15 16 16 17 17
REMARK H PARENT 17 18
REMARK Flexibility Score: inf
ROOT
ATOM      1  C   UNL     1       7.662  13.772  21.992  1.00  0.00     0.000 C 
ENDROOT
BRANCH   1   2
ATOM      2  C   UNL     1       6.918  13.242  23.231  1.00  0.00    -0.000 C 
BRANCH   2   3
ATOM      3  C   UNL     1       6.158  11.936  22.956  1.00  0.00    -0.000 C 
BRANCH   3   4
ATOM      4  C   UNL     1       6.730  11.217  21.728  1.00  0.00    -0.000 C 
BRANCH   4   5
ATOM      5  C   UNL     1       7.748  10.143  22.141  1.00  0.00    -0.000 C 
BRANCH   5   6
ATOM      6  C   UNL     1       8.960  10.090  21.188  1.00  0.00    -0.000 C 
BRANCH   6   7
ATOM      7  C   UNL     1       8.771  10.910  19.902  1.00  0.00    -0.000 C 
BRANCH   7   8
ATOM      8  C   UNL     1      10.000  11.757  19.545  1.00  0.00    -0.003 C 
ATOM      9  C   UNL     1      10.122  11.942  18.035  1.00  0.00     0.004 C 
ENDBRANCH   7   8
ENDBRANCH   6   7
ENDBRANCH   5   6
ENDBRANCH   4   5
ENDBRANCH   3   4
ENDBRANCH   2   3
ENDBRANCH   1   2
BRANCH   1  10
ATOM     10  C   UNL     1       9.051  14.382  22.272  1.00  0.00     0.000 C 
BRANCH  10  11
ATOM     11  C   UNL     1      10.134  13.377  22.706  1.00  0.00     0.000 C 
BRANCH  11  12
ATOM     12  C   UNL     1      11.408  14.063  23.227  1.00  0.00     0.000 C 
BRANCH  12  13
ATOM     13  C   UNL     1      11.121  15.055  24.365  1.00  0.00     0.000 C 
BRANCH  13  14
ATOM     14  C   UNL     1      11.686  16.457  24.088  1.00  0.00     0.002 C 
BRANCH  14  15
ATOM     15  C   UNL     1      12.865  16.767  25.020  1.00  0.00     0.028 C 
BRANCH  15  16
ATOM     16  C   UNL     1      14.076  17.307  24.254  1.00  0.00     0.156 C 
BRANCH  16  17
ATOM     17  O   UNL     1      14.110  16.789  22.951  1.00  0.00    -0.396 OA
ATOM     18  H   UNL     1      13.430  16.068  22.910  1.00  0.00     0.210 HD
ENDBRANCH  16  17
ENDBRANCH  15  16
ENDBRANCH  14  15
ENDBRANCH  13  14
ENDBRANCH  12  13
ENDBRANCH  11  12
ENDBRANCH  10  11
ENDBRANCH   1  10
TORSDOF 15
ENDMDL
MODEL 4
REMARK VINA RESULT:    -4.613      3.668      8.152
REMARK INTER + INTRA:          -9.369
REMARK INTER:                  -7.989
REMARK INTRA:                  -1.379
REMARK UNBOUND:                -0.845
REMARK SMILES CCCCCCCCCCCCCCCCO
REMARK SMILES IDX 9 1 8 2 7 3 6 4 5 5 4 6 3 7 2 8 1 9 10 10 11 11 12 12 13 13
REMARK SMILES IDX 14 14 15 15 16 16 17 17
REMARK H PARENT 17 18
REMARK Flexibility Score: inf
ROOT
ATOM      1  C   UNL     1       7.538  13.742  21.943  1.00  0.00     0.000 C 
ENDROOT
BRANCH   1   2
ATOM      2  C   UNL     1       8.775  14.601  22.266  1.00  0.00    -0.000 C 
BRANCH   2   3
ATOM      3  C   UNL     1      10.073  13.782  22.311  1.00  0.00    -0.000 C 
BRANCH   3   4
ATOM      4  C   UNL     1      11.283  14.687  22.573  1.00  0.00    -0.000 C 
BRANCH   4   5
ATOM      5  C   UNL     1      10.932  16.163  22.333  1.00  0.00    -0.000 C 
BRANCH   5   6
ATOM      6  C   UNL     1      11.108  17.020  23.604  1.00  0.00    -0.000 C 
BRANCH   6   7
ATOM      7  C   UNL     1      11.632  16.229  24.814  1.00  0.00    -0.000 C 
BRANCH   7   8
ATOM      8  C   UNL     1      12.802  16.924  25.522  1.00  0.00    -0.003 C 
ATOM      9  C   UNL     1      12.411  18.324  25.987  1.00  0.00     0.004 C 
ENDBRANCH   7   8
ENDBRANCH   6   7
ENDBRANCH   5   6
ENDBRANCH   4   5
ENDBRANCH   3   4
ENDBRANCH   2   3
ENDBRANCH   1   2
BRANCH   1  10
ATOM     10  C   UNL     1       6.854  13.094  23.165  1.00  0.00     0.000 C 
BRANCH  10  11
ATOM     11  C   UNL     1       6.478  11.610  22.996  1.00  0.00     0.000 C 
BRANCH  11  12
ATOM     12  C   UNL     1       7.704  10.682  22.985  1.00  0.00     0.000 C 
BRANCH  12  13
ATOM     13  C   UNL     1       7.911   9.994  21.626  1.00  0.00     0.000 C 
BRANCH  13  14
ATOM     14  C   UNL     1       9.134  10.532  20.867  1.00  0.00     0.002 C 
BRANCH  14  15
ATOM     15  C   UNL     1       8.702  11.420  19.692  1.00  0.00     0.028 C 
BRANCH  15  16
ATOM     16  C   UNL     1       9.900  11.917  18.879  1.00  0.00     0.156 C 
BRANCH  16  17
ATOM     17  O   UNL     1       9.735  11.618  17.518  1.00  0.00    -0.396 OA
ATOM     18  H   UNL     1       9.928  10.651  17.410  1.00  0.00     0.210 HD
ENDBRANCH  16  17
ENDBRANCH  15  16
ENDBRANCH  14  15
ENDBRANCH  13  14
ENDBRANCH  12  13
ENDBRANCH  11  12
ENDBRANCH  10  11
ENDBRANCH   1  10
TORSDOF 15
ENDMDL
MODEL 5
REMARK VINA RESULT:    -4.581      3.370      8.156
REMARK INTER + INTRA:          -9.310
REMARK INTER:                  -7.832
REMARK INTRA:                  -1.478
REMARK UNBOUND:                -0.845
REMARK SMILES CCCCCCCCCCCCCCCCO
REMARK SMILES IDX 9 1 8 2 7 3 6 4 5 5 4 6 3 7 2 8 1 9 10 10 11 11 12 12 13 13
REMARK SMILES IDX 14 14 15 15 16 16 17 17
REMARK H PARENT 17 18
REMARK Flexibility Score: inf
ROOT
ATOM      1  C   UNL     1      10.861  17.300  22.273  1.00  0.00     0.000 C 
ENDROOT
BRANCH   1   2
ATOM      2  C   UNL     1      11.668  18.193  21.313  1.00  0.00    -0.000 C 
BRANCH   2   3
ATOM      3  C   UNL     1      12.059  19.540  21.940  1.00  0.00    -0.000 C 
BRANCH   3   4
ATOM      4  C   UNL     1      13.566  19.789  21.809  1.00  0.00    -0.000 C 
BRANCH   4   5
ATOM      5  C   UNL     1      14.371  18.681  22.505  1.00  0.00    -0.000 C 
BRANCH   5   6
ATOM      6  C   UNL     1      14.159  18.678  24.033  1.00  0.00    -0.000 C 
BRANCH   6   7
ATOM      7  C   UNL     1      13.640  17.338  24.581  1.00  0.00    -0.000 C 
BRANCH   7   8
ATOM      8  C   UNL     1      12.636  17.509  25.729  1.00  0.00    -0.003 C 
ATOM      9  C   UNL     1      11.856  18.813  25.588  1.00  0.00     0.004 C 
ENDBRANCH   7   8
ENDBRANCH   6   7
ENDBRANCH   5   6
ENDBRANCH   4   5
ENDBRANCH   3   4
ENDBRANCH   2   3
ENDBRANCH   1   2
BRANCH   1  10
ATOM     10  C   UNL     1      11.250  15.807  22.261  1.00  0.00     0.000 C 
BRANCH  10  11
ATOM     11  C   UNL     1      10.304  14.876  23.042  1.00  0.00     0.000 C 
BRANCH  11  12
ATOM     12  C   UNL     1       9.492  13.946  22.124  1.00  0.00     0.000 C 
BRANCH  12  13
ATOM     13  C   UNL     1       7.976  14.155  22.265  1.00  0.00     0.000 C 
BRANCH  13  14
ATOM     14  C   UNL     1       7.245  12.895  22.754  1.00  0.00     0.002 C 
BRANCH  14  15
ATOM     15  C   UNL     1       7.020  11.909  21.599  1.00  0.00     0.028 C 
BRANCH  15  16
ATOM     16  C   UNL     1       6.223  10.679  22.042  1.00  0.00     0.156 C 
BRANCH  16  17
ATOM     17  O   UNL     1       6.060  10.669  23.435  1.00  0.00    -0.396 OA
ATOM     18  H   UNL     1       6.736  11.292  23.809  1.00  0.00     0.210 HD
ENDBRANCH  16  17
ENDBRANCH  15  16
ENDBRANCH  14  15
ENDBRANCH  13  14
ENDBRANCH  12  13
ENDBRANCH  11  12
ENDBRANCH  10  11
ENDBRANCH   1  10
TORSDOF 15
ENDMDL
MODEL 6
REMARK VINA RESULT:    -4.574      1.958      2.345
REMARK INTER + INTRA:          -9.296
REMARK INTER:                  -7.744
REMARK INTRA:                  -1.552
REMARK UNBOUND:                -0.845
REMARK SMILES CCCCCCCCCCCCCCCCO
REMARK SMILES IDX 9 1 8 2 7 3 6 4 5 5 4 6 3 7 2 8 1 9 10 10 11 11 12 12 13 13
REMARK SMILES IDX 14 14 15 15 16 16 17 17
REMARK H PARENT 17 18
REMARK Flexibility Score: inf
ROOT
ATOM      1  C   UNL     1      12.702  15.950  24.870  1.00  0.00     0.000 C 
ENDROOT
BRANCH   1   2
ATOM      2  C   UNL     1      11.443  15.282  24.288  1.00  0.00    -0.000 C 
BRANCH   2   3
ATOM      3  C   UNL     1      10.731  16.158  23.247  1.00  0.00    -0.000 C 
BRANCH   3   4
ATOM      4  C   UNL     1       9.934  15.298  22.258  1.00  0.00    -0.000 C 
BRANCH   4   5
ATOM      5  C   UNL     1      10.222  13.804  22.470  1.00  0.00    -0.000 C 
BRANCH   5   6
ATOM      6  C   UNL     1       8.978  12.927  22.214  1.00  0.00    -0.000 C 
BRANCH   6   7
ATOM      7  C   UNL     1       7.661  13.577  22.670  1.00  0.00    -0.000 C 
BRANCH   7   8
ATOM      8  C   UNL     1       6.579  12.549  23.026  1.00  0.00    -0.003 C 
ATOM      9  C   UNL     1       7.135  11.129  22.990  1.00  0.00     0.004 C 
ENDBRANCH   7   8
ENDBRANCH   6   7
ENDBRANCH   5   6
ENDBRANCH   4   5
ENDBRANCH   3   4
ENDBRANCH   2   3
ENDBRANCH   1   2
BRANCH   1  10
ATOM     10  C   UNL     1      12.464  17.314  25.551  1.00  0.00     0.000 C 
BRANCH  10  11
ATOM     11  C   UNL     1      13.276  18.487  24.971  1.00  0.00     0.000 C 
BRANCH  11  12
ATOM     12  C   UNL     1      14.421  18.025  24.054  1.00  0.00     0.000 C 
BRANCH  12  13
ATOM     13  C   UNL     1      14.367  18.682  22.665  1.00  0.00     0.000 C 
BRANCH  13  14
ATOM     14  C   UNL     1      12.962  18.645  22.045  1.00  0.00     0.002 C 
BRANCH  14  15
ATOM     15  C   UNL     1      12.982  17.934  20.685  1.00  0.00     0.028 C 
BRANCH  15  16
ATOM     16  C   UNL     1      13.979  16.773  20.660  1.00  0.00     0.156 C 
BRANCH  16  17
ATOM     17  O   UNL     1      13.365  15.582  21.075  1.00  0.00    -0.396 OA
ATOM     18  H   UNL     1      13.548  15.487  22.046  1.00  0.00     0.210 HD
ENDBRANCH  16  17
ENDBRANCH  15  16
ENDBRANCH  14  15
ENDBRANCH  13  14
ENDBRANCH  12  13
ENDBRANCH  11  12
ENDBRANCH  10  11
ENDBRANCH   1  10
TORSDOF 15
ENDMDL
MODEL 7
REMARK VINA RESULT:    -4.565      3.307      7.822
REMARK INTER + INTRA:          -9.280
REMARK INTER:                  -7.961
REMARK INTRA:                  -1.318
REMARK UNBOUND:                -0.845
REMARK SMILES CCCCCCCCCCCCCCCCO
REMARK SMILES IDX 9 1 8 2 7 3 6 4 5 5 4 6 3 7 2 8 1 9 10 10 11 11 12 12 13 13
REMARK SMILES IDX 14 14 15 15 16 16 17 17
REMARK H PARENT 17 18
REMARK Flexibility Score: inf
ROOT
ATOM      1  C   UNL     1      11.364  15.889  24.541  1.00  0.00     0.000 C 
ENDROOT
BRANCH   1   2
ATOM      2  C   UNL     1      12.697  16.324  25.177  1.00  0.00    -0.000 C 
BRANCH   2   3
ATOM      3  C   UNL     1      12.608  17.693  25.867  1.00  0.00    -0.000 C 
BRANCH   3   4
ATOM      4  C   UNL     1      13.266  18.782  25.010  1.00  0.00    -0.000 C 
BRANCH   4   5
ATOM      5  C   UNL     1      14.372  18.193  24.123  1.00  0.00    -0.000 C 
BRANCH   5   6
ATOM      6  C   UNL     1      14.418  18.855  22.729  1.00  0.00    -0.000 C 
BRANCH   6   7
ATOM      7  C   UNL     1      13.444  18.228  21.717  1.00  0.00    -0.000 C 
BRANCH   7   8
ATOM      8  C   UNL     1      13.608  16.708  21.591  1.00  0.00    -0.003 C 
ATOM      9  C   UNL     1      14.341  16.338  20.305  1.00  0.00     0.004 C 
ENDBRANCH   7   8
ENDBRANCH   6   7
ENDBRANCH   5   6
ENDBRANCH   4   5
ENDBRANCH   3   4
ENDBRANCH   2   3
ENDBRANCH   1   2
BRANCH   1  10
ATOM     10  C   UNL     1      11.332  14.440  24.012  1.00  0.00     0.000 C 
BRANCH  10  11
ATOM     11  C   UNL     1      10.787  14.274  22.582  1.00  0.00     0.000 C 
BRANCH  11  12
ATOM     12  C   UNL     1      10.098  12.917  22.360  1.00  0.00     0.000 C 
BRANCH  12  13
ATOM     13  C   UNL     1       8.731  13.054  21.671  1.00  0.00     0.000 C 
BRANCH  13  14
ATOM     14  C   UNL     1       7.763  13.959  22.448  1.00  0.00     0.002 C 
BRANCH  14  15
ATOM     15  C   UNL     1       6.746  13.123  23.237  1.00  0.00     0.028 C 
BRANCH  15  16
ATOM     16  C   UNL     1       6.428  11.798  22.538  1.00  0.00     0.156 C 
BRANCH  16  17
ATOM     17  O   UNL     1       6.656  10.715  23.400  1.00  0.00    -0.396 OA
ATOM     18  H   UNL     1       7.586  10.409  23.238  1.00  0.00     0.210 HD
ENDBRANCH  16  17
ENDBRANCH  15  16
ENDBRANCH  14  15
ENDBRANCH  13  14
ENDBRANCH  12  13
ENDBRANCH  11  12
ENDBRANCH  10  11
ENDBRANCH   1  10
TORSDOF 15
ENDMDL
MODEL 8
REMARK VINA RESULT:    -4.496      3.751      5.632
REMARK INTER + INTRA:          -9.151
REMARK INTER:                  -6.906
REMARK INTRA:                  -2.246
REMARK UNBOUND:                -0.845
REMARK SMILES CCCCCCCCCCCCCCCCO
REMARK SMILES IDX 9 1 8 2 7 3 6 4 5 5 4 6 3 7 2 8 1 9 10 10 11 11 12 12 13 13
REMARK SMILES IDX 14 14 15 15 16 16 17 17
REMARK H PARENT 17 18
REMARK Flexibility Score: inf
ROOT
ATOM      1  C   UNL     1      13.323  17.364  21.766  1.00  0.00     0.000 C 
ENDROOT
BRANCH   1   2
ATOM      2  C   UNL     1      11.807  17.460  21.517  1.00  0.00    -0.000 C 
BRANCH   2   3
ATOM      3  C   UNL     1      10.996  16.510  22.411  1.00  0.00    -0.000 C 
BRANCH   3   4
ATOM      4  C   UNL     1      11.910  15.766  23.392  1.00  0.00    -0.000 C 
BRANCH   4   5
ATOM      5  C   UNL     1      11.561  16.116  24.846  1.00  0.00    -0.000 C 
BRANCH   5   6
ATOM      6  C   UNL     1      12.757  16.732  25.602  1.00  0.00    -0.000 C 
BRANCH   6   7
ATOM      7  C   UNL     1      12.980  18.222  25.294  1.00  0.00    -0.000 C 
BRANCH   7   8
ATOM      8  C   UNL     1      11.672  19.019  25.211  1.00  0.00    -0.003 C 
ATOM      9  C   UNL     1      11.722  20.045  24.083  1.00  0.00     0.004 C 
ENDBRANCH   7   8
ENDBRANCH   6   7
ENDBRANCH   5   6
ENDBRANCH   4   5
ENDBRANCH   3   4
ENDBRANCH   2   3
ENDBRANCH   1   2
BRANCH   1  10
ATOM     10  C   UNL     1      14.209  17.648  20.535  1.00  0.00     0.000 C 
BRANCH  10  11
ATOM     11  C   UNL     1      15.138  18.870  20.663  1.00  0.00     0.000 C 
BRANCH  11  12
ATOM     12  C   UNL     1      14.448  20.078  21.319  1.00  0.00     0.000 C 
BRANCH  12  13
ATOM     13  C   UNL     1      13.695  20.951  20.303  1.00  0.00     0.000 C 
BRANCH  13  14
ATOM     14  C   UNL     1      12.179  20.981  20.553  1.00  0.00     0.002 C 
BRANCH  14  15
ATOM     15  C   UNL     1      11.408  20.569  19.291  1.00  0.00     0.028 C 
BRANCH  15  16
ATOM     16  C   UNL     1      12.344  20.296  18.111  1.00  0.00     0.156 C 
BRANCH  16  17
ATOM     17  O   UNL     1      12.024  19.078  17.494  1.00  0.00    -0.396 OA
ATOM     18  H   UNL     1      11.391  18.607  18.097  1.00  0.00     0.210 HD
ENDBRANCH  16  17
ENDBRANCH  15  16
ENDBRANCH  14  15
ENDBRANCH  13  14
ENDBRANCH  12  13
ENDBRANCH  11  12
ENDBRANCH  10  11
ENDBRANCH   1  10
TORSDOF 15
ENDMDL
MODEL 9
REMARK VINA RESULT:    -4.488      3.470      7.844
REMARK INTER + INTRA:          -9.137
REMARK INTER:                  -7.763
REMARK INTRA:                  -1.374
REMARK UNBOUND:                -0.845
REMARK SMILES CCCCCCCCCCCCCCCCO
REMARK SMILES IDX 9 1 8 2 7 3 6 4 5 5 4 6 3 7 2 8 1 9 10 10 11 11 12 12 13 13
REMARK SMILES IDX 14 14 15 15 16 16 17 17
REMARK H PARENT 17 18
REMARK Flexibility Score: inf
ROOT
ATOM      1  C   UNL     1      11.360  16.393  24.527  1.00  0.00     0.000 C 
ENDROOT
BRANCH   1   2
ATOM      2  C   UNL     1      12.754  16.618  25.142  1.00  0.00    -0.000 C 
BRANCH   2   3
ATOM      3  C   UNL     1      13.207  18.084  25.070  1.00  0.00    -0.000 C 
BRANCH   3   4
ATOM      4  C   UNL     1      14.363  18.253  24.077  1.00  0.00    -0.000 C 
BRANCH   4   5
ATOM      5  C   UNL     1      13.966  19.179  22.919  1.00  0.00    -0.000 C 
BRANCH   5   6
ATOM      6  C   UNL     1      14.022  18.464  21.553  1.00  0.00    -0.000 C 
BRANCH   6   7
ATOM      7  C   UNL     1      12.864  17.479  21.324  1.00  0.00    -0.000 C 
BRANCH   7   8
ATOM      8  C   UNL     1      11.502  18.175  21.198  1.00  0.00    -0.003 C 
ATOM      9  C   UNL     1      11.496  19.166  20.038  1.00  0.00     0.004 C 
ENDBRANCH   7   8
ENDBRANCH   6   7
ENDBRANCH   5   6
ENDBRANCH   4   5
ENDBRANCH   3   4
ENDBRANCH   2   3
ENDBRANCH   1   2
BRANCH   1  10
ATOM     10  C   UNL     1      11.184  15.060  23.772  1.00  0.00     0.000 C 
BRANCH  10  11
ATOM     11  C   UNL     1      10.196  15.099  22.592  1.00  0.00     0.000 C 
BRANCH  11  12
ATOM     12  C   UNL     1      10.026  13.730  21.911  1.00  0.00     0.000 C 
BRANCH  12  13
ATOM     13  C   UNL     1       8.964  12.857  22.598  1.00  0.00     0.000 C 
BRANCH  13  14
ATOM     14  C   UNL     1       7.607  13.566  22.730  1.00  0.00     0.002 C 
BRANCH  14  15
ATOM     15  C   UNL     1       6.479  12.552  22.963  1.00  0.00     0.028 C 
BRANCH  15  16
ATOM     16  C   UNL     1       6.936  11.115  22.694  1.00  0.00     0.156 C 
BRANCH  16  17
ATOM     17  O   UNL     1       6.049  10.195  23.272  1.00  0.00    -0.396 OA
ATOM     18  H   UNL     1       6.600   9.536  23.768  1.00  0.00     0.210 HD
ENDBRANCH  16  17
ENDBRANCH  15  16
ENDBRANCH  14  15
ENDBRANCH  13  14
ENDBRANCH  12  13
ENDBRANCH  11  12
ENDBRANCH  10  11
ENDBRANCH   1  10
TORSDOF 15
ENDMDL
