MODEL 1
REMARK VINA RESULT:    -6.172      0.000      0.000
REMARK INTER + INTRA:         -10.130
REMARK INTER:                  -8.697
REMARK INTRA:                  -1.433
REMARK UNBOUND:                -1.433
REMARK SMILES COc1c(O[C@@H]2O[C@@H](C(=O)[O-])[C@H](O)[C@H](O)[C@@H]2O)cc(O)c2c(=O)cc(-c3ccccc3)oc12
REMARK SMILES IDX 5 1 6 2 8 3 12 4 7 5 14 6 16 7 9 8 10 9 11 10 13 11 15 13
REMARK SMILES IDX 17 15 4 17 3 18 18 19 33 20 19 21 21 22 32 23 22 24 25 25
REMARK SMILES IDX 24 26 23 27 2 28 1 29 20 30 26 32 27 33 31 34 28 35 30 36
REMARK SMILES IDX 29 37
REMARK H PARENT 13 12 15 14 17 16 20 31
REMARK Flexibility Score: inf
ROOT
ATOM      1  O   UNL     1     -14.766  -4.612 -18.513  1.00  0.00    -0.458 OA
ENDROOT
BRANCH   1   2
ATOM      2  C   UNL     1     -13.748  -5.339 -17.831  1.00  0.00     0.339 C 
ATOM      3  C   UNL     1     -11.911  -3.939 -18.092  1.00  0.00     0.199 C 
ATOM      4  C   UNL     1     -10.884  -5.051 -18.413  1.00  0.00     0.180 C 
ATOM      5  O   UNL     1     -12.878  -4.424 -17.188  1.00  0.00    -0.328 OA
ATOM      6  C   UNL     1     -11.543  -6.446 -18.400  1.00  0.00     0.181 C 
ATOM      7  C   UNL     1     -13.036  -6.343 -18.778  1.00  0.00     0.214 C 
BRANCH   3   8
ATOM      8  C   UNL     1     -11.229  -2.748 -17.493  1.00  0.00     0.073 C 
ATOM      9  O   UNL     1     -10.594  -1.930 -18.180  1.00  0.00    -0.547 OA
ATOM     10  O   UNL     1     -10.517  -1.885 -18.337  1.00  0.00    -0.547 OA
ENDBRANCH   3   8
BRANCH   4  11
ATOM     11  O   UNL     1     -10.216  -4.781 -19.629  1.00  0.00    -0.387 OA
ATOM     12  H   UNL     1      -9.395  -4.270 -19.418  1.00  0.00     0.211 HD
ENDBRANCH   4  11
BRANCH   6  13
ATOM     13  O   UNL     1     -10.864  -7.332 -19.263  1.00  0.00    -0.387 OA
ATOM     14  H   UNL     1     -10.685  -6.820 -20.107  1.00  0.00     0.211 HD
ENDBRANCH   6  13
BRANCH   7  15
ATOM     15  O   UNL     1     -13.187  -5.958 -20.127  1.00  0.00    -0.384 OA
ATOM     16  H   UNL     1     -12.625  -6.579 -20.667  1.00  0.00     0.211 HD
ENDBRANCH   7  15
ENDBRANCH   1   2
BRANCH   1  17
ATOM     17  C   UNL     1     -15.892  -4.002 -17.924  1.00  0.00     0.172 A 
ATOM     18  C   UNL     1     -16.147  -2.635 -17.981  1.00  0.00     0.205 A 
ATOM     19  C   UNL     1     -16.712  -4.811 -17.147  1.00  0.00     0.097 A 
ATOM     20  C   UNL     1     -16.951  -2.040 -17.009  1.00  0.00     0.188 A 
ATOM     21  C   UNL     1     -17.492  -4.250 -16.121  1.00  0.00     0.134 A 
ATOM     22  C   UNL     1     -17.618  -2.837 -16.031  1.00  0.00     0.111 A 
ATOM     23  O   UNL     1     -17.018  -0.711 -16.955  1.00  0.00    -0.452 OA
ATOM     24  C   UNL     1     -18.370  -2.143 -15.035  1.00  0.00     0.197 A 
ATOM     25  C   UNL     1     -17.624  -0.050 -15.971  1.00  0.00     0.138 A 
ATOM     26  C   UNL     1     -18.343  -0.738 -14.999  1.00  0.00     0.100 A 
ATOM     27  O   UNL     1     -19.068  -2.764 -14.181  1.00  0.00    -0.289 OA
BRANCH  18  28
ATOM     28  O   UNL     1     -15.560  -1.846 -18.980  1.00  0.00    -0.490 OA
ATOM     29  C   UNL     1     -14.321  -1.165 -18.808  1.00  0.00     0.278 C 
ENDBRANCH  18  28
BRANCH  21  30
ATOM     30  O   UNL     1     -18.015  -5.145 -15.183  1.00  0.00    -0.507 OA
ATOM     31  H   UNL     1     -18.133  -6.132 -15.278  1.00  0.00     0.293 HD
ENDBRANCH  21  30
BRANCH  25  32
ATOM     32  C   UNL     1     -17.329   1.388 -15.831  1.00  0.00     0.017 A 
ATOM     33  C   UNL     1     -16.883   2.093 -16.967  1.00  0.00     0.012 A 
ATOM     34  C   UNL     1     -17.807   2.111 -14.727  1.00  0.00     0.012 A 
ATOM     35  C   UNL     1     -16.997   3.482 -17.037  1.00  0.00     0.001 A 
ATOM     36  C   UNL     1     -17.877   3.514 -14.777  1.00  0.00     0.001 A 
ATOM     37  C   UNL     1     -17.461   4.194 -15.921  1.00  0.00     0.000 A 
ENDBRANCH  25  32
ENDBRANCH   1  17
TORSDOF 9
ENDMDL
MODEL 2
REMARK VINA RESULT:    -6.047      2.825      7.284
REMARK INTER + INTRA:          -9.955
REMARK INTER:                  -8.671
REMARK INTRA:                  -1.284
REMARK UNBOUND:                -1.433
REMARK SMILES COc1c(O[C@@H]2O[C@@H](C(=O)[O-])[C@H](O)[C@H](O)[C@@H]2O)cc(O)c2c(=O)cc(-c3ccccc3)oc12
REMARK SMILES IDX 5 1 6 2 8 3 12 4 7 5 14 6 16 7 9 8 10 9 11 10 13 11 15 13
REMARK SMILES IDX 17 15 4 17 3 18 18 19 33 20 19 21 21 22 32 23 22 24 25 25
REMARK SMILES IDX 24 26 23 27 2 28 1 29 20 30 26 32 27 33 31 34 28 35 30 36
REMARK SMILES IDX 29 37
REMARK H PARENT 13 12 15 14 17 16 20 31
REMARK Flexibility Score: inf
ROOT
ATOM      1  O   UNL     1     -14.228  -5.806 -17.436  1.00  0.00    -0.458 OA
ENDROOT
BRANCH   1   2
ATOM      2  C   UNL     1     -15.538  -5.667 -17.981  1.00  0.00     0.339 C 
ATOM      3  C   UNL     1     -16.335  -3.812 -16.830  1.00  0.00     0.199 C 
ATOM      4  C   UNL     1     -17.755  -4.365 -16.561  1.00  0.00     0.180 C 
ATOM      5  O   UNL     1     -15.859  -4.289 -18.068  1.00  0.00    -0.328 OA
ATOM      6  C   UNL     1     -17.929  -5.780 -17.153  1.00  0.00     0.181 C 
ATOM      7  C   UNL     1     -16.573  -6.518 -17.197  1.00  0.00     0.214 C 
BRANCH   3   8
ATOM      8  C   UNL     1     -16.348  -2.315 -16.851  1.00  0.00     0.073 C 
ATOM      9  O   UNL     1     -16.795  -1.641 -15.907  1.00  0.00    -0.547 OA
ATOM     10  O   UNL     1     -16.888  -1.631 -15.753  1.00  0.00    -0.547 OA
ENDBRANCH   3   8
BRANCH   4  11
ATOM     11  O   UNL     1     -18.059  -4.317 -15.182  1.00  0.00    -0.387 OA
ATOM     12  H   UNL     1     -17.361  -4.826 -14.698  1.00  0.00     0.211 HD
ENDBRANCH   4  11
BRANCH   6  13
ATOM     13  O   UNL     1     -18.881  -6.519 -16.421  1.00  0.00    -0.387 OA
ATOM     14  H   UNL     1     -19.777  -6.285 -16.807  1.00  0.00     0.211 HD
ENDBRANCH   6  13
BRANCH   7  15
ATOM     15  O   UNL     1     -16.112  -6.798 -15.893  1.00  0.00    -0.384 OA
ATOM     16  H   UNL     1     -15.773  -7.735 -15.903  1.00  0.00     0.211 HD
ENDBRANCH   7  15
ENDBRANCH   1   2
BRANCH   1  17
ATOM     17  C   UNL     1     -13.015  -5.577 -18.115  1.00  0.00     0.172 A 
ATOM     18  C   UNL     1     -12.267  -4.410 -17.985  1.00  0.00     0.205 A 
ATOM     19  C   UNL     1     -12.627  -6.528 -19.050  1.00  0.00     0.097 A 
ATOM     20  C   UNL     1     -11.391  -4.034 -19.003  1.00  0.00     0.188 A 
ATOM     21  C   UNL     1     -11.790  -6.168 -20.121  1.00  0.00     0.134 A 
ATOM     22  C   UNL     1     -11.157  -4.895 -20.117  1.00  0.00     0.111 A 
ATOM     23  O   UNL     1     -10.842  -2.821 -18.962  1.00  0.00    -0.452 OA
ATOM     24  C   UNL     1     -10.295  -4.405 -21.144  1.00  0.00     0.197 A 
ATOM     25  C   UNL     1     -10.124  -2.311 -19.962  1.00  0.00     0.138 A 
ATOM     26  C   UNL     1      -9.802  -3.091 -21.067  1.00  0.00     0.100 A 
ATOM     27  O   UNL     1      -9.957  -5.130 -22.125  1.00  0.00    -0.289 OA
BRANCH  18  28
ATOM     28  O   UNL     1     -12.428  -3.587 -16.862  1.00  0.00    -0.490 OA
ATOM     29  C   UNL     1     -11.472  -3.508 -15.809  1.00  0.00     0.278 C 
ENDBRANCH  18  28
BRANCH  21  30
ATOM     30  O   UNL     1     -11.722  -7.073 -21.184  1.00  0.00    -0.507 OA
ATOM     31  H   UNL     1     -11.660  -8.069 -21.137  1.00  0.00     0.293 HD
ENDBRANCH  21  30
BRANCH  25  32
ATOM     32  C   UNL     1      -9.876  -0.857 -19.951  1.00  0.00     0.017 A 
ATOM     33  C   UNL     1      -9.071  -0.308 -20.969  1.00  0.00     0.012 A 
ATOM     34  C   UNL     1     -10.685  -0.000 -19.188  1.00  0.00     0.012 A 
ATOM     35  C   UNL     1      -9.140   1.051 -21.280  1.00  0.00     0.001 A 
ATOM     36  C   UNL     1     -10.719   1.376 -19.468  1.00  0.00     0.001 A 
ATOM     37  C   UNL     1      -9.940   1.899 -20.500  1.00  0.00     0.000 A 
ENDBRANCH  25  32
ENDBRANCH   1  17
TORSDOF 9
ENDMDL
MODEL 3
REMARK VINA RESULT:    -5.921      1.529      2.913
REMARK INTER + INTRA:          -9.777
REMARK INTER:                  -8.875
REMARK INTRA:                  -0.902
REMARK UNBOUND:                -1.433
REMARK SMILES COc1c(O[C@@H]2O[C@@H](C(=O)[O-])[C@H](O)[C@H](O)[C@@H]2O)cc(O)c2c(=O)cc(-c3ccccc3)oc12
REMARK SMILES IDX 5 1 6 2 8 3 12 4 7 5 14 6 16 7 9 8 10 9 11 10 13 11 15 13
REMARK SMILES IDX 17 15 4 17 3 18 18 19 33 20 19 21 21 22 32 23 22 24 25 25
REMARK SMILES IDX 24 26 23 27 2 28 1 29 20 30 26 32 27 33 31 34 28 35 30 36
REMARK SMILES IDX 29 37
REMARK H PARENT 13 12 15 14 17 16 20 31
REMARK Flexibility Score: inf
ROOT
ATOM      1  O   UNL     1     -13.512  -4.735 -18.183  1.00  0.00    -0.458 OA
ENDROOT
BRANCH   1   2
ATOM      2  C   UNL     1     -13.018  -5.123 -19.462  1.00  0.00     0.339 C 
ATOM      3  C   UNL     1     -13.074  -7.441 -19.308  1.00  0.00     0.199 C 
ATOM      4  C   UNL     1     -11.703  -7.697 -19.980  1.00  0.00     0.180 C 
ATOM      5  O   UNL     1     -13.683  -6.304 -19.876  1.00  0.00    -0.328 OA
ATOM      6  C   UNL     1     -11.024  -6.375 -20.394  1.00  0.00     0.181 C 
ATOM      7  C   UNL     1     -11.468  -5.225 -19.466  1.00  0.00     0.214 C 
BRANCH   3   8
ATOM      8  C   UNL     1     -13.976  -8.623 -19.484  1.00  0.00     0.073 C 
ATOM      9  O   UNL     1     -14.623  -9.112 -18.541  1.00  0.00    -0.547 OA
ATOM     10  O   UNL     1     -14.654  -9.124 -18.364  1.00  0.00    -0.547 OA
ENDBRANCH   3   8
BRANCH   4  11
ATOM     11  O   UNL     1     -10.878  -8.490 -19.150  1.00  0.00    -0.387 OA
ATOM     12  H   UNL     1     -10.150  -7.915 -18.805  1.00  0.00     0.211 HD
ENDBRANCH   4  11
BRANCH   6  13
ATOM     13  O   UNL     1      -9.620  -6.509 -20.394  1.00  0.00    -0.387 OA
ATOM     14  H   UNL     1      -9.392  -7.093 -21.177  1.00  0.00     0.211 HD
ENDBRANCH   6  13
BRANCH   7  15
ATOM     15  O   UNL     1     -10.973  -5.414 -18.159  1.00  0.00    -0.384 OA
ATOM     16  H   UNL     1     -11.180  -6.355 -17.906  1.00  0.00     0.211 HD
ENDBRANCH   7  15
ENDBRANCH   1   2
BRANCH   1  17
ATOM     17  C   UNL     1     -14.775  -4.171 -17.914  1.00  0.00     0.172 A 
ATOM     18  C   UNL     1     -15.079  -2.827 -18.114  1.00  0.00     0.205 A 
ATOM     19  C   UNL     1     -15.715  -4.992 -17.303  1.00  0.00     0.097 A 
ATOM     20  C   UNL     1     -16.120  -2.239 -17.397  1.00  0.00     0.188 A 
ATOM     21  C   UNL     1     -16.744  -4.434 -16.526  1.00  0.00     0.134 A 
ATOM     22  C   UNL     1     -16.960  -3.029 -16.555  1.00  0.00     0.111 A 
ATOM     23  O   UNL     1     -16.265  -0.916 -17.442  1.00  0.00    -0.452 OA
ATOM     24  C   UNL     1     -17.962  -2.338 -15.809  1.00  0.00     0.197 A 
ATOM     25  C   UNL     1     -17.122  -0.249 -16.671  1.00  0.00     0.138 A 
ATOM     26  C   UNL     1     -18.016  -0.934 -15.855  1.00  0.00     0.100 A 
ATOM     27  O   UNL     1     -18.811  -2.960 -15.106  1.00  0.00    -0.289 OA
BRANCH  18  28
ATOM     28  O   UNL     1     -14.311  -2.051 -18.994  1.00  0.00    -0.490 OA
ATOM     29  C   UNL     1     -12.949  -1.714 -18.751  1.00  0.00     0.278 C 
ENDBRANCH  18  28
BRANCH  21  30
ATOM     30  O   UNL     1     -17.430  -5.314 -15.684  1.00  0.00    -0.507 OA
ATOM     31  H   UNL     1     -17.073  -6.127 -15.227  1.00  0.00     0.293 HD
ENDBRANCH  21  30
BRANCH  25  32
ATOM     32  C   UNL     1     -16.942   1.211 -16.556  1.00  0.00     0.017 A 
ATOM     33  C   UNL     1     -16.348   1.899 -17.633  1.00  0.00     0.012 A 
ATOM     34  C   UNL     1     -17.647   1.943 -15.587  1.00  0.00     0.012 A 
ATOM     35  C   UNL     1     -16.531   3.274 -17.790  1.00  0.00     0.001 A 
ATOM     36  C   UNL     1     -17.791   3.334 -15.718  1.00  0.00     0.001 A 
ATOM     37  C   UNL     1     -17.223   3.995 -16.807  1.00  0.00     0.000 A 
ENDBRANCH  25  32
ENDBRANCH   1  17
TORSDOF 9
ENDMDL
MODEL 4
REMARK VINA RESULT:    -5.727      1.720      2.985
REMARK INTER + INTRA:          -9.503
REMARK INTER:                  -8.459
REMARK INTRA:                  -1.045
REMARK UNBOUND:                -1.433
REMARK SMILES COc1c(O[C@@H]2O[C@@H](C(=O)[O-])[C@H](O)[C@H](O)[C@@H]2O)cc(O)c2c(=O)cc(-c3ccccc3)oc12
REMARK SMILES IDX 5 1 6 2 8 3 12 4 7 5 14 6 16 7 9 8 10 9 11 10 13 11 15 13
REMARK SMILES IDX 17 15 4 17 3 18 18 19 33 20 19 21 21 22 32 23 22 24 25 25
REMARK SMILES IDX 24 26 23 27 2 28 1 29 20 30 26 32 27 33 31 34 28 35 30 36
REMARK SMILES IDX 29 37
REMARK H PARENT 13 12 15 14 17 16 20 31
REMARK Flexibility Score: inf
ROOT
ATOM      1  O   UNL     1     -12.652  -4.284 -18.438  1.00  0.00    -0.458 OA
ENDROOT
BRANCH   1   2
ATOM      2  C   UNL     1     -11.737  -4.283 -19.530  1.00  0.00     0.339 C 
ATOM      3  C   UNL     1     -12.642  -5.924 -20.906  1.00  0.00     0.199 C 
ATOM      4  C   UNL     1     -11.301  -6.599 -21.282  1.00  0.00     0.180 C 
ATOM      5  O   UNL     1     -12.449  -4.539 -20.730  1.00  0.00    -0.328 OA
ATOM      6  C   UNL     1     -10.106  -5.896 -20.604  1.00  0.00     0.181 C 
ATOM      7  C   UNL     1     -10.545  -5.245 -19.275  1.00  0.00     0.214 C 
BRANCH   3   8
ATOM      8  C   UNL     1     -13.663  -6.146 -21.978  1.00  0.00     0.073 C 
ATOM      9  O   UNL     1     -14.849  -6.416 -21.721  1.00  0.00    -0.547 OA
ATOM     10  O   UNL     1     -14.974  -6.466 -21.602  1.00  0.00    -0.547 OA
ENDBRANCH   3   8
BRANCH   4  11
ATOM     11  O   UNL     1     -11.341  -7.984 -21.000  1.00  0.00    -0.387 OA
ATOM     12  H   UNL     1     -12.107  -8.149 -20.394  1.00  0.00     0.211 HD
ENDBRANCH   4  11
BRANCH   6  13
ATOM     13  O   UNL     1      -9.042  -6.797 -20.397  1.00  0.00    -0.387 OA
ATOM     14  H   UNL     1      -9.056  -7.030 -19.421  1.00  0.00     0.211 HD
ENDBRANCH   6  13
BRANCH   7  15
ATOM     15  O   UNL     1     -10.886  -6.229 -18.323  1.00  0.00    -0.384 OA
ATOM     16  H   UNL     1     -10.071  -6.782 -18.176  1.00  0.00     0.211 HD
ENDBRANCH   7  15
ENDBRANCH   1   2
BRANCH   1  17
ATOM     17  C   UNL     1     -13.985  -3.828 -18.466  1.00  0.00     0.172 A 
ATOM     18  C   UNL     1     -14.344  -2.487 -18.356  1.00  0.00     0.205 A 
ATOM     19  C   UNL     1     -14.982  -4.795 -18.483  1.00  0.00     0.097 A 
ATOM     20  C   UNL     1     -15.617  -2.147 -17.902  1.00  0.00     0.188 A 
ATOM     21  C   UNL     1     -16.261  -4.502 -17.980  1.00  0.00     0.134 A 
ATOM     22  C   UNL     1     -16.600  -3.156 -17.670  1.00  0.00     0.111 A 
ATOM     23  O   UNL     1     -15.876  -0.875 -17.604  1.00  0.00    -0.452 OA
ATOM     24  C   UNL     1     -17.857  -2.728 -17.145  1.00  0.00     0.197 A 
ATOM     25  C   UNL     1     -17.002  -0.477 -17.015  1.00  0.00     0.138 A 
ATOM     26  C   UNL     1     -18.038  -1.379 -16.794  1.00  0.00     0.100 A 
ATOM     27  O   UNL     1     -18.819  -3.535 -16.992  1.00  0.00    -0.289 OA
BRANCH  18  28
ATOM     28  O   UNL     1     -13.415  -1.479 -18.650  1.00  0.00    -0.490 OA
ATOM     29  C   UNL     1     -12.993  -1.169 -19.975  1.00  0.00     0.278 C 
ENDBRANCH  18  28
BRANCH  21  30
ATOM     30  O   UNL     1     -17.090  -5.598 -17.721  1.00  0.00    -0.507 OA
ATOM     31  H   UNL     1     -16.934  -6.344 -17.077  1.00  0.00     0.293 HD
ENDBRANCH  21  30
BRANCH  25  32
ATOM     32  C   UNL     1     -17.022   0.874 -16.423  1.00  0.00     0.017 A 
ATOM     33  C   UNL     1     -16.683   1.969 -17.244  1.00  0.00     0.012 A 
ATOM     34  C   UNL     1     -17.691   1.113 -15.213  1.00  0.00     0.012 A 
ATOM     35  C   UNL     1     -17.082   3.264 -16.908  1.00  0.00     0.001 A 
ATOM     36  C   UNL     1     -18.051   2.422 -14.850  1.00  0.00     0.001 A 
ATOM     37  C   UNL     1     -17.735   3.491 -15.688  1.00  0.00     0.000 A 
ENDBRANCH  25  32
ENDBRANCH   1  17
TORSDOF 9
ENDMDL
MODEL 5
REMARK VINA RESULT:    -5.724      2.475      8.942
REMARK INTER + INTRA:          -9.499
REMARK INTER:                  -8.366
REMARK INTRA:                  -1.133
REMARK UNBOUND:                -1.433
REMARK SMILES COc1c(O[C@@H]2O[C@@H](C(=O)[O-])[C@H](O)[C@H](O)[C@@H]2O)cc(O)c2c(=O)cc(-c3ccccc3)oc12
REMARK SMILES IDX 5 1 6 2 8 3 12 4 7 5 14 6 16 7 9 8 10 9 11 10 13 11 15 13
REMARK SMILES IDX 17 15 4 17 3 18 18 19 33 20 19 21 21 22 32 23 22 24 25 25
REMARK SMILES IDX 24 26 23 27 2 28 1 29 20 30 26 32 27 33 31 34 28 35 30 36
REMARK SMILES IDX 29 37
REMARK H PARENT 13 12 15 14 17 16 20 31
REMARK Flexibility Score: inf
ROOT
ATOM      1  O   UNL     1     -15.034  -3.422 -17.349  1.00  0.00    -0.458 OA
ENDROOT
BRANCH   1   2
ATOM      2  C   UNL     1     -16.453  -3.301 -17.397  1.00  0.00     0.339 C 
ATOM      3  C   UNL     1     -16.738  -1.001 -17.214  1.00  0.00     0.199 C 
ATOM      4  C   UNL     1     -17.928  -1.048 -16.226  1.00  0.00     0.180 C 
ATOM      5  O   UNL     1     -16.792  -2.108 -18.084  1.00  0.00    -0.328 OA
ATOM      6  C   UNL     1     -18.313  -2.501 -15.876  1.00  0.00     0.181 C 
ATOM      7  C   UNL     1     -17.083  -3.427 -15.983  1.00  0.00     0.214 C 
BRANCH   3   8
ATOM      8  C   UNL     1     -16.770   0.261 -18.018  1.00  0.00     0.073 C 
ATOM      9  O   UNL     1     -15.828   1.071 -18.022  1.00  0.00    -0.547 OA
ATOM     10  O   UNL     1     -15.673   1.130 -17.950  1.00  0.00    -0.547 OA
ENDBRANCH   3   8
BRANCH   4  11
ATOM     11  O   UNL     1     -17.657  -0.270 -15.077  1.00  0.00    -0.387 OA
ATOM     12  H   UNL     1     -16.771  -0.543 -14.727  1.00  0.00     0.211 HD
ENDBRANCH   4  11
BRANCH   6  13
ATOM     13  O   UNL     1     -18.888  -2.574 -14.591  1.00  0.00    -0.387 OA
ATOM     14  H   UNL     1     -19.612  -1.879 -14.565  1.00  0.00     0.211 HD
ENDBRANCH   6  13
BRANCH   7  15
ATOM     15  O   UNL     1     -16.137  -3.123 -14.981  1.00  0.00    -0.384 OA
ATOM     16  H   UNL     1     -15.239  -3.334 -15.360  1.00  0.00     0.211 HD
ENDBRANCH   7  15
ENDBRANCH   1   2
BRANCH   1  17
ATOM     17  C   UNL     1     -14.146  -3.259 -18.431  1.00  0.00     0.172 A 
ATOM     18  C   UNL     1     -13.745  -4.300 -19.264  1.00  0.00     0.205 A 
ATOM     19  C   UNL     1     -13.559  -2.009 -18.582  1.00  0.00     0.097 A 
ATOM     20  C   UNL     1     -12.543  -4.203 -19.963  1.00  0.00     0.188 A 
ATOM     21  C   UNL     1     -12.319  -1.883 -19.232  1.00  0.00     0.134 A 
ATOM     22  C   UNL     1     -11.781  -2.996 -19.935  1.00  0.00     0.111 A 
ATOM     23  O   UNL     1     -12.073  -5.282 -20.587  1.00  0.00    -0.452 OA
ATOM     24  C   UNL     1     -10.532  -3.002 -20.627  1.00  0.00     0.197 A 
ATOM     25  C   UNL     1     -10.863  -5.334 -21.143  1.00  0.00     0.138 A 
ATOM     26  C   UNL     1     -10.068  -4.195 -21.208  1.00  0.00     0.100 A 
ATOM     27  O   UNL     1      -9.830  -1.955 -20.734  1.00  0.00    -0.289 OA
BRANCH  18  28
ATOM     28  O   UNL     1     -14.518  -5.465 -19.362  1.00  0.00    -0.490 OA
ATOM     29  C   UNL     1     -14.364  -6.581 -18.490  1.00  0.00     0.278 C 
ENDBRANCH  18  28
BRANCH  21  30
ATOM     30  O   UNL     1     -11.644  -0.673 -19.048  1.00  0.00    -0.507 OA
ATOM     31  H   UNL     1     -11.394  -0.237 -18.185  1.00  0.00     0.293 HD
ENDBRANCH  21  30
BRANCH  25  32
ATOM     32  C   UNL     1     -10.326  -6.665 -21.481  1.00  0.00     0.017 A 
ATOM     33  C   UNL     1      -8.986  -6.757 -21.909  1.00  0.00     0.012 A 
ATOM     34  C   UNL     1     -10.985  -7.830 -21.059  1.00  0.00     0.012 A 
ATOM     35  C   UNL     1      -8.292  -7.965 -21.831  1.00  0.00     0.001 A 
ATOM     36  C   UNL     1     -10.302  -9.058 -21.026  1.00  0.00     0.001 A 
ATOM     37  C   UNL     1      -8.967  -9.125 -21.423  1.00  0.00     0.000 A 
ENDBRANCH  25  32
ENDBRANCH   1  17
TORSDOF 9
ENDMDL
MODEL 6
REMARK VINA RESULT:    -5.670      2.350      8.429
REMARK INTER + INTRA:          -9.424
REMARK INTER:                  -8.210
REMARK INTRA:                  -1.214
REMARK UNBOUND:                -1.433
REMARK SMILES COc1c(O[C@@H]2O[C@@H](C(=O)[O-])[C@H](O)[C@H](O)[C@@H]2O)cc(O)c2c(=O)cc(-c3ccccc3)oc12
REMARK SMILES IDX 5 1 6 2 8 3 12 4 7 5 14 6 16 7 9 8 10 9 11 10 13 11 15 13
REMARK SMILES IDX 17 15 4 17 3 18 18 19 33 20 19 21 21 22 32 23 22 24 25 25
REMARK SMILES IDX 24 26 23 27 2 28 1 29 20 30 26 32 27 33 31 34 28 35 30 36
REMARK SMILES IDX 29 37
REMARK H PARENT 13 12 15 14 17 16 20 31
REMARK Flexibility Score: inf
ROOT
ATOM      1  O   UNL     1     -15.114  -3.172 -16.941  1.00  0.00    -0.458 OA
ENDROOT
BRANCH   1   2
ATOM      2  C   UNL     1     -16.528  -3.010 -17.015  1.00  0.00     0.339 C 
ATOM      3  C   UNL     1     -16.740  -0.695 -17.025  1.00  0.00     0.199 C 
ATOM      4  C   UNL     1     -17.939  -0.622 -16.050  1.00  0.00     0.180 C 
ATOM      5  O   UNL     1     -16.823  -1.868 -17.802  1.00  0.00    -0.328 OA
ATOM      6  C   UNL     1     -18.374  -2.029 -15.586  1.00  0.00     0.181 C 
ATOM      7  C   UNL     1     -17.173  -2.999 -15.602  1.00  0.00     0.214 C 
BRANCH   3   8
ATOM      8  C   UNL     1     -16.724   0.496 -17.931  1.00  0.00     0.073 C 
ATOM      9  O   UNL     1     -16.410   1.631 -17.532  1.00  0.00    -0.547 OA
ATOM     10  O   UNL     1     -16.377   1.744 -17.396  1.00  0.00    -0.547 OA
ENDBRANCH   3   8
BRANCH   4  11
ATOM     11  O   UNL     1     -17.653   0.238 -14.966  1.00  0.00    -0.387 OA
ATOM     12  H   UNL     1     -17.073   0.967 -15.301  1.00  0.00     0.211 HD
ENDBRANCH   4  11
BRANCH   6  13
ATOM     13  O   UNL     1     -18.962  -1.977 -14.305  1.00  0.00    -0.387 OA
ATOM     14  H   UNL     1     -19.311  -2.899 -14.118  1.00  0.00     0.211 HD
ENDBRANCH   6  13
BRANCH   7  15
ATOM     15  O   UNL     1     -16.227  -2.643 -14.619  1.00  0.00    -0.384 OA
ATOM     16  H   UNL     1     -15.327  -2.826 -15.006  1.00  0.00     0.211 HD
ENDBRANCH   7  15
ENDBRANCH   1   2
BRANCH   1  17
ATOM     17  C   UNL     1     -14.394  -4.348 -17.229  1.00  0.00     0.172 A 
ATOM     18  C   UNL     1     -13.113  -4.354 -17.775  1.00  0.00     0.205 A 
ATOM     19  C   UNL     1     -15.064  -5.554 -17.063  1.00  0.00     0.097 A 
ATOM     20  C   UNL     1     -12.666  -5.473 -18.477  1.00  0.00     0.188 A 
ATOM     21  C   UNL     1     -14.674  -6.687 -17.798  1.00  0.00     0.134 A 
ATOM     22  C   UNL     1     -13.458  -6.660 -18.533  1.00  0.00     0.111 A 
ATOM     23  O   UNL     1     -11.530  -5.388 -19.167  1.00  0.00    -0.452 OA
ATOM     24  C   UNL     1     -12.955  -7.737 -19.325  1.00  0.00     0.197 A 
ATOM     25  C   UNL     1     -11.105  -6.342 -19.994  1.00  0.00     0.138 A 
ATOM     26  C   UNL     1     -11.782  -7.554 -20.078  1.00  0.00     0.100 A 
ATOM     27  O   UNL     1     -13.539  -8.858 -19.363  1.00  0.00    -0.289 OA
BRANCH  18  28
ATOM     28  O   UNL     1     -12.292  -3.224 -17.668  1.00  0.00    -0.490 OA
ATOM     29  C   UNL     1     -11.373  -3.025 -16.597  1.00  0.00     0.278 C 
ENDBRANCH  18  28
BRANCH  21  30
ATOM     30  O   UNL     1     -15.588  -7.745 -17.833  1.00  0.00    -0.507 OA
ATOM     31  H   UNL     1     -16.580  -7.700 -17.731  1.00  0.00     0.293 HD
ENDBRANCH  21  30
BRANCH  25  32
ATOM     32  C   UNL     1     -10.042  -5.989 -20.954  1.00  0.00     0.017 A 
ATOM     33  C   UNL     1      -9.830  -4.627 -21.246  1.00  0.00     0.012 A 
ATOM     34  C   UNL     1      -9.047  -6.919 -21.290  1.00  0.00     0.012 A 
ATOM     35  C   UNL     1      -8.616  -4.191 -21.778  1.00  0.00     0.001 A 
ATOM     36  C   UNL     1      -7.842  -6.488 -21.871  1.00  0.00     0.001 A 
ATOM     37  C   UNL     1      -7.636  -5.132 -22.125  1.00  0.00     0.000 A 
ENDBRANCH  25  32
ENDBRANCH   1  17
TORSDOF 9
ENDMDL
MODEL 7
REMARK VINA RESULT:    -5.636      2.795      9.078
REMARK INTER + INTRA:          -9.375
REMARK INTER:                  -8.086
REMARK INTRA:                  -1.289
REMARK UNBOUND:                -1.433
REMARK SMILES COc1c(O[C@@H]2O[C@@H](C(=O)[O-])[C@H](O)[C@H](O)[C@@H]2O)cc(O)c2c(=O)cc(-c3ccccc3)oc12
REMARK SMILES IDX 5 1 6 2 8 3 12 4 7 5 14 6 16 7 9 8 10 9 11 10 13 11 15 13
REMARK SMILES IDX 17 15 4 17 3 18 18 19 33 20 19 21 21 22 32 23 22 24 25 25
REMARK SMILES IDX 24 26 23 27 2 28 1 29 20 30 26 32 27 33 31 34 28 35 30 36
REMARK SMILES IDX 29 37
REMARK H PARENT 13 12 15 14 17 16 20 31
REMARK Flexibility Score: inf
ROOT
ATOM      1  O   UNL     1     -14.617  -4.080 -17.866  1.00  0.00    -0.458 OA
ENDROOT
BRANCH   1   2
ATOM      2  C   UNL     1     -15.997  -4.364 -18.080  1.00  0.00     0.339 C 
ATOM      3  C   UNL     1     -16.952  -3.570 -16.115  1.00  0.00     0.199 C 
ATOM      4  C   UNL     1     -17.928  -4.752 -15.901  1.00  0.00     0.180 C 
ATOM      5  O   UNL     1     -16.777  -3.335 -17.493  1.00  0.00    -0.328 OA
ATOM      6  C   UNL     1     -17.795  -5.802 -17.024  1.00  0.00     0.181 C 
ATOM      7  C   UNL     1     -16.364  -5.796 -17.603  1.00  0.00     0.214 C 
BRANCH   3   8
ATOM      8  C   UNL     1     -17.479  -2.328 -15.467  1.00  0.00     0.073 C 
ATOM      9  O   UNL     1     -17.486  -2.173 -14.233  1.00  0.00    -0.547 OA
ATOM     10  O   UNL     1     -17.468  -2.242 -14.068  1.00  0.00    -0.547 OA
ENDBRANCH   3   8
BRANCH   4  11
ATOM     11  O   UNL     1     -17.761  -5.314 -14.615  1.00  0.00    -0.387 OA
ATOM     12  H   UNL     1     -17.134  -4.738 -14.111  1.00  0.00     0.211 HD
ENDBRANCH   4  11
BRANCH   6  13
ATOM     13  O   UNL     1     -18.144  -7.086 -16.557  1.00  0.00    -0.387 OA
ATOM     14  H   UNL     1     -17.961  -7.087 -15.571  1.00  0.00     0.211 HD
ENDBRANCH   6  13
BRANCH   7  15
ATOM     15  O   UNL     1     -15.435  -6.263 -16.650  1.00  0.00    -0.384 OA
ATOM     16  H   UNL     1     -15.058  -7.113 -17.009  1.00  0.00     0.211 HD
ENDBRANCH   7  15
ENDBRANCH   1   2
BRANCH   1  17
ATOM     17  C   UNL     1     -13.683  -3.696 -18.849  1.00  0.00     0.172 A 
ATOM     18  C   UNL     1     -13.109  -4.582 -19.756  1.00  0.00     0.205 A 
ATOM     19  C   UNL     1     -13.235  -2.381 -18.813  1.00  0.00     0.097 A 
ATOM     20  C   UNL     1     -11.882  -4.274 -20.342  1.00  0.00     0.188 A 
ATOM     21  C   UNL     1     -11.977  -2.047 -19.343  1.00  0.00     0.134 A 
ATOM     22  C   UNL     1     -11.268  -3.005 -20.119  1.00  0.00     0.111 A 
ATOM     23  O   UNL     1     -11.249  -5.215 -21.041  1.00  0.00    -0.452 OA
ATOM     24  C   UNL     1      -9.983  -2.795 -20.705  1.00  0.00     0.197 A 
ATOM     25  C   UNL     1     -10.007  -5.071 -21.500  1.00  0.00     0.138 A 
ATOM     26  C   UNL     1      -9.346  -3.854 -21.375  1.00  0.00     0.100 A 
ATOM     27  O   UNL     1      -9.401  -1.674 -20.639  1.00  0.00    -0.289 OA
BRANCH  18  28
ATOM     28  O   UNL     1     -13.733  -5.804 -20.044  1.00  0.00    -0.490 OA
ATOM     29  C   UNL     1     -14.614  -5.989 -21.148  1.00  0.00     0.278 C 
ENDBRANCH  18  28
BRANCH  21  30
ATOM     30  O   UNL     1     -11.461  -0.802 -18.973  1.00  0.00    -0.507 OA
ATOM     31  H   UNL     1     -11.508   0.056 -19.481  1.00  0.00     0.293 HD
ENDBRANCH  21  30
BRANCH  25  32
ATOM     32  C   UNL     1      -9.297  -6.288 -21.939  1.00  0.00     0.017 A 
ATOM     33  C   UNL     1      -7.888  -6.261 -21.984  1.00  0.00     0.012 A 
ATOM     34  C   UNL     1      -9.954  -7.528 -21.965  1.00  0.00     0.012 A 
ATOM     35  C   UNL     1      -7.150  -7.445 -21.964  1.00  0.00     0.001 A 
ATOM     36  C   UNL     1      -9.213  -8.721 -21.993  1.00  0.00     0.001 A 
ATOM     37  C   UNL     1      -7.819  -8.677 -22.006  1.00  0.00     0.000 A 
ENDBRANCH  25  32
ENDBRANCH   1  17
TORSDOF 9
ENDMDL
MODEL 8
REMARK VINA RESULT:    -5.539      4.112      7.373
REMARK INTER + INTRA:          -9.239
REMARK INTER:                  -8.180
REMARK INTRA:                  -1.059
REMARK UNBOUND:                -1.433
REMARK SMILES COc1c(O[C@@H]2O[C@@H](C(=O)[O-])[C@H](O)[C@H](O)[C@@H]2O)cc(O)c2c(=O)cc(-c3ccccc3)oc12
REMARK SMILES IDX 5 1 6 2 8 3 12 4 7 5 14 6 16 7 9 8 10 9 11 10 13 11 15 13
REMARK SMILES IDX 17 15 4 17 3 18 18 19 33 20 19 21 21 22 32 23 22 24 25 25
REMARK SMILES IDX 24 26 23 27 2 28 1 29 20 30 26 32 27 33 31 34 28 35 30 36
REMARK SMILES IDX 29 37
REMARK H PARENT 13 12 15 14 17 16 20 31
REMARK Flexibility Score: inf
ROOT
ATOM      1  O   UNL     1     -11.240  -2.981 -20.023  1.00  0.00    -0.458 OA
ENDROOT
BRANCH   1   2
ATOM      2  C   UNL     1     -11.526  -1.703 -20.584  1.00  0.00     0.339 C 
ATOM      3  C   UNL     1      -9.393  -0.899 -21.038  1.00  0.00     0.199 C 
ATOM      4  C   UNL     1      -9.637   0.546 -20.540  1.00  0.00     0.180 C 
ATOM      5  O   UNL     1     -10.576  -1.421 -21.598  1.00  0.00    -0.328 OA
ATOM      6  C   UNL     1     -11.081   0.726 -20.024  1.00  0.00     0.181 C 
ATOM      7  C   UNL     1     -11.634  -0.610 -19.486  1.00  0.00     0.214 C 
BRANCH   3   8
ATOM      8  C   UNL     1      -8.307  -0.924 -22.069  1.00  0.00     0.073 C 
ATOM      9  O   UNL     1      -7.216  -1.486 -21.872  1.00  0.00    -0.547 OA
ATOM     10  O   UNL     1      -7.099  -1.563 -21.758  1.00  0.00    -0.547 OA
ENDBRANCH   3   8
BRANCH   4  11
ATOM     11  O   UNL     1      -8.671   0.914 -19.577  1.00  0.00    -0.387 OA
ATOM     12  H   UNL     1      -8.868   0.418 -18.743  1.00  0.00     0.211 HD
ENDBRANCH   4  11
BRANCH   6  13
ATOM     13  O   UNL     1     -11.140   1.731 -19.036  1.00  0.00    -0.387 OA
ATOM     14  H   UNL     1     -11.883   1.471 -18.414  1.00  0.00     0.211 HD
ENDBRANCH   6  13
BRANCH   7  15
ATOM     15  O   UNL     1     -10.950  -1.002 -18.316  1.00  0.00    -0.384 OA
ATOM     16  H   UNL     1     -10.527  -0.182 -17.942  1.00  0.00     0.211 HD
ENDBRANCH   7  15
ENDBRANCH   1   2
BRANCH   1  17
ATOM     17  C   UNL     1     -12.013  -4.150 -20.173  1.00  0.00     0.172 A 
ATOM     18  C   UNL     1     -13.221  -4.365 -19.515  1.00  0.00     0.205 A 
ATOM     19  C   UNL     1     -11.462  -5.177 -20.928  1.00  0.00     0.097 A 
ATOM     20  C   UNL     1     -13.673  -5.668 -19.308  1.00  0.00     0.188 A 
ATOM     21  C   UNL     1     -11.854  -6.508 -20.705  1.00  0.00     0.134 A 
ATOM     22  C   UNL     1     -12.975  -6.778 -19.873  1.00  0.00     0.111 A 
ATOM     23  O   UNL     1     -14.715  -5.867 -18.502  1.00  0.00    -0.452 OA
ATOM     24  C   UNL     1     -13.469  -8.080 -19.560  1.00  0.00     0.197 A 
ATOM     25  C   UNL     1     -15.118  -7.076 -18.115  1.00  0.00     0.138 A 
ATOM     26  C   UNL     1     -14.532  -8.218 -18.651  1.00  0.00     0.100 A 
ATOM     27  O   UNL     1     -12.973  -9.120 -20.085  1.00  0.00    -0.289 OA
BRANCH  18  28
ATOM     28  O   UNL     1     -13.959  -3.283 -19.016  1.00  0.00    -0.490 OA
ATOM     29  C   UNL     1     -13.924  -2.877 -17.651  1.00  0.00     0.278 C 
ENDBRANCH  18  28
BRANCH  21  30
ATOM     30  O   UNL     1     -11.028  -7.496 -21.250  1.00  0.00    -0.507 OA
ATOM     31  H   UNL     1     -10.032  -7.491 -21.318  1.00  0.00     0.293 HD
ENDBRANCH  21  30
BRANCH  25  32
ATOM     32  C   UNL     1     -16.036  -7.153 -16.964  1.00  0.00     0.017 A 
ATOM     33  C   UNL     1     -17.109  -6.240 -16.901  1.00  0.00     0.012 A 
ATOM     34  C   UNL     1     -16.070  -8.298 -16.152  1.00  0.00     0.012 A 
ATOM     35  C   UNL     1     -18.231  -6.509 -16.116  1.00  0.00     0.001 A 
ATOM     36  C   UNL     1     -17.178  -8.546 -15.324  1.00  0.00     0.001 A 
ATOM     37  C   UNL     1     -18.245  -7.648 -15.298  1.00  0.00     0.000 A 
ENDBRANCH  25  32
ENDBRANCH   1  17
TORSDOF 9
ENDMDL
