MODEL 1
REMARK VINA RESULT:    -4.168      0.000      0.000
REMARK INTER + INTRA:          -7.019
REMARK INTER:                  -6.361
REMARK INTRA:                  -0.658
REMARK UNBOUND:                -0.658
REMARK SMILES OC[C@H]1O[C@H](O[C@]2(CO)O[C@H](CO)[C@@H](O)[C@H]2O)[C@@H](O)[C@H](O)[C@@H]1O
REMARK SMILES IDX 6 1 5 2 3 3 22 4 4 5 20 6 18 7 2 8 1 9 23 11 21 13 19 15
REMARK SMILES IDX 7 17 16 18 10 19 14 20 11 21 8 22 9 23 17 25 15 27 12 29
REMARK SMILES IDX 13 30
REMARK H PARENT 1 10 23 12 21 14 19 16 9 24 17 26 15 28 13 31
REMARK Flexibility Score: inf
ROOT
ATOM      1  O   UNL     1      30.002  27.854  22.129  1.00  0.00    -0.313 OA
ENDROOT
BRANCH   1   2
ATOM      2  C   UNL     1      29.959  26.549  22.696  1.00  0.00     0.285 C 
ATOM      3  C   UNL     1      27.683  26.785  23.246  1.00  0.00     0.178 C 
ATOM      4  C   UNL     1      27.231  25.722  22.219  1.00  0.00     0.177 C 
ATOM      5  O   UNL     1      28.987  26.494  23.728  1.00  0.00    -0.341 OA
ATOM      6  C   UNL     1      28.240  25.646  21.060  1.00  0.00     0.179 C 
ATOM      7  C   UNL     1      29.672  25.488  21.612  1.00  0.00     0.202 C 
BRANCH   3   8
ATOM      8  C   UNL     1      26.726  26.821  24.444  1.00  0.00     0.191 C 
BRANCH   8   9
ATOM      9  O   UNL     1      25.683  27.722  24.187  1.00  0.00    -0.394 OA
ATOM     10  H   UNL     1      24.842  27.213  24.319  1.00  0.00     0.210 HD
ENDBRANCH   8   9
ENDBRANCH   3   8
BRANCH   4  11
ATOM     11  O   UNL     1      25.956  26.044  21.724  1.00  0.00    -0.387 OA
ATOM     12  H   UNL     1      26.094  26.544  20.877  1.00  0.00     0.211 HD
ENDBRANCH   4  11
BRANCH   6  13
ATOM     13  O   UNL     1      28.146  26.806  20.271  1.00  0.00    -0.387 OA
ATOM     14  H   UNL     1      28.377  26.541  19.343  1.00  0.00     0.211 HD
ENDBRANCH   6  13
BRANCH   7  15
ATOM     15  O   UNL     1      29.832  24.209  22.170  1.00  0.00    -0.385 OA
ATOM     16  H   UNL     1      30.748  24.174  22.549  1.00  0.00     0.211 HD
ENDBRANCH   7  15
ENDBRANCH   1   2
BRANCH   1  17
ATOM     17  C   UNL     1      30.636  28.836  22.944  1.00  0.00     0.224 C 
ATOM     18  C   UNL     1      30.787  30.177  22.162  1.00  0.00     0.208 C 
ATOM     19  O   UNL     1      29.885  29.080  24.123  1.00  0.00    -0.337 OA
ATOM     20  C   UNL     1      29.956  31.161  22.975  1.00  0.00     0.180 C 
ATOM     21  C   UNL     1      29.868  30.474  24.332  1.00  0.00     0.179 C 
BRANCH  17  22
ATOM     22  C   UNL     1      31.983  28.223  23.385  1.00  0.00     0.225 C 
BRANCH  22  23
ATOM     23  O   UNL     1      32.031  28.097  24.780  1.00  0.00    -0.391 OA
ATOM     24  H   UNL     1      32.581  28.856  25.106  1.00  0.00     0.210 HD
ENDBRANCH  22  23
ENDBRANCH  17  22
BRANCH  18  25
ATOM     25  O   UNL     1      32.125  30.596  22.004  1.00  0.00    -0.385 OA
ATOM     26  H   UNL     1      32.479  30.867  22.891  1.00  0.00     0.211 HD
ENDBRANCH  18  25
BRANCH  20  27
ATOM     27  O   UNL     1      30.560  32.424  23.091  1.00  0.00    -0.387 OA
ATOM     28  H   UNL     1      31.460  32.269  23.482  1.00  0.00     0.211 HD
ENDBRANCH  20  27
BRANCH  21  29
ATOM     29  C   UNL     1      28.618  30.877  25.125  1.00  0.00     0.191 C 
BRANCH  29  30
ATOM     30  O   UNL     1      27.487  30.181  24.670  1.00  0.00    -0.394 OA
ATOM     31  H   UNL     1      26.693  30.727  24.908  1.00  0.00     0.210 HD
ENDBRANCH  29  30
ENDBRANCH  21  29
ENDBRANCH   1  17
TORSDOF 13
ENDMDL
MODEL 2
REMARK VINA RESULT:    -3.571      1.705      5.392
REMARK INTER + INTRA:          -6.108
REMARK INTER:                  -5.734
REMARK INTRA:                  -0.374
REMARK UNBOUND:                -0.658
REMARK SMILES OC[C@H]1O[C@H](O[C@]2(CO)O[C@H](CO)[C@@H](O)[C@H]2O)[C@@H](O)[C@H](O)[C@@H]1O
REMARK SMILES IDX 6 1 5 2 3 3 22 4 4 5 20 6 18 7 2 8 1 9 23 11 21 13 19 15
REMARK SMILES IDX 7 17 16 18 10 19 14 20 11 21 8 22 9 23 17 25 15 27 12 29
REMARK SMILES IDX 13 30
REMARK H PARENT 1 10 23 12 21 14 19 16 9 24 17 26 15 28 13 31
REMARK Flexibility Score: inf
ROOT
ATOM      1  O   UNL     1      28.074  26.617  23.574  1.00  0.00    -0.313 OA
ENDROOT
BRANCH   1   2
ATOM      2  C   UNL     1      28.952  26.465  22.464  1.00  0.00     0.285 C 
ATOM      3  C   UNL     1      30.123  28.427  23.031  1.00  0.00     0.178 C 
ATOM      4  C   UNL     1      31.408  27.659  23.411  1.00  0.00     0.177 C 
ATOM      5  O   UNL     1      29.405  27.735  22.019  1.00  0.00    -0.341 OA
ATOM      6  C   UNL     1      31.055  26.232  23.867  1.00  0.00     0.179 C 
ATOM      7  C   UNL     1      30.143  25.552  22.826  1.00  0.00     0.202 C 
BRANCH   3   8
ATOM      8  C   UNL     1      30.464  29.827  22.504  1.00  0.00     0.191 C 
BRANCH   8   9
ATOM      9  O   UNL     1      31.703  29.795  21.850  1.00  0.00    -0.394 OA
ATOM     10  H   UNL     1      32.322  29.313  22.457  1.00  0.00     0.210 HD
ENDBRANCH   8   9
ENDBRANCH   3   8
BRANCH   4  11
ATOM     11  O   UNL     1      32.087  28.337  24.438  1.00  0.00    -0.387 OA
ATOM     12  H   UNL     1      32.664  29.017  24.002  1.00  0.00     0.211 HD
ENDBRANCH   4  11
BRANCH   6  13
ATOM     13  O   UNL     1      30.417  26.279  25.119  1.00  0.00    -0.387 OA
ATOM     14  H   UNL     1      30.871  26.987  25.646  1.00  0.00     0.211 HD
ENDBRANCH   6  13
BRANCH   7  15
ATOM     15  O   UNL     1      30.874  25.270  21.660  1.00  0.00    -0.385 OA
ATOM     16  H   UNL     1      30.991  24.286  21.625  1.00  0.00     0.211 HD
ENDBRANCH   7  15
ENDBRANCH   1   2
BRANCH   1  17
ATOM     17  C   UNL     1      26.689  26.632  23.237  1.00  0.00     0.224 C 
ATOM     18  C   UNL     1      25.861  25.861  24.311  1.00  0.00     0.208 C 
ATOM     19  O   UNL     1      26.200  27.962  23.158  1.00  0.00    -0.337 OA
ATOM     20  C   UNL     1      24.938  26.927  24.886  1.00  0.00     0.180 C 
ATOM     21  C   UNL     1      24.943  27.989  23.794  1.00  0.00     0.179 C 
BRANCH  17  22
ATOM     22  C   UNL     1      26.584  26.026  21.822  1.00  0.00     0.225 C 
BRANCH  22  23
ATOM     23  O   UNL     1      26.905  24.661  21.848  1.00  0.00    -0.391 OA
ATOM     24  H   UNL     1      26.301  24.224  21.194  1.00  0.00     0.210 HD
ENDBRANCH  22  23
ENDBRANCH  17  22
BRANCH  18  25
ATOM     25  O   UNL     1      25.156  24.752  23.796  1.00  0.00    -0.385 OA
ATOM     26  H   UNL     1      25.758  23.964  23.803  1.00  0.00     0.211 HD
ENDBRANCH  18  25
BRANCH  20  27
ATOM     27  O   UNL     1      23.636  26.456  25.121  1.00  0.00    -0.387 OA
ATOM     28  H   UNL     1      23.656  26.007  26.006  1.00  0.00     0.211 HD
ENDBRANCH  20  27
BRANCH  21  29
ATOM     29  C   UNL     1      24.650  29.397  24.330  1.00  0.00     0.191 C 
BRANCH  29  30
ATOM     30  O   UNL     1      23.707  30.057  23.526  1.00  0.00    -0.394 OA
ATOM     31  H   UNL     1      23.490  29.449  22.772  1.00  0.00     0.210 HD
ENDBRANCH  29  30
ENDBRANCH  21  29
ENDBRANCH   1  17
TORSDOF 13
ENDMDL
MODEL 3
REMARK VINA RESULT:    -3.560      1.577      5.625
REMARK INTER + INTRA:          -6.092
REMARK INTER:                  -5.206
REMARK INTRA:                  -0.885
REMARK UNBOUND:                -0.658
REMARK SMILES OC[C@H]1O[C@H](O[C@]2(CO)O[C@H](CO)[C@@H](O)[C@H]2O)[C@@H](O)[C@H](O)[C@@H]1O
REMARK SMILES IDX 6 1 5 2 3 3 22 4 4 5 20 6 18 7 2 8 1 9 23 11 21 13 19 15
REMARK SMILES IDX 7 17 16 18 10 19 14 20 11 21 8 22 9 23 17 25 15 27 12 29
REMARK SMILES IDX 13 30
REMARK H PARENT 1 10 23 12 21 14 19 16 9 24 17 26 15 28 13 31
REMARK Flexibility Score: inf
ROOT
ATOM      1  O   UNL     1      29.377  28.818  24.022  1.00  0.00    -0.313 OA
ENDROOT
BRANCH   1   2
ATOM      2  C   UNL     1      29.892  29.428  22.843  1.00  0.00     0.285 C 
ATOM      3  C   UNL     1      30.060  31.518  23.912  1.00  0.00     0.178 C 
ATOM      4  C   UNL     1      31.605  31.510  23.884  1.00  0.00     0.177 C 
ATOM      5  O   UNL     1      29.535  30.801  22.804  1.00  0.00    -0.341 OA
ATOM      6  C   UNL     1      32.125  30.061  23.872  1.00  0.00     0.179 C 
ATOM      7  C   UNL     1      31.424  29.255  22.760  1.00  0.00     0.202 C 
BRANCH   3   8
ATOM      8  C   UNL     1      29.525  32.954  23.850  1.00  0.00     0.191 C 
BRANCH   8   9
ATOM      9  O   UNL     1      28.439  33.090  24.725  1.00  0.00    -0.394 OA
ATOM     10  H   UNL     1      28.384  32.238  25.230  1.00  0.00     0.210 HD
ENDBRANCH   8   9
ENDBRANCH   3   8
BRANCH   4  11
ATOM     11  O   UNL     1      32.109  32.191  25.006  1.00  0.00    -0.387 OA
ATOM     12  H   UNL     1      31.414  32.135  25.712  1.00  0.00     0.211 HD
ENDBRANCH   4  11
BRANCH   6  13
ATOM     13  O   UNL     1      31.898  29.465  25.125  1.00  0.00    -0.387 OA
ATOM     14  H   UNL     1      32.667  29.712  25.703  1.00  0.00     0.211 HD
ENDBRANCH   6  13
BRANCH   7  15
ATOM     15  O   UNL     1      31.865  29.692  21.500  1.00  0.00    -0.385 OA
ATOM     16  H   UNL     1      32.229  30.607  21.623  1.00  0.00     0.211 HD
ENDBRANCH   7  15
ENDBRANCH   1   2
BRANCH   1  17
ATOM     17  C   UNL     1      29.081  27.430  23.892  1.00  0.00     0.224 C 
ATOM     18  C   UNL     1      27.538  27.203  23.871  1.00  0.00     0.208 C 
ATOM     19  O   UNL     1      29.633  26.902  22.696  1.00  0.00    -0.337 OA
ATOM     20  C   UNL     1      27.284  26.592  22.500  1.00  0.00     0.180 C 
ATOM     21  C   UNL     1      28.660  26.063  22.116  1.00  0.00     0.179 C 
BRANCH  17  22
ATOM     22  C   UNL     1      29.794  26.728  25.067  1.00  0.00     0.225 C 
BRANCH  22  23
ATOM     23  O   UNL     1      31.183  26.744  24.879  1.00  0.00    -0.391 OA
ATOM     24  H   UNL     1      31.563  27.201  25.674  1.00  0.00     0.210 HD
ENDBRANCH  22  23
ENDBRANCH  17  22
BRANCH  18  25
ATOM     25  O   UNL     1      27.069  26.389  24.924  1.00  0.00    -0.385 OA
ATOM     26  H   UNL     1      26.078  26.368  24.891  1.00  0.00     0.211 HD
ENDBRANCH  18  25
BRANCH  20  27
ATOM     27  O   UNL     1      26.339  25.553  22.529  1.00  0.00    -0.387 OA
ATOM     28  H   UNL     1      26.370  25.121  21.636  1.00  0.00     0.211 HD
ENDBRANCH  20  27
BRANCH  21  29
ATOM     29  C   UNL     1      28.866  25.983  20.598  1.00  0.00     0.191 C 
BRANCH  29  30
ATOM     30  O   UNL     1      27.652  26.152  19.914  1.00  0.00    -0.394 OA
ATOM     31  H   UNL     1      27.636  25.488  19.177  1.00  0.00     0.210 HD
ENDBRANCH  29  30
ENDBRANCH  21  29
ENDBRANCH   1  17
TORSDOF 13
ENDMDL
MODEL 4
REMARK VINA RESULT:    -3.309      1.544      3.173
REMARK INTER + INTRA:          -5.707
REMARK INTER:                  -5.108
REMARK INTRA:                  -0.600
REMARK UNBOUND:                -0.658
REMARK SMILES OC[C@H]1O[C@H](O[C@]2(CO)O[C@H](CO)[C@@H](O)[C@H]2O)[C@@H](O)[C@H](O)[C@@H]1O
REMARK SMILES IDX 6 1 5 2 3 3 22 4 4 5 20 6 18 7 2 8 1 9 23 11 21 13 19 15
REMARK SMILES IDX 7 17 16 18 10 19 14 20 11 21 8 22 9 23 17 25 15 27 12 29
REMARK SMILES IDX 13 30
REMARK H PARENT 1 10 23 12 21 14 19 16 9 24 17 26 15 28 13 31
REMARK Flexibility Score: inf
ROOT
ATOM      1  O   UNL     1      28.485  27.213  24.374  1.00  0.00    -0.313 OA
ENDROOT
BRANCH   1   2
ATOM      2  C   UNL     1      27.533  27.764  23.470  1.00  0.00     0.285 C 
ATOM      3  C   UNL     1      27.369  25.731  22.294  1.00  0.00     0.178 C 
ATOM      4  C   UNL     1      25.916  25.477  22.756  1.00  0.00     0.177 C 
ATOM      5  O   UNL     1      27.631  27.124  22.206  1.00  0.00    -0.341 OA
ATOM      6  C   UNL     1      25.664  26.169  24.108  1.00  0.00     0.179 C 
ATOM      7  C   UNL     1      26.103  27.646  24.038  1.00  0.00     0.202 C 
BRANCH   3   8
ATOM      8  C   UNL     1      27.614  25.109  20.914  1.00  0.00     0.191 C 
BRANCH   8   9
ATOM      9  O   UNL     1      27.618  26.114  19.938  1.00  0.00    -0.394 OA
ATOM     10  H   UNL     1      27.467  25.656  19.071  1.00  0.00     0.210 HD
ENDBRANCH   8   9
ENDBRANCH   3   8
BRANCH   4  11
ATOM     11  O   UNL     1      25.684  24.096  22.875  1.00  0.00    -0.387 OA
ATOM     12  H   UNL     1      25.678  23.726  21.953  1.00  0.00     0.211 HD
ENDBRANCH   4  11
BRANCH   6  13
ATOM     13  O   UNL     1      26.366  25.497  25.124  1.00  0.00    -0.387 OA
ATOM     14  H   UNL     1      25.987  24.581  25.177  1.00  0.00     0.211 HD
ENDBRANCH   6  13
BRANCH   7  15
ATOM     15  O   UNL     1      25.224  28.369  23.216  1.00  0.00    -0.385 OA
ATOM     16  H   UNL     1      25.461  28.152  22.277  1.00  0.00     0.211 HD
ENDBRANCH   7  15
ENDBRANCH   1   2
BRANCH   1  17
ATOM     17  C   UNL     1      29.757  27.857  24.364  1.00  0.00     0.224 C 
ATOM     18  C   UNL     1      30.203  28.156  22.900  1.00  0.00     0.208 C 
ATOM     19  O   UNL     1      29.712  29.080  25.083  1.00  0.00    -0.337 OA
ATOM     20  C   UNL     1      30.299  29.675  22.857  1.00  0.00     0.180 C 
ATOM     21  C   UNL     1      30.423  30.038  24.331  1.00  0.00     0.179 C 
BRANCH  17  22
ATOM     22  C   UNL     1      30.718  26.920  25.125  1.00  0.00     0.225 C 
BRANCH  22  23
ATOM     23  O   UNL     1      30.788  25.670  24.493  1.00  0.00    -0.391 OA
ATOM     24  H   UNL     1      29.854  25.337  24.440  1.00  0.00     0.210 HD
ENDBRANCH  22  23
ENDBRANCH  17  22
BRANCH  18  25
ATOM     25  O   UNL     1      31.410  27.524  22.533  1.00  0.00    -0.385 OA
ATOM     26  H   UNL     1      32.036  27.568  23.302  1.00  0.00     0.211 HD
ENDBRANCH  18  25
BRANCH  20  27
ATOM     27  O   UNL     1      31.412  30.133  22.133  1.00  0.00    -0.387 OA
ATOM     28  H   UNL     1      31.159  31.020  21.764  1.00  0.00     0.211 HD
ENDBRANCH  20  27
BRANCH  21  29
ATOM     29  C   UNL     1      29.905  31.448  24.644  1.00  0.00     0.191 C 
BRANCH  29  30
ATOM     30  O   UNL     1      29.325  32.036  23.510  1.00  0.00    -0.394 OA
ATOM     31  H   UNL     1      29.604  32.988  23.499  1.00  0.00     0.210 HD
ENDBRANCH  29  30
ENDBRANCH  21  29
ENDBRANCH   1  17
TORSDOF 13
ENDMDL
MODEL 5
REMARK VINA RESULT:    -2.846      2.376      4.708
REMARK INTER + INTRA:          -5.002
REMARK INTER:                  -4.311
REMARK INTRA:                  -0.691
REMARK UNBOUND:                -0.658
REMARK SMILES OC[C@H]1O[C@H](O[C@]2(CO)O[C@H](CO)[C@@H](O)[C@H]2O)[C@@H](O)[C@H](O)[C@@H]1O
REMARK SMILES IDX 6 1 5 2 3 3 22 4 4 5 20 6 18 7 2 8 1 9 23 11 21 13 19 15
REMARK SMILES IDX 7 17 16 18 10 19 14 20 11 21 8 22 9 23 17 25 15 27 12 29
REMARK SMILES IDX 13 30
REMARK H PARENT 1 10 23 12 21 14 19 16 9 24 17 26 15 28 13 31
REMARK Flexibility Score: inf
ROOT
ATOM      1  O   UNL     1      27.642  25.471  22.482  1.00  0.00    -0.313 OA
ENDROOT
BRANCH   1   2
ATOM      2  C   UNL     1      26.486  26.228  22.143  1.00  0.00     0.285 C 
ATOM      3  C   UNL     1      25.057  24.501  22.861  1.00  0.00     0.178 C 
ATOM      4  C   UNL     1      24.526  25.316  24.061  1.00  0.00     0.177 C 
ATOM      5  O   UNL     1      25.418  25.362  21.790  1.00  0.00    -0.341 OA
ATOM      6  C   UNL     1      25.584  26.339  24.513  1.00  0.00     0.179 C 
ATOM      7  C   UNL     1      26.078  27.159  23.304  1.00  0.00     0.202 C 
BRANCH   3   8
ATOM      8  C   UNL     1      23.987  23.527  22.353  1.00  0.00     0.191 C 
BRANCH   8   9
ATOM      9  O   UNL     1      22.760  24.193  22.237  1.00  0.00    -0.394 OA
ATOM     10  H   UNL     1      22.318  24.112  23.121  1.00  0.00     0.210 HD
ENDBRANCH   8   9
ENDBRANCH   3   8
BRANCH   4  11
ATOM     11  O   UNL     1      24.209  24.453  25.125  1.00  0.00    -0.387 OA
ATOM     12  H   UNL     1      24.611  23.571  24.909  1.00  0.00     0.211 HD
ENDBRANCH   4  11
BRANCH   6  13
ATOM     13  O   UNL     1      26.659  25.672  25.125  1.00  0.00    -0.387 OA
ATOM     14  H   UNL     1      27.474  25.906  24.608  1.00  0.00     0.211 HD
ENDBRANCH   6  13
BRANCH   7  15
ATOM     15  O   UNL     1      25.063  28.024  22.863  1.00  0.00    -0.385 OA
ATOM     16  H   UNL     1      25.501  28.878  22.612  1.00  0.00     0.211 HD
ENDBRANCH   7  15
ENDBRANCH   1   2
BRANCH   1  17
ATOM     17  C   UNL     1      28.880  26.085  22.130  1.00  0.00     0.224 C 
ATOM     18  C   UNL     1      29.156  27.315  23.050  1.00  0.00     0.208 C 
ATOM     19  O   UNL     1      29.956  25.171  22.260  1.00  0.00    -0.337 OA
ATOM     20  C   UNL     1      30.440  26.937  23.776  1.00  0.00     0.180 C 
ATOM     21  C   UNL     1      31.024  25.859  22.873  1.00  0.00     0.179 C 
BRANCH  17  22
ATOM     22  C   UNL     1      28.770  26.445  20.633  1.00  0.00     0.225 C 
BRANCH  22  23
ATOM     23  O   UNL     1      28.666  25.283  19.856  1.00  0.00    -0.391 OA
ATOM     24  H   UNL     1      29.025  25.519  18.960  1.00  0.00     0.210 HD
ENDBRANCH  22  23
ENDBRANCH  17  22
BRANCH  18  25
ATOM     25  O   UNL     1      29.266  28.535  22.350  1.00  0.00    -0.385 OA
ATOM     26  H   UNL     1      29.520  28.340  21.411  1.00  0.00     0.211 HD
ENDBRANCH  18  25
BRANCH  20  27
ATOM     27  O   UNL     1      31.331  28.015  23.910  1.00  0.00    -0.387 OA
ATOM     28  H   UNL     1      32.221  27.620  24.102  1.00  0.00     0.211 HD
ENDBRANCH  20  27
BRANCH  21  29
ATOM     29  C   UNL     1      31.927  24.874  23.626  1.00  0.00     0.191 C 
BRANCH  29  30
ATOM     30  O   UNL     1      31.908  25.126  25.007  1.00  0.00    -0.394 OA
ATOM     31  H   UNL     1      31.219  25.823  25.166  1.00  0.00     0.210 HD
ENDBRANCH  29  30
ENDBRANCH  21  29
ENDBRANCH   1  17
TORSDOF 13
ENDMDL
MODEL 6
REMARK VINA RESULT:    -2.764      1.282      2.781
REMARK INTER + INTRA:          -4.876
REMARK INTER:                  -3.869
REMARK INTRA:                  -1.008
REMARK UNBOUND:                -0.658
REMARK SMILES OC[C@H]1O[C@H](O[C@]2(CO)O[C@H](CO)[C@@H](O)[C@H]2O)[C@@H](O)[C@H](O)[C@@H]1O
REMARK SMILES IDX 6 1 5 2 3 3 22 4 4 5 20 6 18 7 2 8 1 9 23 11 21 13 19 15
REMARK SMILES IDX 7 17 16 18 10 19 14 20 11 21 8 22 9 23 17 25 15 27 12 29
REMARK SMILES IDX 13 30
REMARK H PARENT 1 10 23 12 21 14 19 16 9 24 17 26 15 28 13 31
REMARK Flexibility Score: inf
ROOT
ATOM      1  O   UNL     1      30.403  27.786  21.818  1.00  0.00    -0.313 OA
ENDROOT
BRANCH   1   2
ATOM      2  C   UNL     1      29.028  27.416  21.809  1.00  0.00     0.285 C 
ATOM      3  C   UNL     1      29.339  26.033  19.930  1.00  0.00     0.178 C 
ATOM      4  C   UNL     1      29.083  24.736  20.730  1.00  0.00     0.177 C 
ATOM      5  O   UNL     1      28.610  27.117  20.485  1.00  0.00    -0.341 OA
ATOM      6  C   UNL     1      29.453  24.946  22.209  1.00  0.00     0.179 C 
ATOM      7  C   UNL     1      28.773  26.220  22.750  1.00  0.00     0.202 C 
BRANCH   3   8
ATOM      8  C   UNL     1      28.907  25.862  18.469  1.00  0.00     0.191 C 
BRANCH   8   9
ATOM      9  O   UNL     1      27.662  25.221  18.417  1.00  0.00    -0.394 OA
ATOM     10  H   UNL     1      27.772  24.368  18.911  1.00  0.00     0.210 HD
ENDBRANCH   8   9
ENDBRANCH   3   8
BRANCH   4  11
ATOM     11  O   UNL     1      29.840  23.681  20.191  1.00  0.00    -0.387 OA
ATOM     12  H   UNL     1      30.133  23.118  20.955  1.00  0.00     0.211 HD
ENDBRANCH   4  11
BRANCH   6  13
ATOM     13  O   UNL     1      30.849  25.043  22.340  1.00  0.00    -0.387 OA
ATOM     14  H   UNL     1      31.243  24.408  21.686  1.00  0.00     0.211 HD
ENDBRANCH   6  13
BRANCH   7  15
ATOM     15  O   UNL     1      27.389  26.014  22.863  1.00  0.00    -0.385 OA
ATOM     16  H   UNL     1      27.158  26.124  23.822  1.00  0.00     0.211 HD
ENDBRANCH   7  15
ENDBRANCH   1   2
BRANCH   1  17
ATOM     17  C   UNL     1      30.779  28.647  22.890  1.00  0.00     0.224 C 
ATOM     18  C   UNL     1      30.848  30.126  22.400  1.00  0.00     0.208 C 
ATOM     19  O   UNL     1      29.848  28.566  23.957  1.00  0.00    -0.337 OA
ATOM     20  C   UNL     1      29.787  30.830  23.234  1.00  0.00     0.180 C 
ATOM     21  C   UNL     1      29.611  29.880  24.412  1.00  0.00     0.179 C 
BRANCH  17  22
ATOM     22  C   UNL     1      32.124  28.108  23.422  1.00  0.00     0.225 C 
BRANCH  22  23
ATOM     23  O   UNL     1      31.913  27.012  24.271  1.00  0.00    -0.391 OA
ATOM     24  H   UNL     1      32.446  26.265  23.894  1.00  0.00     0.210 HD
ENDBRANCH  22  23
ENDBRANCH  17  22
BRANCH  18  25
ATOM     25  O   UNL     1      32.125  30.711  22.538  1.00  0.00    -0.385 OA
ATOM     26  H   UNL     1      32.016  31.695  22.607  1.00  0.00     0.211 HD
ENDBRANCH  18  25
BRANCH  20  27
ATOM     27  O   UNL     1      30.190  32.102  23.674  1.00  0.00    -0.387 OA
ATOM     28  H   UNL     1      29.390  32.687  23.609  1.00  0.00     0.211 HD
ENDBRANCH  20  27
BRANCH  21  29
ATOM     29  C   UNL     1      28.220  29.976  25.053  1.00  0.00     0.191 C 
BRANCH  29  30
ATOM     30  O   UNL     1      27.430  30.938  24.404  1.00  0.00    -0.394 OA
ATOM     31  H   UNL     1      27.544  30.799  23.428  1.00  0.00     0.210 HD
ENDBRANCH  29  30
ENDBRANCH  21  29
ENDBRANCH   1  17
TORSDOF 13
ENDMDL
MODEL 7
REMARK VINA RESULT:    -2.207      1.967      5.400
REMARK INTER + INTRA:          -4.027
REMARK INTER:                  -3.069
REMARK INTRA:                  -0.957
REMARK UNBOUND:                -0.658
REMARK SMILES OC[C@H]1O[C@H](O[C@]2(CO)O[C@H](CO)[C@@H](O)[C@H]2O)[C@@H](O)[C@H](O)[C@@H]1O
REMARK SMILES IDX 6 1 5 2 3 3 22 4 4 5 20 6 18 7 2 8 1 9 23 11 21 13 19 15
REMARK SMILES IDX 7 17 16 18 10 19 14 20 11 21 8 22 9 23 17 25 15 27 12 29
REMARK SMILES IDX 13 30
REMARK H PARENT 1 10 23 12 21 14 19 16 9 24 17 26 15 28 13 31
REMARK Flexibility Score: inf
ROOT
ATOM      1  O   UNL     1      27.963  27.977  24.365  1.00  0.00    -0.313 OA
ENDROOT
BRANCH   1   2
ATOM      2  C   UNL     1      28.800  26.825  24.363  1.00  0.00     0.285 C 
ATOM      3  C   UNL     1      29.485  27.241  22.149  1.00  0.00     0.178 C 
ATOM      4  C   UNL     1      30.935  27.579  22.566  1.00  0.00     0.177 C 
ATOM      5  O   UNL     1      28.911  26.302  23.048  1.00  0.00    -0.341 OA
ATOM      6  C   UNL     1      30.958  28.115  24.008  1.00  0.00     0.179 C 
ATOM      7  C   UNL     1      30.192  27.157  24.943  1.00  0.00     0.202 C 
BRANCH   3   8
ATOM      8  C   UNL     1      29.454  26.637  20.740  1.00  0.00     0.191 C 
BRANCH   8   9
ATOM      9  O   UNL     1      28.124  26.460  20.333  1.00  0.00    -0.394 OA
ATOM     10  H   UNL     1      28.098  25.593  19.852  1.00  0.00     0.210 HD
ENDBRANCH   8   9
ENDBRANCH   3   8
BRANCH   4  11
ATOM     11  O   UNL     1      31.475  28.536  21.690  1.00  0.00    -0.387 OA
ATOM     12  H   UNL     1      32.120  29.076  22.217  1.00  0.00     0.211 HD
ENDBRANCH   4  11
BRANCH   6  13
ATOM     13  O   UNL     1      30.386  29.398  24.047  1.00  0.00    -0.387 OA
ATOM     14  H   UNL     1      29.848  29.447  24.880  1.00  0.00     0.211 HD
ENDBRANCH   6  13
BRANCH   7  15
ATOM     15  O   UNL     1      30.915  25.964  25.105  1.00  0.00    -0.385 OA
ATOM     16  H   UNL     1      30.524  25.302  24.478  1.00  0.00     0.211 HD
ENDBRANCH   7  15
ENDBRANCH   1   2
BRANCH   1  17
ATOM     17  C   UNL     1      26.565  27.695  24.379  1.00  0.00     0.224 C 
ATOM     18  C   UNL     1      26.037  27.496  22.925  1.00  0.00     0.208 C 
ATOM     19  O   UNL     1      26.291  26.520  25.125  1.00  0.00    -0.337 OA
ATOM     20  C   UNL     1      25.538  26.058  22.918  1.00  0.00     0.180 C 
ATOM     21  C   UNL     1      25.341  25.771  24.401  1.00  0.00     0.179 C 
BRANCH  17  22
ATOM     22  C   UNL     1      25.898  28.870  25.125  1.00  0.00     0.225 C 
BRANCH  22  23
ATOM     23  O   UNL     1      26.257  30.091  24.537  1.00  0.00    -0.391 OA
ATOM     24  H   UNL     1      27.249  30.102  24.507  1.00  0.00     0.210 HD
ENDBRANCH  22  23
ENDBRANCH  17  22
BRANCH  18  25
ATOM     25  O   UNL     1      25.036  28.420  22.553  1.00  0.00    -0.385 OA
ATOM     26  H   UNL     1      25.388  29.338  22.686  1.00  0.00     0.211 HD
ENDBRANCH  18  25
BRANCH  20  27
ATOM     27  O   UNL     1      24.334  25.898  22.213  1.00  0.00    -0.387 OA
ATOM     28  H   UNL     1      24.236  24.924  22.044  1.00  0.00     0.211 HD
ENDBRANCH  20  27
BRANCH  21  29
ATOM     29  C   UNL     1      25.468  24.281  24.743  1.00  0.00     0.191 C 
BRANCH  29  30
ATOM     30  O   UNL     1      25.087  23.479  23.655  1.00  0.00    -0.394 OA
ATOM     31  H   UNL     1      24.095  23.480  23.626  1.00  0.00     0.210 HD
ENDBRANCH  29  30
ENDBRANCH  21  29
ENDBRANCH   1  17
TORSDOF 13
ENDMDL
MODEL 8
REMARK VINA RESULT:    -1.833      1.503      5.582
REMARK INTER + INTRA:          -3.455
REMARK INTER:                  -3.885
REMARK INTRA:                   0.430
REMARK UNBOUND:                -0.658
REMARK SMILES OC[C@H]1O[C@H](O[C@]2(CO)O[C@H](CO)[C@@H](O)[C@H]2O)[C@@H](O)[C@H](O)[C@@H]1O
REMARK SMILES IDX 6 1 5 2 3 3 22 4 4 5 20 6 18 7 2 8 1 9 23 11 21 13 19 15
REMARK SMILES IDX 7 17 16 18 10 19 14 20 11 21 8 22 9 23 17 25 15 27 12 29
REMARK SMILES IDX 13 30
REMARK H PARENT 1 10 23 12 21 14 19 16 9 24 17 26 15 28 13 31
REMARK Flexibility Score: inf
ROOT
ATOM      1  O   UNL     1      29.897  28.858  22.148  1.00  0.00    -0.313 OA
ENDROOT
BRANCH   1   2
ATOM      2  C   UNL     1      30.942  29.418  22.936  1.00  0.00     0.285 C 
ATOM      3  C   UNL     1      29.750  31.428  23.216  1.00  0.00     0.178 C 
ATOM      4  C   UNL     1      29.526  31.191  24.726  1.00  0.00     0.177 C 
ATOM      5  O   UNL     1      30.965  30.830  22.789  1.00  0.00    -0.341 OA
ATOM      6  C   UNL     1      29.530  29.682  25.030  1.00  0.00     0.179 C 
ATOM      7  C   UNL     1      30.784  29.022  24.420  1.00  0.00     0.202 C 
BRANCH   3   8
ATOM      8  C   UNL     1      29.821  32.929  22.908  1.00  0.00     0.191 C 
BRANCH   8   9
ATOM      9  O   UNL     1      30.403  33.125  21.648  1.00  0.00    -0.394 OA
ATOM     10  H   UNL     1      29.994  33.951  21.282  1.00  0.00     0.210 HD
ENDBRANCH   8   9
ENDBRANCH   3   8
BRANCH   4  11
ATOM     11  O   UNL     1      28.303  31.756  25.125  1.00  0.00    -0.387 OA
ATOM     12  H   UNL     1      28.071  32.446  24.450  1.00  0.00     0.211 HD
ENDBRANCH   4  11
BRANCH   6  13
ATOM     13  O   UNL     1      28.365  29.090  24.513  1.00  0.00    -0.387 OA
ATOM     14  H   UNL     1      28.581  28.137  24.338  1.00  0.00     0.211 HD
ENDBRANCH   6  13
BRANCH   7  15
ATOM     15  O   UNL     1      31.929  29.425  25.125  1.00  0.00    -0.385 OA
ATOM     16  H   UNL     1      32.453  28.604  25.316  1.00  0.00     0.211 HD
ENDBRANCH   7  15
ENDBRANCH   1   2
BRANCH   1  17
ATOM     17  C   UNL     1      29.905  27.434  22.076  1.00  0.00     0.224 C 
ATOM     18  C   UNL     1      28.556  26.856  22.605  1.00  0.00     0.208 C 
ATOM     19  O   UNL     1      30.094  26.994  20.740  1.00  0.00    -0.337 OA
ATOM     20  C   UNL     1      27.973  26.141  21.393  1.00  0.00     0.180 C 
ATOM     21  C   UNL     1      29.200  25.927  20.516  1.00  0.00     0.179 C 
BRANCH  17  22
ATOM     22  C   UNL     1      31.135  26.970  22.883  1.00  0.00     0.225 C 
BRANCH  22  23
ATOM     23  O   UNL     1      31.321  25.588  22.745  1.00  0.00    -0.391 OA
ATOM     24  H   UNL     1      30.671  25.291  22.056  1.00  0.00     0.210 HD
ENDBRANCH  22  23
ENDBRANCH  17  22
BRANCH  18  25
ATOM     25  O   UNL     1      28.701  26.005  23.721  1.00  0.00    -0.385 OA
ATOM     26  H   UNL     1      27.801  25.696  24.002  1.00  0.00     0.211 HD
ENDBRANCH  18  25
BRANCH  20  27
ATOM     27  O   UNL     1      27.370  24.915  21.719  1.00  0.00    -0.387 OA
ATOM     28  H   UNL     1      28.109  24.261  21.833  1.00  0.00     0.211 HD
ENDBRANCH  20  27
BRANCH  21  29
ATOM     29  C   UNL     1      28.857  25.827  19.024  1.00  0.00     0.191 C 
BRANCH  29  30
ATOM     30  O   UNL     1      27.530  25.408  18.839  1.00  0.00    -0.394 OA
ATOM     31  H   UNL     1      27.553  24.430  18.673  1.00  0.00     0.210 HD
ENDBRANCH  29  30
ENDBRANCH  21  29
ENDBRANCH   1  17
TORSDOF 13
ENDMDL
