MODEL 1
REMARK VINA RESULT:    -4.776      0.000      0.000
REMARK INTER + INTRA:         -11.516
REMARK INTER:                  -8.964
REMARK INTRA:                  -2.552
REMARK UNBOUND:                -2.552
REMARK SMILES CCCCCCCCC=CCCCCCCCC(=O)[O-]
REMARK SMILES IDX 10 1 9 2 11 3 12 4 13 5 14 6 15 7 16 8 17 9 18 10 19 11
REMARK SMILES IDX 20 12 8 13 7 14 6 15 5 16 4 17 3 18 2 19 1 20
REMARK H PARENT
REMARK Flexibility Score: inf
ROOT
ATOM      1  C   UNL     1     -19.306   6.581 -17.499  1.00  0.00    -0.031 C 
ATOM      2  C   UNL     1     -19.213   5.787 -18.584  1.00  0.00    -0.031 C 
ENDROOT
BRANCH   1   3
ATOM      3  C   UNL     1     -20.579   6.886 -16.751  1.00  0.00     0.027 C 
BRANCH   3   4
ATOM      4  C   UNL     1     -20.621   6.175 -15.393  1.00  0.00     0.004 C 
BRANCH   4   5
ATOM      5  C   UNL     1     -19.254   6.237 -14.697  1.00  0.00     0.000 C 
BRANCH   5   6
ATOM      6  C   UNL     1     -19.264   7.127 -13.444  1.00  0.00     0.000 C 
BRANCH   6   7
ATOM      7  C   UNL     1     -17.885   7.214 -12.766  1.00  0.00     0.000 C 
BRANCH   7   8
ATOM      8  C   UNL     1     -16.895   6.173 -13.311  1.00  0.00     0.006 C 
BRANCH   8   9
ATOM      9  C   UNL     1     -15.647   6.026 -12.429  1.00  0.00     0.053 C 
BRANCH   9  10
ATOM     10  C   UNL     1     -15.029   4.677 -12.621  1.00  0.00     0.041 C 
ATOM     11  O   UNL     1     -13.842   4.465 -12.258  1.00  0.00    -0.550 OA
ATOM     12  O   UNL     1     -15.749   3.666 -13.246  1.00  0.00    -0.550 OA
ENDBRANCH   9  10
ENDBRANCH   8   9
ENDBRANCH   7   8
ENDBRANCH   6   7
ENDBRANCH   5   6
ENDBRANCH   4   5
ENDBRANCH   3   4
ENDBRANCH   1   3
BRANCH   2  13
ATOM     13  C   UNL     1     -20.360   5.038 -19.220  1.00  0.00     0.027 C 
BRANCH  13  14
ATOM     14  C   UNL     1     -20.193   3.518 -19.076  1.00  0.00     0.004 C 
BRANCH  14  15
ATOM     15  C   UNL     1     -21.033   2.945 -17.924  1.00  0.00     0.000 C 
BRANCH  15  16
ATOM     16  C   UNL     1     -20.194   2.812 -16.647  1.00  0.00     0.000 C 
BRANCH  16  17
ATOM     17  C   UNL     1     -18.741   2.443 -16.978  1.00  0.00    -0.000 C 
BRANCH  17  18
ATOM     18  C   UNL     1     -17.716   3.354 -16.277  1.00  0.00    -0.000 C 
BRANCH  18  19
ATOM     19  C   UNL     1     -16.295   3.303 -16.866  1.00  0.00    -0.003 C 
ATOM     20  C   UNL     1     -16.249   3.671 -18.348  1.00  0.00     0.004 C 
ENDBRANCH  18  19
ENDBRANCH  17  18
ENDBRANCH  16  17
ENDBRANCH  15  16
ENDBRANCH  14  15
ENDBRANCH  13  14
ENDBRANCH   2  13
TORSDOF 15
ENDMDL
MODEL 2
REMARK VINA RESULT:    -4.583      3.502      6.400
REMARK INTER + INTRA:         -11.155
REMARK INTER:                  -9.928
REMARK INTRA:                  -1.226
REMARK UNBOUND:                -2.552
REMARK SMILES CCCCCCCCC=CCCCCCCCC(=O)[O-]
REMARK SMILES IDX 10 1 9 2 11 3 12 4 13 5 14 6 15 7 16 8 17 9 18 10 19 11
REMARK SMILES IDX 20 12 8 13 7 14 6 15 5 16 4 17 3 18 2 19 1 20
REMARK H PARENT
REMARK Flexibility Score: inf
ROOT
ATOM      1  C   UNL     1     -18.571   3.212 -16.668  1.00  0.00    -0.031 C 
ATOM      2  C   UNL     1     -19.539   4.146 -16.746  1.00  0.00    -0.031 C 
ENDROOT
BRANCH   1   3
ATOM      3  C   UNL     1     -17.106   3.493 -16.447  1.00  0.00     0.027 C 
BRANCH   3   4
ATOM      4  C   UNL     1     -16.368   3.715 -17.773  1.00  0.00     0.004 C 
BRANCH   4   5
ATOM      5  C   UNL     1     -15.461   2.521 -18.105  1.00  0.00     0.000 C 
BRANCH   5   6
ATOM      6  C   UNL     1     -14.648   2.037 -16.894  1.00  0.00     0.000 C 
BRANCH   6   7
ATOM      7  C   UNL     1     -14.202   0.570 -17.025  1.00  0.00     0.000 C 
BRANCH   7   8
ATOM      8  C   UNL     1     -13.779   0.211 -18.459  1.00  0.00     0.006 C 
BRANCH   8   9
ATOM      9  C   UNL     1     -12.464  -0.579 -18.507  1.00  0.00     0.053 C 
BRANCH   9  10
ATOM     10  C   UNL     1     -11.306   0.349 -18.698  1.00  0.00     0.041 C 
ATOM     11  O   UNL     1     -11.486   1.498 -19.179  1.00  0.00    -0.550 OA
ATOM     12  O   UNL     1     -10.019  -0.074 -18.388  1.00  0.00    -0.550 OA
ENDBRANCH   9  10
ENDBRANCH   8   9
ENDBRANCH   7   8
ENDBRANCH   6   7
ENDBRANCH   5   6
ENDBRANCH   4   5
ENDBRANCH   3   4
ENDBRANCH   1   3
BRANCH   2  13
ATOM     13  C   UNL     1     -19.331   5.635 -16.592  1.00  0.00     0.027 C 
BRANCH  13  14
ATOM     14  C   UNL     1     -20.061   6.183 -15.358  1.00  0.00     0.004 C 
BRANCH  14  15
ATOM     15  C   UNL     1     -19.421   7.474 -14.825  1.00  0.00     0.000 C 
BRANCH  15  16
ATOM     16  C   UNL     1     -18.783   7.242 -13.448  1.00  0.00     0.000 C 
BRANCH  16  17
ATOM     17  C   UNL     1     -17.632   6.229 -13.538  1.00  0.00    -0.000 C 
BRANCH  17  18
ATOM     18  C   UNL     1     -16.422   6.620 -12.672  1.00  0.00    -0.000 C 
BRANCH  18  19
ATOM     19  C   UNL     1     -15.673   5.435 -12.034  1.00  0.00    -0.003 C 
ATOM     20  C   UNL     1     -15.541   4.237 -12.973  1.00  0.00     0.004 C 
ENDBRANCH  18  19
ENDBRANCH  17  18
ENDBRANCH  16  17
ENDBRANCH  15  16
ENDBRANCH  14  15
ENDBRANCH  13  14
ENDBRANCH   2  13
TORSDOF 15
ENDMDL
MODEL 3
REMARK VINA RESULT:    -4.582      3.152      5.239
REMARK INTER + INTRA:         -11.153
REMARK INTER:                  -9.516
REMARK INTRA:                  -1.636
REMARK UNBOUND:                -2.552
REMARK SMILES CCCCCCCCC=CCCCCCCCC(=O)[O-]
REMARK SMILES IDX 10 1 9 2 11 3 12 4 13 5 14 6 15 7 16 8 17 9 18 10 19 11
REMARK SMILES IDX 20 12 8 13 7 14 6 15 5 16 4 17 3 18 2 19 1 20
REMARK H PARENT
REMARK Flexibility Score: inf
ROOT
ATOM      1  C   UNL     1     -19.108   2.068 -16.711  1.00  0.00    -0.031 C 
ATOM      2  C   UNL     1     -17.786   1.982 -16.464  1.00  0.00    -0.031 C 
ENDROOT
BRANCH   1   3
ATOM      3  C   UNL     1     -19.878   3.352 -16.890  1.00  0.00     0.027 C 
BRANCH   3   4
ATOM      4  C   UNL     1     -20.210   3.611 -18.364  1.00  0.00     0.004 C 
BRANCH   4   5
ATOM      5  C   UNL     1     -19.452   4.838 -18.892  1.00  0.00     0.000 C 
BRANCH   5   6
ATOM      6  C   UNL     1     -18.957   5.760 -17.766  1.00  0.00     0.000 C 
BRANCH   6   7
ATOM      7  C   UNL     1     -19.724   7.093 -17.709  1.00  0.00     0.000 C 
BRANCH   7   8
ATOM      8  C   UNL     1     -19.822   7.655 -16.281  1.00  0.00     0.006 C 
BRANCH   8   9
ATOM      9  C   UNL     1     -20.171   6.578 -15.245  1.00  0.00     0.053 C 
BRANCH   9  10
ATOM     10  C   UNL     1     -19.518   6.884 -13.935  1.00  0.00     0.041 C 
ATOM     11  O   UNL     1     -18.305   6.600 -13.748  1.00  0.00    -0.550 OA
ATOM     12  O   UNL     1     -20.262   7.438 -12.901  1.00  0.00    -0.550 OA
ENDBRANCH   9  10
ENDBRANCH   8   9
ENDBRANCH   7   8
ENDBRANCH   6   7
ENDBRANCH   5   6
ENDBRANCH   4   5
ENDBRANCH   3   4
ENDBRANCH   1   3
BRANCH   2  13
ATOM     13  C   UNL     1     -16.838   3.155 -16.358  1.00  0.00     0.027 C 
BRANCH  13  14
ATOM     14  C   UNL     1     -16.107   3.413 -17.684  1.00  0.00     0.004 C 
BRANCH  14  15
ATOM     15  C   UNL     1     -15.332   2.181 -18.175  1.00  0.00     0.000 C 
BRANCH  15  16
ATOM     16  C   UNL     1     -14.227   1.797 -17.182  1.00  0.00     0.000 C 
BRANCH  16  17
ATOM     17  C   UNL     1     -13.869   0.309 -17.305  1.00  0.00    -0.000 C 
BRANCH  17  18
ATOM     18  C   UNL     1     -12.924   0.016 -18.484  1.00  0.00    -0.000 C 
BRANCH  18  19
ATOM     19  C   UNL     1     -12.052  -1.242 -18.318  1.00  0.00    -0.003 C 
ATOM     20  C   UNL     1     -10.662  -0.937 -17.762  1.00  0.00     0.004 C 
ENDBRANCH  18  19
ENDBRANCH  17  18
ENDBRANCH  16  17
ENDBRANCH  15  16
ENDBRANCH  14  15
ENDBRANCH  13  14
ENDBRANCH   2  13
TORSDOF 15
ENDMDL
MODEL 4
REMARK VINA RESULT:    -4.576      4.069      6.177
REMARK INTER + INTRA:         -11.141
REMARK INTER:                  -9.667
REMARK INTRA:                  -1.474
REMARK UNBOUND:                -2.552
REMARK SMILES CCCCCCCCC=CCCCCCCCC(=O)[O-]
REMARK SMILES IDX 10 1 9 2 11 3 12 4 13 5 14 6 15 7 16 8 17 9 18 10 19 11
REMARK SMILES IDX 20 12 8 13 7 14 6 15 5 16 4 17 3 18 2 19 1 20
REMARK H PARENT
REMARK Flexibility Score: inf
ROOT
ATOM      1  C   UNL     1     -16.240   3.428 -17.499  1.00  0.00    -0.031 C 
ATOM      2  C   UNL     1     -15.048   2.876 -17.799  1.00  0.00    -0.031 C 
ENDROOT
BRANCH   1   3
ATOM      3  C   UNL     1     -17.018   3.182 -16.231  1.00  0.00     0.027 C 
BRANCH   3   4
ATOM      4  C   UNL     1     -18.054   2.066 -16.410  1.00  0.00     0.004 C 
BRANCH   4   5
ATOM      5  C   UNL     1     -19.270   2.566 -17.204  1.00  0.00     0.000 C 
BRANCH   5   6
ATOM      6  C   UNL     1     -20.153   3.529 -16.395  1.00  0.00     0.000 C 
BRANCH   6   7
ATOM      7  C   UNL     1     -20.254   4.924 -17.037  1.00  0.00     0.000 C 
BRANCH   7   8
ATOM      8  C   UNL     1     -19.440   5.983 -16.276  1.00  0.00     0.006 C 
BRANCH   8   9
ATOM      9  C   UNL     1     -19.833   6.079 -14.795  1.00  0.00     0.053 C 
BRANCH   9  10
ATOM     10  C   UNL     1     -19.046   7.155 -14.116  1.00  0.00     0.041 C 
ATOM     11  O   UNL     1     -18.083   6.857 -13.361  1.00  0.00    -0.550 OA
ATOM     12  O   UNL     1     -19.407   8.487 -14.277  1.00  0.00    -0.550 OA
ENDBRANCH   9  10
ENDBRANCH   8   9
ENDBRANCH   7   8
ENDBRANCH   6   7
ENDBRANCH   5   6
ENDBRANCH   4   5
ENDBRANCH   3   4
ENDBRANCH   1   3
BRANCH   2  13
ATOM     13  C   UNL     1     -14.265   1.944 -16.903  1.00  0.00     0.027 C 
BRANCH  13  14
ATOM     14  C   UNL     1     -14.281   0.504 -17.434  1.00  0.00     0.004 C 
BRANCH  14  15
ATOM     15  C   UNL     1     -14.100   0.439 -18.958  1.00  0.00     0.000 C 
BRANCH  15  16
ATOM     16  C   UNL     1     -12.767  -0.228 -19.323  1.00  0.00     0.000 C 
BRANCH  16  17
ATOM     17  C   UNL     1     -12.290  -1.158 -18.198  1.00  0.00    -0.000 C 
BRANCH  17  18
ATOM     18  C   UNL     1     -10.824  -0.911 -17.799  1.00  0.00    -0.000 C 
BRANCH  18  19
ATOM     19  C   UNL     1     -10.019  -0.051 -18.791  1.00  0.00    -0.003 C 
ATOM     20  C   UNL     1      -8.795   0.607 -18.155  1.00  0.00     0.004 C 
ENDBRANCH  18  19
ENDBRANCH  17  18
ENDBRANCH  16  17
ENDBRANCH  15  16
ENDBRANCH  14  15
ENDBRANCH  13  14
ENDBRANCH   2  13
TORSDOF 15
ENDMDL
MODEL 5
REMARK VINA RESULT:    -4.523      4.251      6.440
REMARK INTER + INTRA:         -11.042
REMARK INTER:                  -9.507
REMARK INTRA:                  -1.535
REMARK UNBOUND:                -2.552
REMARK SMILES CCCCCCCCC=CCCCCCCCC(=O)[O-]
REMARK SMILES IDX 10 1 9 2 11 3 12 4 13 5 14 6 15 7 16 8 17 9 18 10 19 11
REMARK SMILES IDX 20 12 8 13 7 14 6 15 5 16 4 17 3 18 2 19 1 20
REMARK H PARENT
REMARK Flexibility Score: inf
ROOT
ATOM      1  C   UNL     1     -16.330   3.504 -17.557  1.00  0.00    -0.031 C 
ATOM      2  C   UNL     1     -15.122   2.983 -17.851  1.00  0.00    -0.031 C 
ENDROOT
BRANCH   1   3
ATOM      3  C   UNL     1     -17.110   3.235 -16.294  1.00  0.00     0.027 C 
BRANCH   3   4
ATOM      4  C   UNL     1     -18.173   2.151 -16.508  1.00  0.00     0.004 C 
BRANCH   4   5
ATOM      5  C   UNL     1     -19.390   2.715 -17.257  1.00  0.00     0.000 C 
BRANCH   5   6
ATOM      6  C   UNL     1     -20.591   2.972 -16.332  1.00  0.00     0.000 C 
BRANCH   6   7
ATOM      7  C   UNL     1     -21.185   4.381 -16.507  1.00  0.00     0.000 C 
BRANCH   7   8
ATOM      8  C   UNL     1     -20.783   5.334 -15.370  1.00  0.00     0.006 C 
BRANCH   8   9
ATOM      9  C   UNL     1     -19.441   6.032 -15.630  1.00  0.00     0.053 C 
BRANCH   9  10
ATOM     10  C   UNL     1     -19.491   6.792 -16.918  1.00  0.00     0.041 C 
ATOM     11  O   UNL     1     -20.250   7.789 -17.038  1.00  0.00    -0.550 OA
ATOM     12  O   UNL     1     -18.734   6.368 -18.004  1.00  0.00    -0.550 OA
ENDBRANCH   9  10
ENDBRANCH   8   9
ENDBRANCH   7   8
ENDBRANCH   6   7
ENDBRANCH   5   6
ENDBRANCH   4   5
ENDBRANCH   3   4
ENDBRANCH   1   3
BRANCH   2  13
ATOM     13  C   UNL     1     -14.323   2.067 -16.954  1.00  0.00     0.027 C 
BRANCH  13  14
ATOM     14  C   UNL     1     -14.429   0.602 -17.401  1.00  0.00     0.004 C 
BRANCH  14  15
ATOM     15  C   UNL     1     -14.557   0.464 -18.926  1.00  0.00     0.000 C 
BRANCH  15  16
ATOM     16  C   UNL     1     -13.237  -0.013 -19.546  1.00  0.00     0.000 C 
BRANCH  16  17
ATOM     17  C   UNL     1     -12.367  -0.731 -18.504  1.00  0.00    -0.000 C 
BRANCH  17  18
ATOM     18  C   UNL     1     -10.917  -0.942 -18.977  1.00  0.00    -0.000 C 
BRANCH  18  19
ATOM     19  C   UNL     1      -9.838  -0.560 -17.947  1.00  0.00    -0.003 C 
ATOM     20  C   UNL     1      -8.860   0.491 -18.469  1.00  0.00     0.004 C 
ENDBRANCH  18  19
ENDBRANCH  17  18
ENDBRANCH  16  17
ENDBRANCH  15  16
ENDBRANCH  14  15
ENDBRANCH  13  14
ENDBRANCH   2  13
TORSDOF 15
ENDMDL
MODEL 6
REMARK VINA RESULT:    -4.502      4.241      6.064
REMARK INTER + INTRA:         -11.001
REMARK INTER:                 -10.037
REMARK INTRA:                  -0.964
REMARK UNBOUND:                -2.552
REMARK SMILES CCCCCCCCC=CCCCCCCCC(=O)[O-]
REMARK SMILES IDX 10 1 9 2 11 3 12 4 13 5 14 6 15 7 16 8 17 9 18 10 19 11
REMARK SMILES IDX 20 12 8 13 7 14 6 15 5 16 4 17 3 18 2 19 1 20
REMARK H PARENT
REMARK Flexibility Score: inf
ROOT
ATOM      1  C   UNL     1     -17.479   2.199 -16.578  1.00  0.00    -0.031 C 
ATOM      2  C   UNL     1     -16.341   1.753 -17.147  1.00  0.00    -0.031 C 
ENDROOT
BRANCH   1   3
ATOM      3  C   UNL     1     -17.856   3.650 -16.409  1.00  0.00     0.027 C 
BRANCH   3   4
ATOM      4  C   UNL     1     -18.835   4.109 -17.496  1.00  0.00     0.004 C 
BRANCH   4   5
ATOM      5  C   UNL     1     -18.736   5.625 -17.722  1.00  0.00     0.000 C 
BRANCH   5   6
ATOM      6  C   UNL     1     -20.023   6.369 -17.331  1.00  0.00     0.000 C 
BRANCH   6   7
ATOM      7  C   UNL     1     -19.835   7.277 -16.103  1.00  0.00     0.000 C 
BRANCH   7   8
ATOM      8  C   UNL     1     -19.813   6.486 -14.785  1.00  0.00     0.006 C 
BRANCH   8   9
ATOM      9  C   UNL     1     -18.934   7.146 -13.714  1.00  0.00     0.053 C 
BRANCH   9  10
ATOM     10  C   UNL     1     -19.783   7.836 -12.694  1.00  0.00     0.041 C 
ATOM     11  O   UNL     1     -20.975   8.142 -12.963  1.00  0.00    -0.550 OA
ATOM     12  O   UNL     1     -19.245   8.186 -11.462  1.00  0.00    -0.550 OA
ENDBRANCH   9  10
ENDBRANCH   8   9
ENDBRANCH   7   8
ENDBRANCH   6   7
ENDBRANCH   5   6
ENDBRANCH   4   5
ENDBRANCH   3   4
ENDBRANCH   1   3
BRANCH   2  13
ATOM     13  C   UNL     1     -15.262   2.625 -17.746  1.00  0.00     0.027 C 
BRANCH  13  14
ATOM     14  C   UNL     1     -13.867   2.018 -17.544  1.00  0.00     0.004 C 
BRANCH  14  15
ATOM     15  C   UNL     1     -13.905   0.486 -17.434  1.00  0.00     0.000 C 
BRANCH  15  16
ATOM     16  C   UNL     1     -13.152  -0.166 -18.600  1.00  0.00     0.000 C 
BRANCH  16  17
ATOM     17  C   UNL     1     -11.950  -0.976 -18.095  1.00  0.00    -0.000 C 
BRANCH  17  18
ATOM     18  C   UNL     1     -10.646  -0.644 -18.843  1.00  0.00    -0.000 C 
BRANCH  18  19
ATOM     19  C   UNL     1      -9.440  -0.336 -17.936  1.00  0.00    -0.003 C 
ATOM     20  C   UNL     1      -8.635   0.876 -18.403  1.00  0.00     0.004 C 
ENDBRANCH  18  19
ENDBRANCH  17  18
ENDBRANCH  16  17
ENDBRANCH  15  16
ENDBRANCH  14  15
ENDBRANCH  13  14
ENDBRANCH   2  13
TORSDOF 15
ENDMDL
MODEL 7
REMARK VINA RESULT:    -4.476      3.635      7.609
REMARK INTER + INTRA:         -10.952
REMARK INTER:                  -9.640
REMARK INTRA:                  -1.313
REMARK UNBOUND:                -2.552
REMARK SMILES CCCCCCCCC=CCCCCCCCC(=O)[O-]
REMARK SMILES IDX 10 1 9 2 11 3 12 4 13 5 14 6 15 7 16 8 17 9 18 10 19 11
REMARK SMILES IDX 20 12 8 13 7 14 6 15 5 16 4 17 3 18 2 19 1 20
REMARK H PARENT
REMARK Flexibility Score: inf
ROOT
ATOM      1  C   UNL     1     -19.204   6.067 -14.914  1.00  0.00    -0.031 C 
ATOM      2  C   UNL     1     -18.998   6.970 -13.936  1.00  0.00    -0.031 C 
ENDROOT
BRANCH   1   3
ATOM      3  C   UNL     1     -20.289   6.149 -15.959  1.00  0.00     0.027 C 
BRANCH   3   4
ATOM      4  C   UNL     1     -21.418   5.149 -15.680  1.00  0.00     0.004 C 
BRANCH   4   5
ATOM      5  C   UNL     1     -20.965   3.712 -15.977  1.00  0.00     0.000 C 
BRANCH   5   6
ATOM      6  C   UNL     1     -20.611   3.494 -17.457  1.00  0.00     0.000 C 
BRANCH   6   7
ATOM      7  C   UNL     1     -19.220   2.862 -17.648  1.00  0.00     0.000 C 
BRANCH   7   8
ATOM      8  C   UNL     1     -18.471   2.677 -16.318  1.00  0.00     0.006 C 
BRANCH   8   9
ATOM      9  C   UNL     1     -17.102   3.373 -16.310  1.00  0.00     0.053 C 
BRANCH   9  10
ATOM     10  C   UNL     1     -16.353   3.065 -17.567  1.00  0.00     0.041 C 
ATOM     11  O   UNL     1     -15.917   1.902 -17.778  1.00  0.00    -0.550 OA
ATOM     12  O   UNL     1     -16.093   4.074 -18.486  1.00  0.00    -0.550 OA
ENDBRANCH   9  10
ENDBRANCH   8   9
ENDBRANCH   7   8
ENDBRANCH   6   7
ENDBRANCH   5   6
ENDBRANCH   4   5
ENDBRANCH   3   4
ENDBRANCH   1   3
BRANCH   2  13
ATOM     13  C   UNL     1     -19.793   8.239 -13.734  1.00  0.00     0.027 C 
BRANCH  13  14
ATOM     14  C   UNL     1     -20.659   8.169 -12.469  1.00  0.00     0.004 C 
BRANCH  14  15
ATOM     15  C   UNL     1     -19.848   8.429 -11.190  1.00  0.00     0.000 C 
BRANCH  15  16
ATOM     16  C   UNL     1     -19.786   9.929 -10.876  1.00  0.00     0.000 C 
BRANCH  16  17
ATOM     17  C   UNL     1     -20.974  10.359 -10.004  1.00  0.00    -0.000 C 
BRANCH  17  18
ATOM     18  C   UNL     1     -20.548  11.175  -8.770  1.00  0.00    -0.000 C 
BRANCH  18  19
ATOM     19  C   UNL     1     -21.395  10.928  -7.508  1.00  0.00    -0.003 C 
ATOM     20  C   UNL     1     -20.553  10.573  -6.283  1.00  0.00     0.004 C 
ENDBRANCH  18  19
ENDBRANCH  17  18
ENDBRANCH  16  17
ENDBRANCH  15  16
ENDBRANCH  14  15
ENDBRANCH  13  14
ENDBRANCH   2  13
TORSDOF 15
ENDMDL
MODEL 8
REMARK VINA RESULT:    -4.471      3.840      6.595
REMARK INTER + INTRA:         -10.944
REMARK INTER:                  -8.966
REMARK INTRA:                  -1.978
REMARK UNBOUND:                -2.552
REMARK SMILES CCCCCCCCC=CCCCCCCCC(=O)[O-]
REMARK SMILES IDX 10 1 9 2 11 3 12 4 13 5 14 6 15 7 16 8 17 9 18 10 19 11
REMARK SMILES IDX 20 12 8 13 7 14 6 15 5 16 4 17 3 18 2 19 1 20
REMARK H PARENT
REMARK Flexibility Score: inf
ROOT
ATOM      1  C   UNL     1     -17.319   2.737 -16.631  1.00  0.00    -0.031 C 
ATOM      2  C   UNL     1     -18.630   2.424 -16.640  1.00  0.00    -0.031 C 
ENDROOT
BRANCH   1   3
ATOM      3  C   UNL     1     -16.602   3.508 -17.711  1.00  0.00     0.027 C 
BRANCH   3   4
ATOM      4  C   UNL     1     -15.151   3.038 -17.872  1.00  0.00     0.004 C 
BRANCH   4   5
ATOM      5  C   UNL     1     -14.789   1.995 -16.804  1.00  0.00     0.000 C 
BRANCH   5   6
ATOM      6  C   UNL     1     -14.269   0.681 -17.409  1.00  0.00     0.000 C 
BRANCH   6   7
ATOM      7  C   UNL     1     -14.512   0.588 -18.926  1.00  0.00     0.000 C 
BRANCH   7   8
ATOM      8  C   UNL     1     -13.269   0.106 -19.692  1.00  0.00     0.006 C 
BRANCH   8   9
ATOM      9  C   UNL     1     -11.958   0.504 -19.000  1.00  0.00     0.053 C 
BRANCH   9  10
ATOM     10  C   UNL     1     -11.150  -0.713 -18.676  1.00  0.00     0.041 C 
ATOM     11  O   UNL     1     -11.104  -1.148 -17.495  1.00  0.00    -0.550 OA
ATOM     12  O   UNL     1     -10.409  -1.340 -19.670  1.00  0.00    -0.550 OA
ENDBRANCH   9  10
ENDBRANCH   8   9
ENDBRANCH   7   8
ENDBRANCH   6   7
ENDBRANCH   5   6
ENDBRANCH   4   5
ENDBRANCH   3   4
ENDBRANCH   1   3
BRANCH   2  13
ATOM     13  C   UNL     1     -19.617   2.821 -17.713  1.00  0.00     0.027 C 
BRANCH  13  14
ATOM     14  C   UNL     1     -20.765   3.665 -17.142  1.00  0.00     0.004 C 
BRANCH  14  15
ATOM     15  C   UNL     1     -21.009   4.946 -17.953  1.00  0.00     0.000 C 
BRANCH  15  16
ATOM     16  C   UNL     1     -19.721   5.411 -18.644  1.00  0.00     0.000 C 
BRANCH  16  17
ATOM     17  C   UNL     1     -18.989   6.460 -17.795  1.00  0.00    -0.000 C 
BRANCH  17  18
ATOM     18  C   UNL     1     -19.949   7.426 -17.076  1.00  0.00    -0.000 C 
BRANCH  18  19
ATOM     19  C   UNL     1     -19.832   7.431 -15.541  1.00  0.00    -0.003 C 
ATOM     20  C   UNL     1     -19.131   6.190 -14.990  1.00  0.00     0.004 C 
ENDBRANCH  18  19
ENDBRANCH  17  18
ENDBRANCH  16  17
ENDBRANCH  15  16
ENDBRANCH  14  15
ENDBRANCH  13  14
ENDBRANCH   2  13
TORSDOF 15
ENDMDL
MODEL 9
REMARK VINA RESULT:    -4.457      4.564      7.348
REMARK INTER + INTRA:         -10.918
REMARK INTER:                  -9.258
REMARK INTRA:                  -1.660
REMARK UNBOUND:                -2.552
REMARK SMILES CCCCCCCCC=CCCCCCCCC(=O)[O-]
REMARK SMILES IDX 10 1 9 2 11 3 12 4 13 5 14 6 15 7 16 8 17 9 18 10 19 11
REMARK SMILES IDX 20 12 8 13 7 14 6 15 5 16 4 17 3 18 2 19 1 20
REMARK H PARENT
REMARK Flexibility Score: inf
ROOT
ATOM      1  C   UNL     1     -15.046   2.870 -17.860  1.00  0.00    -0.031 C 
ATOM      2  C   UNL     1     -16.231   3.499 -17.732  1.00  0.00    -0.031 C 
ENDROOT
BRANCH   1   3
ATOM      3  C   UNL     1     -14.417   1.980 -16.817  1.00  0.00     0.027 C 
BRANCH   3   4
ATOM      4  C   UNL     1     -14.305   0.531 -17.304  1.00  0.00     0.004 C 
BRANCH   4   5
ATOM      5  C   UNL     1     -14.054   0.478 -18.818  1.00  0.00     0.000 C 
BRANCH   5   6
ATOM      6  C   UNL     1     -12.727  -0.209 -19.177  1.00  0.00     0.000 C 
BRANCH   6   7
ATOM      7  C   UNL     1     -12.115  -0.976 -17.992  1.00  0.00     0.000 C 
BRANCH   7   8
ATOM      8  C   UNL     1     -10.585  -0.844 -17.932  1.00  0.00     0.006 C 
BRANCH   8   9
ATOM      9  C   UNL     1     -10.007  -0.113 -19.151  1.00  0.00     0.053 C 
BRANCH   9  10
ATOM     10  C   UNL     1      -9.218   1.082 -18.716  1.00  0.00     0.041 C 
ATOM     11  O   UNL     1      -8.429   1.000 -17.738  1.00  0.00    -0.550 OA
ATOM     12  O   UNL     1      -9.390   2.301 -19.360  1.00  0.00    -0.550 OA
ENDBRANCH   9  10
ENDBRANCH   8   9
ENDBRANCH   7   8
ENDBRANCH   6   7
ENDBRANCH   5   6
ENDBRANCH   4   5
ENDBRANCH   3   4
ENDBRANCH   1   3
BRANCH   2  13
ATOM     13  C   UNL     1     -17.152   3.397 -16.539  1.00  0.00     0.027 C 
BRANCH  13  14
ATOM     14  C   UNL     1     -18.181   2.271 -16.712  1.00  0.00     0.004 C 
BRANCH  14  15
ATOM     15  C   UNL     1     -19.459   2.749 -17.417  1.00  0.00     0.000 C 
BRANCH  15  16
ATOM     16  C   UNL     1     -20.619   2.878 -16.421  1.00  0.00     0.000 C 
BRANCH  16  17
ATOM     17  C   UNL     1     -21.065   4.340 -16.280  1.00  0.00    -0.000 C 
BRANCH  17  18
ATOM     18  C   UNL     1     -20.317   5.288 -17.235  1.00  0.00    -0.000 C 
BRANCH  18  19
ATOM     19  C   UNL     1     -19.489   6.385 -16.540  1.00  0.00    -0.003 C 
ATOM     20  C   UNL     1     -19.277   6.121 -15.050  1.00  0.00     0.004 C 
ENDBRANCH  18  19
ENDBRANCH  17  18
ENDBRANCH  16  17
ENDBRANCH  15  16
ENDBRANCH  14  15
ENDBRANCH  13  14
ENDBRANCH   2  13
TORSDOF 15
ENDMDL
