MODEL 1
REMARK VINA RESULT:    -4.593      0.000      0.000
REMARK INTER + INTRA:          -4.929
REMARK INTER:                  -4.861
REMARK INTRA:                  -0.067
REMARK UNBOUND:                -0.067
REMARK SMILES CC(=O)c1cccc(C)c1
REMARK SMILES IDX 9 1 8 2 10 3 4 4 5 5 6 6 7 7 2 8 3 9 1 10
REMARK H PARENT
REMARK Flexibility Score: inf
ROOT
ATOM      1  C   UNL     1     147.933 144.226 142.875  1.00  0.00     0.044 C 
ATOM      2  C   UNL     1     147.672 145.235 143.953  1.00  0.00    -0.050 A 
ATOM      3  C   UNL     1     146.507 146.019 143.921  1.00  0.00     0.015 A 
ATOM      4  C   UNL     1     146.268 146.996 144.909  1.00  0.00     0.017 A 
ATOM      5  C   UNL     1     147.229 147.182 145.921  1.00  0.00     0.012 A 
ATOM      6  C   UNL     1     148.397 146.415 145.943  1.00  0.00     0.001 A 
ATOM      7  C   UNL     1     148.623 145.451 144.961  1.00  0.00     0.003 A 
ENDROOT
BRANCH   4   8
ATOM      8  C   UNL     1     145.033 147.826 144.894  1.00  0.00     0.159 C 
ATOM      9  O   UNL     1     144.895 148.727 144.022  1.00  0.00    -0.295 OA
ATOM     10  C   UNL     1     143.931 147.628 145.892  1.00  0.00     0.093 C 
ENDBRANCH   4   8
TORSDOF 1
ENDMDL
MODEL 2
REMARK VINA RESULT:    -4.497      1.023      2.058
REMARK INTER + INTRA:          -4.828
REMARK INTER:                  -4.756
REMARK INTRA:                  -0.072
REMARK UNBOUND:                -0.067
REMARK SMILES CC(=O)c1cccc(C)c1
REMARK SMILES IDX 9 1 8 2 10 3 4 4 5 5 6 6 7 7 2 8 3 9 1 10
REMARK H PARENT
REMARK Flexibility Score: inf
ROOT
ATOM      1  C   UNL     1     148.909 145.656 146.203  1.00  0.00     0.044 C 
ATOM      2  C   UNL     1     147.950 146.200 145.186  1.00  0.00    -0.050 A 
ATOM      3  C   UNL     1     146.784 146.867 145.599  1.00  0.00     0.015 A 
ATOM      4  C   UNL     1     145.857 147.349 144.654  1.00  0.00     0.017 A 
ATOM      5  C   UNL     1     146.114 147.137 143.285  1.00  0.00     0.012 A 
ATOM      6  C   UNL     1     147.264 146.458 142.875  1.00  0.00     0.001 A 
ATOM      7  C   UNL     1     148.175 145.985 143.820  1.00  0.00     0.003 A 
ENDROOT
BRANCH   4   8
ATOM      8  C   UNL     1     144.624 148.067 145.075  1.00  0.00     0.159 C 
ATOM      9  O   UNL     1     144.245 149.089 144.439  1.00  0.00    -0.295 OA
ATOM     10  C   UNL     1     143.802 147.614 146.245  1.00  0.00     0.093 C 
ENDBRANCH   4   8
TORSDOF 1
ENDMDL
MODEL 3
REMARK VINA RESULT:    -3.834      8.319      9.751
REMARK INTER + INTRA:          -4.126
REMARK INTER:                  -4.049
REMARK INTRA:                  -0.077
REMARK UNBOUND:                -0.067
REMARK SMILES CC(=O)c1cccc(C)c1
REMARK SMILES IDX 9 1 8 2 10 3 4 4 5 5 6 6 7 7 2 8 3 9 1 10
REMARK H PARENT
REMARK Flexibility Score: inf
ROOT
ATOM      1  C   UNL     1     151.772 141.624 152.271  1.00  0.00     0.044 C 
ATOM      2  C   UNL     1     151.743 141.442 150.783  1.00  0.00    -0.050 A 
ATOM      3  C   UNL     1     152.884 141.723 150.013  1.00  0.00     0.015 A 
ATOM      4  C   UNL     1     152.857 141.591 148.610  1.00  0.00     0.017 A 
ATOM      5  C   UNL     1     151.659 141.184 147.993  1.00  0.00     0.012 A 
ATOM      6  C   UNL     1     150.518 140.922 148.756  1.00  0.00     0.001 A 
ATOM      7  C   UNL     1     150.556 141.056 150.144  1.00  0.00     0.003 A 
ENDROOT
BRANCH   4   8
ATOM      8  C   UNL     1     154.061 141.875 147.783  1.00  0.00     0.159 C 
ATOM      9  O   UNL     1     153.940 142.038 146.538  1.00  0.00    -0.295 OA
ATOM     10  C   UNL     1     155.431 141.975 148.383  1.00  0.00     0.093 C 
ENDBRANCH   4   8
TORSDOF 1
ENDMDL
MODEL 4
REMARK VINA RESULT:    -3.228      2.168      4.159
REMARK INTER + INTRA:          -3.484
REMARK INTER:                  -3.414
REMARK INTRA:                  -0.070
REMARK UNBOUND:                -0.067
REMARK SMILES CC(=O)c1cccc(C)c1
REMARK SMILES IDX 9 1 8 2 10 3 4 4 5 5 6 6 7 7 2 8 3 9 1 10
REMARK H PARENT
REMARK Flexibility Score: inf
ROOT
ATOM      1  C   UNL     1     144.145 148.051 145.442  1.00  0.00     0.044 C 
ATOM      2  C   UNL     1     145.441 147.549 144.877  1.00  0.00    -0.050 A 
ATOM      3  C   UNL     1     146.432 147.036 145.730  1.00  0.00     0.015 A 
ATOM      4  C   UNL     1     147.669 146.596 145.215  1.00  0.00     0.017 A 
ATOM      5  C   UNL     1     147.897 146.695 143.829  1.00  0.00     0.012 A 
ATOM      6  C   UNL     1     146.918 147.223 142.983  1.00  0.00     0.001 A 
ATOM      7  C   UNL     1     145.698 147.655 143.503  1.00  0.00     0.003 A 
ENDROOT
BRANCH   4   8
ATOM      8  C   UNL     1     148.724 146.040 146.104  1.00  0.00     0.159 C 
ATOM      9  O   UNL     1     149.122 146.709 147.097  1.00  0.00    -0.295 OA
ATOM     10  C   UNL     1     149.340 144.695 145.860  1.00  0.00     0.093 C 
ENDBRANCH   4   8
TORSDOF 1
ENDMDL
MODEL 5
REMARK VINA RESULT:    -3.015      8.964      9.921
REMARK INTER + INTRA:          -3.258
REMARK INTER:                  -3.184
REMARK INTRA:                  -0.075
REMARK UNBOUND:                -0.067
REMARK SMILES CC(=O)c1cccc(C)c1
REMARK SMILES IDX 9 1 8 2 10 3 4 4 5 5 6 6 7 7 2 8 3 9 1 10
REMARK H PARENT
REMARK Flexibility Score: inf
ROOT
ATOM      1  C   UNL     1     150.282 140.501 149.766  1.00  0.00     0.044 C 
ATOM      2  C   UNL     1     151.573 141.254 149.900  1.00  0.00    -0.050 A 
ATOM      3  C   UNL     1     152.480 141.297 148.828  1.00  0.00     0.015 A 
ATOM      4  C   UNL     1     153.713 141.970 148.954  1.00  0.00     0.017 A 
ATOM      5  C   UNL     1     154.023 142.586 150.182  1.00  0.00     0.012 A 
ATOM      6  C   UNL     1     153.129 142.527 151.254  1.00  0.00     0.001 A 
ATOM      7  C   UNL     1     151.912 141.858 151.118  1.00  0.00     0.003 A 
ENDROOT
BRANCH   4   8
ATOM      8  C   UNL     1     154.679 142.034 147.825  1.00  0.00     0.159 C 
ATOM      9  O   UNL     1     154.253 142.160 146.644  1.00  0.00    -0.295 OA
ATOM     10  C   UNL     1     156.160 141.954 148.042  1.00  0.00     0.093 C 
ENDBRANCH   4   8
TORSDOF 1
ENDMDL
MODEL 6
REMARK VINA RESULT:    -2.721      8.900     10.189
REMARK INTER + INTRA:          -2.948
REMARK INTER:                  -2.870
REMARK INTRA:                  -0.078
REMARK UNBOUND:                -0.067
REMARK SMILES CC(=O)c1cccc(C)c1
REMARK SMILES IDX 9 1 8 2 10 3 4 4 5 5 6 6 7 7 2 8 3 9 1 10
REMARK H PARENT
REMARK Flexibility Score: inf
ROOT
ATOM      1  C   UNL     1     151.179 141.603 152.312  1.00  0.00     0.044 C 
ATOM      2  C   UNL     1     151.710 141.500 150.913  1.00  0.00    -0.050 A 
ATOM      3  C   UNL     1     152.999 141.965 150.610  1.00  0.00     0.015 A 
ATOM      4  C   UNL     1     153.495 141.907 149.291  1.00  0.00     0.017 A 
ATOM      5  C   UNL     1     152.665 141.385 148.280  1.00  0.00     0.012 A 
ATOM      6  C   UNL     1     151.375 140.939 148.578  1.00  0.00     0.001 A 
ATOM      7  C   UNL     1     150.895 141.001 149.887  1.00  0.00     0.003 A 
ENDROOT
BRANCH   4   8
ATOM      8  C   UNL     1     154.863 142.387 148.956  1.00  0.00     0.159 C 
ATOM      9  O   UNL     1     155.495 143.101 149.782  1.00  0.00    -0.295 OA
ATOM     10  C   UNL     1     155.527 142.047 147.655  1.00  0.00     0.093 C 
ENDBRANCH   4   8
TORSDOF 1
ENDMDL
MODEL 7
REMARK VINA RESULT:    -2.350      1.367      2.907
REMARK INTER + INTRA:          -2.555
REMARK INTER:                  -2.486
REMARK INTRA:                  -0.069
REMARK UNBOUND:                -0.067
REMARK SMILES CC(=O)c1cccc(C)c1
REMARK SMILES IDX 9 1 8 2 10 3 4 4 5 5 6 6 7 7 2 8 3 9 1 10
REMARK H PARENT
REMARK Flexibility Score: inf
ROOT
ATOM      1  C   UNL     1     149.158 148.014 148.244  1.00  0.00     0.044 C 
ATOM      2  C   UNL     1     148.681 147.233 147.055  1.00  0.00    -0.050 A 
ATOM      3  C   UNL     1     147.578 147.683 146.311  1.00  0.00     0.015 A 
ATOM      4  C   UNL     1     147.098 146.939 145.214  1.00  0.00     0.017 A 
ATOM      5  C   UNL     1     147.737 145.727 144.888  1.00  0.00     0.012 A 
ATOM      6  C   UNL     1     148.823 145.270 145.640  1.00  0.00     0.001 A 
ATOM      7  C   UNL     1     149.290 146.015 146.723  1.00  0.00     0.003 A 
ENDROOT
BRANCH   4   8
ATOM      8  C   UNL     1     145.938 147.407 144.409  1.00  0.00     0.159 C 
ATOM      9  O   UNL     1     146.061 147.559 143.163  1.00  0.00    -0.295 OA
ATOM     10  C   UNL     1     144.608 147.710 145.034  1.00  0.00     0.093 C 
ENDBRANCH   4   8
TORSDOF 1
ENDMDL
