MODEL 1
REMARK VINA RESULT:    -5.256      0.000      0.000
REMARK INTER + INTRA:          -6.849
REMARK INTER:                  -6.331
REMARK INTRA:                  -0.518
REMARK UNBOUND:                -0.518
REMARK SMILES CCCCc1oc(O)c2ccccc12
REMARK SMILES IDX 4 1 5 2 7 3 6 4 9 5 14 6 10 7 13 8 11 9 12 10 8 11 3 13 2 14
REMARK SMILES IDX 1 15
REMARK H PARENT 8 12
REMARK Flexibility Score: inf
ROOT
ATOM      1  C   UNL     1       9.216 -13.257  -5.124  1.00  0.00     0.076 C 
ENDROOT
BRANCH   1   2
ATOM      2  C   UNL     1       8.068 -13.932  -5.809  1.00  0.00     0.116 A 
ATOM      3  C   UNL     1       6.834 -14.698  -7.388  1.00  0.00     0.290 A 
ATOM      4  O   UNL     1       7.975 -14.092  -7.118  1.00  0.00    -0.430 OA
ATOM      5  C   UNL     1       6.150 -14.942  -6.219  1.00  0.00     0.066 A 
ATOM      6  C   UNL     1       6.934 -14.453  -5.209  1.00  0.00     0.027 A 
ATOM      7  C   UNL     1       4.917 -15.541  -5.976  1.00  0.00     0.016 A 
ATOM      8  C   UNL     1       6.536 -14.523  -3.874  1.00  0.00     0.012 A 
ATOM      9  C   UNL     1       4.489 -15.631  -4.637  1.00  0.00     0.001 A 
ATOM     10  C   UNL     1       5.294 -15.123  -3.592  1.00  0.00     0.001 A 
BRANCH   3  11
ATOM     11  O   UNL     1       6.404 -15.029  -8.667  1.00  0.00    -0.480 OA
ATOM     12  H   UNL     1       5.439 -15.285  -8.833  1.00  0.00     0.297 HD
ENDBRANCH   3  11
ENDBRANCH   1   2
BRANCH   1  13
ATOM     13  C   UNL     1      10.411 -14.212  -5.016  1.00  0.00     0.008 C 
BRANCH  13  14
ATOM     14  C   UNL     1      10.273 -15.197  -3.844  1.00  0.00    -0.003 C 
ATOM     15  C   UNL     1       9.953 -14.499  -2.522  1.00  0.00     0.004 C 
ENDBRANCH  13  14
ENDBRANCH   1  13
TORSDOF 4
ENDMDL
MODEL 2
REMARK VINA RESULT:    -5.058      2.091      4.756
REMARK INTER + INTRA:          -6.610
REMARK INTER:                  -6.086
REMARK INTRA:                  -0.524
REMARK UNBOUND:                -0.518
REMARK SMILES CCCCc1oc(O)c2ccccc12
REMARK SMILES IDX 4 1 5 2 7 3 6 4 9 5 14 6 10 7 13 8 11 9 12 10 8 11 3 13 2 14
REMARK SMILES IDX 1 15
REMARK H PARENT 8 12
REMARK Flexibility Score: inf
ROOT
ATOM      1  C   UNL     1       6.101 -14.365  -4.128  1.00  0.00     0.076 C 
ENDROOT
BRANCH   1   2
ATOM      2  C   UNL     1       7.433 -14.832  -4.628  1.00  0.00     0.116 A 
ATOM      3  C   UNL     1       9.430 -15.615  -4.604  1.00  0.00     0.290 A 
ATOM      4  O   UNL     1       8.383 -15.330  -3.854  1.00  0.00    -0.430 OA
ATOM      5  C   UNL     1       9.166 -15.291  -5.915  1.00  0.00     0.066 A 
ATOM      6  C   UNL     1       7.892 -14.788  -5.934  1.00  0.00     0.027 A 
ATOM      7  C   UNL     1       9.938 -15.392  -7.069  1.00  0.00     0.016 A 
ATOM      8  C   UNL     1       7.298 -14.344  -7.115  1.00  0.00     0.012 A 
ATOM      9  C   UNL     1       9.365 -14.954  -8.278  1.00  0.00     0.001 A 
ATOM     10  C   UNL     1       8.051 -14.432  -8.300  1.00  0.00     0.001 A 
BRANCH   3  11
ATOM     11  O   UNL     1      10.616 -16.158  -4.124  1.00  0.00    -0.480 OA
ATOM     12  H   UNL     1      10.758 -17.160  -4.126  1.00  0.00     0.297 HD
ENDBRANCH   3  11
ENDBRANCH   1   2
BRANCH   1  13
ATOM     13  C   UNL     1       5.113 -15.537  -4.065  1.00  0.00     0.008 C 
BRANCH  13  14
ATOM     14  C   UNL     1       4.240 -15.640  -5.326  1.00  0.00    -0.003 C 
ATOM     15  C   UNL     1       3.783 -14.275  -5.840  1.00  0.00     0.004 C 
ENDBRANCH  13  14
ENDBRANCH   1  13
TORSDOF 4
ENDMDL
MODEL 3
REMARK VINA RESULT:    -5.000      2.064      4.523
REMARK INTER + INTRA:          -6.541
REMARK INTER:                  -6.317
REMARK INTRA:                  -0.224
REMARK UNBOUND:                -0.518
REMARK SMILES CCCCc1oc(O)c2ccccc12
REMARK SMILES IDX 4 1 5 2 7 3 6 4 9 5 14 6 10 7 13 8 11 9 12 10 8 11 3 13 2 14
REMARK SMILES IDX 1 15
REMARK H PARENT 8 12
REMARK Flexibility Score: inf
ROOT
ATOM      1  C   UNL     1       5.018 -13.089  -3.742  1.00  0.00     0.076 C 
ENDROOT
BRANCH   1   2
ATOM      2  C   UNL     1       5.717 -14.118  -4.574  1.00  0.00     0.116 A 
ATOM      3  C   UNL     1       6.028 -15.631  -6.063  1.00  0.00     0.290 A 
ATOM      4  O   UNL     1       5.145 -14.790  -5.559  1.00  0.00    -0.430 OA
ATOM      5  C   UNL     1       7.221 -15.514  -5.387  1.00  0.00     0.066 A 
ATOM      6  C   UNL     1       7.025 -14.550  -4.434  1.00  0.00     0.027 A 
ATOM      7  C   UNL     1       8.437 -16.176  -5.532  1.00  0.00     0.016 A 
ATOM      8  C   UNL     1       8.038 -14.181  -3.549  1.00  0.00     0.012 A 
ATOM      9  C   UNL     1       9.480 -15.822  -4.656  1.00  0.00     0.001 A 
ATOM     10  C   UNL     1       9.281 -14.830  -3.668  1.00  0.00     0.001 A 
BRANCH   3  11
ATOM     11  O   UNL     1       5.772 -16.499  -7.118  1.00  0.00    -0.480 OA
ATOM     12  H   UNL     1       6.119 -17.450  -7.094  1.00  0.00     0.297 HD
ENDBRANCH   3  11
ENDBRANCH   1   2
BRANCH   1  13
ATOM     13  C   UNL     1       3.510 -13.107  -4.024  1.00  0.00     0.008 C 
BRANCH  13  14
ATOM     14  C   UNL     1       2.770 -14.171  -3.199  1.00  0.00    -0.003 C 
ATOM     15  C   UNL     1       1.467 -14.625  -3.855  1.00  0.00     0.004 C 
ENDBRANCH  13  14
ENDBRANCH   1  13
TORSDOF 4
ENDMDL
MODEL 4
REMARK VINA RESULT:    -4.738     10.623     12.270
REMARK INTER + INTRA:          -6.225
REMARK INTER:                  -5.988
REMARK INTRA:                  -0.237
REMARK UNBOUND:                -0.518
REMARK SMILES CCCCc1oc(O)c2ccccc12
REMARK SMILES IDX 4 1 5 2 7 3 6 4 9 5 14 6 10 7 13 8 11 9 12 10 8 11 3 13 2 14
REMARK SMILES IDX 1 15
REMARK H PARENT 8 12
REMARK Flexibility Score: inf
ROOT
ATOM      1  C   UNL     1       2.323 -23.008   1.949  1.00  0.00     0.076 C 
ENDROOT
BRANCH   1   2
ATOM      2  C   UNL     1       2.178 -23.899   0.754  1.00  0.00     0.116 A 
ATOM      3  C   UNL     1       1.988 -25.691  -0.410  1.00  0.00     0.290 A 
ATOM      4  O   UNL     1       2.073 -25.216   0.818  1.00  0.00    -0.430 OA
ATOM      5  C   UNL     1       2.044 -24.656  -1.314  1.00  0.00     0.066 A 
ATOM      6  C   UNL     1       2.167 -23.510  -0.575  1.00  0.00     0.027 A 
ATOM      7  C   UNL     1       2.003 -24.638  -2.706  1.00  0.00     0.016 A 
ATOM      8  C   UNL     1       2.264 -22.257  -1.179  1.00  0.00     0.012 A 
ATOM      9  C   UNL     1       2.095 -23.387  -3.345  1.00  0.00     0.001 A 
ATOM     10  C   UNL     1       2.226 -22.202  -2.584  1.00  0.00     0.001 A 
BRANCH   3  11
ATOM     11  O   UNL     1       1.865 -27.040  -0.723  1.00  0.00    -0.480 OA
ATOM     12  H   UNL     1       1.522 -27.325  -1.632  1.00  0.00     0.297 HD
ENDBRANCH   3  11
ENDBRANCH   1   2
BRANCH   1  13
ATOM     13  C   UNL     1       1.016 -22.249   2.211  1.00  0.00     0.008 C 
BRANCH  13  14
ATOM     14  C   UNL     1       1.135 -21.262   3.383  1.00  0.00    -0.003 C 
ATOM     15  C   UNL     1       0.875 -19.815   2.965  1.00  0.00     0.004 C 
ENDBRANCH  13  14
ENDBRANCH   1  13
TORSDOF 4
ENDMDL
MODEL 5
REMARK VINA RESULT:    -4.694      1.824      3.442
REMARK INTER + INTRA:          -6.172
REMARK INTER:                  -5.706
REMARK INTRA:                  -0.467
REMARK UNBOUND:                -0.518
REMARK SMILES CCCCc1oc(O)c2ccccc12
REMARK SMILES IDX 4 1 5 2 7 3 6 4 9 5 14 6 10 7 13 8 11 9 12 10 8 11 3 13 2 14
REMARK SMILES IDX 1 15
REMARK H PARENT 8 12
REMARK Flexibility Score: inf
ROOT
ATOM      1  C   UNL     1       7.729 -14.885  -4.161  1.00  0.00     0.076 C 
ENDROOT
BRANCH   1   2
ATOM      2  C   UNL     1       7.457 -14.622  -5.610  1.00  0.00     0.116 A 
ATOM      3  C   UNL     1       6.386 -14.109  -7.396  1.00  0.00     0.290 A 
ATOM      4  O   UNL     1       6.291 -14.218  -6.085  1.00  0.00    -0.430 OA
ATOM      5  C   UNL     1       7.655 -14.457  -7.802  1.00  0.00     0.066 A 
ATOM      6  C   UNL     1       8.341 -14.787  -6.663  1.00  0.00     0.027 A 
ATOM      7  C   UNL     1       8.242 -14.513  -9.062  1.00  0.00     0.016 A 
ATOM      8  C   UNL     1       9.671 -15.204  -6.706  1.00  0.00     0.012 A 
ATOM      9  C   UNL     1       9.586 -14.926  -9.138  1.00  0.00     0.001 A 
ATOM     10  C   UNL     1      10.296 -15.272  -7.965  1.00  0.00     0.001 A 
BRANCH   3  11
ATOM     11  O   UNL     1       5.349 -13.705  -8.228  1.00  0.00    -0.480 OA
ATOM     12  H   UNL     1       5.324 -12.762  -8.595  1.00  0.00     0.297 HD
ENDBRANCH   3  11
ENDBRANCH   1   2
BRANCH   1  13
ATOM     13  C   UNL     1       8.295 -13.629  -3.486  1.00  0.00     0.008 C 
BRANCH  13  14
ATOM     14  C   UNL     1       9.555 -13.923  -2.658  1.00  0.00    -0.003 C 
ATOM     15  C   UNL     1      10.232 -15.234  -3.058  1.00  0.00     0.004 C 
ENDBRANCH  13  14
ENDBRANCH   1  13
TORSDOF 4
ENDMDL
MODEL 6
REMARK VINA RESULT:    -4.631      9.790     11.745
REMARK INTER + INTRA:          -6.096
REMARK INTER:                  -5.794
REMARK INTRA:                  -0.302
REMARK UNBOUND:                -0.518
REMARK SMILES CCCCc1oc(O)c2ccccc12
REMARK SMILES IDX 4 1 5 2 7 3 6 4 9 5 14 6 10 7 13 8 11 9 12 10 8 11 3 13 2 14
REMARK SMILES IDX 1 15
REMARK H PARENT 8 12
REMARK Flexibility Score: inf
ROOT
ATOM      1  C   UNL     1       2.000 -24.586   0.534  1.00  0.00     0.076 C 
ENDROOT
BRANCH   1   2
ATOM      2  C   UNL     1       2.731 -23.754  -0.473  1.00  0.00     0.116 A 
ATOM      3  C   UNL     1       4.273 -22.548  -1.350  1.00  0.00     0.290 A 
ATOM      4  O   UNL     1       3.937 -23.247  -0.282  1.00  0.00    -0.430 OA
ATOM      5  C   UNL     1       3.255 -22.591  -2.274  1.00  0.00     0.066 A 
ATOM      6  C   UNL     1       2.267 -23.359  -1.717  1.00  0.00     0.027 A 
ATOM      7  C   UNL     1       3.123 -22.018  -3.536  1.00  0.00     0.016 A 
ATOM      8  C   UNL     1       1.067 -23.604  -2.384  1.00  0.00     0.012 A 
ATOM      9  C   UNL     1       1.925 -22.251  -4.236  1.00  0.00     0.001 A 
ATOM     10  C   UNL     1       0.901 -23.040  -3.662  1.00  0.00     0.001 A 
BRANCH   3  11
ATOM     11  O   UNL     1       5.480 -21.874  -1.500  1.00  0.00    -0.480 OA
ATOM     12  H   UNL     1       6.354 -22.384  -1.502  1.00  0.00     0.297 HD
ENDBRANCH   3  11
ENDBRANCH   1   2
BRANCH   1  13
ATOM     13  C   UNL     1       2.371 -26.066   0.375  1.00  0.00     0.008 C 
BRANCH  13  14
ATOM     14  C   UNL     1       1.629 -26.736  -0.792  1.00  0.00    -0.003 C 
ATOM     15  C   UNL     1       0.875 -27.996  -0.367  1.00  0.00     0.004 C 
ENDBRANCH  13  14
ENDBRANCH   1  13
TORSDOF 4
ENDMDL
MODEL 7
REMARK VINA RESULT:    -4.626      2.029      4.695
REMARK INTER + INTRA:          -6.090
REMARK INTER:                  -5.672
REMARK INTRA:                  -0.418
REMARK UNBOUND:                -0.518
REMARK SMILES CCCCc1oc(O)c2ccccc12
REMARK SMILES IDX 4 1 5 2 7 3 6 4 9 5 14 6 10 7 13 8 11 9 12 10 8 11 3 13 2 14
REMARK SMILES IDX 1 15
REMARK H PARENT 8 12
REMARK Flexibility Score: inf
ROOT
ATOM      1  C   UNL     1       6.861 -15.205  -7.653  1.00  0.00     0.076 C 
ENDROOT
BRANCH   1   2
ATOM      2  C   UNL     1       7.089 -14.975  -6.191  1.00  0.00     0.116 A 
ATOM      3  C   UNL     1       6.665 -14.705  -4.106  1.00  0.00     0.290 A 
ATOM      4  O   UNL     1       6.127 -14.957  -5.284  1.00  0.00    -0.430 OA
ATOM      5  C   UNL     1       8.025 -14.547  -4.239  1.00  0.00     0.066 A 
ATOM      6  C   UNL     1       8.299 -14.717  -5.570  1.00  0.00     0.027 A 
ATOM      7  C   UNL     1       9.021 -14.265  -3.308  1.00  0.00     0.016 A 
ATOM      8  C   UNL     1       9.598 -14.612  -6.069  1.00  0.00     0.012 A 
ATOM      9  C   UNL     1      10.343 -14.157  -3.781  1.00  0.00     0.001 A 
ATOM     10  C   UNL     1      10.629 -14.328  -5.155  1.00  0.00     0.001 A 
BRANCH   3  11
ATOM     11  O   UNL     1       5.948 -14.613  -2.919  1.00  0.00    -0.480 OA
ATOM     12  H   UNL     1       6.247 -13.980  -2.187  1.00  0.00     0.297 HD
ENDBRANCH   3  11
ENDBRANCH   1   2
BRANCH   1  13
ATOM     13  C   UNL     1       6.995 -13.887  -8.428  1.00  0.00     0.008 C 
BRANCH  13  14
ATOM     14  C   UNL     1       7.610 -14.085  -9.822  1.00  0.00    -0.003 C 
ATOM     15  C   UNL     1       9.050 -14.595  -9.765  1.00  0.00     0.004 C 
ENDBRANCH  13  14
ENDBRANCH   1  13
TORSDOF 4
ENDMDL
