MODEL 1
REMARK VINA RESULT:    -7.192      0.000      0.000
REMARK INTER + INTRA:          -7.878
REMARK INTER:                  -7.612
REMARK INTRA:                  -0.265
REMARK UNBOUND:                -0.265
REMARK SMILES O=c1cc(-c2ccccc2)oc2ccccc12
REMARK SMILES IDX 4 1 3 2 2 3 1 4 17 5 16 6 15 7 14 8 13 9 12 10 11 11 5 12
REMARK SMILES IDX 8 13 7 14 9 15 6 16 10 17
REMARK H PARENT
REMARK Flexibility Score: inf
ROOT
ATOM      1  C   UNL     1       8.043 -15.420   6.791  1.00  0.00     0.138 A 
ATOM      2  C   UNL     1       7.497 -14.604   5.778  1.00  0.00     0.100 A 
ATOM      3  C   UNL     1       6.183 -14.149   5.894  1.00  0.00     0.193 A 
ATOM      4  O   UNL     1       5.695 -13.418   4.988  1.00  0.00    -0.289 OA
ATOM      5  C   UNL     1       5.423 -14.510   7.016  1.00  0.00     0.065 A 
ATOM      6  C   UNL     1       4.094 -14.086   7.194  1.00  0.00     0.016 A 
ATOM      7  C   UNL     1       3.382 -14.476   8.333  1.00  0.00     0.001 A 
ATOM      8  C   UNL     1       3.986 -15.288   9.297  1.00  0.00     0.004 A 
ATOM      9  C   UNL     1       5.307 -15.714   9.127  1.00  0.00     0.048 A 
ATOM     10  C   UNL     1       6.030 -15.329   7.992  1.00  0.00     0.138 A 
ATOM     11  O   UNL     1       7.285 -15.739   7.840  1.00  0.00    -0.456 OA
ENDROOT
BRANCH   1  12
ATOM     12  C   UNL     1       9.441 -15.949   6.744  1.00  0.00     0.017 A 
ATOM     13  C   UNL     1      12.062 -17.001   6.739  1.00  0.00     0.000 A 
ATOM     14  C   UNL     1      11.661 -16.118   5.735  1.00  0.00     0.001 A 
ATOM     15  C   UNL     1      11.166 -17.362   7.745  1.00  0.00     0.001 A 
ATOM     16  C   UNL     1      10.364 -15.594   5.733  1.00  0.00     0.012 A 
ATOM     17  C   UNL     1       9.869 -16.843   7.749  1.00  0.00     0.012 A 
ENDBRANCH   1  12
TORSDOF 1
ENDMDL
MODEL 2
REMARK VINA RESULT:    -7.032      1.045      5.860
REMARK INTER + INTRA:          -7.709
REMARK INTER:                  -7.443
REMARK INTRA:                  -0.266
REMARK UNBOUND:                -0.265
REMARK SMILES O=c1cc(-c2ccccc2)oc2ccccc12
REMARK SMILES IDX 4 1 3 2 2 3 1 4 17 5 16 6 15 7 14 8 13 9 12 10 11 11 5 12
REMARK SMILES IDX 8 13 7 14 9 15 6 16 10 17
REMARK H PARENT
REMARK Flexibility Score: inf
ROOT
ATOM      1  C   UNL     1       6.724 -15.313   7.236  1.00  0.00     0.138 A 
ATOM      2  C   UNL     1       7.083 -14.396   6.226  1.00  0.00     0.100 A 
ATOM      3  C   UNL     1       8.361 -14.451   5.668  1.00  0.00     0.193 A 
ATOM      4  O   UNL     1       8.682 -13.631   4.765  1.00  0.00    -0.289 OA
ATOM      5  C   UNL     1       9.271 -15.418   6.121  1.00  0.00     0.065 A 
ATOM      6  C   UNL     1      10.574 -15.527   5.602  1.00  0.00     0.016 A 
ATOM      7  C   UNL     1      11.440 -16.511   6.089  1.00  0.00     0.001 A 
ATOM      8  C   UNL     1      11.017 -17.387   7.093  1.00  0.00     0.004 A 
ATOM      9  C   UNL     1       9.724 -17.284   7.615  1.00  0.00     0.048 A 
ATOM     10  C   UNL     1       8.848 -16.305   7.133  1.00  0.00     0.138 A 
ATOM     11  O   UNL     1       7.621 -16.216   7.635  1.00  0.00    -0.456 OA
ENDROOT
BRANCH   1  12
ATOM     12  C   UNL     1       5.376 -15.322   7.885  1.00  0.00     0.017 A 
ATOM     13  C   UNL     1       2.806 -15.263   9.052  1.00  0.00     0.000 A 
ATOM     14  C   UNL     1       3.743 -16.206   9.473  1.00  0.00     0.001 A 
ATOM     15  C   UNL     1       3.141 -14.349   8.053  1.00  0.00     0.001 A 
ATOM     16  C   UNL     1       5.018 -16.240   8.898  1.00  0.00     0.012 A 
ATOM     17  C   UNL     1       4.413 -14.377   7.474  1.00  0.00     0.012 A 
ENDBRANCH   1  12
TORSDOF 1
ENDMDL
MODEL 3
REMARK VINA RESULT:    -6.505      1.284      6.310
REMARK INTER + INTRA:          -7.151
REMARK INTER:                  -6.888
REMARK INTRA:                  -0.263
REMARK UNBOUND:                -0.265
REMARK SMILES O=c1cc(-c2ccccc2)oc2ccccc12
REMARK SMILES IDX 4 1 3 2 2 3 1 4 17 5 16 6 15 7 14 8 13 9 12 10 11 11 5 12
REMARK SMILES IDX 8 13 7 14 9 15 6 16 10 17
REMARK H PARENT
REMARK Flexibility Score: inf
ROOT
ATOM      1  C   UNL     1       7.515 -15.891   8.022  1.00  0.00     0.138 A 
ATOM      2  C   UNL     1       7.980 -16.685   9.092  1.00  0.00     0.100 A 
ATOM      3  C   UNL     1       9.291 -17.163   9.076  1.00  0.00     0.193 A 
ATOM      4  O   UNL     1       9.707 -17.873  10.032  1.00  0.00    -0.289 OA
ATOM      5  C   UNL     1      10.128 -16.848   7.995  1.00  0.00     0.065 A 
ATOM      6  C   UNL     1      11.458 -17.298   7.917  1.00  0.00     0.016 A 
ATOM      7  C   UNL     1      12.249 -16.953   6.816  1.00  0.00     0.001 A 
ATOM      8  C   UNL     1      11.723 -16.162   5.791  1.00  0.00     0.004 A 
ATOM      9  C   UNL     1      10.401 -15.712   5.861  1.00  0.00     0.048 A 
ATOM     10  C   UNL     1       9.600 -16.049   6.958  1.00  0.00     0.138 A 
ATOM     11  O   UNL     1       8.346 -15.616   7.016  1.00  0.00    -0.456 OA
ENDROOT
BRANCH   1  12
ATOM     12  C   UNL     1       6.126 -15.339   7.962  1.00  0.00     0.017 A 
ATOM     13  C   UNL     1       3.494 -14.320   7.945  1.00  0.00     0.000 A 
ATOM     14  C   UNL     1       4.259 -14.297   6.779  1.00  0.00     0.001 A 
ATOM     15  C   UNL     1       4.031 -14.847   9.119  1.00  0.00     0.001 A 
ATOM     16  C   UNL     1       5.564 -14.801   6.782  1.00  0.00     0.012 A 
ATOM     17  C   UNL     1       5.334 -15.352   9.129  1.00  0.00     0.012 A 
ENDBRANCH   1  12
TORSDOF 1
ENDMDL
MODEL 4
REMARK VINA RESULT:    -6.452      1.262      2.614
REMARK INTER + INTRA:          -7.094
REMARK INTER:                  -6.830
REMARK INTRA:                  -0.264
REMARK UNBOUND:                -0.265
REMARK SMILES O=c1cc(-c2ccccc2)oc2ccccc12
REMARK SMILES IDX 4 1 3 2 2 3 1 4 17 5 16 6 15 7 14 8 13 9 12 10 11 11 5 12
REMARK SMILES IDX 8 13 7 14 9 15 6 16 10 17
REMARK H PARENT
REMARK Flexibility Score: inf
ROOT
ATOM      1  C   UNL     1       7.884 -16.106   8.005  1.00  0.00     0.138 A 
ATOM      2  C   UNL     1       7.598 -16.667   9.268  1.00  0.00     0.100 A 
ATOM      3  C   UNL     1       6.337 -16.476   9.837  1.00  0.00     0.193 A 
ATOM      4  O   UNL     1       6.081 -16.977  10.965  1.00  0.00    -0.289 OA
ATOM      5  C   UNL     1       5.373 -15.729   9.144  1.00  0.00     0.065 A 
ATOM      6  C   UNL     1       4.085 -15.500   9.660  1.00  0.00     0.016 A 
ATOM      7  C   UNL     1       3.161 -14.748   8.926  1.00  0.00     0.001 A 
ATOM      8  C   UNL     1       3.514 -14.222   7.680  1.00  0.00     0.004 A 
ATOM      9  C   UNL     1       4.792 -14.445   7.161  1.00  0.00     0.048 A 
ATOM     10  C   UNL     1       5.724 -15.197   7.885  1.00  0.00     0.138 A 
ATOM     11  O   UNL     1       6.937 -15.404   7.382  1.00  0.00    -0.456 OA
ENDROOT
BRANCH   1  12
ATOM     12  C   UNL     1       9.207 -16.263   7.326  1.00  0.00     0.017 A 
ATOM     13  C   UNL     1      11.730 -16.630   6.112  1.00  0.00     0.000 A 
ATOM     14  C   UNL     1      10.835 -15.692   5.595  1.00  0.00     0.001 A 
ATOM     15  C   UNL     1      11.377 -17.385   7.230  1.00  0.00     0.001 A 
ATOM     16  C   UNL     1       9.584 -15.507   6.193  1.00  0.00     0.012 A 
ATOM     17  C   UNL     1      10.129 -17.205   7.832  1.00  0.00     0.012 A 
ENDBRANCH   1  12
TORSDOF 1
ENDMDL
MODEL 5
REMARK VINA RESULT:    -6.403      2.400      7.049
REMARK INTER + INTRA:          -7.043
REMARK INTER:                  -6.822
REMARK INTRA:                  -0.221
REMARK UNBOUND:                -0.265
REMARK SMILES O=c1cc(-c2ccccc2)oc2ccccc12
REMARK SMILES IDX 4 1 3 2 2 3 1 4 17 5 16 6 15 7 14 8 13 9 12 10 11 11 5 12
REMARK SMILES IDX 8 13 7 14 9 15 6 16 10 17
REMARK H PARENT
REMARK Flexibility Score: inf
ROOT
ATOM      1  C   UNL     1       3.594 -15.475   7.996  1.00  0.00     0.138 A 
ATOM      2  C   UNL     1       4.569 -16.190   8.724  1.00  0.00     0.100 A 
ATOM      3  C   UNL     1       5.911 -16.101   8.348  1.00  0.00     0.193 A 
ATOM      4  O   UNL     1       6.782 -16.739   9.000  1.00  0.00    -0.289 OA
ATOM      5  C   UNL     1       6.269 -15.303   7.252  1.00  0.00     0.065 A 
ATOM      6  C   UNL     1       7.602 -15.171   6.822  1.00  0.00     0.016 A 
ATOM      7  C   UNL     1       7.904 -14.361   5.722  1.00  0.00     0.001 A 
ATOM      8  C   UNL     1       6.886 -13.682   5.047  1.00  0.00     0.004 A 
ATOM      9  C   UNL     1       5.559 -13.809   5.468  1.00  0.00     0.048 A 
ATOM     10  C   UNL     1       5.245 -14.615   6.568  1.00  0.00     0.138 A 
ATOM     11  O   UNL     1       3.981 -14.729   6.961  1.00  0.00    -0.456 OA
ENDROOT
BRANCH   1  12
ATOM     12  C   UNL     1       2.137 -15.515   8.332  1.00  0.00     0.017 A 
ATOM     13  C   UNL     1      -0.599 -15.517   9.030  1.00  0.00     0.000 A 
ATOM     14  C   UNL     1      -0.121 -16.416   8.077  1.00  0.00     0.001 A 
ATOM     15  C   UNL     1       0.277 -14.618   9.639  1.00  0.00     0.001 A 
ATOM     16  C   UNL     1       1.234 -16.419   7.726  1.00  0.00     0.012 A 
ATOM     17  C   UNL     1       1.631 -14.616   9.294  1.00  0.00     0.012 A 
ENDBRANCH   1  12
TORSDOF 1
ENDMDL
MODEL 6
REMARK VINA RESULT:    -6.171      1.490      5.861
REMARK INTER + INTRA:          -6.797
REMARK INTER:                  -6.532
REMARK INTRA:                  -0.266
REMARK UNBOUND:                -0.265
REMARK SMILES O=c1cc(-c2ccccc2)oc2ccccc12
REMARK SMILES IDX 4 1 3 2 2 3 1 4 17 5 16 6 15 7 14 8 13 9 12 10 11 11 5 12
REMARK SMILES IDX 8 13 7 14 9 15 6 16 10 17
REMARK H PARENT
REMARK Flexibility Score: inf
ROOT
ATOM      1  C   UNL     1       7.665 -15.566   7.494  1.00  0.00     0.138 A 
ATOM      2  C   UNL     1       8.307 -15.433   6.244  1.00  0.00     0.100 A 
ATOM      3  C   UNL     1       9.644 -15.813   6.112  1.00  0.00     0.193 A 
ATOM      4  O   UNL     1      10.217 -15.694   4.995  1.00  0.00    -0.289 OA
ATOM      5  C   UNL     1      10.330 -16.322   7.225  1.00  0.00     0.065 A 
ATOM      6  C   UNL     1      11.676 -16.723   7.159  1.00  0.00     0.016 A 
ATOM      7  C   UNL     1      12.312 -17.224   8.300  1.00  0.00     0.001 A 
ATOM      8  C   UNL     1      11.615 -17.328   9.507  1.00  0.00     0.004 A 
ATOM      9  C   UNL     1      10.276 -16.930   9.579  1.00  0.00     0.048 A 
ATOM     10  C   UNL     1       9.629 -16.429   8.444  1.00  0.00     0.138 A 
ATOM     11  O   UNL     1       8.356 -16.055   8.524  1.00  0.00    -0.456 OA
ENDROOT
BRANCH   1  12
ATOM     12  C   UNL     1       6.238 -15.182   7.720  1.00  0.00     0.017 A 
ATOM     13  C   UNL     1       3.554 -14.479   8.245  1.00  0.00     0.000 A 
ATOM     14  C   UNL     1       4.058 -14.393   6.947  1.00  0.00     0.001 A 
ATOM     15  C   UNL     1       4.377 -14.914   9.283  1.00  0.00     0.001 A 
ATOM     16  C   UNL     1       5.387 -14.740   6.681  1.00  0.00     0.012 A 
ATOM     17  C   UNL     1       5.706 -15.263   9.025  1.00  0.00     0.012 A 
ENDBRANCH   1  12
TORSDOF 1
ENDMDL
MODEL 7
REMARK VINA RESULT:    -6.075      1.649      3.065
REMARK INTER + INTRA:          -6.696
REMARK INTER:                  -6.462
REMARK INTRA:                  -0.234
REMARK UNBOUND:                -0.265
REMARK SMILES O=c1cc(-c2ccccc2)oc2ccccc12
REMARK SMILES IDX 4 1 3 2 2 3 1 4 17 5 16 6 15 7 14 8 13 9 12 10 11 11 5 12
REMARK SMILES IDX 8 13 7 14 9 15 6 16 10 17
REMARK H PARENT
REMARK Flexibility Score: inf
ROOT
ATOM      1  C   UNL     1       6.589 -15.486   7.615  1.00  0.00     0.138 A 
ATOM      2  C   UNL     1       6.471 -15.130   8.976  1.00  0.00     0.100 A 
ATOM      3  C   UNL     1       5.212 -15.121   9.579  1.00  0.00     0.193 A 
ATOM      4  O   UNL     1       5.107 -14.804  10.795  1.00  0.00    -0.289 OA
ATOM      5  C   UNL     1       4.082 -15.465   8.823  1.00  0.00     0.065 A 
ATOM      6  C   UNL     1       2.785 -15.475   9.369  1.00  0.00     0.016 A 
ATOM      7  C   UNL     1       1.693 -15.826   8.570  1.00  0.00     0.001 A 
ATOM      8  C   UNL     1       1.883 -16.167   7.227  1.00  0.00     0.004 A 
ATOM      9  C   UNL     1       3.169 -16.158   6.677  1.00  0.00     0.048 A 
ATOM     10  C   UNL     1       4.270 -15.810   7.468  1.00  0.00     0.138 A 
ATOM     11  O   UNL     1       5.487 -15.806   6.935  1.00  0.00    -0.456 OA
ENDROOT
BRANCH   1  12
ATOM     12  C   UNL     1       7.898 -15.521   6.894  1.00  0.00     0.017 A 
ATOM     13  C   UNL     1      10.335 -15.519   5.469  1.00  0.00     0.000 A 
ATOM     14  C   UNL     1      10.178 -16.344   6.583  1.00  0.00     0.001 A 
ATOM     15  C   UNL     1       9.287 -14.696   5.060  1.00  0.00     0.001 A 
ATOM     16  C   UNL     1       8.973 -16.349   7.293  1.00  0.00     0.012 A 
ATOM     17  C   UNL     1       8.080 -14.695   5.764  1.00  0.00     0.012 A 
ENDBRANCH   1  12
TORSDOF 1
ENDMDL
MODEL 8
REMARK VINA RESULT:    -6.006      2.799      5.015
REMARK INTER + INTRA:          -6.623
REMARK INTER:                  -6.358
REMARK INTRA:                  -0.265
REMARK UNBOUND:                -0.265
REMARK SMILES O=c1cc(-c2ccccc2)oc2ccccc12
REMARK SMILES IDX 4 1 3 2 2 3 1 4 17 5 16 6 15 7 14 8 13 9 12 10 11 11 5 12
REMARK SMILES IDX 8 13 7 14 9 15 6 16 10 17
REMARK H PARENT
REMARK Flexibility Score: inf
ROOT
ATOM      1  C   UNL     1       4.374 -15.585   8.297  1.00  0.00     0.138 A 
ATOM      2  C   UNL     1       4.681 -16.684   9.126  1.00  0.00     0.100 A 
ATOM      3  C   UNL     1       3.728 -17.148  10.036  1.00  0.00     0.193 A 
ATOM      4  O   UNL     1       4.002 -18.131  10.776  1.00  0.00    -0.289 OA
ATOM      5  C   UNL     1       2.480 -16.512  10.112  1.00  0.00     0.065 A 
ATOM      6  C   UNL     1       1.477 -16.929  11.006  1.00  0.00     0.016 A 
ATOM      7  C   UNL     1       0.250 -16.260  11.041  1.00  0.00     0.001 A 
ATOM      8  C   UNL     1       0.014 -15.176  10.190  1.00  0.00     0.004 A 
ATOM      9  C   UNL     1       1.007 -14.756   9.299  1.00  0.00     0.048 A 
ATOM     10  C   UNL     1       2.239 -15.419   9.254  1.00  0.00     0.138 A 
ATOM     11  O   UNL     1       3.174 -15.012   8.403  1.00  0.00    -0.456 OA
ENDROOT
BRANCH   1  12
ATOM     12  C   UNL     1       5.336 -15.027   7.297  1.00  0.00     0.017 A 
ATOM     13  C   UNL     1       7.224 -14.031   5.448  1.00  0.00     0.000 A 
ATOM     14  C   UNL     1       5.907 -13.572   5.418  1.00  0.00     0.001 A 
ATOM     15  C   UNL     1       7.607 -14.982   6.394  1.00  0.00     0.001 A 
ATOM     16  C   UNL     1       4.967 -14.062   6.332  1.00  0.00     0.012 A 
ATOM     17  C   UNL     1       6.674 -15.476   7.309  1.00  0.00     0.012 A 
ENDBRANCH   1  12
TORSDOF 1
ENDMDL
MODEL 9
REMARK VINA RESULT:    -5.896      2.690      4.776
REMARK INTER + INTRA:          -6.506
REMARK INTER:                  -6.240
REMARK INTRA:                  -0.266
REMARK UNBOUND:                -0.265
REMARK SMILES O=c1cc(-c2ccccc2)oc2ccccc12
REMARK SMILES IDX 4 1 3 2 2 3 1 4 17 5 16 6 15 7 14 8 13 9 12 10 11 11 5 12
REMARK SMILES IDX 8 13 7 14 9 15 6 16 10 17
REMARK H PARENT
REMARK Flexibility Score: inf
ROOT
ATOM      1  C   UNL     1       4.408 -15.416   8.187  1.00  0.00     0.138 A 
ATOM      2  C   UNL     1       3.115 -14.851   8.217  1.00  0.00     0.100 A 
ATOM      3  C   UNL     1       2.179 -15.320   9.139  1.00  0.00     0.193 A 
ATOM      4  O   UNL     1       1.024 -14.814   9.166  1.00  0.00    -0.289 OA
ATOM      5  C   UNL     1       2.536 -16.348  10.024  1.00  0.00     0.065 A 
ATOM      6  C   UNL     1       1.641 -16.866  10.977  1.00  0.00     0.016 A 
ATOM      7  C   UNL     1       2.050 -17.892  11.835  1.00  0.00     0.001 A 
ATOM      8  C   UNL     1       3.347 -18.406  11.750  1.00  0.00     0.004 A 
ATOM      9  C   UNL     1       4.243 -17.896  10.805  1.00  0.00     0.048 A 
ATOM     10  C   UNL     1       3.845 -16.869   9.942  1.00  0.00     0.138 A 
ATOM     11  O   UNL     1       4.704 -16.392   9.048  1.00  0.00    -0.456 OA
ENDROOT
BRANCH   1  12
ATOM     12  C   UNL     1       5.469 -14.972   7.232  1.00  0.00     0.017 A 
ATOM     13  C   UNL     1       7.406 -14.071   5.386  1.00  0.00     0.000 A 
ATOM     14  C   UNL     1       7.741 -15.038   6.334  1.00  0.00     0.001 A 
ATOM     15  C   UNL     1       6.112 -13.551   5.350  1.00  0.00     0.001 A 
ATOM     16  C   UNL     1       6.785 -15.487   7.252  1.00  0.00     0.012 A 
ATOM     17  C   UNL     1       5.152 -13.996   6.263  1.00  0.00     0.012 A 
ENDBRANCH   1  12
TORSDOF 1
ENDMDL
