MODEL 1
REMARK VINA RESULT:    -4.083      0.000      0.000
REMARK INTER + INTRA:          -5.706
REMARK INTER:                  -5.515
REMARK INTRA:                  -0.191
REMARK UNBOUND:                -0.191
REMARK SMILES CCCCCCCC=O
REMARK SMILES IDX 5 1 4 2 3 3 2 4 1 5 6 6 7 7 8 8 9 9
REMARK H PARENT
REMARK Flexibility Score: inf
ROOT
ATOM      1  C   UNL     1      24.954  57.704  -9.330  1.00  0.00     0.000 C 
ENDROOT
BRANCH   1   2
ATOM      2  C   UNL     1      25.515  56.284  -9.467  1.00  0.00     0.000 C 
BRANCH   2   3
ATOM      3  C   UNL     1      24.987  55.374  -8.349  1.00  0.00    -0.000 C 
BRANCH   3   4
ATOM      4  C   UNL     1      23.618  54.762  -8.684  1.00  0.00    -0.003 C 
ATOM      5  C   UNL     1      22.770  54.495  -7.442  1.00  0.00     0.004 C 
ENDBRANCH   3   4
ENDBRANCH   2   3
ENDBRANCH   1   2
BRANCH   1   6
ATOM      6  C   UNL     1      25.984  58.751  -9.779  1.00  0.00     0.008 C 
BRANCH   6   7
ATOM      7  C   UNL     1      27.003  58.174 -10.772  1.00  0.00     0.072 C 
BRANCH   7   8
ATOM      8  C   UNL     1      28.255  58.998 -10.837  1.00  0.00     0.224 C 
ATOM      9  O   UNL     1      28.210  60.167 -11.189  1.00  0.00    -0.303 OA
ENDBRANCH   7   8
ENDBRANCH   6   7
ENDBRANCH   1   6
TORSDOF 6
ENDMDL
MODEL 2
REMARK VINA RESULT:    -4.061      3.048      5.843
REMARK INTER + INTRA:          -5.676
REMARK INTER:                  -5.562
REMARK INTRA:                  -0.114
REMARK UNBOUND:                -0.191
REMARK SMILES CCCCCCCC=O
REMARK SMILES IDX 5 1 4 2 3 3 2 4 1 5 6 6 7 7 8 8 9 9
REMARK H PARENT
REMARK Flexibility Score: inf
ROOT
ATOM      1  C   UNL     1      25.485  57.647  -9.414  1.00  0.00     0.000 C 
ENDROOT
BRANCH   1   2
ATOM      2  C   UNL     1      26.629  58.055 -10.349  1.00  0.00     0.000 C 
BRANCH   2   3
ATOM      3  C   UNL     1      26.932  59.555 -10.227  1.00  0.00    -0.000 C 
BRANCH   3   4
ATOM      4  C   UNL     1      28.252  59.949 -10.907  1.00  0.00    -0.003 C 
ATOM      5  C   UNL     1      29.448  59.160 -10.378  1.00  0.00     0.004 C 
ENDBRANCH   3   4
ENDBRANCH   2   3
ENDBRANCH   1   2
BRANCH   1   6
ATOM      6  C   UNL     1      25.430  56.122  -9.241  1.00  0.00     0.008 C 
BRANCH   6   7
ATOM      7  C   UNL     1      23.992  55.587  -9.266  1.00  0.00     0.072 C 
BRANCH   7   8
ATOM      8  C   UNL     1      23.609  54.944  -7.965  1.00  0.00     0.224 C 
ATOM      9  O   UNL     1      22.530  54.385  -7.845  1.00  0.00    -0.303 OA
ENDBRANCH   7   8
ENDBRANCH   6   7
ENDBRANCH   1   6
TORSDOF 6
ENDMDL
MODEL 3
REMARK VINA RESULT:    -3.958      0.979      1.144
REMARK INTER + INTRA:          -5.537
REMARK INTER:                  -5.461
REMARK INTRA:                  -0.077
REMARK UNBOUND:                -0.191
REMARK SMILES CCCCCCCC=O
REMARK SMILES IDX 5 1 4 2 3 3 2 4 1 5 6 6 7 7 8 8 9 9
REMARK H PARENT
REMARK Flexibility Score: inf
ROOT
ATOM      1  C   UNL     1      25.712  57.954  -9.677  1.00  0.00     0.000 C 
ENDROOT
BRANCH   1   2
ATOM      2  C   UNL     1      25.513  56.471  -9.347  1.00  0.00     0.000 C 
BRANCH   2   3
ATOM      3  C   UNL     1      24.047  56.178  -8.994  1.00  0.00    -0.000 C 
BRANCH   3   4
ATOM      4  C   UNL     1      23.804  54.697  -8.664  1.00  0.00    -0.003 C 
ATOM      5  C   UNL     1      22.544  54.477  -7.828  1.00  0.00     0.004 C 
ENDBRANCH   3   4
ENDBRANCH   2   3
ENDBRANCH   1   2
BRANCH   1   6
ATOM      6  C   UNL     1      26.897  58.152 -10.634  1.00  0.00     0.008 C 
BRANCH   6   7
ATOM      7  C   UNL     1      27.481  59.569 -10.549  1.00  0.00     0.072 C 
BRANCH   7   8
ATOM      8  C   UNL     1      28.970  59.554 -10.364  1.00  0.00     0.224 C 
ATOM      9  O   UNL     1      29.688  58.979 -11.166  1.00  0.00    -0.303 OA
ENDBRANCH   7   8
ENDBRANCH   6   7
ENDBRANCH   1   6
TORSDOF 6
ENDMDL
MODEL 4
REMARK VINA RESULT:    -3.848      2.748      5.782
REMARK INTER + INTRA:          -5.389
REMARK INTER:                  -5.211
REMARK INTRA:                  -0.178
REMARK UNBOUND:                -0.191
REMARK SMILES CCCCCCCC=O
REMARK SMILES IDX 5 1 4 2 3 3 2 4 1 5 6 6 7 7 8 8 9 9
REMARK H PARENT
REMARK Flexibility Score: inf
ROOT
ATOM      1  C   UNL     1      26.588  58.068 -10.278  1.00  0.00     0.000 C 
ENDROOT
BRANCH   1   2
ATOM      2  C   UNL     1      26.812  59.576 -10.123  1.00  0.00     0.000 C 
BRANCH   2   3
ATOM      3  C   UNL     1      28.066  60.028 -10.886  1.00  0.00    -0.000 C 
BRANCH   3   4
ATOM      4  C   UNL     1      29.264  59.095 -10.657  1.00  0.00    -0.003 C 
ATOM      5  C   UNL     1      29.991  58.738 -11.953  1.00  0.00     0.004 C 
ENDBRANCH   3   4
ENDBRANCH   2   3
ENDBRANCH   1   2
BRANCH   1   6
ATOM      6  C   UNL     1      25.382  57.601  -9.451  1.00  0.00     0.008 C 
BRANCH   6   7
ATOM      7  C   UNL     1      25.386  56.083  -9.225  1.00  0.00     0.072 C 
BRANCH   7   8
ATOM      8  C   UNL     1      23.996  55.524  -9.132  1.00  0.00     0.224 C 
ATOM      9  O   UNL     1      23.598  55.025  -8.091  1.00  0.00    -0.303 OA
ENDBRANCH   7   8
ENDBRANCH   6   7
ENDBRANCH   1   6
TORSDOF 6
ENDMDL
MODEL 5
REMARK VINA RESULT:    -3.656     17.028     18.270
REMARK INTER + INTRA:          -5.129
REMARK INTER:                  -4.848
REMARK INTRA:                  -0.281
REMARK UNBOUND:                -0.191
REMARK SMILES CCCCCCCC=O
REMARK SMILES IDX 5 1 4 2 3 3 2 4 1 5 6 6 7 7 8 8 9 9
REMARK H PARENT
REMARK Flexibility Score: inf
ROOT
ATOM      1  C   UNL     1      18.097  45.369  -0.851  1.00  0.00     0.000 C 
ENDROOT
BRANCH   1   2
ATOM      2  C   UNL     1      16.884  44.487  -0.538  1.00  0.00     0.000 C 
BRANCH   2   3
ATOM      3  C   UNL     1      15.582  45.154  -1.007  1.00  0.00    -0.000 C 
BRANCH   3   4
ATOM      4  C   UNL     1      14.526  45.236   0.106  1.00  0.00    -0.003 C 
ATOM      5  C   UNL     1      14.982  44.570   1.404  1.00  0.00     0.004 C 
ENDBRANCH   3   4
ENDBRANCH   2   3
ENDBRANCH   1   2
BRANCH   1   6
ATOM      6  C   UNL     1      19.392  44.736  -0.321  1.00  0.00     0.008 C 
BRANCH   6   7
ATOM      7  C   UNL     1      19.118  43.521   0.576  1.00  0.00     0.072 C 
BRANCH   7   8
ATOM      8  C   UNL     1      20.364  42.729   0.846  1.00  0.00     0.224 C 
ATOM      9  O   UNL     1      20.870  42.051  -0.035  1.00  0.00    -0.303 OA
ENDBRANCH   7   8
ENDBRANCH   6   7
ENDBRANCH   1   6
TORSDOF 6
ENDMDL
MODEL 6
REMARK VINA RESULT:    -3.496     15.500     17.127
REMARK INTER + INTRA:          -4.913
REMARK INTER:                  -4.708
REMARK INTRA:                  -0.205
REMARK UNBOUND:                -0.191
REMARK SMILES CCCCCCCC=O
REMARK SMILES IDX 5 1 4 2 3 3 2 4 1 5 6 6 7 7 8 8 9 9
REMARK H PARENT
REMARK Flexibility Score: inf
ROOT
ATOM      1  C   UNL     1      31.731  44.791   0.598  1.00  0.00     0.000 C 
ENDROOT
BRANCH   1   2
ATOM      2  C   UNL     1      32.604  44.905   1.853  1.00  0.00     0.000 C 
BRANCH   2   3
ATOM      3  C   UNL     1      32.918  46.374   2.172  1.00  0.00    -0.000 C 
BRANCH   3   4
ATOM      4  C   UNL     1      32.740  46.706   3.662  1.00  0.00    -0.003 C 
ATOM      5  C   UNL     1      31.793  47.882   3.897  1.00  0.00     0.004 C 
ENDBRANCH   3   4
ENDBRANCH   2   3
ENDBRANCH   1   2
BRANCH   1   6
ATOM      6  C   UNL     1      30.246  44.981   0.939  1.00  0.00     0.008 C 
BRANCH   6   7
ATOM      7  C   UNL     1      29.329  44.612  -0.235  1.00  0.00     0.072 C 
BRANCH   7   8
ATOM      8  C   UNL     1      28.155  45.541  -0.346  1.00  0.00     0.224 C 
ATOM      9  O   UNL     1      27.780  45.937  -1.438  1.00  0.00    -0.303 OA
ENDBRANCH   7   8
ENDBRANCH   6   7
ENDBRANCH   1   6
TORSDOF 6
ENDMDL
MODEL 7
REMARK VINA RESULT:    -3.476      2.838      6.052
REMARK INTER + INTRA:          -4.887
REMARK INTER:                  -4.730
REMARK INTRA:                  -0.156
REMARK UNBOUND:                -0.191
REMARK SMILES CCCCCCCC=O
REMARK SMILES IDX 5 1 4 2 3 3 2 4 1 5 6 6 7 7 8 8 9 9
REMARK H PARENT
REMARK Flexibility Score: inf
ROOT
ATOM      1  C   UNL     1      28.368  58.915 -10.431  1.00  0.00     0.000 C 
ENDROOT
BRANCH   1   2
ATOM      2  C   UNL     1      29.192  59.372 -11.640  1.00  0.00     0.000 C 
BRANCH   2   3
ATOM      3  C   UNL     1      30.333  58.387 -11.933  1.00  0.00    -0.000 C 
BRANCH   3   4
ATOM      4  C   UNL     1      30.287  57.841 -13.368  1.00  0.00    -0.003 C 
ATOM      5  C   UNL     1      31.138  56.585 -13.550  1.00  0.00     0.004 C 
ENDBRANCH   3   4
ENDBRANCH   2   3
ENDBRANCH   1   2
BRANCH   1   6
ATOM      6  C   UNL     1      27.066  58.233 -10.877  1.00  0.00     0.008 C 
BRANCH   6   7
ATOM      7  C   UNL     1      26.061  58.091  -9.726  1.00  0.00     0.072 C 
BRANCH   7   8
ATOM      8  C   UNL     1      25.591  56.675  -9.561  1.00  0.00     0.224 C 
ATOM      9  O   UNL     1      25.512  56.174  -8.451  1.00  0.00    -0.303 OA
ENDBRANCH   7   8
ENDBRANCH   6   7
ENDBRANCH   1   6
TORSDOF 6
ENDMDL
MODEL 8
REMARK VINA RESULT:    -3.470     16.947     18.810
REMARK INTER + INTRA:          -4.878
REMARK INTER:                  -4.435
REMARK INTRA:                  -0.444
REMARK UNBOUND:                -0.191
REMARK SMILES CCCCCCCC=O
REMARK SMILES IDX 5 1 4 2 3 3 2 4 1 5 6 6 7 7 8 8 9 9
REMARK H PARENT
REMARK Flexibility Score: inf
ROOT
ATOM      1  C   UNL     1      16.029  42.783   0.612  1.00  0.00     0.000 C 
ENDROOT
BRANCH   1   2
ATOM      2  C   UNL     1      17.524  42.462   0.712  1.00  0.00     0.000 C 
BRANCH   2   3
ATOM      3  C   UNL     1      18.270  43.554   1.493  1.00  0.00    -0.000 C 
BRANCH   3   4
ATOM      4  C   UNL     1      19.537  44.036   0.771  1.00  0.00    -0.003 C 
ATOM      5  C   UNL     1      19.229  44.908  -0.446  1.00  0.00     0.004 C 
ENDBRANCH   3   4
ENDBRANCH   2   3
ENDBRANCH   1   2
BRANCH   1   6
ATOM      6  C   UNL     1      15.742  44.225   1.056  1.00  0.00     0.008 C 
BRANCH   6   7
ATOM      7  C   UNL     1      14.910  44.996   0.022  1.00  0.00     0.072 C 
BRANCH   7   8
ATOM      8  C   UNL     1      15.696  45.302  -1.218  1.00  0.00     0.224 C 
ATOM      9  O   UNL     1      15.132  45.688  -2.230  1.00  0.00    -0.303 OA
ENDBRANCH   7   8
ENDBRANCH   6   7
ENDBRANCH   1   6
TORSDOF 6
ENDMDL
MODEL 9
REMARK VINA RESULT:    -3.410      3.116      5.068
REMARK INTER + INTRA:          -4.797
REMARK INTER:                  -4.538
REMARK INTRA:                  -0.260
REMARK UNBOUND:                -0.191
REMARK SMILES CCCCCCCC=O
REMARK SMILES IDX 5 1 4 2 3 3 2 4 1 5 6 6 7 7 8 8 9 9
REMARK H PARENT
REMARK Flexibility Score: inf
ROOT
ATOM      1  C   UNL     1      29.796  58.964 -10.728  1.00  0.00     0.000 C 
ENDROOT
BRANCH   1   2
ATOM      2  C   UNL     1      28.713  59.961 -11.156  1.00  0.00     0.000 C 
BRANCH   2   3
ATOM      3  C   UNL     1      27.377  59.653 -10.465  1.00  0.00    -0.000 C 
BRANCH   3   4
ATOM      4  C   UNL     1      26.930  58.197 -10.665  1.00  0.00    -0.003 C 
ATOM      5  C   UNL     1      25.829  57.777  -9.693  1.00  0.00     0.004 C 
ENDBRANCH   3   4
ENDBRANCH   2   3
ENDBRANCH   1   2
BRANCH   1   6
ATOM      6  C   UNL     1      30.867  58.811 -11.818  1.00  0.00     0.008 C 
BRANCH   6   7
ATOM      7  C   UNL     1      30.374  57.968 -13.002  1.00  0.00     0.072 C 
BRANCH   7   8
ATOM      8  C   UNL     1      31.199  56.730 -13.194  1.00  0.00     0.224 C 
ATOM      9  O   UNL     1      30.872  55.889 -14.016  1.00  0.00    -0.303 OA
ENDBRANCH   7   8
ENDBRANCH   6   7
ENDBRANCH   1   6
TORSDOF 6
ENDMDL
