MODEL 1
REMARK VINA RESULT:    -6.187      0.000      0.000
REMARK INTER + INTRA:         -10.687
REMARK INTER:                  -9.443
REMARK INTRA:                  -1.244
REMARK UNBOUND:                -1.244
REMARK SMILES CC(=O)CCC=C(C)CCC=C(C)CCC=C(C)C
REMARK SMILES IDX 10 1 11 2 12 3 13 4 14 5 15 6 16 7 18 8 17 9 19 10 9 11 7 12
REMARK SMILES IDX 6 13 8 14 5 15 4 16 2 17 3 18 1 19
REMARK H PARENT
REMARK Flexibility Score: inf
ROOT
ATOM      1  C   UNL     1     -26.612  17.268 -30.555  1.00  0.00     0.032 C 
ENDROOT
BRANCH   1   2
ATOM      2  C   UNL     1     -26.521  15.812 -30.169  1.00  0.00    -0.028 C 
ATOM      3  C   UNL     1     -25.375  15.095 -30.153  1.00  0.00    -0.077 C 
ATOM      4  C   UNL     1     -24.055  15.692 -30.585  1.00  0.00     0.039 C 
BRANCH   3   5
ATOM      5  C   UNL     1     -25.418  13.650 -29.707  1.00  0.00     0.034 C 
BRANCH   5   6
ATOM      6  C   UNL     1     -26.598  12.915 -30.355  1.00  0.00     0.032 C 
BRANCH   6   7
ATOM      7  C   UNL     1     -27.614  12.514 -29.314  1.00  0.00    -0.028 C 
ATOM      8  C   UNL     1     -29.490  13.724 -30.451  1.00  0.00     0.039 C 
ATOM      9  C   UNL     1     -28.925  12.845 -29.363  1.00  0.00    -0.080 C 
ATOM     10  C   UNL     1     -29.859  12.365 -28.283  1.00  0.00     0.039 C 
ENDBRANCH   6   7
ENDBRANCH   5   6
ENDBRANCH   3   5
ENDBRANCH   1   2
BRANCH   1  11
ATOM     11  C   UNL     1     -27.688  17.481 -31.624  1.00  0.00     0.034 C 
BRANCH  11  12
ATOM     12  C   UNL     1     -27.358  18.682 -32.484  1.00  0.00    -0.077 C 
ATOM     13  C   UNL     1     -26.063  18.967 -32.746  1.00  0.00    -0.028 C 
ATOM     14  C   UNL     1     -28.487  19.519 -33.039  1.00  0.00     0.039 C 
BRANCH  13  15
ATOM     15  C   UNL     1     -25.594  20.158 -33.543  1.00  0.00     0.035 C 
BRANCH  15  16
ATOM     16  C   UNL     1     -24.079  20.353 -33.380  1.00  0.00     0.079 C 
BRANCH  16  17
ATOM     17  C   UNL     1     -23.672  21.041 -32.096  1.00  0.00     0.130 C 
ATOM     18  O   UNL     1     -23.714  22.262 -32.054  1.00  0.00    -0.300 OA
ATOM     19  C   UNL     1     -23.215  20.293 -30.873  1.00  0.00     0.087 C 
ENDBRANCH  16  17
ENDBRANCH  15  16
ENDBRANCH  13  15
ENDBRANCH  11  12
ENDBRANCH   1  11
TORSDOF 9
ENDMDL
MODEL 2
REMARK VINA RESULT:    -6.066      2.079      3.157
REMARK INTER + INTRA:         -10.502
REMARK INTER:                  -9.222
REMARK INTRA:                  -1.280
REMARK UNBOUND:                -1.244
REMARK SMILES CC(=O)CCC=C(C)CCC=C(C)CCC=C(C)C
REMARK SMILES IDX 10 1 11 2 12 3 13 4 14 5 15 6 16 7 18 8 17 9 19 10 9 11 7 12
REMARK SMILES IDX 6 13 8 14 5 15 4 16 2 17 3 18 1 19
REMARK H PARENT
REMARK Flexibility Score: inf
ROOT
ATOM      1  C   UNL     1     -29.318  16.096 -33.104  1.00  0.00     0.032 C 
ENDROOT
BRANCH   1   2
ATOM      2  C   UNL     1     -30.120  15.288 -32.114  1.00  0.00    -0.028 C 
ATOM      3  C   UNL     1     -29.583  14.551 -31.115  1.00  0.00    -0.077 C 
ATOM      4  C   UNL     1     -28.088  14.425 -30.932  1.00  0.00     0.039 C 
BRANCH   3   5
ATOM      5  C   UNL     1     -30.505  13.818 -30.166  1.00  0.00     0.034 C 
BRANCH   5   6
ATOM      6  C   UNL     1     -30.191  12.317 -30.151  1.00  0.00     0.032 C 
BRANCH   6   7
ATOM      7  C   UNL     1     -29.606  11.905 -28.823  1.00  0.00    -0.028 C 
ATOM      8  C   UNL     1     -27.549  10.917 -29.856  1.00  0.00     0.039 C 
ATOM      9  C   UNL     1     -28.404  11.304 -28.675  1.00  0.00    -0.080 C 
ATOM     10  C   UNL     1     -27.904  10.960 -27.296  1.00  0.00     0.039 C 
ENDBRANCH   6   7
ENDBRANCH   5   6
ENDBRANCH   3   5
ENDBRANCH   1   2
BRANCH   1  11
ATOM     11  C   UNL     1     -29.737  17.570 -33.069  1.00  0.00     0.034 C 
BRANCH  11  12
ATOM     12  C   UNL     1     -28.534  18.464 -32.862  1.00  0.00    -0.077 C 
ATOM     13  C   UNL     1     -28.459  19.632 -33.538  1.00  0.00    -0.028 C 
ATOM     14  C   UNL     1     -27.459  18.034 -31.891  1.00  0.00     0.039 C 
BRANCH  13  15
ATOM     15  C   UNL     1     -27.297  20.590 -33.464  1.00  0.00     0.035 C 
BRANCH  15  16
ATOM     16  C   UNL     1     -26.228  20.222 -34.504  1.00  0.00     0.079 C 
BRANCH  16  17
ATOM     17  C   UNL     1     -24.869  19.907 -33.918  1.00  0.00     0.130 C 
ATOM     18  O   UNL     1     -24.090  19.244 -34.587  1.00  0.00    -0.300 OA
ATOM     19  C   UNL     1     -24.438  20.366 -32.553  1.00  0.00     0.087 C 
ENDBRANCH  16  17
ENDBRANCH  15  16
ENDBRANCH  13  15
ENDBRANCH  11  12
ENDBRANCH   1  11
TORSDOF 9
ENDMDL
MODEL 3
REMARK VINA RESULT:    -6.016      3.464      8.199
REMARK INTER + INTRA:         -10.425
REMARK INTER:                  -9.754
REMARK INTRA:                  -0.671
REMARK UNBOUND:                -1.244
REMARK SMILES CC(=O)CCC=C(C)CCC=C(C)CCC=C(C)C
REMARK SMILES IDX 10 1 11 2 12 3 13 4 14 5 15 6 16 7 18 8 17 9 19 10 9 11 7 12
REMARK SMILES IDX 6 13 8 14 5 15 4 16 2 17 3 18 1 19
REMARK H PARENT
REMARK Flexibility Score: inf
ROOT
ATOM      1  C   UNL     1     -30.330  16.140 -33.190  1.00  0.00     0.032 C 
ENDROOT
BRANCH   1   2
ATOM      2  C   UNL     1     -29.339  17.278 -33.134  1.00  0.00    -0.028 C 
ATOM      3  C   UNL     1     -29.672  18.586 -33.217  1.00  0.00    -0.077 C 
ATOM      4  C   UNL     1     -31.099  19.034 -33.435  1.00  0.00     0.039 C 
BRANCH   3   5
ATOM      5  C   UNL     1     -28.582  19.629 -33.107  1.00  0.00     0.034 C 
BRANCH   5   6
ATOM      6  C   UNL     1     -27.236  18.977 -32.770  1.00  0.00     0.032 C 
BRANCH   6   7
ATOM      7  C   UNL     1     -26.091  19.852 -33.217  1.00  0.00    -0.028 C 
ATOM      8  C   UNL     1     -24.434  18.725 -31.712  1.00  0.00     0.039 C 
ATOM      9  C   UNL     1     -24.819  19.727 -32.773  1.00  0.00    -0.080 C 
ATOM     10  C   UNL     1     -23.746  20.638 -33.309  1.00  0.00     0.039 C 
ENDBRANCH   6   7
ENDBRANCH   5   6
ENDBRANCH   3   5
ENDBRANCH   1   2
BRANCH   1  11
ATOM     11  C   UNL     1     -30.831  15.786 -31.786  1.00  0.00     0.034 C 
BRANCH  11  12
ATOM     12  C   UNL     1     -30.073  14.600 -31.230  1.00  0.00    -0.077 C 
ATOM     13  C   UNL     1     -30.768  13.534 -30.772  1.00  0.00    -0.028 C 
ATOM     14  C   UNL     1     -28.563  14.633 -31.220  1.00  0.00     0.039 C 
BRANCH  13  15
ATOM     15  C   UNL     1     -30.143  12.311 -30.148  1.00  0.00     0.035 C 
BRANCH  15  16
ATOM     16  C   UNL     1     -29.751  12.591 -28.689  1.00  0.00     0.079 C 
BRANCH  16  17
ATOM     17  C   UNL     1     -28.420  12.002 -28.276  1.00  0.00     0.130 C 
ATOM     18  O   UNL     1     -28.416  11.110 -27.440  1.00  0.00    -0.300 OA
ATOM     19  C   UNL     1     -27.106  12.465 -28.842  1.00  0.00     0.087 C 
ENDBRANCH  16  17
ENDBRANCH  15  16
ENDBRANCH  13  15
ENDBRANCH  11  12
ENDBRANCH   1  11
TORSDOF 9
ENDMDL
MODEL 4
REMARK VINA RESULT:    -5.804      1.942      3.140
REMARK INTER + INTRA:         -10.102
REMARK INTER:                  -9.140
REMARK INTRA:                  -0.961
REMARK UNBOUND:                -1.244
REMARK SMILES CC(=O)CCC=C(C)CCC=C(C)CCC=C(C)C
REMARK SMILES IDX 10 1 11 2 12 3 13 4 14 5 15 6 16 7 18 8 17 9 19 10 9 11 7 12
REMARK SMILES IDX 6 13 8 14 5 15 4 16 2 17 3 18 1 19
REMARK H PARENT
REMARK Flexibility Score: inf
ROOT
ATOM      1  C   UNL     1     -29.820  17.863 -33.498  1.00  0.00     0.032 C 
ENDROOT
BRANCH   1   2
ATOM      2  C   UNL     1     -30.661  16.861 -32.745  1.00  0.00    -0.028 C 
ATOM      3  C   UNL     1     -30.161  15.863 -31.983  1.00  0.00    -0.077 C 
ATOM      4  C   UNL     1     -28.674  15.622 -31.859  1.00  0.00     0.039 C 
BRANCH   3   5
ATOM      5  C   UNL     1     -31.117  14.949 -31.248  1.00  0.00     0.034 C 
BRANCH   5   6
ATOM      6  C   UNL     1     -30.604  13.504 -31.255  1.00  0.00     0.032 C 
BRANCH   6   7
ATOM      7  C   UNL     1     -30.395  13.004 -29.847  1.00  0.00    -0.028 C 
ATOM      8  C   UNL     1     -27.909  12.834 -30.108  1.00  0.00     0.039 C 
ATOM      9  C   UNL     1     -29.185  12.730 -29.309  1.00  0.00    -0.080 C 
ATOM     10  C   UNL     1     -29.090  12.261 -27.880  1.00  0.00     0.039 C 
ENDBRANCH   6   7
ENDBRANCH   5   6
ENDBRANCH   3   5
ENDBRANCH   1   2
BRANCH   1  11
ATOM     11  C   UNL     1     -29.857  19.231 -32.808  1.00  0.00     0.034 C 
BRANCH  11  12
ATOM     12  C   UNL     1     -28.572  19.991 -33.057  1.00  0.00    -0.077 C 
ATOM     13  C   UNL     1     -27.427  19.299 -33.250  1.00  0.00    -0.028 C 
ATOM     14  C   UNL     1     -28.610  21.501 -33.101  1.00  0.00     0.039 C 
BRANCH  13  15
ATOM     15  C   UNL     1     -26.072  19.929 -33.457  1.00  0.00     0.035 C 
BRANCH  15  16
ATOM     16  C   UNL     1     -25.059  19.375 -32.444  1.00  0.00     0.079 C 
BRANCH  16  17
ATOM     17  C   UNL     1     -23.818  20.222 -32.275  1.00  0.00     0.130 C 
ATOM     18  O   UNL     1     -23.253  20.630 -33.279  1.00  0.00    -0.300 OA
ATOM     19  C   UNL     1     -23.246  20.581 -30.931  1.00  0.00     0.087 C 
ENDBRANCH  16  17
ENDBRANCH  15  16
ENDBRANCH  13  15
ENDBRANCH  11  12
ENDBRANCH   1  11
TORSDOF 9
ENDMDL
MODEL 5
REMARK VINA RESULT:    -5.763      1.826      3.303
REMARK INTER + INTRA:         -10.039
REMARK INTER:                  -9.499
REMARK INTRA:                  -0.539
REMARK UNBOUND:                -1.244
REMARK SMILES CC(=O)CCC=C(C)CCC=C(C)CCC=C(C)C
REMARK SMILES IDX 10 1 11 2 12 3 13 4 14 5 15 6 16 7 18 8 17 9 19 10 9 11 7 12
REMARK SMILES IDX 6 13 8 14 5 15 4 16 2 17 3 18 1 19
REMARK H PARENT
REMARK Flexibility Score: inf
ROOT
ATOM      1  C   UNL     1     -28.619  19.904 -32.968  1.00  0.00     0.032 C 
ENDROOT
BRANCH   1   2
ATOM      2  C   UNL     1     -29.155  18.533 -33.297  1.00  0.00    -0.028 C 
ATOM      3  C   UNL     1     -28.763  17.392 -32.687  1.00  0.00    -0.077 C 
ATOM      4  C   UNL     1     -27.683  17.383 -31.630  1.00  0.00     0.039 C 
BRANCH   3   5
ATOM      5  C   UNL     1     -29.412  16.085 -33.087  1.00  0.00     0.034 C 
BRANCH   5   6
ATOM      6  C   UNL     1     -29.930  15.334 -31.854  1.00  0.00     0.032 C 
BRANCH   6   7
ATOM      7  C   UNL     1     -28.806  14.607 -31.158  1.00  0.00    -0.028 C 
ATOM      8  C   UNL     1     -30.341  12.962 -30.056  1.00  0.00     0.039 C 
ATOM      9  C   UNL     1     -28.975  13.519 -30.373  1.00  0.00    -0.080 C 
ATOM     10  C   UNL     1     -27.776  12.853 -29.748  1.00  0.00     0.039 C 
ENDBRANCH   6   7
ENDBRANCH   5   6
ENDBRANCH   3   5
ENDBRANCH   1   2
BRANCH   1  11
ATOM     11  C   UNL     1     -27.805  20.465 -34.138  1.00  0.00     0.034 C 
BRANCH  11  12
ATOM     12  C   UNL     1     -26.340  20.118 -33.988  1.00  0.00    -0.077 C 
ATOM     13  C   UNL     1     -25.829  19.947 -32.748  1.00  0.00    -0.028 C 
ATOM     14  C   UNL     1     -25.494  19.953 -35.229  1.00  0.00     0.039 C 
BRANCH  13  15
ATOM     15  C   UNL     1     -24.380  19.650 -32.454  1.00  0.00     0.035 C 
BRANCH  15  16
ATOM     16  C   UNL     1     -23.537  20.930 -32.548  1.00  0.00     0.079 C 
BRANCH  16  17
ATOM     17  C   UNL     1     -23.424  21.701 -31.251  1.00  0.00     0.130 C 
ATOM     18  O   UNL     1     -23.181  21.079 -30.227  1.00  0.00    -0.300 OA
ATOM     19  C   UNL     1     -23.601  23.191 -31.164  1.00  0.00     0.087 C 
ENDBRANCH  16  17
ENDBRANCH  15  16
ENDBRANCH  13  15
ENDBRANCH  11  12
ENDBRANCH   1  11
TORSDOF 9
ENDMDL
MODEL 6
REMARK VINA RESULT:    -5.566      1.994      3.283
REMARK INTER + INTRA:          -9.738
REMARK INTER:                  -8.760
REMARK INTRA:                  -0.978
REMARK UNBOUND:                -1.244
REMARK SMILES CC(=O)CCC=C(C)CCC=C(C)CCC=C(C)C
REMARK SMILES IDX 10 1 11 2 12 3 13 4 14 5 15 6 16 7 18 8 17 9 19 10 9 11 7 12
REMARK SMILES IDX 6 13 8 14 5 15 4 16 2 17 3 18 1 19
REMARK H PARENT
REMARK Flexibility Score: inf
ROOT
ATOM      1  C   UNL     1     -23.426  17.685 -31.577  1.00  0.00     0.032 C 
ENDROOT
BRANCH   1   2
ATOM      2  C   UNL     1     -24.257  16.502 -31.144  1.00  0.00    -0.028 C 
ATOM      3  C   UNL     1     -23.779  15.446 -30.449  1.00  0.00    -0.077 C 
ATOM      4  C   UNL     1     -22.317  15.328 -30.081  1.00  0.00     0.039 C 
BRANCH   3   5
ATOM      5  C   UNL     1     -24.730  14.342 -30.043  1.00  0.00     0.034 C 
BRANCH   5   6
ATOM      6  C   UNL     1     -26.155  14.885 -29.876  1.00  0.00     0.032 C 
BRANCH   6   7
ATOM      7  C   UNL     1     -27.142  13.756 -29.712  1.00  0.00    -0.028 C 
ATOM      8  C   UNL     1     -28.822  14.789 -31.258  1.00  0.00     0.039 C 
ATOM      9  C   UNL     1     -28.331  13.686 -30.353  1.00  0.00    -0.080 C 
ATOM     10  C   UNL     1     -29.229  12.496 -30.136  1.00  0.00     0.039 C 
ENDBRANCH   6   7
ENDBRANCH   5   6
ENDBRANCH   3   5
ENDBRANCH   1   2
BRANCH   1  11
ATOM     11  C   UNL     1     -24.124  19.001 -31.216  1.00  0.00     0.034 C 
BRANCH  11  12
ATOM     12  C   UNL     1     -24.548  19.742 -32.465  1.00  0.00    -0.077 C 
ATOM     13  C   UNL     1     -25.822  19.620 -32.901  1.00  0.00    -0.028 C 
ATOM     14  C   UNL     1     -23.540  20.613 -33.179  1.00  0.00     0.039 C 
BRANCH  13  15
ATOM     15  C   UNL     1     -26.361  20.261 -34.155  1.00  0.00     0.035 C 
BRANCH  15  16
ATOM     16  C   UNL     1     -27.886  20.091 -34.234  1.00  0.00     0.079 C 
BRANCH  16  17
ATOM     17  C   UNL     1     -28.649  20.773 -33.120  1.00  0.00     0.130 C 
ATOM     18  O   UNL     1     -29.432  20.105 -32.461  1.00  0.00    -0.300 OA
ATOM     19  C   UNL     1     -28.491  22.232 -32.791  1.00  0.00     0.087 C 
ENDBRANCH  16  17
ENDBRANCH  15  16
ENDBRANCH  13  15
ENDBRANCH  11  12
ENDBRANCH   1  11
TORSDOF 9
ENDMDL
MODEL 7
REMARK VINA RESULT:    -5.460      9.223     12.562
REMARK INTER + INTRA:          -9.577
REMARK INTER:                  -7.797
REMARK INTRA:                  -1.780
REMARK UNBOUND:                -1.244
REMARK SMILES CC(=O)CCC=C(C)CCC=C(C)CCC=C(C)C
REMARK SMILES IDX 10 1 11 2 12 3 13 4 14 5 15 6 16 7 18 8 17 9 19 10 9 11 7 12
REMARK SMILES IDX 6 13 8 14 5 15 4 16 2 17 3 18 1 19
REMARK H PARENT
REMARK Flexibility Score: inf
ROOT
ATOM      1  C   UNL     1     -16.030  13.357 -31.768  1.00  0.00     0.032 C 
ENDROOT
BRANCH   1   2
ATOM      2  C   UNL     1     -14.624  13.879 -31.938  1.00  0.00    -0.028 C 
ATOM      3  C   UNL     1     -14.137  14.979 -31.321  1.00  0.00    -0.077 C 
ATOM      4  C   UNL     1     -14.999  15.838 -30.424  1.00  0.00     0.039 C 
BRANCH   3   5
ATOM      5  C   UNL     1     -12.694  15.371 -31.549  1.00  0.00     0.034 C 
BRANCH   5   6
ATOM      6  C   UNL     1     -11.857  15.123 -30.288  1.00  0.00     0.032 C 
BRANCH   6   7
ATOM      7  C   UNL     1     -11.791  13.649 -29.971  1.00  0.00    -0.028 C 
ATOM      8  C   UNL     1     -13.201  13.868 -27.911  1.00  0.00     0.039 C 
ATOM      9  C   UNL     1     -12.418  13.068 -28.923  1.00  0.00    -0.080 C 
ATOM     10  C   UNL     1     -12.306  11.580 -28.716  1.00  0.00     0.039 C 
ENDBRANCH   6   7
ENDBRANCH   5   6
ENDBRANCH   3   5
ENDBRANCH   1   2
BRANCH   1  11
ATOM     11  C   UNL     1     -16.060  12.186 -30.781  1.00  0.00     0.034 C 
BRANCH  11  12
ATOM     12  C   UNL     1     -17.129  12.397 -29.732  1.00  0.00    -0.077 C 
ATOM     13  C   UNL     1     -18.343  11.826 -29.907  1.00  0.00    -0.028 C 
ATOM     14  C   UNL     1     -16.806  13.224 -28.510  1.00  0.00     0.039 C 
BRANCH  13  15
ATOM     15  C   UNL     1     -19.510  11.995 -28.968  1.00  0.00     0.035 C 
BRANCH  15  16
ATOM     16  C   UNL     1     -20.736  12.530 -29.723  1.00  0.00     0.079 C 
BRANCH  16  17
ATOM     17  C   UNL     1     -20.874  14.037 -29.703  1.00  0.00     0.130 C 
ATOM     18  O   UNL     1     -19.991  14.692 -29.171  1.00  0.00    -0.300 OA
ATOM     19  C   UNL     1     -22.048  14.761 -30.302  1.00  0.00     0.087 C 
ENDBRANCH  16  17
ENDBRANCH  15  16
ENDBRANCH  13  15
ENDBRANCH  11  12
ENDBRANCH   1  11
TORSDOF 9
ENDMDL
MODEL 8
REMARK VINA RESULT:    -5.404     10.312     13.361
REMARK INTER + INTRA:          -9.491
REMARK INTER:                  -7.417
REMARK INTRA:                  -2.073
REMARK UNBOUND:                -1.244
REMARK SMILES CC(=O)CCC=C(C)CCC=C(C)CCC=C(C)C
REMARK SMILES IDX 10 1 11 2 12 3 13 4 14 5 15 6 16 7 18 8 17 9 19 10 9 11 7 12
REMARK SMILES IDX 6 13 8 14 5 15 4 16 2 17 3 18 1 19
REMARK H PARENT
REMARK Flexibility Score: inf
ROOT
ATOM      1  C   UNL     1     -15.682  12.288 -26.539  1.00  0.00     0.032 C 
ENDROOT
BRANCH   1   2
ATOM      2  C   UNL     1     -14.684  11.686 -27.498  1.00  0.00    -0.028 C 
ATOM      3  C   UNL     1     -13.601  12.335 -27.982  1.00  0.00    -0.077 C 
ATOM      4  C   UNL     1     -13.318  13.780 -27.639  1.00  0.00     0.039 C 
BRANCH   3   5
ATOM      5  C   UNL     1     -12.657  11.601 -28.908  1.00  0.00     0.034 C 
BRANCH   5   6
ATOM      6  C   UNL     1     -11.605  12.557 -29.484  1.00  0.00     0.032 C 
BRANCH   6   7
ATOM      7  C   UNL     1     -11.953  12.944 -30.900  1.00  0.00    -0.028 C 
ATOM      8  C   UNL     1     -11.302  15.341 -30.573  1.00  0.00     0.039 C 
ATOM      9  C   UNL     1     -11.791  14.186 -31.411  1.00  0.00    -0.080 C 
ATOM     10  C   UNL     1     -12.145  14.455 -32.850  1.00  0.00     0.039 C 
ENDBRANCH   6   7
ENDBRANCH   5   6
ENDBRANCH   3   5
ENDBRANCH   1   2
BRANCH   1  11
ATOM     11  C   UNL     1     -17.115  11.989 -26.988  1.00  0.00     0.034 C 
BRANCH  11  12
ATOM     12  C   UNL     1     -17.400  12.626 -28.331  1.00  0.00    -0.077 C 
ATOM     13  C   UNL     1     -17.238  11.891 -29.454  1.00  0.00    -0.028 C 
ATOM     14  C   UNL     1     -17.875  14.060 -28.378  1.00  0.00     0.039 C 
BRANCH  13  15
ATOM     15  C   UNL     1     -17.436  12.415 -30.855  1.00  0.00     0.035 C 
BRANCH  15  16
ATOM     16  C   UNL     1     -16.102  12.894 -31.446  1.00  0.00     0.079 C 
BRANCH  16  17
ATOM     17  C   UNL     1     -15.978  14.397 -31.571  1.00  0.00     0.130 C 
ATOM     18  O   UNL     1     -16.571  14.953 -32.483  1.00  0.00    -0.300 OA
ATOM     19  C   UNL     1     -15.157  15.233 -30.629  1.00  0.00     0.087 C 
ENDBRANCH  16  17
ENDBRANCH  15  16
ENDBRANCH  13  15
ENDBRANCH  11  12
ENDBRANCH   1  11
TORSDOF 9
ENDMDL
