MODEL 1
REMARK VINA RESULT:    22.232      0.000      0.000
REMARK INTER + INTRA:          34.000
REMARK INTER:                  32.629
REMARK INTRA:                   1.371
REMARK UNBOUND:                 1.371
REMARK SMILES Cc1cc2c(C(C)C)c(O)c(O)c(C=O)c2c(O)c1-c1c(C)cc2c(C(C)C)c(O)c(O)c(C=O)c2c1O
REMARK SMILES IDX 1 1 2 2 3 3 4 4 16 5 13 6 11 7 9 8 5 9 17 10 19 11 20 12
REMARK SMILES IDX 37 13 21 14 36 15 23 16 22 17 24 18 33 19 25 20 31 21 29 22
REMARK SMILES IDX 38 23 34 25 35 26 26 27 27 28 28 29 32 30 30 32 18 34 6 36
REMARK SMILES IDX 7 37 8 38 14 39 15 40 10 41 12 43
REMARK H PARENT 38 24 32 31 30 33 18 35 10 42 12 44
REMARK Flexibility Score: inf
ROOT
ATOM      1  C   UNL     1      81.949  13.883   6.058  1.00  0.00     0.045 C 
ATOM      2  C   UNL     1      81.338  14.558   7.263  1.00  0.00    -0.039 A 
ATOM      3  C   UNL     1      81.845  14.279   8.533  1.00  0.00     0.013 A 
ATOM      4  C   UNL     1      81.335  14.902   9.694  1.00  0.00    -0.006 A 
ATOM      5  C   UNL     1      80.216  15.781   9.567  1.00  0.00     0.039 A 
ATOM      6  C   UNL     1      79.665  16.369  10.744  1.00  0.00     0.072 A 
ATOM      7  C   UNL     1      80.105  15.940  12.012  1.00  0.00     0.169 A 
ATOM      8  C   UNL     1      81.183  15.056  12.126  1.00  0.00     0.162 A 
ATOM      9  C   UNL     1      81.895  14.635  10.982  1.00  0.00     0.008 A 
ATOM     10  C   UNL     1      79.653  16.003   8.273  1.00  0.00     0.132 A 
ATOM     11  C   UNL     1      80.236  15.416   7.130  1.00  0.00     0.031 A 
ENDROOT
BRANCH  11  12
ATOM     12  C   UNL     1      79.661  15.671   5.782  1.00  0.00     0.031 A 
ATOM     13  C   UNL     1      80.190  16.697   4.969  1.00  0.00     0.132 A 
ATOM     14  C   UNL     1      78.564  14.915   5.338  1.00  0.00    -0.039 A 
ATOM     15  C   UNL     1      79.653  16.940   3.667  1.00  0.00     0.039 A 
ATOM     16  C   UNL     1      78.013  15.174   4.083  1.00  0.00     0.013 A 
ATOM     17  C   UNL     1      77.922  13.875   6.225  1.00  0.00     0.045 C 
ATOM     18  C   UNL     1      78.566  16.134   3.206  1.00  0.00    -0.006 A 
ATOM     19  C   UNL     1      80.135  17.990   2.827  1.00  0.00     0.072 A 
ATOM     20  C   UNL     1      78.027  16.331   1.898  1.00  0.00     0.008 A 
ATOM     21  C   UNL     1      79.487  18.268   1.605  1.00  0.00     0.169 A 
ATOM     22  C   UNL     1      78.422  17.474   1.171  1.00  0.00     0.162 A 
BRANCH  13  23
ATOM     23  O   UNL     1      81.235  17.484   5.465  1.00  0.00    -0.507 OA
ATOM     24  H   UNL     1      81.884  17.181   6.181  1.00  0.00     0.293 HD
ENDBRANCH  13  23
BRANCH  19  25
ATOM     25  C   UNL     1      81.303  18.815   3.199  1.00  0.00     0.264 C 
ATOM     26  O   UNL     1      82.128  19.188   2.325  1.00  0.00    -0.298 OA
ENDBRANCH  19  25
BRANCH  20  27
ATOM     27  C   UNL     1      77.019  15.345   1.279  1.00  0.00     0.017 C 
ATOM     28  C   UNL     1      77.550  14.776  -0.041  1.00  0.00     0.012 C 
ATOM     29  C   UNL     1      76.580  14.219   2.236  1.00  0.00     0.012 C 
ENDBRANCH  20  27
BRANCH  21  30
ATOM     30  O   UNL     1      79.904  19.315   0.774  1.00  0.00    -0.504 OA
ATOM     31  H   UNL     1      80.670  19.938   0.986  1.00  0.00     0.293 HD
ENDBRANCH  21  30
BRANCH  22  32
ATOM     32  O   UNL     1      77.747  17.820  -0.001  1.00  0.00    -0.504 OA
ATOM     33  H   UNL     1      78.222  18.068  -0.862  1.00  0.00     0.293 HD
ENDBRANCH  22  32
ENDBRANCH  11  12
BRANCH  10  34
ATOM     34  O   UNL     1      78.493  16.772   8.130  1.00  0.00    -0.507 OA
ATOM     35  H   UNL     1      77.566  16.450   8.376  1.00  0.00     0.293 HD
ENDBRANCH  10  34
BRANCH   9  36
ATOM     36  C   UNL     1      83.223  13.875  11.150  1.00  0.00     0.017 C 
ATOM     37  C   UNL     1      83.998  14.390  12.367  1.00  0.00     0.012 C 
ATOM     38  C   UNL     1      84.105  13.875   9.886  1.00  0.00     0.012 C 
ENDBRANCH   9  36
BRANCH   6  39
ATOM     39  C   UNL     1      78.664  17.454  10.694  1.00  0.00     0.264 C 
ATOM     40  O   UNL     1      77.818  17.582  11.618  1.00  0.00    -0.298 OA
ENDBRANCH   6  39
BRANCH   8  41
ATOM     41  O   UNL     1      81.556  14.594  13.390  1.00  0.00    -0.504 OA
ATOM     42  H   UNL     1      81.521  13.618  13.654  1.00  0.00     0.293 HD
ENDBRANCH   8  41
BRANCH   7  43
ATOM     43  O   UNL     1      79.508  16.404  13.191  1.00  0.00    -0.504 OA
ATOM     44  H   UNL     1      78.910  15.842  13.783  1.00  0.00     0.293 HD
ENDBRANCH   7  43
TORSDOF 11
ENDMDL
