MODEL 1
REMARK VINA RESULT:    -4.101      0.000      0.000
REMARK INTER + INTRA:          -6.779
REMARK INTER:                  -6.018
REMARK INTRA:                  -0.761
REMARK UNBOUND:                -0.761
REMARK SMILES O=C([O-])CCCCCCCC(=O)[O-]
REMARK SMILES IDX 7 1 6 2 5 3 4 4 2 5 1 6 3 7 8 8 9 9 10 10 11 11 12 12 13 13
REMARK H PARENT
REMARK Flexibility Score: inf
ROOT
ATOM      1  C   UNL     1      54.982  39.664  48.715  1.00  0.00     0.000 C 
ENDROOT
BRANCH   1   2
ATOM      2  C   UNL     1      54.869  38.522  49.733  1.00  0.00     0.000 C 
BRANCH   2   3
ATOM      3  C   UNL     1      53.780  38.817  50.774  1.00  0.00     0.006 C 
BRANCH   3   4
ATOM      4  C   UNL     1      53.889  40.238  51.342  1.00  0.00     0.053 C 
BRANCH   4   5
ATOM      5  C   UNL     1      52.576  40.725  51.874  1.00  0.00     0.041 C 
ATOM      6  O   UNL     1      51.515  40.522  51.228  1.00  0.00    -0.550 OA
ATOM      7  O   UNL     1      52.529  41.432  53.069  1.00  0.00    -0.550 OA
ENDBRANCH   4   5
ENDBRANCH   3   4
ENDBRANCH   2   3
ENDBRANCH   1   2
BRANCH   1   8
ATOM      8  C   UNL     1      54.418  39.243  47.351  1.00  0.00     0.000 C 
BRANCH   8   9
ATOM      9  C   UNL     1      53.373  40.233  46.811  1.00  0.00     0.006 C 
BRANCH   9  10
ATOM     10  C   UNL     1      52.349  40.650  47.875  1.00  0.00     0.053 C 
BRANCH  10  11
ATOM     11  C   UNL     1      52.250  42.140  47.948  1.00  0.00     0.041 C 
ATOM     12  O   UNL     1      52.653  42.753  48.972  1.00  0.00    -0.550 OA
ATOM     13  O   UNL     1      51.759  42.859  46.865  1.00  0.00    -0.550 OA
ENDBRANCH  10  11
ENDBRANCH   9  10
ENDBRANCH   8   9
ENDBRANCH   1   8
TORSDOF 8
ENDMDL
MODEL 2
REMARK VINA RESULT:    -4.080      2.111      4.372
REMARK INTER + INTRA:          -6.748
REMARK INTER:                  -6.108
REMARK INTRA:                  -0.641
REMARK UNBOUND:                -0.761
REMARK SMILES O=C([O-])CCCCCCCC(=O)[O-]
REMARK SMILES IDX 7 1 6 2 5 3 4 4 2 5 1 6 3 7 8 8 9 9 10 10 11 11 12 12 13 13
REMARK H PARENT
REMARK Flexibility Score: inf
ROOT
ATOM      1  C   UNL     1      52.253  42.188  47.428  1.00  0.00     0.000 C 
ENDROOT
BRANCH   1   2
ATOM      2  C   UNL     1      52.249  40.756  47.979  1.00  0.00     0.000 C 
BRANCH   2   3
ATOM      3  C   UNL     1      52.955  39.792  47.014  1.00  0.00     0.006 C 
BRANCH   3   4
ATOM      4  C   UNL     1      54.469  40.028  46.961  1.00  0.00     0.053 C 
BRANCH   4   5
ATOM      5  C   UNL     1      55.136  39.638  48.244  1.00  0.00     0.041 C 
ATOM      6  O   UNL     1      54.884  38.527  48.779  1.00  0.00    -0.550 OA
ATOM      7  O   UNL     1      56.014  40.517  48.867  1.00  0.00    -0.550 OA
ENDBRANCH   4   5
ENDBRANCH   3   4
ENDBRANCH   2   3
ENDBRANCH   1   2
BRANCH   1   8
ATOM      8  C   UNL     1      52.638  43.196  48.519  1.00  0.00     0.000 C 
BRANCH   8   9
ATOM      9  C   UNL     1      53.241  42.522  49.762  1.00  0.00     0.006 C 
BRANCH   9  10
ATOM     10  C   UNL     1      52.594  43.002  51.067  1.00  0.00     0.053 C 
BRANCH  10  11
ATOM     11  C   UNL     1      52.272  41.838  51.949  1.00  0.00     0.041 C 
ATOM     12  O   UNL     1      52.562  41.872  53.175  1.00  0.00    -0.550 OA
ATOM     13  O   UNL     1      51.608  40.734  51.430  1.00  0.00    -0.550 OA
ENDBRANCH  10  11
ENDBRANCH   9  10
ENDBRANCH   8   9
ENDBRANCH   1   8
TORSDOF 8
ENDMDL
MODEL 3
REMARK VINA RESULT:    -4.052      0.161      4.119
REMARK INTER + INTRA:          -6.708
REMARK INTER:                  -6.036
REMARK INTRA:                  -0.672
REMARK UNBOUND:                -0.761
REMARK SMILES O=C([O-])CCCCCCCC(=O)[O-]
REMARK SMILES IDX 7 1 6 2 5 3 4 4 2 5 1 6 3 7 8 8 9 9 10 10 11 11 12 12 13 13
REMARK H PARENT
REMARK Flexibility Score: inf
ROOT
ATOM      1  C   UNL     1      54.885  39.729  48.758  1.00  0.00     0.000 C 
ENDROOT
BRANCH   1   2
ATOM      2  C   UNL     1      54.413  39.218  47.391  1.00  0.00     0.000 C 
BRANCH   2   3
ATOM      3  C   UNL     1      53.339  40.141  46.797  1.00  0.00     0.006 C 
BRANCH   3   4
ATOM      4  C   UNL     1      52.305  40.577  47.843  1.00  0.00     0.053 C 
BRANCH   4   5
ATOM      5  C   UNL     1      52.207  42.069  47.937  1.00  0.00     0.041 C 
ATOM      6  O   UNL     1      52.560  42.663  48.989  1.00  0.00    -0.550 OA
ATOM      7  O   UNL     1      51.694  42.801  46.873  1.00  0.00    -0.550 OA
ENDBRANCH   4   5
ENDBRANCH   3   4
ENDBRANCH   2   3
ENDBRANCH   1   2
BRANCH   1   8
ATOM      8  C   UNL     1      54.857  38.606  49.804  1.00  0.00     0.000 C 
BRANCH   8   9
ATOM      9  C   UNL     1      53.714  38.772  50.820  1.00  0.00     0.006 C 
BRANCH   9  10
ATOM     10  C   UNL     1      53.896  40.003  51.717  1.00  0.00     0.053 C 
BRANCH  10  11
ATOM     11  C   UNL     1      52.579  40.671  51.958  1.00  0.00     0.041 C 
ATOM     12  O   UNL     1      51.591  40.407  51.224  1.00  0.00    -0.550 OA
ATOM     13  O   UNL     1      52.429  41.548  53.025  1.00  0.00    -0.550 OA
ENDBRANCH  10  11
ENDBRANCH   9  10
ENDBRANCH   8   9
ENDBRANCH   1   8
TORSDOF 8
ENDMDL
MODEL 4
REMARK VINA RESULT:    -3.986      2.178      3.827
REMARK INTER + INTRA:          -6.610
REMARK INTER:                  -5.986
REMARK INTRA:                  -0.625
REMARK UNBOUND:                -0.761
REMARK SMILES O=C([O-])CCCCCCCC(=O)[O-]
REMARK SMILES IDX 7 1 6 2 5 3 4 4 2 5 1 6 3 7 8 8 9 9 10 10 11 11 12 12 13 13
REMARK H PARENT
REMARK Flexibility Score: inf
ROOT
ATOM      1  C   UNL     1      52.452  40.454  47.805  1.00  0.00     0.000 C 
ENDROOT
BRANCH   1   2
ATOM      2  C   UNL     1      53.405  39.905  46.736  1.00  0.00     0.000 C 
BRANCH   2   3
ATOM      3  C   UNL     1      54.465  38.986  47.360  1.00  0.00     0.006 C 
BRANCH   3   4
ATOM      4  C   UNL     1      55.200  39.658  48.527  1.00  0.00     0.053 C 
BRANCH   4   5
ATOM      5  C   UNL     1      55.280  38.760  49.723  1.00  0.00     0.041 C 
ATOM      6  O   UNL     1      56.376  38.231  50.047  1.00  0.00    -0.550 OA
ATOM      7  O   UNL     1      54.137  38.480  50.461  1.00  0.00    -0.550 OA
ENDBRANCH   4   5
ENDBRANCH   3   4
ENDBRANCH   2   3
ENDBRANCH   1   2
BRANCH   1   8
ATOM      8  C   UNL     1      52.300  41.976  47.676  1.00  0.00     0.000 C 
BRANCH   8   9
ATOM      9  C   UNL     1      52.673  42.721  48.968  1.00  0.00     0.006 C 
BRANCH   9  10
ATOM     10  C   UNL     1      52.695  41.800  50.195  1.00  0.00     0.053 C 
BRANCH  10  11
ATOM     11  C   UNL     1      52.770  42.608  51.451  1.00  0.00     0.041 C 
ATOM     12  O   UNL     1      51.818  42.587  52.276  1.00  0.00    -0.550 OA
ATOM     13  O   UNL     1      53.912  43.345  51.738  1.00  0.00    -0.550 OA
ENDBRANCH  10  11
ENDBRANCH   9  10
ENDBRANCH   8   9
ENDBRANCH   1   8
TORSDOF 8
ENDMDL
MODEL 5
REMARK VINA RESULT:    -3.982      2.137      3.414
REMARK INTER + INTRA:          -6.605
REMARK INTER:                  -5.734
REMARK INTRA:                  -0.871
REMARK UNBOUND:                -0.761
REMARK SMILES O=C([O-])CCCCCCCC(=O)[O-]
REMARK SMILES IDX 7 1 6 2 5 3 4 4 2 5 1 6 3 7 8 8 9 9 10 10 11 11 12 12 13 13
REMARK H PARENT
REMARK Flexibility Score: inf
ROOT
ATOM      1  C   UNL     1      52.330  40.343  47.840  1.00  0.00     0.000 C 
ENDROOT
BRANCH   1   2
ATOM      2  C   UNL     1      52.338  41.815  48.270  1.00  0.00     0.000 C 
BRANCH   2   3
ATOM      3  C   UNL     1      52.685  41.952  49.761  1.00  0.00     0.006 C 
BRANCH   3   4
ATOM      4  C   UNL     1      52.272  40.716  50.568  1.00  0.00     0.053 C 
BRANCH   4   5
ATOM      5  C   UNL     1      52.866  40.728  51.943  1.00  0.00     0.041 C 
ATOM      6  O   UNL     1      53.799  39.937  52.239  1.00  0.00    -0.550 OA
ATOM      7  O   UNL     1      52.365  41.592  52.910  1.00  0.00    -0.550 OA
ENDBRANCH   4   5
ENDBRANCH   3   4
ENDBRANCH   2   3
ENDBRANCH   1   2
BRANCH   1   8
ATOM      8  C   UNL     1      53.250  40.118  46.632  1.00  0.00     0.000 C 
BRANCH   8   9
ATOM      9  C   UNL     1      54.597  39.489  47.023  1.00  0.00     0.006 C 
BRANCH   9  10
ATOM     10  C   UNL     1      54.542  38.770  48.377  1.00  0.00     0.053 C 
BRANCH  10  11
ATOM     11  C   UNL     1      55.626  39.270  49.278  1.00  0.00     0.041 C 
ATOM     12  O   UNL     1      55.876  40.503  49.344  1.00  0.00    -0.550 OA
ATOM     13  O   UNL     1      56.327  38.382  50.084  1.00  0.00    -0.550 OA
ENDBRANCH  10  11
ENDBRANCH   9  10
ENDBRANCH   8   9
ENDBRANCH   1   8
TORSDOF 8
ENDMDL
MODEL 6
REMARK VINA RESULT:    -3.967      1.052      3.994
REMARK INTER + INTRA:          -6.583
REMARK INTER:                  -5.862
REMARK INTRA:                  -0.721
REMARK UNBOUND:                -0.761
REMARK SMILES O=C([O-])CCCCCCCC(=O)[O-]
REMARK SMILES IDX 7 1 6 2 5 3 4 4 2 5 1 6 3 7 8 8 9 9 10 10 11 11 12 12 13 13
REMARK H PARENT
REMARK Flexibility Score: inf
ROOT
ATOM      1  C   UNL     1      54.504  39.240  47.412  1.00  0.00     0.000 C 
ENDROOT
BRANCH   1   2
ATOM      2  C   UNL     1      53.271  39.914  46.798  1.00  0.00     0.000 C 
BRANCH   2   3
ATOM      3  C   UNL     1      52.356  40.489  47.889  1.00  0.00     0.006 C 
BRANCH   3   4
ATOM      4  C   UNL     1      52.006  41.961  47.637  1.00  0.00     0.053 C 
BRANCH   4   5
ATOM      5  C   UNL     1      52.937  42.883  48.362  1.00  0.00     0.041 C 
ATOM      6  O   UNL     1      54.025  43.233  47.834  1.00  0.00    -0.550 OA
ATOM      7  O   UNL     1      52.618  43.332  49.638  1.00  0.00    -0.550 OA
ENDBRANCH   4   5
ENDBRANCH   3   4
ENDBRANCH   2   3
ENDBRANCH   1   2
BRANCH   1   8
ATOM      8  C   UNL     1      54.739  39.727  48.849  1.00  0.00     0.000 C 
BRANCH   8   9
ATOM      9  C   UNL     1      54.875  38.570  49.851  1.00  0.00     0.006 C 
BRANCH   9  10
ATOM     10  C   UNL     1      53.666  38.454  50.788  1.00  0.00     0.053 C 
BRANCH  10  11
ATOM     11  C   UNL     1      53.499  39.710  51.583  1.00  0.00     0.041 C 
ATOM     12  O   UNL     1      54.414  40.095  52.357  1.00  0.00    -0.550 OA
ATOM     13  O   UNL     1      52.354  40.482  51.432  1.00  0.00    -0.550 OA
ENDBRANCH  10  11
ENDBRANCH   9  10
ENDBRANCH   8   9
ENDBRANCH   1   8
TORSDOF 8
ENDMDL
MODEL 7
REMARK VINA RESULT:    -3.966      1.139      1.660
REMARK INTER + INTRA:          -6.581
REMARK INTER:                  -5.833
REMARK INTRA:                  -0.748
REMARK UNBOUND:                -0.761
REMARK SMILES O=C([O-])CCCCCCCC(=O)[O-]
REMARK SMILES IDX 7 1 6 2 5 3 4 4 2 5 1 6 3 7 8 8 9 9 10 10 11 11 12 12 13 13
REMARK H PARENT
REMARK Flexibility Score: inf
ROOT
ATOM      1  C   UNL     1      54.487  39.241  47.473  1.00  0.00     0.000 C 
ENDROOT
BRANCH   1   2
ATOM      2  C   UNL     1      54.816  39.734  48.887  1.00  0.00     0.000 C 
BRANCH   2   3
ATOM      3  C   UNL     1      54.888  38.562  49.878  1.00  0.00     0.006 C 
BRANCH   3   4
ATOM      4  C   UNL     1      53.638  38.472  50.763  1.00  0.00     0.053 C 
BRANCH   4   5
ATOM      5  C   UNL     1      53.418  39.733  51.541  1.00  0.00     0.041 C 
ATOM      6  O   UNL     1      52.327  40.353  51.450  1.00  0.00    -0.550 OA
ATOM      7  O   UNL     1      54.432  40.241  52.344  1.00  0.00    -0.550 OA
ENDBRANCH   4   5
ENDBRANCH   3   4
ENDBRANCH   2   3
ENDBRANCH   1   2
BRANCH   1   8
ATOM      8  C   UNL     1      53.342  40.057  46.857  1.00  0.00     0.000 C 
BRANCH   8   9
ATOM      9  C   UNL     1      52.379  40.617  47.916  1.00  0.00     0.006 C 
BRANCH   9  10
ATOM     10  C   UNL     1      52.126  42.121  47.748  1.00  0.00     0.053 C 
BRANCH  10  11
ATOM     11  C   UNL     1      52.989  42.903  48.687  1.00  0.00     0.041 C 
ATOM     12  O   UNL     1      52.556  43.228  49.824  1.00  0.00    -0.550 OA
ATOM     13  O   UNL     1      54.290  43.231  48.326  1.00  0.00    -0.550 OA
ENDBRANCH  10  11
ENDBRANCH   9  10
ENDBRANCH   8   9
ENDBRANCH   1   8
TORSDOF 8
ENDMDL
MODEL 8
REMARK VINA RESULT:    -3.905      2.205      3.077
REMARK INTER + INTRA:          -6.492
REMARK INTER:                  -5.692
REMARK INTRA:                  -0.800
REMARK UNBOUND:                -0.761
REMARK SMILES O=C([O-])CCCCCCCC(=O)[O-]
REMARK SMILES IDX 7 1 6 2 5 3 4 4 2 5 1 6 3 7 8 8 9 9 10 10 11 11 12 12 13 13
REMARK H PARENT
REMARK Flexibility Score: inf
ROOT
ATOM      1  C   UNL     1      52.725  41.275  47.403  1.00  0.00     0.000 C 
ENDROOT
BRANCH   1   2
ATOM      2  C   UNL     1      51.851  40.335  48.243  1.00  0.00     0.000 C 
BRANCH   2   3
ATOM      3  C   UNL     1      52.542  39.974  49.566  1.00  0.00     0.006 C 
BRANCH   3   4
ATOM      4  C   UNL     1      51.679  40.322  50.785  1.00  0.00     0.053 C 
BRANCH   4   5
ATOM      5  C   UNL     1      52.492  40.930  51.886  1.00  0.00     0.041 C 
ATOM      6  O   UNL     1      53.534  40.356  52.298  1.00  0.00    -0.550 OA
ATOM      7  O   UNL     1      52.082  42.117  52.480  1.00  0.00    -0.550 OA
ENDBRANCH   4   5
ENDBRANCH   3   4
ENDBRANCH   2   3
ENDBRANCH   1   2
BRANCH   1   8
ATOM      8  C   UNL     1      52.043  42.638  47.215  1.00  0.00     0.000 C 
BRANCH   8   9
ATOM      9  C   UNL     1      52.845  43.792  47.838  1.00  0.00     0.006 C 
BRANCH   9  10
ATOM     10  C   UNL     1      52.946  43.685  49.365  1.00  0.00     0.053 C 
BRANCH  10  11
ATOM     11  C   UNL     1      54.379  43.626  49.790  1.00  0.00     0.041 C 
ATOM     12  O   UNL     1      54.962  44.665  50.198  1.00  0.00    -0.550 OA
ATOM     13  O   UNL     1      55.057  42.414  49.785  1.00  0.00    -0.550 OA
ENDBRANCH  10  11
ENDBRANCH   9  10
ENDBRANCH   8   9
ENDBRANCH   1   8
TORSDOF 8
ENDMDL
MODEL 9
REMARK VINA RESULT:    -3.853      2.176      3.275
REMARK INTER + INTRA:          -6.416
REMARK INTER:                  -5.845
REMARK INTRA:                  -0.570
REMARK UNBOUND:                -0.761
REMARK SMILES O=C([O-])CCCCCCCC(=O)[O-]
REMARK SMILES IDX 7 1 6 2 5 3 4 4 2 5 1 6 3 7 8 8 9 9 10 10 11 11 12 12 13 13
REMARK H PARENT
REMARK Flexibility Score: inf
ROOT
ATOM      1  C   UNL     1      53.337  42.881  49.741  1.00  0.00     0.000 C 
ENDROOT
BRANCH   1   2
ATOM      2  C   UNL     1      52.607  43.411  50.982  1.00  0.00     0.000 C 
BRANCH   2   3
ATOM      3  C   UNL     1      52.015  42.259  51.808  1.00  0.00     0.006 C 
BRANCH   3   4
ATOM      4  C   UNL     1      52.936  41.837  52.960  1.00  0.00     0.053 C 
BRANCH   4   5
ATOM      5  C   UNL     1      53.647  40.554  52.659  1.00  0.00     0.041 C 
ATOM      6  O   UNL     1      53.211  39.780  51.766  1.00  0.00    -0.550 OA
ATOM      7  O   UNL     1      54.775  40.196  53.387  1.00  0.00    -0.550 OA
ENDBRANCH   4   5
ENDBRANCH   3   4
ENDBRANCH   2   3
ENDBRANCH   1   2
BRANCH   1   8
ATOM      8  C   UNL     1      52.605  43.293  48.456  1.00  0.00     0.000 C 
BRANCH   8   9
ATOM      9  C   UNL     1      52.205  42.087  47.590  1.00  0.00     0.006 C 
BRANCH   9  10
ATOM     10  C   UNL     1      52.251  40.763  48.364  1.00  0.00     0.053 C 
BRANCH  10  11
ATOM     11  C   UNL     1      53.295  39.859  47.790  1.00  0.00     0.041 C 
ATOM     12  O   UNL     1      54.185  39.368  48.533  1.00  0.00    -0.550 OA
ATOM     13  O   UNL     1      53.256  39.517  46.444  1.00  0.00    -0.550 OA
ENDBRANCH  10  11
ENDBRANCH   9  10
ENDBRANCH   8   9
ENDBRANCH   1   8
TORSDOF 8
ENDMDL
