MODEL 1
REMARK VINA RESULT:    -3.555      0.000      0.000
REMARK INTER + INTRA:          -4.402
REMARK INTER:                  -4.179
REMARK INTRA:                  -0.224
REMARK UNBOUND:                -0.224
REMARK SMILES [NH3+][C@@H](CO)C(=O)[O-]
REMARK SMILES IDX 3 1 2 2 1 3 5 7 6 8 7 9 4 10
REMARK H PARENT 1 4 1 5 1 6 4 11
REMARK Flexibility Score: inf
ROOT
ATOM      1  C   UNL     1      30.594  35.773  24.128  1.00  0.00     0.227 C 
ENDROOT
BRANCH   1   2
ATOM      2  C   UNL     1      30.878  34.323  23.694  1.00  0.00     0.253 C 
BRANCH   2   3
ATOM      3  N   UNL     1      31.727  34.287  22.498  1.00  0.00    -0.348 N 
ATOM      4  H   UNL     1      32.251  35.189  22.408  1.00  0.00     0.345 HD
ATOM      5  H   UNL     1      32.412  33.497  22.552  1.00  0.00     0.345 HD
ATOM      6  H   UNL     1      31.136  34.170  21.644  1.00  0.00     0.345 HD
ENDBRANCH   2   3
BRANCH   2   7
ATOM      7  C   UNL     1      29.582  33.603  23.437  1.00  0.00     0.102 C 
ATOM      8  O   UNL     1      28.485  34.153  23.717  1.00  0.00    -0.544 OA
ATOM      9  O   UNL     1      29.587  32.332  22.873  1.00  0.00    -0.544 OA
ENDBRANCH   2   7
ENDBRANCH   1   2
BRANCH   1  10
ATOM     10  O   UNL     1      30.166  36.544  23.037  1.00  0.00    -0.390 OA
ATOM     11  H   UNL     1      29.339  37.011  23.325  1.00  0.00     0.210 HD
ENDBRANCH   1  10
TORSDOF 4
ENDMDL
MODEL 2
REMARK VINA RESULT:    -3.362     10.592     11.013
REMARK INTER + INTRA:          -4.175
REMARK INTER:                  -3.776
REMARK INTRA:                  -0.398
REMARK UNBOUND:                -0.224
REMARK SMILES [NH3+][C@@H](CO)C(=O)[O-]
REMARK SMILES IDX 3 1 2 2 1 3 5 7 6 8 7 9 4 10
REMARK H PARENT 1 4 1 5 1 6 4 11
REMARK Flexibility Score: inf
ROOT
ATOM      1  C   UNL     1      34.741  37.026  15.263  1.00  0.00     0.227 C 
ENDROOT
BRANCH   1   2
ATOM      2  C   UNL     1      35.266  36.774  13.838  1.00  0.00     0.253 C 
BRANCH   2   3
ATOM      3  N   UNL     1      36.219  37.815  13.436  1.00  0.00    -0.348 N 
ATOM      4  H   UNL     1      36.182  38.611  14.115  1.00  0.00     0.345 HD
ATOM      5  H   UNL     1      37.194  37.435  13.407  1.00  0.00     0.345 HD
ATOM      6  H   UNL     1      35.967  38.184  12.490  1.00  0.00     0.345 HD
ENDBRANCH   2   3
BRANCH   2   7
ATOM      7  C   UNL     1      34.115  36.719  12.870  1.00  0.00     0.102 C 
ATOM      8  O   UNL     1      33.690  37.774  12.330  1.00  0.00    -0.544 OA
ATOM      9  O   UNL     1      33.523  35.501  12.553  1.00  0.00    -0.544 OA
ENDBRANCH   2   7
ENDBRANCH   1   2
BRANCH   1  10
ATOM     10  O   UNL     1      33.339  37.076  15.275  1.00  0.00    -0.390 OA
ATOM     11  H   UNL     1      33.081  37.943  14.865  1.00  0.00     0.210 HD
ENDBRANCH   1  10
TORSDOF 4
ENDMDL
MODEL 3
REMARK VINA RESULT:    -3.343     10.359     10.996
REMARK INTER + INTRA:          -4.152
REMARK INTER:                  -3.761
REMARK INTRA:                  -0.391
REMARK UNBOUND:                -0.224
REMARK SMILES [NH3+][C@@H](CO)C(=O)[O-]
REMARK SMILES IDX 3 1 2 2 1 3 5 7 6 8 7 9 4 10
REMARK H PARENT 1 4 1 5 1 6 4 11
REMARK Flexibility Score: inf
ROOT
ATOM      1  C   UNL     1      35.457  35.413  15.431  1.00  0.00     0.227 C 
ENDROOT
BRANCH   1   2
ATOM      2  C   UNL     1      35.026  36.863  15.148  1.00  0.00     0.253 C 
BRANCH   2   3
ATOM      3  N   UNL     1      33.575  37.021  15.300  1.00  0.00    -0.348 N 
ATOM      4  H   UNL     1      33.158  37.350  14.397  1.00  0.00     0.345 HD
ATOM      5  H   UNL     1      33.129  36.115  15.574  1.00  0.00     0.345 HD
ATOM      6  H   UNL     1      33.369  37.739  16.031  1.00  0.00     0.345 HD
ENDBRANCH   2   3
BRANCH   2   7
ATOM      7  C   UNL     1      35.453  37.263  13.762  1.00  0.00     0.102 C 
ATOM      8  O   UNL     1      34.612  37.298  12.826  1.00  0.00    -0.544 OA
ATOM      9  O   UNL     1      36.774  37.613  13.508  1.00  0.00    -0.544 OA
ENDBRANCH   2   7
ENDBRANCH   1   2
BRANCH   1  10
ATOM     10  O   UNL     1      35.862  34.774  14.250  1.00  0.00    -0.390 OA
ATOM     11  H   UNL     1      36.431  34.007  14.521  1.00  0.00     0.210 HD
ENDBRANCH   1  10
TORSDOF 4
ENDMDL
MODEL 4
REMARK VINA RESULT:    -3.292     10.031     10.306
REMARK INTER + INTRA:          -4.093
REMARK INTER:                  -3.688
REMARK INTRA:                  -0.404
REMARK UNBOUND:                -0.224
REMARK SMILES [NH3+][C@@H](CO)C(=O)[O-]
REMARK SMILES IDX 3 1 2 2 1 3 5 7 6 8 7 9 4 10
REMARK H PARENT 1 4 1 5 1 6 4 11
REMARK Flexibility Score: inf
ROOT
ATOM      1  C   UNL     1      35.431  37.187  13.777  1.00  0.00     0.227 C 
ENDROOT
BRANCH   1   2
ATOM      2  C   UNL     1      34.167  36.729  14.527  1.00  0.00     0.253 C 
BRANCH   2   3
ATOM      3  N   UNL     1      34.208  37.143  15.934  1.00  0.00    -0.348 N 
ATOM      4  H   UNL     1      33.320  36.863  16.412  1.00  0.00     0.345 HD
ATOM      5  H   UNL     1      35.018  36.701  16.428  1.00  0.00     0.345 HD
ATOM      6  H   UNL     1      34.295  38.183  15.997  1.00  0.00     0.345 HD
ENDBRANCH   2   3
BRANCH   2   7
ATOM      7  C   UNL     1      34.026  35.234  14.427  1.00  0.00     0.102 C 
ATOM      8  O   UNL     1      34.488  34.492  15.333  1.00  0.00    -0.544 OA
ATOM      9  O   UNL     1      33.371  34.662  13.342  1.00  0.00    -0.544 OA
ENDBRANCH   2   7
ENDBRANCH   1   2
BRANCH   1  10
ATOM     10  O   UNL     1      36.082  36.095  13.185  1.00  0.00    -0.390 OA
ATOM     11  H   UNL     1      36.501  36.432  12.350  1.00  0.00     0.210 HD
ENDBRANCH   1  10
TORSDOF 4
ENDMDL
MODEL 5
REMARK VINA RESULT:    -3.276     10.299     11.099
REMARK INTER + INTRA:          -4.074
REMARK INTER:                  -3.667
REMARK INTRA:                  -0.407
REMARK UNBOUND:                -0.224
REMARK SMILES [NH3+][C@@H](CO)C(=O)[O-]
REMARK SMILES IDX 3 1 2 2 1 3 5 7 6 8 7 9 4 10
REMARK H PARENT 1 4 1 5 1 6 4 11
REMARK Flexibility Score: inf
ROOT
ATOM      1  C   UNL     1      32.289  24.621  30.487  1.00  0.00     0.227 C 
ENDROOT
BRANCH   1   2
ATOM      2  C   UNL     1      31.449  25.671  29.738  1.00  0.00     0.253 C 
BRANCH   2   3
ATOM      3  N   UNL     1      31.236  25.277  28.341  1.00  0.00    -0.348 N 
ATOM      4  H   UNL     1      30.626  25.981  27.863  1.00  0.00     0.345 HD
ATOM      5  H   UNL     1      32.147  25.210  27.830  1.00  0.00     0.345 HD
ATOM      6  H   UNL     1      30.753  24.350  28.300  1.00  0.00     0.345 HD
ENDBRANCH   2   3
BRANCH   2   7
ATOM      7  C   UNL     1      32.127  27.012  29.805  1.00  0.00     0.102 C 
ATOM      8  O   UNL     1      31.779  27.854  30.674  1.00  0.00    -0.544 OA
ATOM      9  O   UNL     1      33.152  27.325  28.919  1.00  0.00    -0.544 OA
ENDBRANCH   2   7
ENDBRANCH   1   2
BRANCH   1  10
ATOM     10  O   UNL     1      33.417  25.212  31.074  1.00  0.00    -0.390 OA
ATOM     11  H   UNL     1      34.195  24.644  30.833  1.00  0.00     0.210 HD
ENDBRANCH   1  10
TORSDOF 4
ENDMDL
MODEL 6
REMARK VINA RESULT:    -3.264     11.020     11.590
REMARK INTER + INTRA:          -4.060
REMARK INTER:                  -3.834
REMARK INTRA:                  -0.226
REMARK UNBOUND:                -0.224
REMARK SMILES [NH3+][C@@H](CO)C(=O)[O-]
REMARK SMILES IDX 3 1 2 2 1 3 5 7 6 8 7 9 4 10
REMARK H PARENT 1 4 1 5 1 6 4 11
REMARK Flexibility Score: inf
ROOT
ATOM      1  C   UNL     1      33.989  36.585  12.103  1.00  0.00     0.227 C 
ENDROOT
BRANCH   1   2
ATOM      2  C   UNL     1      34.312  36.232  13.566  1.00  0.00     0.253 C 
BRANCH   2   3
ATOM      3  N   UNL     1      33.445  36.969  14.491  1.00  0.00    -0.348 N 
ATOM      4  H   UNL     1      32.449  36.897  14.177  1.00  0.00     0.345 HD
ATOM      5  H   UNL     1      33.526  36.586  15.462  1.00  0.00     0.345 HD
ATOM      6  H   UNL     1      33.709  37.981  14.499  1.00  0.00     0.345 HD
ENDBRANCH   2   3
BRANCH   2   7
ATOM      7  C   UNL     1      35.758  36.529  13.857  1.00  0.00     0.102 C 
ATOM      8  O   UNL     1      36.453  35.711  14.515  1.00  0.00    -0.544 OA
ATOM      9  O   UNL     1      36.342  37.701  13.388  1.00  0.00    -0.544 OA
ENDBRANCH   2   7
ENDBRANCH   1   2
BRANCH   1  10
ATOM     10  O   UNL     1      33.776  37.964  11.959  1.00  0.00    -0.390 OA
ATOM     11  H   UNL     1      34.572  38.328  11.492  1.00  0.00     0.210 HD
ENDBRANCH   1  10
TORSDOF 4
ENDMDL
MODEL 7
REMARK VINA RESULT:    -3.258     10.965     11.684
REMARK INTER + INTRA:          -4.053
REMARK INTER:                  -3.665
REMARK INTRA:                  -0.388
REMARK UNBOUND:                -0.224
REMARK SMILES [NH3+][C@@H](CO)C(=O)[O-]
REMARK SMILES IDX 3 1 2 2 1 3 5 7 6 8 7 9 4 10
REMARK H PARENT 1 4 1 5 1 6 4 11
REMARK Flexibility Score: inf
ROOT
ATOM      1  C   UNL     1      33.199  26.540  29.027  1.00  0.00     0.227 C 
ENDROOT
BRANCH   1   2
ATOM      2  C   UNL     1      32.521  25.158  29.053  1.00  0.00     0.253 C 
BRANCH   2   3
ATOM      3  N   UNL     1      31.187  25.214  28.445  1.00  0.00    -0.348 N 
ATOM      4  H   UNL     1      31.147  25.994  27.748  1.00  0.00     0.345 HD
ATOM      5  H   UNL     1      30.960  24.312  27.963  1.00  0.00     0.345 HD
ATOM      6  H   UNL     1      30.467  25.400  29.179  1.00  0.00     0.345 HD
ENDBRANCH   2   3
BRANCH   2   7
ATOM      7  C   UNL     1      32.429  24.659  30.469  1.00  0.00     0.102 C 
ATOM      8  O   UNL     1      33.248  23.802  30.893  1.00  0.00    -0.544 OA
ATOM      9  O   UNL     1      31.450  25.153  31.324  1.00  0.00    -0.544 OA
ENDBRANCH   2   7
ENDBRANCH   1   2
BRANCH   1  10
ATOM     10  O   UNL     1      33.888  26.779  30.224  1.00  0.00    -0.390 OA
ATOM     11  H   UNL     1      33.213  26.756  30.952  1.00  0.00     0.210 HD
ENDBRANCH   1  10
TORSDOF 4
ENDMDL
MODEL 8
REMARK VINA RESULT:    -3.232      9.395      9.762
REMARK INTER + INTRA:          -4.022
REMARK INTER:                  -3.638
REMARK INTRA:                  -0.384
REMARK UNBOUND:                -0.224
REMARK SMILES [NH3+][C@@H](CO)C(=O)[O-]
REMARK SMILES IDX 3 1 2 2 1 3 5 7 6 8 7 9 4 10
REMARK H PARENT 1 4 1 5 1 6 4 11
REMARK Flexibility Score: inf
ROOT
ATOM      1  C   UNL     1      33.872  36.946  14.801  1.00  0.00     0.227 C 
ENDROOT
BRANCH   1   2
ATOM      2  C   UNL     1      34.192  35.564  14.204  1.00  0.00     0.253 C 
BRANCH   2   3
ATOM      3  N   UNL     1      32.995  34.716  14.166  1.00  0.00    -0.348 N 
ATOM      4  H   UNL     1      33.176  33.875  13.570  1.00  0.00     0.345 HD
ATOM      5  H   UNL     1      32.730  34.403  15.129  1.00  0.00     0.345 HD
ATOM      6  H   UNL     1      32.196  35.244  13.746  1.00  0.00     0.345 HD
ENDBRANCH   2   3
BRANCH   2   7
ATOM      7  C   UNL     1      35.277  34.899  15.006  1.00  0.00     0.102 C 
ATOM      8  O   UNL     1      36.483  35.210  14.820  1.00  0.00    -0.544 OA
ATOM      9  O   UNL     1      34.956  33.948  15.969  1.00  0.00    -0.544 OA
ENDBRANCH   2   7
ENDBRANCH   1   2
BRANCH   1  10
ATOM     10  O   UNL     1      34.353  37.045  16.115  1.00  0.00    -0.390 OA
ATOM     11  H   UNL     1      34.542  38.006  16.278  1.00  0.00     0.210 HD
ENDBRANCH   1  10
TORSDOF 4
ENDMDL
MODEL 9
REMARK VINA RESULT:    -3.219     10.503     11.071
REMARK INTER + INTRA:          -4.007
REMARK INTER:                  -3.760
REMARK INTRA:                  -0.247
REMARK UNBOUND:                -0.224
REMARK SMILES [NH3+][C@@H](CO)C(=O)[O-]
REMARK SMILES IDX 3 1 2 2 1 3 5 7 6 8 7 9 4 10
REMARK H PARENT 1 4 1 5 1 6 4 11
REMARK Flexibility Score: inf
ROOT
ATOM      1  C   UNL     1      33.793  36.697  14.870  1.00  0.00     0.227 C 
ENDROOT
BRANCH   1   2
ATOM      2  C   UNL     1      34.617  37.076  13.626  1.00  0.00     0.253 C 
BRANCH   2   3
ATOM      3  N   UNL     1      34.203  36.288  12.459  1.00  0.00    -0.348 N 
ATOM      4  H   UNL     1      33.192  36.030  12.547  1.00  0.00     0.345 HD
ATOM      5  H   UNL     1      34.343  36.831  11.576  1.00  0.00     0.345 HD
ATOM      6  H   UNL     1      34.759  35.404  12.410  1.00  0.00     0.345 HD
ENDBRANCH   2   3
BRANCH   2   7
ATOM      7  C   UNL     1      36.083  36.871  13.901  1.00  0.00     0.102 C 
ATOM      8  O   UNL     1      36.929  37.693  13.463  1.00  0.00    -0.544 OA
ATOM      9  O   UNL     1      36.510  35.782  14.652  1.00  0.00    -0.544 OA
ENDBRANCH   2   7
ENDBRANCH   1   2
BRANCH   1  10
ATOM     10  O   UNL     1      34.317  37.309  16.019  1.00  0.00    -0.390 OA
ATOM     11  H   UNL     1      34.848  36.617  16.493  1.00  0.00     0.210 HD
ENDBRANCH   1  10
TORSDOF 4
ENDMDL
