MODEL 1
REMARK VINA RESULT:    -6.393      0.000      0.000
REMARK INTER + INTRA:         -11.354
REMARK INTER:                  -9.944
REMARK INTRA:                  -1.410
REMARK UNBOUND:                -1.410
REMARK SMILES COc1cc(CNC(=O)CCCCC=CC(C)C)ccc1O
REMARK SMILES IDX 11 1 12 2 13 3 14 4 15 5 16 6 17 7 18 8 10 9 8 10 9 11 7 12
REMARK SMILES IDX 6 14 5 15 4 16 19 17 3 18 20 19 21 20 2 21 1 22 22 23
REMARK H PARENT 7 13 22 24
REMARK Flexibility Score: inf
ROOT
ATOM      1  C   UNL     1      50.931  18.442  61.334  1.00  0.00     0.010 C 
ENDROOT
BRANCH   1   2
ATOM      2  C   UNL     1      51.918  19.521  61.793  1.00  0.00     0.005 C 
BRANCH   2   3
ATOM      3  C   UNL     1      52.131  20.572  60.695  1.00  0.00     0.027 C 
BRANCH   3   4
ATOM      4  C   UNL     1      53.120  20.093  59.665  1.00  0.00    -0.031 C 
ATOM      5  C   UNL     1      53.577  20.825  58.631  1.00  0.00    -0.028 C 
BRANCH   5   6
ATOM      6  C   UNL     1      53.168  22.250  58.318  1.00  0.00     0.005 C 
ATOM      7  C   UNL     1      54.409  23.081  57.976  1.00  0.00     0.012 C 
ATOM      8  C   UNL     1      52.178  22.257  57.149  1.00  0.00     0.012 C 
ENDBRANCH   5   6
ENDBRANCH   3   4
ENDBRANCH   2   3
ENDBRANCH   1   2
BRANCH   1   9
ATOM      9  C   UNL     1      51.531  17.042  61.503  1.00  0.00     0.100 C 
BRANCH   9  10
ATOM     10  C   UNL     1      52.422  16.717  60.342  1.00  0.00     0.220 C 
ATOM     11  O   UNL     1      53.639  16.454  60.550  1.00  0.00    -0.275 OA
ATOM     12  N   UNL     1      51.881  16.655  59.016  1.00  0.00    -0.352 N 
ATOM     13  H   UNL     1      50.875  16.892  58.866  1.00  0.00     0.163 HD
BRANCH  12  14
ATOM     14  C   UNL     1      52.654  16.166  57.878  1.00  0.00     0.151 C 
BRANCH  14  15
ATOM     15  C   UNL     1      52.217  16.871  56.624  1.00  0.00    -0.025 A 
ATOM     16  C   UNL     1      52.146  16.165  55.413  1.00  0.00     0.056 A 
ATOM     17  C   UNL     1      51.921  18.242  56.641  1.00  0.00     0.009 A 
ATOM     18  C   UNL     1      51.759  16.815  54.223  1.00  0.00     0.160 A 
ATOM     19  C   UNL     1      51.535  18.892  55.467  1.00  0.00     0.050 A 
ATOM     20  C   UNL     1      51.450  18.188  54.261  1.00  0.00     0.157 A 
BRANCH  18  21
ATOM     21  O   UNL     1      51.672  16.133  52.999  1.00  0.00    -0.493 OA
ATOM     22  C   UNL     1      51.881  14.734  52.838  1.00  0.00     0.278 C 
ENDBRANCH  18  21
BRANCH  20  23
ATOM     23  O   UNL     1      51.055  18.869  53.108  1.00  0.00    -0.504 OA
ATOM     24  H   UNL     1      50.558  18.411  52.352  1.00  0.00     0.293 HD
ENDBRANCH  20  23
ENDBRANCH  14  15
ENDBRANCH  12  14
ENDBRANCH   9  10
ENDBRANCH   1   9
TORSDOF 10
ENDMDL
MODEL 2
REMARK VINA RESULT:    -6.270      3.215      7.078
REMARK INTER + INTRA:         -11.163
REMARK INTER:                  -9.813
REMARK INTRA:                  -1.350
REMARK UNBOUND:                -1.410
REMARK SMILES COc1cc(CNC(=O)CCCCC=CC(C)C)ccc1O
REMARK SMILES IDX 11 1 12 2 13 3 14 4 15 5 16 6 17 7 18 8 10 9 8 10 9 11 7 12
REMARK SMILES IDX 6 14 5 15 4 16 19 17 3 18 20 19 21 20 2 21 1 22 22 23
REMARK H PARENT 7 13 22 24
REMARK Flexibility Score: inf
ROOT
ATOM      1  C   UNL     1      50.526  18.315  57.620  1.00  0.00     0.010 C 
ENDROOT
BRANCH   1   2
ATOM      2  C   UNL     1      50.627  19.452  56.598  1.00  0.00     0.005 C 
BRANCH   2   3
ATOM      3  C   UNL     1      50.588  20.819  57.293  1.00  0.00     0.027 C 
BRANCH   3   4
ATOM      4  C   UNL     1      51.438  21.827  56.564  1.00  0.00    -0.031 C 
ATOM      5  C   UNL     1      52.705  22.149  56.886  1.00  0.00    -0.028 C 
BRANCH   5   6
ATOM      6  C   UNL     1      53.491  21.565  58.043  1.00  0.00     0.005 C 
ATOM      7  C   UNL     1      54.370  20.415  57.541  1.00  0.00     0.012 C 
ATOM      8  C   UNL     1      54.351  22.657  58.685  1.00  0.00     0.012 C 
ENDBRANCH   5   6
ENDBRANCH   3   4
ENDBRANCH   2   3
ENDBRANCH   1   2
BRANCH   1   9
ATOM      9  C   UNL     1      51.917  17.852  58.067  1.00  0.00     0.100 C 
BRANCH   9  10
ATOM     10  C   UNL     1      52.023  17.898  59.561  1.00  0.00     0.220 C 
ATOM     11  O   UNL     1      52.084  16.818  60.212  1.00  0.00    -0.275 OA
ATOM     12  N   UNL     1      52.107  19.160  60.236  1.00  0.00    -0.352 N 
ATOM     13  H   UNL     1      52.038  20.041  59.679  1.00  0.00     0.163 HD
BRANCH  12  14
ATOM     14  C   UNL     1      52.395  19.265  61.663  1.00  0.00     0.151 C 
BRANCH  14  15
ATOM     15  C   UNL     1      51.133  19.582  62.418  1.00  0.00    -0.025 A 
ATOM     16  C   UNL     1      50.935  20.868  62.942  1.00  0.00     0.056 A 
ATOM     17  C   UNL     1      50.167  18.590  62.642  1.00  0.00     0.009 A 
ATOM     18  C   UNL     1      49.768  21.177  63.670  1.00  0.00     0.160 A 
ATOM     19  C   UNL     1      49.007  18.888  63.360  1.00  0.00     0.050 A 
ATOM     20  C   UNL     1      48.801  20.174  63.873  1.00  0.00     0.157 A 
BRANCH  18  21
ATOM     21  O   UNL     1      49.539  22.457  64.200  1.00  0.00    -0.493 OA
ATOM     22  C   UNL     1      49.858  23.674  63.534  1.00  0.00     0.278 C 
ENDBRANCH  18  21
BRANCH  20  23
ATOM     23  O   UNL     1      47.627  20.437  64.581  1.00  0.00    -0.504 OA
ATOM     24  H   UNL     1      47.553  20.287  65.581  1.00  0.00     0.293 HD
ENDBRANCH  20  23
ENDBRANCH  14  15
ENDBRANCH  12  14
ENDBRANCH   9  10
ENDBRANCH   1   9
TORSDOF 10
ENDMDL
MODEL 3
REMARK VINA RESULT:    -6.253      1.313      1.783
REMARK INTER + INTRA:         -11.135
REMARK INTER:                  -9.253
REMARK INTRA:                  -1.882
REMARK UNBOUND:                -1.410
REMARK SMILES COc1cc(CNC(=O)CCCCC=CC(C)C)ccc1O
REMARK SMILES IDX 11 1 12 2 13 3 14 4 15 5 16 6 17 7 18 8 10 9 8 10 9 11 7 12
REMARK SMILES IDX 6 14 5 15 4 16 19 17 3 18 20 19 21 20 2 21 1 22 22 23
REMARK H PARENT 7 13 22 24
REMARK Flexibility Score: inf
ROOT
ATOM      1  C   UNL     1      51.123  18.595  61.246  1.00  0.00     0.010 C 
ENDROOT
BRANCH   1   2
ATOM      2  C   UNL     1      52.203  19.639  61.545  1.00  0.00     0.005 C 
BRANCH   2   3
ATOM      3  C   UNL     1      51.946  20.934  60.765  1.00  0.00     0.027 C 
BRANCH   3   4
ATOM      4  C   UNL     1      52.912  21.083  59.618  1.00  0.00    -0.031 C 
ATOM      5  C   UNL     1      52.569  21.392  58.353  1.00  0.00    -0.028 C 
BRANCH   5   6
ATOM      6  C   UNL     1      51.156  21.630  57.860  1.00  0.00     0.005 C 
ATOM      7  C   UNL     1      51.184  22.560  56.643  1.00  0.00     0.012 C 
ATOM      8  C   UNL     1      50.504  20.292  57.499  1.00  0.00     0.012 C 
ENDBRANCH   5   6
ENDBRANCH   3   4
ENDBRANCH   2   3
ENDBRANCH   1   2
BRANCH   1   9
ATOM      9  C   UNL     1      51.704  17.177  61.286  1.00  0.00     0.100 C 
BRANCH   9  10
ATOM     10  C   UNL     1      52.512  16.914  60.052  1.00  0.00     0.220 C 
ATOM     11  O   UNL     1      53.772  16.932  60.120  1.00  0.00    -0.275 OA
ATOM     12  N   UNL     1      51.856  16.592  58.818  1.00  0.00    -0.352 N 
ATOM     13  H   UNL     1      50.812  16.598  58.781  1.00  0.00     0.163 HD
BRANCH  12  14
ATOM     14  C   UNL     1      52.588  16.147  57.636  1.00  0.00     0.151 C 
BRANCH  14  15
ATOM     15  C   UNL     1      52.706  17.280  56.653  1.00  0.00    -0.025 A 
ATOM     16  C   UNL     1      51.840  17.344  55.551  1.00  0.00     0.056 A 
ATOM     17  C   UNL     1      53.705  18.253  56.802  1.00  0.00     0.009 A 
ATOM     18  C   UNL     1      51.951  18.386  54.608  1.00  0.00     0.160 A 
ATOM     19  C   UNL     1      53.820  19.290  55.874  1.00  0.00     0.050 A 
ATOM     20  C   UNL     1      52.949  19.364  54.781  1.00  0.00     0.157 A 
BRANCH  18  21
ATOM     21  O   UNL     1      51.094  18.480  53.500  1.00  0.00    -0.493 OA
ATOM     22  C   UNL     1      49.990  17.615  53.259  1.00  0.00     0.278 C 
ENDBRANCH  18  21
BRANCH  20  23
ATOM     23  O   UNL     1      53.090  20.417  53.876  1.00  0.00    -0.504 OA
ATOM     24  H   UNL     1      52.454  20.551  53.097  1.00  0.00     0.293 HD
ENDBRANCH  20  23
ENDBRANCH  14  15
ENDBRANCH  12  14
ENDBRANCH   9  10
ENDBRANCH   1   9
TORSDOF 10
ENDMDL
MODEL 4
REMARK VINA RESULT:    -6.249      2.382      5.996
REMARK INTER + INTRA:         -11.129
REMARK INTER:                  -9.074
REMARK INTRA:                  -2.055
REMARK UNBOUND:                -1.410
REMARK SMILES COc1cc(CNC(=O)CCCCC=CC(C)C)ccc1O
REMARK SMILES IDX 11 1 12 2 13 3 14 4 15 5 16 6 17 7 18 8 10 9 8 10 9 11 7 12
REMARK SMILES IDX 6 14 5 15 4 16 19 17 3 18 20 19 21 20 2 21 1 22 22 23
REMARK H PARENT 7 13 22 24
REMARK Flexibility Score: inf
ROOT
ATOM      1  C   UNL     1      51.828  15.594  55.541  1.00  0.00     0.010 C 
ENDROOT
BRANCH   1   2
ATOM      2  C   UNL     1      50.769  16.240  56.440  1.00  0.00     0.005 C 
BRANCH   2   3
ATOM      3  C   UNL     1      51.425  17.066  57.554  1.00  0.00     0.027 C 
BRANCH   3   4
ATOM      4  C   UNL     1      52.870  16.682  57.742  1.00  0.00    -0.031 C 
ATOM      5  C   UNL     1      53.496  16.583  58.930  1.00  0.00    -0.028 C 
BRANCH   5   6
ATOM      6  C   UNL     1      52.863  16.852  60.280  1.00  0.00     0.005 C 
ATOM      7  C   UNL     1      53.255  15.745  61.264  1.00  0.00     0.012 C 
ATOM      8  C   UNL     1      53.318  18.219  60.799  1.00  0.00     0.012 C 
ENDBRANCH   5   6
ENDBRANCH   3   4
ENDBRANCH   2   3
ENDBRANCH   1   2
BRANCH   1   9
ATOM      9  C   UNL     1      51.605  15.969  54.072  1.00  0.00     0.100 C 
BRANCH   9  10
ATOM     10  C   UNL     1      51.808  17.441  53.876  1.00  0.00     0.220 C 
ATOM     11  O   UNL     1      50.861  18.143  53.425  1.00  0.00    -0.275 OA
ATOM     12  N   UNL     1      53.051  18.050  54.250  1.00  0.00    -0.352 N 
ATOM     13  H   UNL     1      53.826  17.447  54.607  1.00  0.00     0.163 HD
BRANCH  12  14
ATOM     14  C   UNL     1      53.241  19.498  54.256  1.00  0.00     0.151 C 
BRANCH  14  15
ATOM     15  C   UNL     1      53.050  20.032  55.649  1.00  0.00    -0.025 A 
ATOM     16  C   UNL     1      51.926  20.817  55.950  1.00  0.00     0.056 A 
ATOM     17  C   UNL     1      54.008  19.790  56.644  1.00  0.00     0.009 A 
ATOM     18  C   UNL     1      51.742  21.344  57.244  1.00  0.00     0.160 A 
ATOM     19  C   UNL     1      53.832  20.307  57.930  1.00  0.00     0.050 A 
ATOM     20  C   UNL     1      52.706  21.079  58.236  1.00  0.00     0.157 A 
BRANCH  18  21
ATOM     21  O   UNL     1      50.625  22.126  57.576  1.00  0.00    -0.493 OA
ATOM     22  C   UNL     1      50.239  23.313  56.891  1.00  0.00     0.278 C 
ENDBRANCH  18  21
BRANCH  20  23
ATOM     23  O   UNL     1      52.560  21.574  59.533  1.00  0.00    -0.504 OA
ATOM     24  H   UNL     1      52.013  21.092  60.238  1.00  0.00     0.293 HD
ENDBRANCH  20  23
ENDBRANCH  14  15
ENDBRANCH  12  14
ENDBRANCH   9  10
ENDBRANCH   1   9
TORSDOF 10
ENDMDL
MODEL 5
REMARK VINA RESULT:    -6.158      2.577      6.028
REMARK INTER + INTRA:         -10.988
REMARK INTER:                  -9.629
REMARK INTRA:                  -1.359
REMARK UNBOUND:                -1.410
REMARK SMILES COc1cc(CNC(=O)CCCCC=CC(C)C)ccc1O
REMARK SMILES IDX 11 1 12 2 13 3 14 4 15 5 16 6 17 7 18 8 10 9 8 10 9 11 7 12
REMARK SMILES IDX 6 14 5 15 4 16 19 17 3 18 20 19 21 20 2 21 1 22 22 23
REMARK H PARENT 7 13 22 24
REMARK Flexibility Score: inf
ROOT
ATOM      1  C   UNL     1      53.512  19.068  55.661  1.00  0.00     0.010 C 
ENDROOT
BRANCH   1   2
ATOM      2  C   UNL     1      52.690  20.244  55.124  1.00  0.00     0.005 C 
BRANCH   2   3
ATOM      3  C   UNL     1      51.497  20.544  56.040  1.00  0.00     0.027 C 
BRANCH   3   4
ATOM      4  C   UNL     1      51.416  22.013  56.368  1.00  0.00    -0.031 C 
ATOM      5  C   UNL     1      52.118  22.629  57.338  1.00  0.00    -0.028 C 
BRANCH   5   6
ATOM      6  C   UNL     1      53.100  21.954  58.274  1.00  0.00     0.005 C 
ATOM      7  C   UNL     1      54.422  22.729  58.281  1.00  0.00     0.012 C 
ATOM      8  C   UNL     1      52.506  21.891  59.684  1.00  0.00     0.012 C 
ENDBRANCH   5   6
ENDBRANCH   3   4
ENDBRANCH   2   3
ENDBRANCH   1   2
BRANCH   1   9
ATOM      9  C   UNL     1      52.623  18.078  56.422  1.00  0.00     0.100 C 
BRANCH   9  10
ATOM     10  C   UNL     1      53.110  17.923  57.831  1.00  0.00     0.220 C 
ATOM     11  O   UNL     1      54.298  17.548  58.038  1.00  0.00    -0.275 OA
ATOM     12  N   UNL     1      52.249  18.248  58.930  1.00  0.00    -0.352 N 
ATOM     13  H   UNL     1      51.265  18.541  58.735  1.00  0.00     0.163 HD
BRANCH  12  14
ATOM     14  C   UNL     1      52.724  18.293  60.309  1.00  0.00     0.151 C 
BRANCH  14  15
ATOM     15  C   UNL     1      51.556  18.428  61.247  1.00  0.00    -0.025 A 
ATOM     16  C   UNL     1      50.451  17.572  61.116  1.00  0.00     0.056 A 
ATOM     17  C   UNL     1      51.538  19.431  62.227  1.00  0.00     0.009 A 
ATOM     18  C   UNL     1      49.338  17.698  61.972  1.00  0.00     0.160 A 
ATOM     19  C   UNL     1      50.440  19.561  63.080  1.00  0.00     0.050 A 
ATOM     20  C   UNL     1      49.343  18.701  62.960  1.00  0.00     0.157 A 
BRANCH  18  21
ATOM     21  O   UNL     1      48.222  16.852  61.870  1.00  0.00    -0.493 OA
ATOM     22  C   UNL     1      47.304  16.857  60.782  1.00  0.00     0.278 C 
ENDBRANCH  18  21
BRANCH  20  23
ATOM     23  O   UNL     1      48.266  18.857  63.834  1.00  0.00    -0.504 OA
ATOM     24  H   UNL     1      48.369  18.778  64.841  1.00  0.00     0.293 HD
ENDBRANCH  20  23
ENDBRANCH  14  15
ENDBRANCH  12  14
ENDBRANCH   9  10
ENDBRANCH   1   9
TORSDOF 10
ENDMDL
MODEL 6
REMARK VINA RESULT:    -6.124      2.325      4.183
REMARK INTER + INTRA:         -10.934
REMARK INTER:                  -8.982
REMARK INTRA:                  -1.953
REMARK UNBOUND:                -1.410
REMARK SMILES COc1cc(CNC(=O)CCCCC=CC(C)C)ccc1O
REMARK SMILES IDX 11 1 12 2 13 3 14 4 15 5 16 6 17 7 18 8 10 9 8 10 9 11 7 12
REMARK SMILES IDX 6 14 5 15 4 16 19 17 3 18 20 19 21 20 2 21 1 22 22 23
REMARK H PARENT 7 13 22 24
REMARK Flexibility Score: inf
ROOT
ATOM      1  C   UNL     1      52.454  20.001  61.230  1.00  0.00     0.010 C 
ENDROOT
BRANCH   1   2
ATOM      2  C   UNL     1      51.417  19.071  61.868  1.00  0.00     0.005 C 
BRANCH   2   3
ATOM      3  C   UNL     1      51.073  17.906  60.930  1.00  0.00     0.027 C 
BRANCH   3   4
ATOM      4  C   UNL     1      52.201  16.910  60.860  1.00  0.00    -0.031 C 
ATOM      5  C   UNL     1      52.882  16.589  59.744  1.00  0.00    -0.028 C 
BRANCH   5   6
ATOM      6  C   UNL     1      52.625  17.162  58.365  1.00  0.00     0.005 C 
ATOM      7  C   UNL     1      53.749  18.135  57.993  1.00  0.00     0.012 C 
ATOM      8  C   UNL     1      52.538  16.026  57.342  1.00  0.00     0.012 C 
ENDBRANCH   5   6
ENDBRANCH   3   4
ENDBRANCH   2   3
ENDBRANCH   1   2
BRANCH   1   9
ATOM      9  C   UNL     1      51.839  21.364  60.896  1.00  0.00     0.100 C 
BRANCH   9  10
ATOM     10  C   UNL     1      52.369  21.864  59.587  1.00  0.00     0.220 C 
ATOM     11  O   UNL     1      53.594  22.154  59.485  1.00  0.00    -0.275 OA
ATOM     12  N   UNL     1      51.502  21.962  58.450  1.00  0.00    -0.352 N 
ATOM     13  H   UNL     1      50.489  21.732  58.562  1.00  0.00     0.163 HD
BRANCH  12  14
ATOM     14  C   UNL     1      51.999  22.264  57.111  1.00  0.00     0.151 C 
BRANCH  14  15
ATOM     15  C   UNL     1      51.923  21.034  56.248  1.00  0.00    -0.025 A 
ATOM     16  C   UNL     1      50.899  20.097  56.455  1.00  0.00     0.056 A 
ATOM     17  C   UNL     1      52.892  20.790  55.265  1.00  0.00     0.009 A 
ATOM     18  C   UNL     1      50.824  18.928  55.670  1.00  0.00     0.160 A 
ATOM     19  C   UNL     1      52.824  19.636  54.482  1.00  0.00     0.050 A 
ATOM     20  C   UNL     1      51.797  18.706  54.677  1.00  0.00     0.157 A 
BRANCH  18  21
ATOM     21  O   UNL     1      49.807  17.976  55.850  1.00  0.00    -0.493 OA
ATOM     22  C   UNL     1      48.499  18.081  55.299  1.00  0.00     0.278 C 
ENDBRANCH  18  21
BRANCH  20  23
ATOM     23  O   UNL     1      51.756  17.566  53.872  1.00  0.00    -0.504 OA
ATOM     24  H   UNL     1      52.244  16.711  54.119  1.00  0.00     0.293 HD
ENDBRANCH  20  23
ENDBRANCH  14  15
ENDBRANCH  12  14
ENDBRANCH   9  10
ENDBRANCH   1   9
TORSDOF 10
ENDMDL
MODEL 7
REMARK VINA RESULT:    -6.110      1.486      2.330
REMARK INTER + INTRA:         -10.914
REMARK INTER:                  -8.674
REMARK INTRA:                  -2.239
REMARK UNBOUND:                -1.410
REMARK SMILES COc1cc(CNC(=O)CCCCC=CC(C)C)ccc1O
REMARK SMILES IDX 11 1 12 2 13 3 14 4 15 5 16 6 17 7 18 8 10 9 8 10 9 11 7 12
REMARK SMILES IDX 6 14 5 15 4 16 19 17 3 18 20 19 21 20 2 21 1 22 22 23
REMARK H PARENT 7 13 22 24
REMARK Flexibility Score: inf
ROOT
ATOM      1  C   UNL     1      52.840  20.446  60.199  1.00  0.00     0.010 C 
ENDROOT
BRANCH   1   2
ATOM      2  C   UNL     1      51.949  21.638  59.834  1.00  0.00     0.005 C 
BRANCH   2   3
ATOM      3  C   UNL     1      51.269  21.419  58.477  1.00  0.00     0.027 C 
BRANCH   3   4
ATOM      4  C   UNL     1      51.906  22.262  57.403  1.00  0.00    -0.031 C 
ATOM      5  C   UNL     1      52.558  21.783  56.327  1.00  0.00    -0.028 C 
BRANCH   5   6
ATOM      6  C   UNL     1      52.775  20.316  56.016  1.00  0.00     0.005 C 
ATOM      7  C   UNL     1      52.924  20.125  54.503  1.00  0.00     0.012 C 
ATOM      8  C   UNL     1      54.025  19.814  56.746  1.00  0.00     0.012 C 
ENDBRANCH   5   6
ENDBRANCH   3   4
ENDBRANCH   2   3
ENDBRANCH   1   2
BRANCH   1   9
ATOM      9  C   UNL     1      52.123  19.499  61.166  1.00  0.00     0.100 C 
BRANCH   9  10
ATOM     10  C   UNL     1      51.902  18.167  60.517  1.00  0.00     0.220 C 
ATOM     11  O   UNL     1      51.218  17.291  61.117  1.00  0.00    -0.275 OA
ATOM     12  N   UNL     1      52.417  17.912  59.204  1.00  0.00    -0.352 N 
ATOM     13  H   UNL     1      52.993  18.646  58.733  1.00  0.00     0.163 HD
BRANCH  12  14
ATOM     14  C   UNL     1      52.079  16.708  58.450  1.00  0.00     0.151 C 
BRANCH  14  15
ATOM     15  C   UNL     1      51.366  17.085  57.181  1.00  0.00    -0.025 A 
ATOM     16  C   UNL     1      51.873  16.663  55.942  1.00  0.00     0.056 A 
ATOM     17  C   UNL     1      50.221  17.894  57.217  1.00  0.00     0.009 A 
ATOM     18  C   UNL     1      51.230  17.025  54.741  1.00  0.00     0.160 A 
ATOM     19  C   UNL     1      49.577  18.255  56.032  1.00  0.00     0.050 A 
ATOM     20  C   UNL     1      50.073  17.825  54.796  1.00  0.00     0.157 A 
BRANCH  18  21
ATOM     21  O   UNL     1      51.709  16.611  53.487  1.00  0.00    -0.493 OA
ATOM     22  C   UNL     1      51.592  15.288  52.976  1.00  0.00     0.278 C 
ENDBRANCH  18  21
BRANCH  20  23
ATOM     23  O   UNL     1      49.400  18.200  53.632  1.00  0.00    -0.504 OA
ATOM     24  H   UNL     1      49.778  18.883  52.984  1.00  0.00     0.293 HD
ENDBRANCH  20  23
ENDBRANCH  14  15
ENDBRANCH  12  14
ENDBRANCH   9  10
ENDBRANCH   1   9
TORSDOF 10
ENDMDL
MODEL 8
REMARK VINA RESULT:    -6.081      2.341      4.495
REMARK INTER + INTRA:         -10.868
REMARK INTER:                  -9.317
REMARK INTRA:                  -1.552
REMARK UNBOUND:                -1.410
REMARK SMILES COc1cc(CNC(=O)CCCCC=CC(C)C)ccc1O
REMARK SMILES IDX 11 1 12 2 13 3 14 4 15 5 16 6 17 7 18 8 10 9 8 10 9 11 7 12
REMARK SMILES IDX 6 14 5 15 4 16 19 17 3 18 20 19 21 20 2 21 1 22 22 23
REMARK H PARENT 7 13 22 24
REMARK Flexibility Score: inf
ROOT
ATOM      1  C   UNL     1      52.160  21.819  60.750  1.00  0.00     0.010 C 
ENDROOT
BRANCH   1   2
ATOM      2  C   UNL     1      52.120  20.299  60.563  1.00  0.00     0.005 C 
BRANCH   2   3
ATOM      3  C   UNL     1      51.933  19.586  61.909  1.00  0.00     0.027 C 
BRANCH   3   4
ATOM      4  C   UNL     1      51.060  18.366  61.764  1.00  0.00    -0.031 C 
ATOM      5  C   UNL     1      51.465  17.178  61.278  1.00  0.00    -0.028 C 
BRANCH   5   6
ATOM      6  C   UNL     1      52.862  16.864  60.781  1.00  0.00     0.005 C 
ATOM      7  C   UNL     1      53.377  15.590  61.459  1.00  0.00     0.012 C 
ATOM      8  C   UNL     1      52.840  16.691  59.259  1.00  0.00     0.012 C 
ENDBRANCH   5   6
ENDBRANCH   3   4
ENDBRANCH   2   3
ENDBRANCH   1   2
BRANCH   1   9
ATOM      9  C   UNL     1      53.269  22.449  59.899  1.00  0.00     0.100 C 
BRANCH   9  10
ATOM     10  C   UNL     1      53.104  22.058  58.462  1.00  0.00     0.220 C 
ATOM     11  O   UNL     1      54.046  21.463  57.869  1.00  0.00    -0.275 OA
ATOM     12  N   UNL     1      51.866  22.313  57.786  1.00  0.00    -0.352 N 
ATOM     13  H   UNL     1      51.105  22.821  58.291  1.00  0.00     0.163 HD
BRANCH  12  14
ATOM     14  C   UNL     1      51.582  21.793  56.451  1.00  0.00     0.151 C 
BRANCH  14  15
ATOM     15  C   UNL     1      51.121  20.365  56.547  1.00  0.00    -0.025 A 
ATOM     16  C   UNL     1      51.630  19.404  55.660  1.00  0.00     0.056 A 
ATOM     17  C   UNL     1      50.151  19.990  57.488  1.00  0.00     0.009 A 
ATOM     18  C   UNL     1      51.192  18.065  55.722  1.00  0.00     0.160 A 
ATOM     19  C   UNL     1      49.714  18.665  57.557  1.00  0.00     0.050 A 
ATOM     20  C   UNL     1      50.229  17.702  56.683  1.00  0.00     0.157 A 
BRANCH  18  21
ATOM     21  O   UNL     1      51.689  17.080  54.853  1.00  0.00    -0.493 OA
ATOM     22  C   UNL     1      51.185  16.831  53.545  1.00  0.00     0.278 C 
ENDBRANCH  18  21
BRANCH  20  23
ATOM     23  O   UNL     1      49.774  16.386  56.784  1.00  0.00    -0.504 OA
ATOM     24  H   UNL     1      48.806  16.133  56.611  1.00  0.00     0.293 HD
ENDBRANCH  20  23
ENDBRANCH  14  15
ENDBRANCH  12  14
ENDBRANCH   9  10
ENDBRANCH   1   9
TORSDOF 10
ENDMDL
MODEL 9
REMARK VINA RESULT:    -6.027      2.356      6.669
REMARK INTER + INTRA:         -10.785
REMARK INTER:                  -8.379
REMARK INTRA:                  -2.406
REMARK UNBOUND:                -1.410
REMARK SMILES COc1cc(CNC(=O)CCCCC=CC(C)C)ccc1O
REMARK SMILES IDX 11 1 12 2 13 3 14 4 15 5 16 6 17 7 18 8 10 9 8 10 9 11 7 12
REMARK SMILES IDX 6 14 5 15 4 16 19 17 3 18 20 19 21 20 2 21 1 22 22 23
REMARK H PARENT 7 13 22 24
REMARK Flexibility Score: inf
ROOT
ATOM      1  C   UNL     1      53.704  17.939  54.169  1.00  0.00     0.010 C 
ENDROOT
BRANCH   1   2
ATOM      2  C   UNL     1      52.772  16.724  54.220  1.00  0.00     0.005 C 
BRANCH   2   3
ATOM      3  C   UNL     1      52.759  16.100  55.622  1.00  0.00     0.027 C 
BRANCH   3   4
ATOM      4  C   UNL     1      51.394  15.566  55.970  1.00  0.00    -0.031 C 
ATOM      5  C   UNL     1      50.365  16.306  56.424  1.00  0.00    -0.028 C 
BRANCH   5   6
ATOM      6  C   UNL     1      50.404  17.800  56.676  1.00  0.00     0.005 C 
ATOM      7  C   UNL     1      49.539  18.521  55.637  1.00  0.00     0.012 C 
ATOM      8  C   UNL     1      49.903  18.097  58.092  1.00  0.00     0.012 C 
ENDBRANCH   5   6
ENDBRANCH   3   4
ENDBRANCH   2   3
ENDBRANCH   1   2
BRANCH   1   9
ATOM      9  C   UNL     1      52.903  19.245  54.137  1.00  0.00     0.100 C 
BRANCH   9  10
ATOM     10  C   UNL     1      53.038  19.968  55.442  1.00  0.00     0.220 C 
ATOM     11  O   UNL     1      52.276  20.943  55.693  1.00  0.00    -0.275 OA
ATOM     12  N   UNL     1      53.988  19.520  56.417  1.00  0.00    -0.352 N 
ATOM     13  H   UNL     1      54.619  18.721  56.182  1.00  0.00     0.163 HD
BRANCH  12  14
ATOM     14  C   UNL     1      54.037  20.065  57.771  1.00  0.00     0.151 C 
BRANCH  14  15
ATOM     15  C   UNL     1      53.507  19.052  58.748  1.00  0.00    -0.025 A 
ATOM     16  C   UNL     1      52.896  19.479  59.937  1.00  0.00     0.056 A 
ATOM     17  C   UNL     1      53.656  17.679  58.505  1.00  0.00     0.009 A 
ATOM     18  C   UNL     1      52.413  18.544  60.874  1.00  0.00     0.160 A 
ATOM     19  C   UNL     1      53.178  16.745  59.427  1.00  0.00     0.050 A 
ATOM     20  C   UNL     1      52.557  17.169  60.608  1.00  0.00     0.157 A 
BRANCH  18  21
ATOM     21  O   UNL     1      51.791  18.942  62.069  1.00  0.00    -0.493 OA
ATOM     22  C   UNL     1      51.326  20.260  62.335  1.00  0.00     0.278 C 
ENDBRANCH  18  21
BRANCH  20  23
ATOM     23  O   UNL     1      52.087  16.208  61.504  1.00  0.00    -0.504 OA
ATOM     24  H   UNL     1      51.481  15.447  61.215  1.00  0.00     0.293 HD
ENDBRANCH  20  23
ENDBRANCH  14  15
ENDBRANCH  12  14
ENDBRANCH   9  10
ENDBRANCH   1   9
TORSDOF 10
ENDMDL
