MODEL 1
REMARK VINA RESULT:    -3.445      0.000      0.000
REMARK INTER + INTRA:          -5.106
REMARK INTER:                  -4.654
REMARK INTRA:                  -0.452
REMARK UNBOUND:                -0.452
REMARK SMILES CCCCCCCC(=O)[O-]
REMARK SMILES IDX 5 1 6 2 7 3 8 4 9 5 10 6 4 7 3 8 2 9 1 10
REMARK H PARENT
REMARK Flexibility Score: inf
ROOT
ATOM      1  C   UNL     1      23.577  -2.187  55.311  1.00  0.00     0.000 C 
ENDROOT
BRANCH   1   2
ATOM      2  C   UNL     1      24.259  -3.192  56.252  1.00  0.00     0.006 C 
BRANCH   2   3
ATOM      3  C   UNL     1      23.648  -3.129  57.654  1.00  0.00     0.053 C 
BRANCH   3   4
ATOM      4  C   UNL     1      22.186  -3.446  57.605  1.00  0.00     0.041 C 
ATOM      5  O   UNL     1      21.800  -4.628  57.405  1.00  0.00    -0.550 OA
ATOM      6  O   UNL     1      21.250  -2.445  57.831  1.00  0.00    -0.550 OA
ENDBRANCH   3   4
ENDBRANCH   2   3
ENDBRANCH   1   2
BRANCH   1   7
ATOM      7  C   UNL     1      23.031  -2.859  54.039  1.00  0.00     0.000 C 
BRANCH   7   8
ATOM      8  C   UNL     1      23.177  -4.398  54.050  1.00  0.00    -0.000 C 
BRANCH   8   9
ATOM      9  C   UNL     1      23.927  -4.950  52.827  1.00  0.00    -0.003 C 
ATOM     10  C   UNL     1      25.156  -5.775  53.204  1.00  0.00     0.004 C 
ENDBRANCH   8   9
ENDBRANCH   7   8
ENDBRANCH   1   7
TORSDOF 6
ENDMDL
MODEL 2
REMARK VINA RESULT:    -3.434     14.913     15.691
REMARK INTER + INTRA:          -5.090
REMARK INTER:                  -4.731
REMARK INTRA:                  -0.359
REMARK UNBOUND:                -0.452
REMARK SMILES CCCCCCCC(=O)[O-]
REMARK SMILES IDX 5 1 6 2 7 3 8 4 9 5 10 6 4 7 3 8 2 9 1 10
REMARK H PARENT
REMARK Flexibility Score: inf
ROOT
ATOM      1  C   UNL     1      31.304   5.647  45.994  1.00  0.00     0.000 C 
ENDROOT
BRANCH   1   2
ATOM      2  C   UNL     1      30.580   5.941  47.317  1.00  0.00     0.006 C 
BRANCH   2   3
ATOM      3  C   UNL     1      31.490   5.657  48.514  1.00  0.00     0.053 C 
BRANCH   3   4
ATOM      4  C   UNL     1      30.899   4.593  49.384  1.00  0.00     0.041 C 
ATOM      5  O   UNL     1      31.646   3.846  50.069  1.00  0.00    -0.550 OA
ATOM      6  O   UNL     1      29.520   4.460  49.479  1.00  0.00    -0.550 OA
ENDBRANCH   3   4
ENDBRANCH   2   3
ENDBRANCH   1   2
BRANCH   1   7
ATOM      7  C   UNL     1      31.666   6.933  45.230  1.00  0.00     0.000 C 
BRANCH   7   8
ATOM      8  C   UNL     1      33.086   6.901  44.620  1.00  0.00    -0.000 C 
BRANCH   8   9
ATOM      9  C   UNL     1      34.064   7.877  45.295  1.00  0.00    -0.003 C 
ATOM     10  C   UNL     1      33.400   8.738  46.368  1.00  0.00     0.004 C 
ENDBRANCH   8   9
ENDBRANCH   7   8
ENDBRANCH   1   7
TORSDOF 6
ENDMDL
MODEL 3
REMARK VINA RESULT:    -3.423     15.554     16.479
REMARK INTER + INTRA:          -5.075
REMARK INTER:                  -4.688
REMARK INTRA:                  -0.387
REMARK UNBOUND:                -0.452
REMARK SMILES CCCCCCCC(=O)[O-]
REMARK SMILES IDX 5 1 6 2 7 3 8 4 9 5 10 6 4 7 3 8 2 9 1 10
REMARK H PARENT
REMARK Flexibility Score: inf
ROOT
ATOM      1  C   UNL     1      30.918   5.328  46.230  1.00  0.00     0.000 C 
ENDROOT
BRANCH   1   2
ATOM      2  C   UNL     1      31.907   6.262  45.517  1.00  0.00     0.006 C 
BRANCH   2   3
ATOM      3  C   UNL     1      31.883   7.661  46.138  1.00  0.00     0.053 C 
BRANCH   3   4
ATOM      4  C   UNL     1      33.224   8.314  46.016  1.00  0.00     0.041 C 
ATOM      5  O   UNL     1      33.482   9.359  46.670  1.00  0.00    -0.550 OA
ATOM      6  O   UNL     1      34.207   7.740  45.221  1.00  0.00    -0.550 OA
ENDBRANCH   3   4
ENDBRANCH   2   3
ENDBRANCH   1   2
BRANCH   1   7
ATOM      7  C   UNL     1      30.059   6.071  47.268  1.00  0.00     0.000 C 
BRANCH   7   8
ATOM      8  C   UNL     1      30.103   5.424  48.672  1.00  0.00    -0.000 C 
BRANCH   8   9
ATOM      9  C   UNL     1      31.530   5.198  49.197  1.00  0.00    -0.003 C 
ATOM     10  C   UNL     1      31.800   3.744  49.580  1.00  0.00     0.004 C 
ENDBRANCH   8   9
ENDBRANCH   7   8
ENDBRANCH   1   7
TORSDOF 6
ENDMDL
MODEL 4
REMARK VINA RESULT:    -3.407     16.249     17.091
REMARK INTER + INTRA:          -5.054
REMARK INTER:                  -4.817
REMARK INTRA:                  -0.237
REMARK UNBOUND:                -0.452
REMARK SMILES CCCCCCCC(=O)[O-]
REMARK SMILES IDX 5 1 6 2 7 3 8 4 9 5 10 6 4 7 3 8 2 9 1 10
REMARK H PARENT
REMARK Flexibility Score: inf
ROOT
ATOM      1  C   UNL     1      24.495   3.675  40.926  1.00  0.00     0.000 C 
ENDROOT
BRANCH   1   2
ATOM      2  C   UNL     1      25.762   3.907  41.763  1.00  0.00     0.006 C 
BRANCH   2   3
ATOM      3  C   UNL     1      26.733   4.841  41.037  1.00  0.00     0.053 C 
BRANCH   3   4
ATOM      4  C   UNL     1      28.122   4.284  41.070  1.00  0.00     0.041 C 
ATOM      5  O   UNL     1      28.843   4.317  40.037  1.00  0.00    -0.550 OA
ATOM      6  O   UNL     1      28.639   3.774  42.254  1.00  0.00    -0.550 OA
ENDBRANCH   3   4
ENDBRANCH   2   3
ENDBRANCH   1   2
BRANCH   1   7
ATOM      7  C   UNL     1      24.810   3.065  39.548  1.00  0.00     0.000 C 
BRANCH   7   8
ATOM      8  C   UNL     1      23.748   2.047  39.074  1.00  0.00    -0.000 C 
BRANCH   8   9
ATOM      9  C   UNL     1      23.543   0.877  40.051  1.00  0.00    -0.003 C 
ATOM     10  C   UNL     1      23.817  -0.484  39.414  1.00  0.00     0.004 C 
ENDBRANCH   8   9
ENDBRANCH   7   8
ENDBRANCH   1   7
TORSDOF 6
ENDMDL
MODEL 5
REMARK VINA RESULT:    -3.400      2.407      4.015
REMARK INTER + INTRA:          -5.045
REMARK INTER:                  -4.828
REMARK INTRA:                  -0.217
REMARK UNBOUND:                -0.452
REMARK SMILES CCCCCCCC(=O)[O-]
REMARK SMILES IDX 5 1 6 2 7 3 8 4 9 5 10 6 4 7 3 8 2 9 1 10
REMARK H PARENT
REMARK Flexibility Score: inf
ROOT
ATOM      1  C   UNL     1      25.131  -5.554  52.748  1.00  0.00     0.000 C 
ENDROOT
BRANCH   1   2
ATOM      2  C   UNL     1      23.687  -5.358  53.232  1.00  0.00     0.006 C 
BRANCH   2   3
ATOM      3  C   UNL     1      23.318  -3.872  53.267  1.00  0.00     0.053 C 
BRANCH   3   4
ATOM      4  C   UNL     1      23.046  -3.431  54.671  1.00  0.00     0.041 C 
ATOM      5  O   UNL     1      23.961  -3.471  55.536  1.00  0.00    -0.550 OA
ATOM      6  O   UNL     1      21.798  -2.927  55.012  1.00  0.00    -0.550 OA
ENDBRANCH   3   4
ENDBRANCH   2   3
ENDBRANCH   1   2
BRANCH   1   7
ATOM      7  C   UNL     1      26.134  -5.615  53.914  1.00  0.00     0.000 C 
BRANCH   7   8
ATOM      8  C   UNL     1      27.379  -6.475  53.603  1.00  0.00    -0.000 C 
BRANCH   8   9
ATOM      9  C   UNL     1      28.181  -5.976  52.390  1.00  0.00    -0.003 C 
ATOM     10  C   UNL     1      29.487  -6.741  52.183  1.00  0.00     0.004 C 
ENDBRANCH   8   9
ENDBRANCH   7   8
ENDBRANCH   1   7
TORSDOF 6
ENDMDL
MODEL 6
REMARK VINA RESULT:    -3.387      2.276      4.530
REMARK INTER + INTRA:          -5.027
REMARK INTER:                  -4.411
REMARK INTRA:                  -0.616
REMARK UNBOUND:                -0.452
REMARK SMILES CCCCCCCC(=O)[O-]
REMARK SMILES IDX 5 1 6 2 7 3 8 4 9 5 10 6 4 7 3 8 2 9 1 10
REMARK H PARENT
REMARK Flexibility Score: inf
ROOT
ATOM      1  C   UNL     1      23.694  -2.986  57.484  1.00  0.00     0.000 C 
ENDROOT
BRANCH   1   2
ATOM      2  C   UNL     1      24.322  -3.098  56.086  1.00  0.00     0.006 C 
BRANCH   2   3
ATOM      3  C   UNL     1      23.622  -2.165  55.095  1.00  0.00     0.053 C 
BRANCH   3   4
ATOM      4  C   UNL     1      22.821  -2.953  54.107  1.00  0.00     0.041 C 
ATOM      5  O   UNL     1      21.565  -2.994  54.198  1.00  0.00    -0.550 OA
ATOM      6  O   UNL     1      23.456  -3.601  53.056  1.00  0.00    -0.550 OA
ENDBRANCH   3   4
ENDBRANCH   2   3
ENDBRANCH   1   2
BRANCH   1   7
ATOM      7  C   UNL     1      22.454  -3.884  57.639  1.00  0.00     0.000 C 
BRANCH   7   8
ATOM      8  C   UNL     1      21.129  -3.091  57.691  1.00  0.00    -0.000 C 
BRANCH   8   9
ATOM      9  C   UNL     1      21.320  -1.602  58.026  1.00  0.00    -0.003 C 
ATOM     10  C   UNL     1      20.804  -0.674  56.928  1.00  0.00     0.004 C 
ENDBRANCH   8   9
ENDBRANCH   7   8
ENDBRANCH   1   7
TORSDOF 6
ENDMDL
MODEL 7
REMARK VINA RESULT:    -3.365     15.028     15.977
REMARK INTER + INTRA:          -4.997
REMARK INTER:                  -4.719
REMARK INTRA:                  -0.278
REMARK UNBOUND:                -0.452
REMARK SMILES CCCCCCCC(=O)[O-]
REMARK SMILES IDX 5 1 6 2 7 3 8 4 9 5 10 6 4 7 3 8 2 9 1 10
REMARK H PARENT
REMARK Flexibility Score: inf
ROOT
ATOM      1  C   UNL     1      30.871   6.206  47.100  1.00  0.00     0.000 C 
ENDROOT
BRANCH   1   2
ATOM      2  C   UNL     1      31.250   5.411  45.841  1.00  0.00     0.006 C 
BRANCH   2   3
ATOM      3  C   UNL     1      31.183   6.295  44.594  1.00  0.00     0.053 C 
BRANCH   3   4
ATOM      4  C   UNL     1      31.795   5.597  43.421  1.00  0.00     0.041 C 
ATOM      5  O   UNL     1      32.999   5.807  43.116  1.00  0.00    -0.550 OA
ATOM      6  O   UNL     1      31.052   4.676  42.694  1.00  0.00    -0.550 OA
ENDBRANCH   3   4
ENDBRANCH   2   3
ENDBRANCH   1   2
BRANCH   1   7
ATOM      7  C   UNL     1      29.592   5.668  47.766  1.00  0.00     0.000 C 
BRANCH   7   8
ATOM      8  C   UNL     1      29.845   5.042  49.156  1.00  0.00    -0.000 C 
BRANCH   8   9
ATOM      9  C   UNL     1      31.330   5.022  49.557  1.00  0.00    -0.003 C 
ATOM     10  C   UNL     1      31.915   3.612  49.602  1.00  0.00     0.004 C 
ENDBRANCH   8   9
ENDBRANCH   7   8
ENDBRANCH   1   7
TORSDOF 6
ENDMDL
MODEL 8
REMARK VINA RESULT:    -3.364      2.775      4.601
REMARK INTER + INTRA:          -4.996
REMARK INTER:                  -4.519
REMARK INTRA:                  -0.477
REMARK UNBOUND:                -0.452
REMARK SMILES CCCCCCCC(=O)[O-]
REMARK SMILES IDX 5 1 6 2 7 3 8 4 9 5 10 6 4 7 3 8 2 9 1 10
REMARK H PARENT
REMARK Flexibility Score: inf
ROOT
ATOM      1  C   UNL     1      23.574  -2.152  55.296  1.00  0.00     0.000 C 
ENDROOT
BRANCH   1   2
ATOM      2  C   UNL     1      23.145  -2.868  54.006  1.00  0.00     0.006 C 
BRANCH   2   3
ATOM      3  C   UNL     1      23.285  -4.385  54.150  1.00  0.00     0.053 C 
BRANCH   3   4
ATOM      4  C   UNL     1      24.114  -4.945  53.038  1.00  0.00     0.041 C 
ATOM      5  O   UNL     1      24.900  -5.905  53.255  1.00  0.00    -0.550 OA
ATOM      6  O   UNL     1      23.981  -4.442  51.750  1.00  0.00    -0.550 OA
ENDBRANCH   3   4
ENDBRANCH   2   3
ENDBRANCH   1   2
BRANCH   1   7
ATOM      7  C   UNL     1      24.348  -3.080  56.248  1.00  0.00     0.000 C 
BRANCH   7   8
ATOM      8  C   UNL     1      23.677  -3.231  57.632  1.00  0.00    -0.000 C 
BRANCH   8   9
ATOM      9  C   UNL     1      22.185  -2.859  57.633  1.00  0.00    -0.003 C 
ATOM     10  C   UNL     1      21.270  -4.069  57.449  1.00  0.00     0.004 C 
ENDBRANCH   8   9
ENDBRANCH   7   8
ENDBRANCH   1   7
TORSDOF 6
ENDMDL
MODEL 9
REMARK VINA RESULT:    -3.283     11.537     12.510
REMARK INTER + INTRA:          -4.886
REMARK INTER:                  -4.470
REMARK INTRA:                  -0.417
REMARK UNBOUND:                -0.452
REMARK SMILES CCCCCCCC(=O)[O-]
REMARK SMILES IDX 5 1 6 2 7 3 8 4 9 5 10 6 4 7 3 8 2 9 1 10
REMARK H PARENT
REMARK Flexibility Score: inf
ROOT
ATOM      1  C   UNL     1      27.660   6.171  48.354  1.00  0.00     0.000 C 
ENDROOT
BRANCH   1   2
ATOM      2  C   UNL     1      28.743   5.095  48.180  1.00  0.00     0.006 C 
BRANCH   2   3
ATOM      3  C   UNL     1      29.430   4.790  49.514  1.00  0.00     0.053 C 
BRANCH   3   4
ATOM      4  C   UNL     1      30.917   4.765  49.345  1.00  0.00     0.041 C 
ATOM      5  O   UNL     1      31.505   5.715  48.764  1.00  0.00    -0.550 OA
ATOM      6  O   UNL     1      31.659   3.717  49.874  1.00  0.00    -0.550 OA
ENDBRANCH   3   4
ENDBRANCH   2   3
ENDBRANCH   1   2
BRANCH   1   7
ATOM      7  C   UNL     1      26.242   5.575  48.357  1.00  0.00     0.000 C 
BRANCH   7   8
ATOM      8  C   UNL     1      26.149   4.216  47.626  1.00  0.00    -0.000 C 
BRANCH   8   9
ATOM      9  C   UNL     1      25.234   3.202  48.333  1.00  0.00    -0.003 C 
ATOM     10  C   UNL     1      25.525   3.079  49.828  1.00  0.00     0.004 C 
ENDBRANCH   8   9
ENDBRANCH   7   8
ENDBRANCH   1   7
TORSDOF 6
ENDMDL
