MODEL 1
REMARK VINA RESULT:    -3.209      0.000      0.000
REMARK INTER + INTRA:          -3.592
REMARK INTER:                  -3.584
REMARK INTRA:                  -0.008
REMARK UNBOUND:                -0.008
REMARK SMILES CCCC(=O)[O-]
REMARK SMILES IDX 3 1 4 2 5 3 6 4 2 5 1 6
REMARK H PARENT
REMARK Flexibility Score: inf
ROOT
ATOM      1  C   UNL     1      -2.523  -3.098   1.562  1.00  0.00     0.052 C 
ENDROOT
BRANCH   1   2
ATOM      2  C   UNL     1      -3.880  -2.509   1.779  1.00  0.00     0.041 C 
ATOM      3  O   UNL     1      -4.001  -1.376   2.312  1.00  0.00    -0.550 OA
ATOM      4  O   UNL     1      -5.012  -3.191   1.349  1.00  0.00    -0.550 OA
ENDBRANCH   1   2
BRANCH   1   5
ATOM      5  C   UNL     1      -1.673  -2.175   0.682  1.00  0.00     0.003 C 
ATOM      6  C   UNL     1      -0.226  -2.655   0.618  1.00  0.00     0.004 C 
ENDBRANCH   1   5
TORSDOF 2
ENDMDL
MODEL 2
REMARK VINA RESULT:    -3.079      0.206      1.336
REMARK INTER + INTRA:          -3.447
REMARK INTER:                  -3.436
REMARK INTRA:                  -0.011
REMARK UNBOUND:                -0.008
REMARK SMILES CCCC(=O)[O-]
REMARK SMILES IDX 3 1 4 2 5 3 6 4 2 5 1 6
REMARK H PARENT
REMARK Flexibility Score: inf
ROOT
ATOM      1  C   UNL     1      -2.523  -3.272   1.267  1.00  0.00     0.052 C 
ENDROOT
BRANCH   1   2
ATOM      2  C   UNL     1      -3.837  -2.640   1.602  1.00  0.00     0.041 C 
ATOM      3  O   UNL     1      -4.910  -3.267   1.404  1.00  0.00    -0.550 OA
ATOM      4  O   UNL     1      -3.875  -1.377   2.180  1.00  0.00    -0.550 OA
ENDBRANCH   1   2
BRANCH   1   5
ATOM      5  C   UNL     1      -1.581  -2.243   0.634  1.00  0.00     0.003 C 
ATOM      6  C   UNL     1      -0.130  -2.707   0.710  1.00  0.00     0.004 C 
ENDBRANCH   1   5
TORSDOF 2
ENDMDL
MODEL 3
REMARK VINA RESULT:    -2.932      2.648      3.516
REMARK INTER + INTRA:          -3.283
REMARK INTER:                  -3.256
REMARK INTRA:                  -0.027
REMARK UNBOUND:                -0.008
REMARK SMILES CCCC(=O)[O-]
REMARK SMILES IDX 3 1 4 2 5 3 6 4 2 5 1 6
REMARK H PARENT
REMARK Flexibility Score: inf
ROOT
ATOM      1  C   UNL     1      -1.993  -2.164   0.926  1.00  0.00     0.052 C 
ENDROOT
BRANCH   1   2
ATOM      2  C   UNL     1      -0.791  -2.992   1.252  1.00  0.00     0.041 C 
ATOM      3  O   UNL     1       0.353  -2.621   0.882  1.00  0.00    -0.550 OA
ATOM      4  O   UNL     1      -0.928  -4.151   2.006  1.00  0.00    -0.550 OA
ENDBRANCH   1   2
BRANCH   1   5
ATOM      5  C   UNL     1      -3.268  -2.853   1.422  1.00  0.00     0.003 C 
ATOM      6  C   UNL     1      -4.126  -1.897   2.245  1.00  0.00     0.004 C 
ENDBRANCH   1   5
TORSDOF 2
ENDMDL
MODEL 4
REMARK VINA RESULT:    -2.716      2.006      2.336
REMARK INTER + INTRA:          -3.042
REMARK INTER:                  -2.971
REMARK INTRA:                  -0.071
REMARK UNBOUND:                -0.008
REMARK SMILES CCCC(=O)[O-]
REMARK SMILES IDX 3 1 4 2 5 3 6 4 2 5 1 6
REMARK H PARENT
REMARK Flexibility Score: inf
ROOT
ATOM      1  C   UNL     1      -2.493  -2.590   1.468  1.00  0.00     0.052 C 
ENDROOT
BRANCH   1   2
ATOM      2  C   UNL     1      -2.552  -4.069   1.680  1.00  0.00     0.041 C 
ATOM      3  O   UNL     1      -2.891  -4.831   0.737  1.00  0.00    -0.550 OA
ATOM      4  O   UNL     1      -2.186  -4.612   2.905  1.00  0.00    -0.550 OA
ENDBRANCH   1   2
BRANCH   1   5
ATOM      5  C   UNL     1      -1.505  -2.249   0.348  1.00  0.00     0.003 C 
ATOM      6  C   UNL     1      -0.081  -2.639   0.732  1.00  0.00     0.004 C 
ENDBRANCH   1   5
TORSDOF 2
ENDMDL
MODEL 5
REMARK VINA RESULT:    -2.662     10.255     10.848
REMARK INTER + INTRA:          -2.981
REMARK INTER:                  -2.949
REMARK INTRA:                  -0.032
REMARK UNBOUND:                -0.008
REMARK SMILES CCCC(=O)[O-]
REMARK SMILES IDX 3 1 4 2 5 3 6 4 2 5 1 6
REMARK H PARENT
REMARK Flexibility Score: inf
ROOT
ATOM      1  C   UNL     1       1.443   3.782  -4.731  1.00  0.00     0.052 C 
ENDROOT
BRANCH   1   2
ATOM      2  C   UNL     1       1.326   5.222  -5.119  1.00  0.00     0.041 C 
ATOM      3  O   UNL     1       0.584   5.996  -4.461  1.00  0.00    -0.550 OA
ATOM      4  O   UNL     1       2.072   5.720  -6.180  1.00  0.00    -0.550 OA
ENDBRANCH   1   2
BRANCH   1   5
ATOM      5  C   UNL     1       2.860   3.268  -5.007  1.00  0.00     0.003 C 
ATOM      6  C   UNL     1       3.845   3.780  -3.960  1.00  0.00     0.004 C 
ENDBRANCH   1   5
TORSDOF 2
ENDMDL
MODEL 6
REMARK VINA RESULT:    -2.528     11.176     11.914
REMARK INTER + INTRA:          -2.831
REMARK INTER:                  -2.760
REMARK INTRA:                  -0.071
REMARK UNBOUND:                -0.008
REMARK SMILES CCCC(=O)[O-]
REMARK SMILES IDX 3 1 4 2 5 3 6 4 2 5 1 6
REMARK H PARENT
REMARK Flexibility Score: inf
ROOT
ATOM      1  C   UNL     1     -11.429   3.846  -4.080  1.00  0.00     0.052 C 
ENDROOT
BRANCH   1   2
ATOM      2  C   UNL     1     -10.035   4.020  -4.593  1.00  0.00     0.041 C 
ATOM      3  O   UNL     1      -9.120   3.243  -4.215  1.00  0.00    -0.550 OA
ATOM      4  O   UNL     1      -9.755   5.011  -5.525  1.00  0.00    -0.550 OA
ENDBRANCH   1   2
BRANCH   1   5
ATOM      5  C   UNL     1     -11.486   4.135  -2.577  1.00  0.00     0.003 C 
ATOM      6  C   UNL     1     -11.209   5.607  -2.289  1.00  0.00     0.004 C 
ENDBRANCH   1   5
TORSDOF 2
ENDMDL
MODEL 7
REMARK VINA RESULT:    -2.514      9.399      9.751
REMARK INTER + INTRA:          -2.816
REMARK INTER:                  -2.811
REMARK INTRA:                  -0.006
REMARK UNBOUND:                -0.008
REMARK SMILES CCCC(=O)[O-]
REMARK SMILES IDX 3 1 4 2 5 3 6 4 2 5 1 6
REMARK H PARENT
REMARK Flexibility Score: inf
ROOT
ATOM      1  C   UNL     1      -7.147   1.186  -5.374  1.00  0.00     0.052 C 
ENDROOT
BRANCH   1   2
ATOM      2  C   UNL     1      -7.486   2.633  -5.211  1.00  0.00     0.041 C 
ATOM      3  O   UNL     1      -6.761   3.517  -5.739  1.00  0.00    -0.550 OA
ATOM      4  O   UNL     1      -8.629   3.006  -4.515  1.00  0.00    -0.550 OA
ENDBRANCH   1   2
BRANCH   1   5
ATOM      5  C   UNL     1      -7.839   0.611  -6.614  1.00  0.00     0.003 C 
ATOM      6  C   UNL     1      -7.867  -0.914  -6.572  1.00  0.00     0.004 C 
ENDBRANCH   1   5
TORSDOF 2
ENDMDL
MODEL 8
REMARK VINA RESULT:    -2.500      2.992      3.580
REMARK INTER + INTRA:          -2.801
REMARK INTER:                  -2.740
REMARK INTRA:                  -0.061
REMARK UNBOUND:                -0.008
REMARK SMILES CCCC(=O)[O-]
REMARK SMILES IDX 3 1 4 2 5 3 6 4 2 5 1 6
REMARK H PARENT
REMARK Flexibility Score: inf
ROOT
ATOM      1  C   UNL     1       0.056  -3.227   1.061  1.00  0.00     0.052 C 
ENDROOT
BRANCH   1   2
ATOM      2  C   UNL     1      -0.469  -4.607   1.298  1.00  0.00     0.041 C 
ATOM      3  O   UNL     1      -0.656  -5.020   2.472  1.00  0.00    -0.550 OA
ATOM      4  O   UNL     1      -0.798  -5.421   0.222  1.00  0.00    -0.550 OA
ENDBRANCH   1   2
BRANCH   1   5
ATOM      5  C   UNL     1      -0.976  -2.385   0.304  1.00  0.00     0.003 C 
ATOM      6  C   UNL     1      -2.258  -2.226   1.116  1.00  0.00     0.004 C 
ENDBRANCH   1   5
TORSDOF 2
ENDMDL
MODEL 9
REMARK VINA RESULT:    -2.488      7.329      7.702
REMARK INTER + INTRA:          -2.787
REMARK INTER:                  -2.779
REMARK INTRA:                  -0.009
REMARK UNBOUND:                -0.008
REMARK SMILES CCCC(=O)[O-]
REMARK SMILES IDX 3 1 4 2 5 3 6 4 2 5 1 6
REMARK H PARENT
REMARK Flexibility Score: inf
ROOT
ATOM      1  C   UNL     1       0.415   1.691   6.965  1.00  0.00     0.052 C 
ENDROOT
BRANCH   1   2
ATOM      2  C   UNL     1      -0.134   2.665   5.971  1.00  0.00     0.041 C 
ATOM      3  O   UNL     1       0.601   3.572   5.501  1.00  0.00    -0.550 OA
ATOM      4  O   UNL     1      -1.444   2.542   5.527  1.00  0.00    -0.550 OA
ENDBRANCH   1   2
BRANCH   1   5
ATOM      5  C   UNL     1       1.867   1.342   6.626  1.00  0.00     0.003 C 
ATOM      6  C   UNL     1       2.280   0.021   7.268  1.00  0.00     0.004 C 
ENDBRANCH   1   5
TORSDOF 2
ENDMDL
