MODEL 1
REMARK VINA RESULT:    -3.845      0.000      0.000
REMARK INTER + INTRA:          -5.223
REMARK INTER:                  -4.744
REMARK INTRA:                  -0.479
REMARK UNBOUND:                -0.479
REMARK SMILES CCCCCc1ccccc1
REMARK SMILES IDX 4 1 3 2 2 3 1 4 5 5 6 6 7 7 11 8 8 9 10 10 9 11
REMARK H PARENT
REMARK Flexibility Score: inf
ROOT
ATOM      1  C   UNL     1      34.571  11.372  23.450  1.00  0.00     0.005 C 
ENDROOT
BRANCH   1   2
ATOM      2  C   UNL     1      35.989  11.545  22.877  1.00  0.00     0.000 C 
BRANCH   2   3
ATOM      3  C   UNL     1      36.884  10.325  23.144  1.00  0.00    -0.003 C 
ATOM      4  C   UNL     1      36.568   9.148  22.219  1.00  0.00     0.004 C 
ENDBRANCH   2   3
ENDBRANCH   1   2
BRANCH   1   5
ATOM      5  C   UNL     1      33.488  11.497  22.368  1.00  0.00     0.035 C 
BRANCH   5   6
ATOM      6  C   UNL     1      32.747  10.202  22.160  1.00  0.00    -0.048 A 
ATOM      7  C   UNL     1      33.201   9.272  21.210  1.00  0.00     0.004 A 
ATOM      8  C   UNL     1      31.574   9.927  22.885  1.00  0.00     0.004 A 
ATOM      9  C   UNL     1      32.499   8.082  20.997  1.00  0.00     0.000 A 
ATOM     10  C   UNL     1      30.875   8.736  22.669  1.00  0.00     0.000 A 
ATOM     11  C   UNL     1      31.337   7.813  21.727  1.00  0.00     0.000 A 
ENDBRANCH   5   6
ENDBRANCH   1   5
TORSDOF 4
ENDMDL
MODEL 2
REMARK VINA RESULT:    -3.742      0.904      1.340
REMARK INTER + INTRA:          -5.096
REMARK INTER:                  -4.539
REMARK INTRA:                  -0.557
REMARK UNBOUND:                -0.479
REMARK SMILES CCCCCc1ccccc1
REMARK SMILES IDX 4 1 3 2 2 3 1 4 5 5 6 6 7 7 11 8 8 9 10 10 9 11
REMARK H PARENT
REMARK Flexibility Score: inf
ROOT
ATOM      1  C   UNL     1      36.084  11.529  22.188  1.00  0.00     0.005 C 
ENDROOT
BRANCH   1   2
ATOM      2  C   UNL     1      37.413  11.119  22.846  1.00  0.00     0.000 C 
BRANCH   2   3
ATOM      3  C   UNL     1      37.408   9.659  23.324  1.00  0.00    -0.003 C 
ATOM      4  C   UNL     1      37.315   8.661  22.169  1.00  0.00     0.004 C 
ENDBRANCH   2   3
ENDBRANCH   1   2
BRANCH   1   5
ATOM      5  C   UNL     1      34.927  11.578  23.197  1.00  0.00     0.035 C 
BRANCH   5   6
ATOM      6  C   UNL     1      33.795  10.665  22.803  1.00  0.00    -0.048 A 
ATOM      7  C   UNL     1      33.945   9.780  21.722  1.00  0.00     0.004 A 
ATOM      8  C   UNL     1      32.568  10.714  23.486  1.00  0.00     0.004 A 
ATOM      9  C   UNL     1      32.887   8.950  21.338  1.00  0.00     0.000 A 
ATOM     10  C   UNL     1      31.512   9.883  23.099  1.00  0.00     0.000 A 
ATOM     11  C   UNL     1      31.672   9.001  22.027  1.00  0.00     0.000 A 
ENDBRANCH   5   6
ENDBRANCH   1   5
TORSDOF 4
ENDMDL
MODEL 3
REMARK VINA RESULT:    -3.702      1.400      4.338
REMARK INTER + INTRA:          -5.046
REMARK INTER:                  -4.506
REMARK INTRA:                  -0.540
REMARK UNBOUND:                -0.479
REMARK SMILES CCCCCc1ccccc1
REMARK SMILES IDX 4 1 3 2 2 3 1 4 5 5 6 6 7 7 11 8 8 9 10 10 9 11
REMARK H PARENT
REMARK Flexibility Score: inf
ROOT
ATOM      1  C   UNL     1      33.819  11.751  22.036  1.00  0.00     0.005 C 
ENDROOT
BRANCH   1   2
ATOM      2  C   UNL     1      32.399  11.772  22.627  1.00  0.00     0.000 C 
BRANCH   2   3
ATOM      3  C   UNL     1      32.104  10.540  23.495  1.00  0.00    -0.003 C 
ATOM      4  C   UNL     1      31.327   9.460  22.741  1.00  0.00     0.004 C 
ENDBRANCH   2   3
ENDBRANCH   1   2
BRANCH   1   5
ATOM      5  C   UNL     1      34.880  11.387  23.086  1.00  0.00     0.035 C 
BRANCH   5   6
ATOM      6  C   UNL     1      35.722  10.214  22.654  1.00  0.00    -0.048 A 
ATOM      7  C   UNL     1      35.228   9.299  21.712  1.00  0.00     0.004 A 
ATOM      8  C   UNL     1      36.993  10.004  23.217  1.00  0.00     0.004 A 
ATOM      9  C   UNL     1      35.998   8.196  21.329  1.00  0.00     0.000 A 
ATOM     10  C   UNL     1      37.760   8.900  22.832  1.00  0.00     0.000 A 
ATOM     11  C   UNL     1      37.263   7.997  21.889  1.00  0.00     0.000 A 
ENDBRANCH   5   6
ENDBRANCH   1   5
TORSDOF 4
ENDMDL
MODEL 4
REMARK VINA RESULT:    -3.660      0.868      1.872
REMARK INTER + INTRA:          -4.995
REMARK INTER:                  -4.499
REMARK INTRA:                  -0.495
REMARK UNBOUND:                -0.479
REMARK SMILES CCCCCc1ccccc1
REMARK SMILES IDX 4 1 3 2 2 3 1 4 5 5 6 6 7 7 11 8 8 9 10 10 9 11
REMARK H PARENT
REMARK Flexibility Score: inf
ROOT
ATOM      1  C   UNL     1      35.728  11.721  22.081  1.00  0.00     0.005 C 
ENDROOT
BRANCH   1   2
ATOM      2  C   UNL     1      37.123  11.219  22.492  1.00  0.00     0.000 C 
BRANCH   2   3
ATOM      3  C   UNL     1      37.066   9.901  23.279  1.00  0.00    -0.003 C 
ATOM      4  C   UNL     1      37.640   8.721  22.495  1.00  0.00     0.004 C 
ENDBRANCH   2   3
ENDBRANCH   1   2
BRANCH   1   5
ATOM      5  C   UNL     1      34.689  11.524  23.195  1.00  0.00     0.035 C 
BRANCH   5   6
ATOM      6  C   UNL     1      33.575  10.602  22.770  1.00  0.00    -0.048 A 
ATOM      7  C   UNL     1      32.352  10.606  23.461  1.00  0.00     0.004 A 
ATOM      8  C   UNL     1      33.760   9.704  21.705  1.00  0.00     0.004 A 
ATOM      9  C   UNL     1      31.327   9.732  23.084  1.00  0.00     0.000 A 
ATOM     10  C   UNL     1      32.733   8.831  21.332  1.00  0.00     0.000 A 
ATOM     11  C   UNL     1      31.518   8.846  22.020  1.00  0.00     0.000 A 
ENDBRANCH   5   6
ENDBRANCH   1   5
TORSDOF 4
ENDMDL
MODEL 5
REMARK VINA RESULT:    -3.587      1.900      4.517
REMARK INTER + INTRA:          -4.904
REMARK INTER:                  -4.390
REMARK INTRA:                  -0.514
REMARK UNBOUND:                -0.479
REMARK SMILES CCCCCc1ccccc1
REMARK SMILES IDX 4 1 3 2 2 3 1 4 5 5 6 6 7 7 11 8 8 9 10 10 9 11
REMARK H PARENT
REMARK Flexibility Score: inf
ROOT
ATOM      1  C   UNL     1      31.856   6.529  20.592  1.00  0.00     0.005 C 
ENDROOT
BRANCH   1   2
ATOM      2  C   UNL     1      31.755   5.101  21.154  1.00  0.00     0.000 C 
BRANCH   2   3
ATOM      3  C   UNL     1      33.079   4.611  21.758  1.00  0.00    -0.003 C 
ATOM      4  C   UNL     1      34.299   5.291  21.136  1.00  0.00     0.004 C 
ENDBRANCH   2   3
ENDBRANCH   1   2
BRANCH   1   5
ATOM      5  C   UNL     1      31.023   7.533  21.403  1.00  0.00     0.035 C 
BRANCH   5   6
ATOM      6  C   UNL     1      31.856   8.688  21.898  1.00  0.00    -0.048 A 
ATOM      7  C   UNL     1      33.135   8.915  21.365  1.00  0.00     0.004 A 
ATOM      8  C   UNL     1      31.379   9.524  22.921  1.00  0.00     0.004 A 
ATOM      9  C   UNL     1      33.920   9.970  21.842  1.00  0.00     0.000 A 
ATOM     10  C   UNL     1      32.167  10.577  23.395  1.00  0.00     0.000 A 
ATOM     11  C   UNL     1      33.435  10.801  22.855  1.00  0.00     0.000 A 
ENDBRANCH   5   6
ENDBRANCH   1   5
TORSDOF 4
ENDMDL
MODEL 6
REMARK VINA RESULT:    -3.466      1.242      2.722
REMARK INTER + INTRA:          -4.755
REMARK INTER:                  -4.204
REMARK INTRA:                  -0.551
REMARK UNBOUND:                -0.479
REMARK SMILES CCCCCc1ccccc1
REMARK SMILES IDX 4 1 3 2 2 3 1 4 5 5 6 6 7 7 11 8 8 9 10 10 9 11
REMARK H PARENT
REMARK Flexibility Score: inf
ROOT
ATOM      1  C   UNL     1      36.062   9.134  21.068  1.00  0.00     0.005 C 
ENDROOT
BRANCH   1   2
ATOM      2  C   UNL     1      36.846   8.135  21.936  1.00  0.00     0.000 C 
BRANCH   2   3
ATOM      3  C   UNL     1      37.526   8.807  23.139  1.00  0.00    -0.003 C 
ATOM      4  C   UNL     1      37.709  10.313  22.947  1.00  0.00     0.004 C 
ENDBRANCH   2   3
ENDBRANCH   1   2
BRANCH   1   5
ATOM      5  C   UNL     1      34.602   8.704  20.863  1.00  0.00     0.035 C 
BRANCH   5   6
ATOM      6  C   UNL     1      33.657   9.470  21.752  1.00  0.00    -0.048 A 
ATOM      7  C   UNL     1      34.103  10.610  22.441  1.00  0.00     0.004 A 
ATOM      8  C   UNL     1      32.333   9.033  21.931  1.00  0.00     0.004 A 
ATOM      9  C   UNL     1      33.235  11.307  23.287  1.00  0.00     0.000 A 
ATOM     10  C   UNL     1      31.469   9.733  22.778  1.00  0.00     0.000 A 
ATOM     11  C   UNL     1      31.919  10.869  23.455  1.00  0.00     0.000 A 
ENDBRANCH   5   6
ENDBRANCH   1   5
TORSDOF 4
ENDMDL
MODEL 7
REMARK VINA RESULT:    -3.430      1.131      4.515
REMARK INTER + INTRA:          -4.711
REMARK INTER:                  -4.278
REMARK INTRA:                  -0.433
REMARK UNBOUND:                -0.479
REMARK SMILES CCCCCc1ccccc1
REMARK SMILES IDX 4 1 3 2 2 3 1 4 5 5 6 6 7 7 11 8 8 9 10 10 9 11
REMARK H PARENT
REMARK Flexibility Score: inf
ROOT
ATOM      1  C   UNL     1      31.953  10.282  23.472  1.00  0.00     0.005 C 
ENDROOT
BRANCH   1   2
ATOM      2  C   UNL     1      31.114   9.373  22.558  1.00  0.00     0.000 C 
BRANCH   2   3
ATOM      3  C   UNL     1      31.982   8.450  21.690  1.00  0.00    -0.003 C 
ATOM      4  C   UNL     1      31.271   7.147  21.321  1.00  0.00     0.004 C 
ENDBRANCH   2   3
ENDBRANCH   1   2
BRANCH   1   5
ATOM      5  C   UNL     1      32.331  11.604  22.788  1.00  0.00     0.035 C 
BRANCH   5   6
ATOM      6  C   UNL     1      33.781  11.631  22.375  1.00  0.00    -0.048 A 
ATOM      7  C   UNL     1      34.147  12.124  21.112  1.00  0.00     0.004 A 
ATOM      8  C   UNL     1      34.775  11.129  23.232  1.00  0.00     0.004 A 
ATOM      9  C   UNL     1      35.489  12.125  20.718  1.00  0.00     0.000 A 
ATOM     10  C   UNL     1      36.116  11.132  22.834  1.00  0.00     0.000 A 
ATOM     11  C   UNL     1      36.472  11.630  21.579  1.00  0.00     0.000 A 
ENDBRANCH   5   6
ENDBRANCH   1   5
TORSDOF 4
ENDMDL
MODEL 8
REMARK VINA RESULT:    -3.340      1.545      3.350
REMARK INTER + INTRA:          -4.599
REMARK INTER:                  -3.812
REMARK INTRA:                  -0.787
REMARK UNBOUND:                -0.479
REMARK SMILES CCCCCc1ccccc1
REMARK SMILES IDX 4 1 3 2 2 3 1 4 5 5 6 6 7 7 11 8 8 9 10 10 9 11
REMARK H PARENT
REMARK Flexibility Score: inf
ROOT
ATOM      1  C   UNL     1      34.400  11.378  23.185  1.00  0.00     0.005 C 
ENDROOT
BRANCH   1   2
ATOM      2  C   UNL     1      32.910  11.595  22.870  1.00  0.00     0.000 C 
BRANCH   2   3
ATOM      3  C   UNL     1      32.000  10.611  23.620  1.00  0.00    -0.003 C 
ATOM      4  C   UNL     1      31.400   9.546  22.701  1.00  0.00     0.004 C 
ENDBRANCH   2   3
ENDBRANCH   1   2
BRANCH   1   5
ATOM      5  C   UNL     1      35.239  11.180  21.914  1.00  0.00     0.035 C 
BRANCH   5   6
ATOM      6  C   UNL     1      34.669  10.106  21.024  1.00  0.00    -0.048 A 
ATOM      7  C   UNL     1      34.822   8.752  21.363  1.00  0.00     0.004 A 
ATOM      8  C   UNL     1      34.013  10.445  19.828  1.00  0.00     0.004 A 
ATOM      9  C   UNL     1      34.317   7.753  20.524  1.00  0.00     0.000 A 
ATOM     10  C   UNL     1      33.510   9.444  18.992  1.00  0.00     0.000 A 
ATOM     11  C   UNL     1      33.660   8.100  19.340  1.00  0.00     0.000 A 
ENDBRANCH   5   6
ENDBRANCH   1   5
TORSDOF 4
ENDMDL
MODEL 9
REMARK VINA RESULT:    -3.336      1.616      2.707
REMARK INTER + INTRA:          -4.595
REMARK INTER:                  -4.072
REMARK INTRA:                  -0.523
REMARK UNBOUND:                -0.479
REMARK SMILES CCCCCc1ccccc1
REMARK SMILES IDX 4 1 3 2 2 3 1 4 5 5 6 6 7 7 11 8 8 9 10 10 9 11
REMARK H PARENT
REMARK Flexibility Score: inf
ROOT
ATOM      1  C   UNL     1      36.259   9.081  21.064  1.00  0.00     0.005 C 
ENDROOT
BRANCH   1   2
ATOM      2  C   UNL     1      36.887   8.182  22.144  1.00  0.00     0.000 C 
BRANCH   2   3
ATOM      3  C   UNL     1      36.930   6.704  21.728  1.00  0.00    -0.003 C 
ATOM      4  C   UNL     1      35.631   6.239  21.068  1.00  0.00     0.004 C 
ENDBRANCH   2   3
ENDBRANCH   1   2
BRANCH   1   5
ATOM      5  C   UNL     1      35.651  10.361  21.656  1.00  0.00     0.035 C 
BRANCH   5   6
ATOM      6  C   UNL     1      34.224  10.156  22.095  1.00  0.00    -0.048 A 
ATOM      7  C   UNL     1      33.416   9.206  21.451  1.00  0.00     0.004 A 
ATOM      8  C   UNL     1      33.676  10.939  23.126  1.00  0.00     0.004 A 
ATOM      9  C   UNL     1      32.084   9.033  21.840  1.00  0.00     0.000 A 
ATOM     10  C   UNL     1      32.344  10.763  23.512  1.00  0.00     0.000 A 
ATOM     11  C   UNL     1      31.549   9.811  22.870  1.00  0.00     0.000 A 
ENDBRANCH   5   6
ENDBRANCH   1   5
TORSDOF 4
ENDMDL
