MODEL 1
REMARK VINA RESULT:    -3.666      0.000      0.000
REMARK INTER + INTRA:          -4.401
REMARK INTER:                  -4.309
REMARK INTRA:                  -0.092
REMARK UNBOUND:                -0.092
REMARK SMILES O=C([O-])CCC(=O)[O-]
REMARK SMILES IDX 4 1 2 2 1 3 3 4 5 5 6 6 7 7 8 8
REMARK H PARENT
REMARK Flexibility Score: inf
ROOT
ATOM      1  C   UNL     1      60.563  29.658  11.559  1.00  0.00     0.059 C 
ENDROOT
BRANCH   1   2
ATOM      2  C   UNL     1      60.389  28.922  12.853  1.00  0.00     0.042 C 
ATOM      3  O   UNL     1      61.320  28.899  13.700  1.00  0.00    -0.550 OA
ATOM      4  O   UNL     1      59.212  28.226  13.104  1.00  0.00    -0.550 OA
ENDBRANCH   1   2
BRANCH   1   5
ATOM      5  C   UNL     1      62.034  29.989  11.293  1.00  0.00     0.059 C 
BRANCH   5   6
ATOM      6  C   UNL     1      62.634  29.066  10.277  1.00  0.00     0.042 C 
ATOM      7  O   UNL     1      61.909  28.240   9.664  1.00  0.00    -0.550 OA
ATOM      8  O   UNL     1      63.988  29.148   9.976  1.00  0.00    -0.550 OA
ENDBRANCH   5   6
ENDBRANCH   1   5
TORSDOF 3
ENDMDL
MODEL 2
REMARK VINA RESULT:    -3.653      0.100      4.029
REMARK INTER + INTRA:          -4.386
REMARK INTER:                  -4.296
REMARK INTRA:                  -0.090
REMARK UNBOUND:                -0.092
REMARK SMILES O=C([O-])CCC(=O)[O-]
REMARK SMILES IDX 4 1 2 2 1 3 3 4 5 5 6 6 7 7 8 8
REMARK H PARENT
REMARK Flexibility Score: inf
ROOT
ATOM      1  C   UNL     1      62.007  29.959  11.231  1.00  0.00     0.059 C 
ENDROOT
BRANCH   1   2
ATOM      2  C   UNL     1      62.563  29.071  10.159  1.00  0.00     0.042 C 
ATOM      3  O   UNL     1      61.831  28.207   9.608  1.00  0.00    -0.550 OA
ATOM      4  O   UNL     1      63.901  29.170   9.799  1.00  0.00    -0.550 OA
ENDBRANCH   1   2
BRANCH   1   5
ATOM      5  C   UNL     1      60.540  29.634  11.527  1.00  0.00     0.059 C 
BRANCH   5   6
ATOM      6  C   UNL     1      60.387  28.890  12.818  1.00  0.00     0.042 C 
ATOM      7  O   UNL     1      61.312  28.905  13.671  1.00  0.00    -0.550 OA
ATOM      8  O   UNL     1      59.205  28.215  13.097  1.00  0.00    -0.550 OA
ENDBRANCH   5   6
ENDBRANCH   1   5
TORSDOF 3
ENDMDL
MODEL 3
REMARK VINA RESULT:    -3.651      0.107      1.621
REMARK INTER + INTRA:          -4.384
REMARK INTER:                  -4.292
REMARK INTRA:                  -0.092
REMARK UNBOUND:                -0.092
REMARK SMILES O=C([O-])CCC(=O)[O-]
REMARK SMILES IDX 4 1 2 2 1 3 3 4 5 5 6 6 7 7 8 8
REMARK H PARENT
REMARK Flexibility Score: inf
ROOT
ATOM      1  C   UNL     1      60.500  29.604  11.523  1.00  0.00     0.059 C 
ENDROOT
BRANCH   1   2
ATOM      2  C   UNL     1      60.357  28.868  12.820  1.00  0.00     0.042 C 
ATOM      3  O   UNL     1      59.279  28.279  13.100  1.00  0.00    -0.550 OA
ATOM      4  O   UNL     1      61.399  28.868  13.739  1.00  0.00    -0.550 OA
ENDBRANCH   1   2
BRANCH   1   5
ATOM      5  C   UNL     1      61.954  30.010  11.263  1.00  0.00     0.059 C 
BRANCH   5   6
ATOM      6  C   UNL     1      62.616  29.094  10.280  1.00  0.00     0.042 C 
ATOM      7  O   UNL     1      63.865  29.130  10.121  1.00  0.00    -0.550 OA
ATOM      8  O   UNL     1      61.859  28.170   9.570  1.00  0.00    -0.550 OA
ENDBRANCH   5   6
ENDBRANCH   1   5
TORSDOF 3
ENDMDL
MODEL 4
REMARK VINA RESULT:    -3.610      0.218      3.890
REMARK INTER + INTRA:          -4.336
REMARK INTER:                  -4.256
REMARK INTRA:                  -0.080
REMARK UNBOUND:                -0.092
REMARK SMILES O=C([O-])CCC(=O)[O-]
REMARK SMILES IDX 4 1 2 2 1 3 3 4 5 5 6 6 7 7 8 8
REMARK H PARENT
REMARK Flexibility Score: inf
ROOT
ATOM      1  C   UNL     1      62.072  29.845  11.123  1.00  0.00     0.059 C 
ENDROOT
BRANCH   1   2
ATOM      2  C   UNL     1      62.611  28.977  10.028  1.00  0.00     0.042 C 
ATOM      3  O   UNL     1      61.849  28.187   9.410  1.00  0.00    -0.550 OA
ATOM      4  O   UNL     1      63.965  29.010   9.717  1.00  0.00    -0.550 OA
ENDBRANCH   1   2
BRANCH   1   5
ATOM      5  C   UNL     1      60.592  29.557  11.393  1.00  0.00     0.059 C 
BRANCH   5   6
ATOM      6  C   UNL     1      60.387  28.928  12.737  1.00  0.00     0.042 C 
ATOM      7  O   UNL     1      59.331  28.288  12.984  1.00  0.00    -0.550 OA
ATOM      8  O   UNL     1      61.382  29.011  13.704  1.00  0.00    -0.550 OA
ENDBRANCH   5   6
ENDBRANCH   1   5
TORSDOF 3
ENDMDL
MODEL 5
REMARK VINA RESULT:    -3.527      1.799      3.495
REMARK INTER + INTRA:          -4.237
REMARK INTER:                  -4.058
REMARK INTRA:                  -0.179
REMARK UNBOUND:                -0.092
REMARK SMILES O=C([O-])CCC(=O)[O-]
REMARK SMILES IDX 4 1 2 2 1 3 3 4 5 5 6 6 7 7 8 8
REMARK H PARENT
REMARK Flexibility Score: inf
ROOT
ATOM      1  C   UNL     1      60.322  29.228  11.817  1.00  0.00     0.059 C 
ENDROOT
BRANCH   1   2
ATOM      2  C   UNL     1      61.305  29.421  10.702  1.00  0.00     0.042 C 
ATOM      3  O   UNL     1      61.566  30.578  10.280  1.00  0.00    -0.550 OA
ATOM      4  O   UNL     1      61.900  28.318  10.101  1.00  0.00    -0.550 OA
ENDBRANCH   1   2
BRANCH   1   5
ATOM      5  C   UNL     1      60.965  28.531  13.020  1.00  0.00     0.059 C 
BRANCH   5   6
ATOM      6  C   UNL     1      62.044  29.370  13.634  1.00  0.00     0.042 C 
ATOM      7  O   UNL     1      63.239  28.976  13.619  1.00  0.00    -0.550 OA
ATOM      8  O   UNL     1      61.734  30.607  14.186  1.00  0.00    -0.550 OA
ENDBRANCH   5   6
ENDBRANCH   1   5
TORSDOF 3
ENDMDL
MODEL 6
REMARK VINA RESULT:    -3.512     14.192     15.858
REMARK INTER + INTRA:          -4.220
REMARK INTER:                  -4.127
REMARK INTRA:                  -0.093
REMARK UNBOUND:                -0.092
REMARK SMILES O=C([O-])CCC(=O)[O-]
REMARK SMILES IDX 4 1 2 2 1 3 3 4 5 5 6 6 7 7 8 8
REMARK H PARENT
REMARK Flexibility Score: inf
ROOT
ATOM      1  C   UNL     1      62.921  28.659  27.484  1.00  0.00     0.059 C 
ENDROOT
BRANCH   1   2
ATOM      2  C   UNL     1      62.387  29.690  28.431  1.00  0.00     0.042 C 
ATOM      3  O   UNL     1      63.024  30.758  28.631  1.00  0.00    -0.550 OA
ATOM      4  O   UNL     1      61.207  29.452  29.125  1.00  0.00    -0.550 OA
ENDBRANCH   1   2
BRANCH   1   5
ATOM      5  C   UNL     1      61.936  27.500  27.299  1.00  0.00     0.059 C 
BRANCH   5   6
ATOM      6  C   UNL     1      61.183  27.614  26.010  1.00  0.00     0.042 C 
ATOM      7  O   UNL     1      60.163  26.905  25.806  1.00  0.00    -0.550 OA
ATOM      8  O   UNL     1      61.583  28.536  25.049  1.00  0.00    -0.550 OA
ENDBRANCH   5   6
ENDBRANCH   1   5
TORSDOF 3
ENDMDL
MODEL 7
REMARK VINA RESULT:    -3.505      1.705      4.089
REMARK INTER + INTRA:          -4.212
REMARK INTER:                  -4.122
REMARK INTRA:                  -0.089
REMARK UNBOUND:                -0.092
REMARK SMILES O=C([O-])CCC(=O)[O-]
REMARK SMILES IDX 4 1 2 2 1 3 3 4 5 5 6 6 7 7 8 8
REMARK H PARENT
REMARK Flexibility Score: inf
ROOT
ATOM      1  C   UNL     1      62.527  29.011  10.106  1.00  0.00     0.059 C 
ENDROOT
BRANCH   1   2
ATOM      2  C   UNL     1      63.972  29.383  10.244  1.00  0.00     0.042 C 
ATOM      3  O   UNL     1      64.788  29.107   9.326  1.00  0.00    -0.550 OA
ATOM      4  O   UNL     1      64.423  29.997  11.406  1.00  0.00    -0.550 OA
ENDBRANCH   1   2
BRANCH   1   5
ATOM      5  C   UNL     1      61.613  30.230  10.266  1.00  0.00     0.059 C 
BRANCH   5   6
ATOM      6  C   UNL     1      60.881  30.205  11.573  1.00  0.00     0.042 C 
ATOM      7  O   UNL     1      60.956  31.183  12.361  1.00  0.00    -0.550 OA
ATOM      8  O   UNL     1      60.082  29.117  11.902  1.00  0.00    -0.550 OA
ENDBRANCH   5   6
ENDBRANCH   1   5
TORSDOF 3
ENDMDL
MODEL 8
REMARK VINA RESULT:    -3.492      1.906      2.418
REMARK INTER + INTRA:          -4.196
REMARK INTER:                  -4.076
REMARK INTRA:                  -0.121
REMARK UNBOUND:                -0.092
REMARK SMILES O=C([O-])CCC(=O)[O-]
REMARK SMILES IDX 4 1 2 2 1 3 3 4 5 5 6 6 7 7 8 8
REMARK H PARENT
REMARK Flexibility Score: inf
ROOT
ATOM      1  C   UNL     1      61.353  29.766  13.340  1.00  0.00     0.059 C 
ENDROOT
BRANCH   1   2
ATOM      2  C   UNL     1      60.319  29.036  12.538  1.00  0.00     0.042 C 
ATOM      3  O   UNL     1      60.260  29.189  11.289  1.00  0.00    -0.550 OA
ATOM      4  O   UNL     1      59.394  28.217  13.175  1.00  0.00    -0.550 OA
ENDBRANCH   1   2
BRANCH   1   5
ATOM      5  C   UNL     1      62.670  28.987  13.405  1.00  0.00     0.059 C 
BRANCH   5   6
ATOM      6  C   UNL     1      63.698  29.560  12.478  1.00  0.00     0.042 C 
ATOM      7  O   UNL     1      64.676  30.206  12.937  1.00  0.00    -0.550 OA
ATOM      8  O   UNL     1      63.598  29.343  11.109  1.00  0.00    -0.550 OA
ENDBRANCH   5   6
ENDBRANCH   1   5
TORSDOF 3
ENDMDL
MODEL 9
REMARK VINA RESULT:    -3.457      1.893      2.250
REMARK INTER + INTRA:          -4.156
REMARK INTER:                  -4.039
REMARK INTRA:                  -0.117
REMARK UNBOUND:                -0.092
REMARK SMILES O=C([O-])CCC(=O)[O-]
REMARK SMILES IDX 4 1 2 2 1 3 3 4 5 5 6 6 7 7 8 8
REMARK H PARENT
REMARK Flexibility Score: inf
ROOT
ATOM      1  C   UNL     1      61.056  28.959  12.889  1.00  0.00     0.059 C 
ENDROOT
BRANCH   1   2
ATOM      2  C   UNL     1      62.254  29.379  13.685  1.00  0.00     0.042 C 
ATOM      3  O   UNL     1      63.405  28.992  13.352  1.00  0.00    -0.550 OA
ATOM      4  O   UNL     1      62.094  30.165  14.820  1.00  0.00    -0.550 OA
ENDBRANCH   1   2
BRANCH   1   5
ATOM      5  C   UNL     1      60.731  29.969  11.785  1.00  0.00     0.059 C 
BRANCH   5   6
ATOM      6  C   UNL     1      61.004  29.408  10.423  1.00  0.00     0.042 C 
ATOM      7  O   UNL     1      60.347  29.812   9.427  1.00  0.00    -0.550 OA
ATOM      8  O   UNL     1      62.013  28.469  10.247  1.00  0.00    -0.550 OA
ENDBRANCH   5   6
ENDBRANCH   1   5
TORSDOF 3
ENDMDL
