MODEL 1
REMARK VINA RESULT:    -2.962      0.000      0.000
REMARK INTER + INTRA:          -3.759
REMARK INTER:                  -3.655
REMARK INTRA:                  -0.104
REMARK UNBOUND:                -0.104
REMARK SMILES CCCCCC(=O)[O-]
REMARK SMILES IDX 4 1 5 2 6 3 7 4 8 5 3 6 2 7 1 8
REMARK H PARENT
REMARK Flexibility Score: inf
ROOT
ATOM      1  C   UNL     1      24.427  39.427   0.190  1.00  0.00     0.006 C 
ENDROOT
BRANCH   1   2
ATOM      2  C   UNL     1      25.941  39.639   0.096  1.00  0.00     0.053 C 
BRANCH   2   3
ATOM      3  C   UNL     1      26.382  39.647  -1.334  1.00  0.00     0.041 C 
ATOM      4  O   UNL     1      25.954  40.529  -2.124  1.00  0.00    -0.550 OA
ATOM      5  O   UNL     1      27.302  38.709  -1.783  1.00  0.00    -0.550 OA
ENDBRANCH   2   3
ENDBRANCH   1   2
BRANCH   1   6
ATOM      6  C   UNL     1      23.906  39.807   1.583  1.00  0.00     0.000 C 
BRANCH   6   7
ATOM      7  C   UNL     1      24.836  40.789   2.314  1.00  0.00    -0.003 C 
ATOM      8  C   UNL     1      24.223  41.335   3.603  1.00  0.00     0.004 C 
ENDBRANCH   6   7
ENDBRANCH   1   6
TORSDOF 4
ENDMDL
MODEL 2
REMARK VINA RESULT:    -2.943     18.004     18.974
REMARK INTER + INTRA:          -3.735
REMARK INTER:                  -3.657
REMARK INTRA:                  -0.078
REMARK UNBOUND:                -0.104
REMARK SMILES CCCCCC(=O)[O-]
REMARK SMILES IDX 4 1 5 2 6 3 7 4 8 5 3 6 2 7 1 8
REMARK H PARENT
REMARK Flexibility Score: inf
ROOT
ATOM      1  C   UNL     1      42.672  32.491   0.977  1.00  0.00     0.006 C 
ENDROOT
BRANCH   1   2
ATOM      2  C   UNL     1      43.014  33.106  -0.383  1.00  0.00     0.053 C 
BRANCH   2   3
ATOM      3  C   UNL     1      41.934  32.812  -1.377  1.00  0.00     0.041 C 
ATOM      4  O   UNL     1      41.840  31.666  -1.890  1.00  0.00    -0.550 OA
ATOM      5  O   UNL     1      41.002  33.789  -1.700  1.00  0.00    -0.550 OA
ENDBRANCH   2   3
ENDBRANCH   1   2
BRANCH   1   6
ATOM      6  C   UNL     1      43.944  32.042   1.711  1.00  0.00     0.000 C 
BRANCH   6   7
ATOM      7  C   UNL     1      43.684  31.694   3.185  1.00  0.00    -0.003 C 
ATOM      8  C   UNL     1      42.301  31.086   3.413  1.00  0.00     0.004 C 
ENDBRANCH   6   7
ENDBRANCH   1   6
TORSDOF 4
ENDMDL
MODEL 3
REMARK VINA RESULT:    -2.937      3.114      4.640
REMARK INTER + INTRA:          -3.729
REMARK INTER:                  -3.671
REMARK INTRA:                  -0.058
REMARK UNBOUND:                -0.104
REMARK SMILES CCCCCC(=O)[O-]
REMARK SMILES IDX 4 1 5 2 6 3 7 4 8 5 3 6 2 7 1 8
REMARK H PARENT
REMARK Flexibility Score: inf
ROOT
ATOM      1  C   UNL     1      25.430  40.009   1.165  1.00  0.00     0.006 C 
ENDROOT
BRANCH   1   2
ATOM      2  C   UNL     1      24.230  40.485   1.990  1.00  0.00     0.053 C 
BRANCH   2   3
ATOM      3  C   UNL     1      24.683  41.355   3.120  1.00  0.00     0.041 C 
ATOM      4  O   UNL     1      23.877  41.681   4.031  1.00  0.00    -0.550 OA
ATOM      5  O   UNL     1      26.008  41.765   3.194  1.00  0.00    -0.550 OA
ENDBRANCH   2   3
ENDBRANCH   1   2
BRANCH   1   6
ATOM      6  C   UNL     1      24.977  39.469  -0.199  1.00  0.00     0.000 C 
BRANCH   6   7
ATOM      7  C   UNL     1      25.823  40.015  -1.360  1.00  0.00    -0.003 C 
ATOM      8  C   UNL     1      27.200  39.359  -1.448  1.00  0.00     0.004 C 
ENDBRANCH   6   7
ENDBRANCH   1   6
TORSDOF 4
ENDMDL
MODEL 4
REMARK VINA RESULT:    -2.921     18.881     19.841
REMARK INTER + INTRA:          -3.709
REMARK INTER:                  -3.595
REMARK INTRA:                  -0.114
REMARK UNBOUND:                -0.104
REMARK SMILES CCCCCC(=O)[O-]
REMARK SMILES IDX 4 1 5 2 6 3 7 4 8 5 3 6 2 7 1 8
REMARK H PARENT
REMARK Flexibility Score: inf
ROOT
ATOM      1  C   UNL     1      43.885  32.386   1.673  1.00  0.00     0.006 C 
ENDROOT
BRANCH   1   2
ATOM      2  C   UNL     1      42.593  31.981   2.389  1.00  0.00     0.053 C 
BRANCH   2   3
ATOM      3  C   UNL     1      42.891  31.044   3.517  1.00  0.00     0.041 C 
ATOM      4  O   UNL     1      42.043  30.179   3.863  1.00  0.00    -0.550 OA
ATOM      5  O   UNL     1      44.124  31.092   4.154  1.00  0.00    -0.550 OA
ENDBRANCH   2   3
ENDBRANCH   1   2
BRANCH   1   6
ATOM      6  C   UNL     1      43.594  32.846   0.237  1.00  0.00     0.000 C 
BRANCH   6   7
ATOM      7  C   UNL     1      42.115  32.681  -0.147  1.00  0.00    -0.003 C 
ATOM      8  C   UNL     1      41.922  32.351  -1.627  1.00  0.00     0.004 C 
ENDBRANCH   6   7
ENDBRANCH   1   6
TORSDOF 4
ENDMDL
MODEL 5
REMARK VINA RESULT:    -2.848      3.151      4.695
REMARK INTER + INTRA:          -3.618
REMARK INTER:                  -3.556
REMARK INTRA:                  -0.062
REMARK UNBOUND:                -0.104
REMARK SMILES CCCCCC(=O)[O-]
REMARK SMILES IDX 4 1 5 2 6 3 7 4 8 5 3 6 2 7 1 8
REMARK H PARENT
REMARK Flexibility Score: inf
ROOT
ATOM      1  C   UNL     1      25.422  39.942   1.130  1.00  0.00     0.006 C 
ENDROOT
BRANCH   1   2
ATOM      2  C   UNL     1      24.217  40.438   1.934  1.00  0.00     0.053 C 
BRANCH   2   3
ATOM      3  C   UNL     1      24.668  41.192   3.145  1.00  0.00     0.041 C 
ATOM      4  O   UNL     1      25.746  41.843   3.121  1.00  0.00    -0.550 OA
ATOM      5  O   UNL     1      23.875  41.217   4.284  1.00  0.00    -0.550 OA
ENDBRANCH   2   3
ENDBRANCH   1   2
BRANCH   1   6
ATOM      6  C   UNL     1      24.974  39.298  -0.190  1.00  0.00     0.000 C 
BRANCH   6   7
ATOM      7  C   UNL     1      25.871  39.693  -1.374  1.00  0.00    -0.003 C 
ATOM      8  C   UNL     1      27.308  39.197  -1.218  1.00  0.00     0.004 C 
ENDBRANCH   6   7
ENDBRANCH   1   6
TORSDOF 4
ENDMDL
MODEL 6
REMARK VINA RESULT:    -2.788     17.304     18.807
REMARK INTER + INTRA:          -3.544
REMARK INTER:                  -3.375
REMARK INTRA:                  -0.169
REMARK UNBOUND:                -0.104
REMARK SMILES CCCCCC(=O)[O-]
REMARK SMILES IDX 4 1 5 2 6 3 7 4 8 5 3 6 2 7 1 8
REMARK H PARENT
REMARK Flexibility Score: inf
ROOT
ATOM      1  C   UNL     1      42.546  33.317  -0.152  1.00  0.00     0.006 C 
ENDROOT
BRANCH   1   2
ATOM      2  C   UNL     1      43.656  32.569   0.592  1.00  0.00     0.053 C 
BRANCH   2   3
ATOM      3  C   UNL     1      43.168  32.101   1.928  1.00  0.00     0.041 C 
ATOM      4  O   UNL     1      43.984  31.678   2.788  1.00  0.00    -0.550 OA
ATOM      5  O   UNL     1      41.817  32.178   2.240  1.00  0.00    -0.550 OA
ENDBRANCH   2   3
ENDBRANCH   1   2
BRANCH   1   6
ATOM      6  C   UNL     1      42.162  32.582  -1.445  1.00  0.00     0.000 C 
BRANCH   6   7
ATOM      7  C   UNL     1      40.660  32.683  -1.757  1.00  0.00    -0.003 C 
ATOM      8  C   UNL     1      39.874  33.393  -0.656  1.00  0.00     0.004 C 
ENDBRANCH   6   7
ENDBRANCH   1   6
TORSDOF 4
ENDMDL
MODEL 7
REMARK VINA RESULT:    -2.587      2.928      4.236
REMARK INTER + INTRA:          -3.297
REMARK INTER:                  -3.128
REMARK INTRA:                  -0.168
REMARK UNBOUND:                -0.104
REMARK SMILES CCCCCC(=O)[O-]
REMARK SMILES IDX 4 1 5 2 6 3 7 4 8 5 3 6 2 7 1 8
REMARK H PARENT
REMARK Flexibility Score: inf
ROOT
ATOM      1  C   UNL     1      25.416  40.000   0.023  1.00  0.00     0.006 C 
ENDROOT
BRANCH   1   2
ATOM      2  C   UNL     1      24.185  39.234   0.516  1.00  0.00     0.053 C 
BRANCH   2   3
ATOM      3  C   UNL     1      24.491  38.510   1.789  1.00  0.00     0.041 C 
ATOM      4  O   UNL     1      25.274  39.019   2.634  1.00  0.00    -0.550 OA
ATOM      5  O   UNL     1      23.875  37.297   2.065  1.00  0.00    -0.550 OA
ENDBRANCH   2   3
ENDBRANCH   1   2
BRANCH   1   6
ATOM      6  C   UNL     1      25.751  39.625  -1.428  1.00  0.00     0.000 C 
BRANCH   6   7
ATOM      7  C   UNL     1      27.133  38.967  -1.564  1.00  0.00    -0.003 C 
ATOM      8  C   UNL     1      27.882  38.885  -0.235  1.00  0.00     0.004 C 
ENDBRANCH   6   7
ENDBRANCH   1   6
TORSDOF 4
ENDMDL
MODEL 8
REMARK VINA RESULT:    -2.514      2.573      3.516
REMARK INTER + INTRA:          -3.206
REMARK INTER:                  -3.162
REMARK INTRA:                  -0.044
REMARK UNBOUND:                -0.104
REMARK SMILES CCCCCC(=O)[O-]
REMARK SMILES IDX 4 1 5 2 6 3 7 4 8 5 3 6 2 7 1 8
REMARK H PARENT
REMARK Flexibility Score: inf
ROOT
ATOM      1  C   UNL     1      25.547  41.164   2.865  1.00  0.00     0.006 C 
ENDROOT
BRANCH   1   2
ATOM      2  C   UNL     1      24.219  40.745   2.227  1.00  0.00     0.053 C 
BRANCH   2   3
ATOM      3  C   UNL     1      24.450  39.725   1.157  1.00  0.00     0.041 C 
ATOM      4  O   UNL     1      23.875  38.607   1.213  1.00  0.00    -0.550 OA
ATOM      5  O   UNL     1      25.263  40.027   0.072  1.00  0.00    -0.550 OA
ENDBRANCH   2   3
ENDBRANCH   1   2
BRANCH   1   6
ATOM      6  C   UNL     1      25.328  42.262   3.916  1.00  0.00     0.000 C 
BRANCH   6   7
ATOM      7  C   UNL     1      26.433  43.330   3.892  1.00  0.00    -0.003 C 
ATOM      8  C   UNL     1      26.208  44.437   4.921  1.00  0.00     0.004 C 
ENDBRANCH   6   7
ENDBRANCH   1   6
TORSDOF 4
ENDMDL
MODEL 9
REMARK VINA RESULT:    -2.487     18.334     19.251
REMARK INTER + INTRA:          -3.173
REMARK INTER:                  -3.061
REMARK INTRA:                  -0.112
REMARK UNBOUND:                -0.104
REMARK SMILES CCCCCC(=O)[O-]
REMARK SMILES IDX 4 1 5 2 6 3 7 4 8 5 3 6 2 7 1 8
REMARK H PARENT
REMARK Flexibility Score: inf
ROOT
ATOM      1  C   UNL     1      42.047  32.218   2.160  1.00  0.00     0.006 C 
ENDROOT
BRANCH   1   2
ATOM      2  C   UNL     1      42.268  33.425   1.245  1.00  0.00     0.053 C 
BRANCH   2   3
ATOM      3  C   UNL     1      42.904  32.999  -0.041  1.00  0.00     0.041 C 
ATOM      4  O   UNL     1      44.100  33.303  -0.288  1.00  0.00    -0.550 OA
ATOM      5  O   UNL     1      42.190  32.224  -0.946  1.00  0.00    -0.550 OA
ENDBRANCH   2   3
ENDBRANCH   1   2
BRANCH   1   6
ATOM      6  C   UNL     1      43.380  31.708   2.727  1.00  0.00     0.000 C 
BRANCH   6   7
ATOM      7  C   UNL     1      43.209  30.965   4.062  1.00  0.00    -0.003 C 
ATOM      8  C   UNL     1      41.948  30.105   4.101  1.00  0.00     0.004 C 
ENDBRANCH   6   7
ENDBRANCH   1   6
TORSDOF 4
ENDMDL
