MODEL 1
REMARK VINA RESULT:    -3.523      0.000      0.000
REMARK INTER + INTRA:          -4.329
REMARK INTER:                  -4.244
REMARK INTRA:                  -0.085
REMARK UNBOUND:                -0.085
REMARK SMILES CC[C@@H](C)[C@@H]([NH3+])C(=O)[O-]
REMARK SMILES IDX 3 1 4 2 5 3 6 4 7 8 8 9 9 10 2 11 1 12
REMARK H PARENT 6 5 6 6 6 7
REMARK Flexibility Score: inf
ROOT
ATOM      1  C   UNL     1      28.340   3.079 143.125  1.00  0.00     0.050 C 
ATOM      2  C   UNL     1      26.943   2.621 143.580  1.00  0.00     0.014 C 
ENDROOT
BRANCH   1   3
ATOM      3  C   UNL     1      29.081   3.887 144.237  1.00  0.00     0.230 C 
BRANCH   3   4
ATOM      4  N   UNL     1      30.358   3.282 144.641  1.00  0.00    -0.350 N 
ATOM      5  H   UNL     1      30.798   2.784 143.835  1.00  0.00     0.345 HD
ATOM      6  H   UNL     1      30.182   2.573 145.391  1.00  0.00     0.345 HD
ATOM      7  H   UNL     1      31.017   3.999 145.017  1.00  0.00     0.345 HD
ENDBRANCH   3   4
BRANCH   3   8
ATOM      8  C   UNL     1      29.281   5.325 143.819  1.00  0.00     0.099 C 
ATOM      9  O   UNL     1      29.198   5.640 142.602  1.00  0.00    -0.544 OA
ATOM     10  O   UNL     1      29.600   6.302 144.755  1.00  0.00    -0.544 OA
ENDBRANCH   3   8
ENDBRANCH   1   3
BRANCH   1  11
ATOM     11  C   UNL     1      29.178   1.939 142.475  1.00  0.00     0.006 C 
ATOM     12  C   UNL     1      28.406   1.001 141.538  1.00  0.00     0.004 C 
ENDBRANCH   1  11
TORSDOF 4
ENDMDL
MODEL 2
REMARK VINA RESULT:    -3.399     13.266     14.685
REMARK INTER + INTRA:          -4.179
REMARK INTER:                  -4.104
REMARK INTRA:                  -0.075
REMARK UNBOUND:                -0.085
REMARK SMILES CC[C@@H](C)[C@@H]([NH3+])C(=O)[O-]
REMARK SMILES IDX 3 1 4 2 5 3 6 4 7 8 8 9 9 10 2 11 1 12
REMARK H PARENT 6 5 6 6 6 7
REMARK Flexibility Score: inf
ROOT
ATOM      1  C   UNL     1      35.233  16.786 138.250  1.00  0.00     0.050 C 
ATOM      2  C   UNL     1      34.155  16.907 137.159  1.00  0.00     0.014 C 
ENDROOT
BRANCH   1   3
ATOM      3  C   UNL     1      34.765  15.888 139.439  1.00  0.00     0.230 C 
BRANCH   3   4
ATOM      4  N   UNL     1      33.347  16.070 139.780  1.00  0.00    -0.350 N 
ATOM      5  H   UNL     1      32.991  16.972 139.393  1.00  0.00     0.345 HD
ATOM      6  H   UNL     1      33.245  16.110 140.821  1.00  0.00     0.345 HD
ATOM      7  H   UNL     1      32.766  15.278 139.425  1.00  0.00     0.345 HD
ENDBRANCH   3   4
BRANCH   3   8
ATOM      8  C   UNL     1      35.067  14.432 139.168  1.00  0.00     0.099 C 
ATOM      9  O   UNL     1      36.024  13.870 139.763  1.00  0.00    -0.544 OA
ATOM     10  O   UNL     1      34.328  13.713 138.235  1.00  0.00    -0.544 OA
ENDBRANCH   3   8
ENDBRANCH   1   3
BRANCH   1  11
ATOM     11  C   UNL     1      36.642  16.442 137.684  1.00  0.00     0.006 C 
ATOM     12  C   UNL     1      36.670  15.946 136.232  1.00  0.00     0.004 C 
ENDBRANCH   1  11
TORSDOF 4
ENDMDL
MODEL 3
REMARK VINA RESULT:    -3.362      2.125      3.496
REMARK INTER + INTRA:          -4.135
REMARK INTER:                  -4.053
REMARK INTRA:                  -0.082
REMARK UNBOUND:                -0.085
REMARK SMILES CC[C@@H](C)[C@@H]([NH3+])C(=O)[O-]
REMARK SMILES IDX 3 1 4 2 5 3 6 4 7 8 8 9 9 10 2 11 1 12
REMARK H PARENT 6 5 6 6 6 7
REMARK Flexibility Score: inf
ROOT
ATOM      1  C   UNL     1      28.461   4.928 144.160  1.00  0.00     0.050 C 
ATOM      2  C   UNL     1      28.951   6.281 144.706  1.00  0.00     0.014 C 
ENDROOT
BRANCH   1   3
ATOM      3  C   UNL     1      29.639   4.050 143.630  1.00  0.00     0.230 C 
BRANCH   3   4
ATOM      4  N   UNL     1      30.297   3.265 144.683  1.00  0.00    -0.350 N 
ATOM      5  H   UNL     1      29.900   2.299 144.721  1.00  0.00     0.345 HD
ATOM      6  H   UNL     1      30.122   3.716 145.611  1.00  0.00     0.345 HD
ATOM      7  H   UNL     1      31.330   3.217 144.532  1.00  0.00     0.345 HD
ENDBRANCH   3   4
BRANCH   3   8
ATOM      8  C   UNL     1      29.181   3.155 142.502  1.00  0.00     0.099 C 
ATOM      9  O   UNL     1      29.487   1.933 142.510  1.00  0.00    -0.544 OA
ATOM     10  O   UNL     1      28.462   3.670 141.430  1.00  0.00    -0.544 OA
ENDBRANCH   3   8
ENDBRANCH   1   3
BRANCH   1  11
ATOM     11  C   UNL     1      27.482   4.196 145.124  1.00  0.00     0.006 C 
ATOM     12  C   UNL     1      26.021   4.661 145.065  1.00  0.00     0.004 C 
ENDBRANCH   1  11
TORSDOF 4
ENDMDL
MODEL 4
REMARK VINA RESULT:    -3.304     13.541     14.851
REMARK INTER + INTRA:          -4.065
REMARK INTER:                  -3.997
REMARK INTRA:                  -0.068
REMARK UNBOUND:                -0.085
REMARK SMILES CC[C@@H](C)[C@@H]([NH3+])C(=O)[O-]
REMARK SMILES IDX 3 1 4 2 5 3 6 4 7 8 8 9 9 10 2 11 1 12
REMARK H PARENT 6 5 6 6 6 7
REMARK Flexibility Score: inf
ROOT
ATOM      1  C   UNL     1      36.352  14.763 136.861  1.00  0.00     0.050 C 
ATOM      2  C   UNL     1      37.122  13.559 136.289  1.00  0.00     0.014 C 
ENDROOT
BRANCH   1   3
ATOM      3  C   UNL     1      36.461  14.840 138.417  1.00  0.00     0.230 C 
BRANCH   3   4
ATOM      4  N   UNL     1      37.024  16.109 138.897  1.00  0.00    -0.350 N 
ATOM      5  H   UNL     1      36.950  16.845 138.159  1.00  0.00     0.345 HD
ATOM      6  H   UNL     1      38.041  15.977 139.110  1.00  0.00     0.345 HD
ATOM      7  H   UNL     1      36.547  16.432 139.768  1.00  0.00     0.345 HD
ENDBRANCH   3   4
BRANCH   3   8
ATOM      8  C   UNL     1      35.123  14.569 139.066  1.00  0.00     0.099 C 
ATOM      9  O   UNL     1      34.502  13.508 138.798  1.00  0.00    -0.544 OA
ATOM     10  O   UNL     1      34.547  15.498 139.925  1.00  0.00    -0.544 OA
ENDBRANCH   3   8
ENDBRANCH   1   3
BRANCH   1  11
ATOM     11  C   UNL     1      36.657  16.095 136.116  1.00  0.00     0.006 C 
ATOM     12  C   UNL     1      36.741  15.997 134.587  1.00  0.00     0.004 C 
ENDBRANCH   1  11
TORSDOF 4
ENDMDL
MODEL 5
REMARK VINA RESULT:    -3.302     13.391     14.515
REMARK INTER + INTRA:          -4.062
REMARK INTER:                  -4.070
REMARK INTRA:                   0.008
REMARK UNBOUND:                -0.085
REMARK SMILES CC[C@@H](C)[C@@H]([NH3+])C(=O)[O-]
REMARK SMILES IDX 3 1 4 2 5 3 6 4 7 8 8 9 9 10 2 11 1 12
REMARK H PARENT 6 5 6 6 6 7
REMARK Flexibility Score: inf
ROOT
ATOM      1  C   UNL     1      34.736  15.051 139.558  1.00  0.00     0.050 C 
ATOM      2  C   UNL     1      34.296  13.777 138.815  1.00  0.00     0.014 C 
ENDROOT
BRANCH   1   3
ATOM      3  C   UNL     1      36.061  15.638 138.977  1.00  0.00     0.230 C 
BRANCH   3   4
ATOM      4  N   UNL     1      37.125  14.635 138.830  1.00  0.00    -0.350 N 
ATOM      5  H   UNL     1      37.994  15.076 138.454  1.00  0.00     0.345 HD
ATOM      6  H   UNL     1      36.819  13.905 138.144  1.00  0.00     0.345 HD
ATOM      7  H   UNL     1      37.332  14.164 139.739  1.00  0.00     0.345 HD
ENDBRANCH   3   4
BRANCH   3   8
ATOM      8  C   UNL     1      35.810  16.347 137.666  1.00  0.00     0.099 C 
ATOM      9  O   UNL     1      35.597  17.587 137.656  1.00  0.00    -0.544 OA
ATOM     10  O   UNL     1      35.768  15.639 136.470  1.00  0.00    -0.544 OA
ENDBRANCH   3   8
ENDBRANCH   1   3
BRANCH   1  11
ATOM     11  C   UNL     1      33.585  16.084 139.737  1.00  0.00     0.006 C 
ATOM     12  C   UNL     1      32.360  15.876 138.837  1.00  0.00     0.004 C 
ENDBRANCH   1  11
TORSDOF 4
ENDMDL
MODEL 6
REMARK VINA RESULT:    -3.297      2.345      4.348
REMARK INTER + INTRA:          -4.056
REMARK INTER:                  -3.969
REMARK INTRA:                  -0.087
REMARK UNBOUND:                -0.085
REMARK SMILES CC[C@@H](C)[C@@H]([NH3+])C(=O)[O-]
REMARK SMILES IDX 3 1 4 2 5 3 6 4 7 8 8 9 9 10 2 11 1 12
REMARK H PARENT 6 5 6 6 6 7
REMARK Flexibility Score: inf
ROOT
ATOM      1  C   UNL     1      28.710   6.410 144.004  1.00  0.00     0.050 C 
ATOM      2  C   UNL     1      28.281   7.128 142.712  1.00  0.00     0.014 C 
ENDROOT
BRANCH   1   3
ATOM      3  C   UNL     1      29.611   5.168 143.710  1.00  0.00     0.230 C 
BRANCH   3   4
ATOM      4  N   UNL     1      30.891   5.197 144.430  1.00  0.00    -0.350 N 
ATOM      5  H   UNL     1      31.579   4.553 143.979  1.00  0.00     0.345 HD
ATOM      6  H   UNL     1      30.743   4.864 145.412  1.00  0.00     0.345 HD
ATOM      7  H   UNL     1      31.285   6.164 144.469  1.00  0.00     0.345 HD
ENDBRANCH   3   4
BRANCH   3   8
ATOM      8  C   UNL     1      28.868   3.882 143.992  1.00  0.00     0.099 C 
ATOM      9  O   UNL     1      29.121   2.853 143.313  1.00  0.00    -0.544 OA
ATOM     10  O   UNL     1      27.875   3.831 144.964  1.00  0.00    -0.544 OA
ENDBRANCH   3   8
ENDBRANCH   1   3
BRANCH   1  11
ATOM     11  C   UNL     1      29.264   7.379 145.089  1.00  0.00     0.006 C 
ATOM     12  C   UNL     1      29.131   8.874 144.773  1.00  0.00     0.004 C 
ENDBRANCH   1  11
TORSDOF 4
ENDMDL
MODEL 7
REMARK VINA RESULT:    -3.282     12.791     14.054
REMARK INTER + INTRA:          -4.038
REMARK INTER:                  -3.900
REMARK INTRA:                  -0.138
REMARK UNBOUND:                -0.085
REMARK SMILES CC[C@@H](C)[C@@H]([NH3+])C(=O)[O-]
REMARK SMILES IDX 3 1 4 2 5 3 6 4 7 8 8 9 9 10 2 11 1 12
REMARK H PARENT 6 5 6 6 6 7
REMARK Flexibility Score: inf
ROOT
ATOM      1  C   UNL     1      34.284  14.508 138.520  1.00  0.00     0.050 C 
ATOM      2  C   UNL     1      33.672  13.105 138.359  1.00  0.00     0.014 C 
ENDROOT
BRANCH   1   3
ATOM      3  C   UNL     1      33.204  15.581 138.867  1.00  0.00     0.230 C 
BRANCH   3   4
ATOM      4  N   UNL     1      33.326  16.106 140.234  1.00  0.00    -0.350 N 
ATOM      5  H   UNL     1      32.620  15.659 140.862  1.00  0.00     0.345 HD
ATOM      6  H   UNL     1      33.134  17.135 140.227  1.00  0.00     0.345 HD
ATOM      7  H   UNL     1      34.286  15.955 140.616  1.00  0.00     0.345 HD
ENDBRANCH   3   4
BRANCH   3   8
ATOM      8  C   UNL     1      33.215  16.706 137.859  1.00  0.00     0.099 C 
ATOM      9  O   UNL     1      32.146  17.312 137.586  1.00  0.00    -0.544 OA
ATOM     10  O   UNL     1      34.385  17.055 137.194  1.00  0.00    -0.544 OA
ENDBRANCH   3   8
ENDBRANCH   1   3
BRANCH   1  11
ATOM     11  C   UNL     1      35.542  14.526 139.436  1.00  0.00     0.006 C 
ATOM     12  C   UNL     1      36.800  15.158 138.824  1.00  0.00     0.004 C 
ENDBRANCH   1  11
TORSDOF 4
ENDMDL
MODEL 8
REMARK VINA RESULT:    -3.265     15.391     16.155
REMARK INTER + INTRA:          -4.017
REMARK INTER:                  -3.919
REMARK INTRA:                  -0.098
REMARK UNBOUND:                -0.085
REMARK SMILES CC[C@@H](C)[C@@H]([NH3+])C(=O)[O-]
REMARK SMILES IDX 3 1 4 2 5 3 6 4 7 8 8 9 9 10 2 11 1 12
REMARK H PARENT 6 5 6 6 6 7
REMARK Flexibility Score: inf
ROOT
ATOM      1  C   UNL     1      22.530   4.816 129.436  1.00  0.00     0.050 C 
ATOM      2  C   UNL     1      23.972   4.450 129.831  1.00  0.00     0.014 C 
ENDROOT
BRANCH   1   3
ATOM      3  C   UNL     1      21.496   3.773 129.968  1.00  0.00     0.230 C 
BRANCH   3   4
ATOM      4  N   UNL     1      20.760   4.238 131.152  1.00  0.00    -0.350 N 
ATOM      5  H   UNL     1      21.348   4.895 131.713  1.00  0.00     0.345 HD
ATOM      6  H   UNL     1      20.533   3.418 131.761  1.00  0.00     0.345 HD
ATOM      7  H   UNL     1      19.865   4.705 130.885  1.00  0.00     0.345 HD
ENDBRANCH   3   4
BRANCH   3   8
ATOM      8  C   UNL     1      20.540   3.354 128.875  1.00  0.00     0.099 C 
ATOM      9  O   UNL     1      19.574   2.594 129.148  1.00  0.00    -0.544 OA
ATOM     10  O   UNL     1      20.737   3.760 127.561  1.00  0.00    -0.544 OA
ENDBRANCH   3   8
ENDBRANCH   1   3
BRANCH   1  11
ATOM     11  C   UNL     1      22.172   6.302 129.729  1.00  0.00     0.006 C 
ATOM     12  C   UNL     1      23.304   7.152 130.322  1.00  0.00     0.004 C 
ENDBRANCH   1  11
TORSDOF 4
ENDMDL
MODEL 9
REMARK VINA RESULT:    -3.250     13.634     14.674
REMARK INTER + INTRA:          -4.000
REMARK INTER:                  -3.906
REMARK INTRA:                  -0.093
REMARK UNBOUND:                -0.085
REMARK SMILES CC[C@@H](C)[C@@H]([NH3+])C(=O)[O-]
REMARK SMILES IDX 3 1 4 2 5 3 6 4 7 8 8 9 9 10 2 11 1 12
REMARK H PARENT 6 5 6 6 6 7
REMARK Flexibility Score: inf
ROOT
ATOM      1  C   UNL     1      36.387  14.987 136.960  1.00  0.00     0.050 C 
ATOM      2  C   UNL     1      37.125  15.716 135.823  1.00  0.00     0.014 C 
ENDROOT
BRANCH   1   3
ATOM      3  C   UNL     1      36.354  15.833 138.272  1.00  0.00     0.230 C 
BRANCH   3   4
ATOM      4  N   UNL     1      36.002  17.242 138.046  1.00  0.00    -0.350 N 
ATOM      5  H   UNL     1      35.056  17.450 138.439  1.00  0.00     0.345 HD
ATOM      6  H   UNL     1      35.963  17.427 137.016  1.00  0.00     0.345 HD
ATOM      7  H   UNL     1      36.710  17.884 138.467  1.00  0.00     0.345 HD
ENDBRANCH   3   4
BRANCH   3   8
ATOM      8  C   UNL     1      35.433  15.210 139.295  1.00  0.00     0.099 C 
ATOM      9  O   UNL     1      34.441  15.857 139.720  1.00  0.00    -0.544 OA
ATOM     10  O   UNL     1      35.692  13.944 139.809  1.00  0.00    -0.544 OA
ENDBRANCH   3   8
ENDBRANCH   1   3
BRANCH   1  11
ATOM     11  C   UNL     1      35.012  14.402 136.523  1.00  0.00     0.006 C 
ATOM     12  C   UNL     1      35.024  12.929 136.096  1.00  0.00     0.004 C 
ENDBRANCH   1  11
TORSDOF 4
ENDMDL
