MODEL 1
REMARK VINA RESULT:    -4.988      0.000      0.000
REMARK INTER + INTRA:          -6.921
REMARK INTER:                  -6.738
REMARK INTRA:                  -0.183
REMARK UNBOUND:                -0.183
REMARK SMILES CCCCCCCC(=O)[O-]
REMARK SMILES IDX 5 1 6 2 7 3 8 4 9 5 10 6 4 7 3 8 2 9 1 10
REMARK H PARENT
REMARK Flexibility Score: inf
ROOT
ATOM      1  C   UNL     1      23.390 -12.981  18.493  1.00  0.00     0.000 C 
ENDROOT
BRANCH   1   2
ATOM      2  C   UNL     1      22.453 -12.057  19.286  1.00  0.00     0.006 C 
BRANCH   2   3
ATOM      3  C   UNL     1      22.726 -12.160  20.790  1.00  0.00     0.053 C 
BRANCH   3   4
ATOM      4  C   UNL     1      23.228 -10.856  21.323  1.00  0.00     0.041 C 
ATOM      5  O   UNL     1      23.062 -10.561  22.536  1.00  0.00    -0.550 OA
ATOM      6  O   UNL     1      23.833  -9.943  20.470  1.00  0.00    -0.550 OA
ENDBRANCH   3   4
ENDBRANCH   2   3
ENDBRANCH   1   2
BRANCH   1   7
ATOM      7  C   UNL     1      23.576 -12.532  17.035  1.00  0.00     0.000 C 
BRANCH   7   8
ATOM      8  C   UNL     1      24.793 -11.609  16.853  1.00  0.00    -0.000 C 
BRANCH   8   9
ATOM      9  C   UNL     1      24.910 -11.065  15.420  1.00  0.00    -0.003 C 
ATOM     10  C   UNL     1      26.354 -11.020  14.919  1.00  0.00     0.004 C 
ENDBRANCH   8   9
ENDBRANCH   7   8
ENDBRANCH   1   7
TORSDOF 6
ENDMDL
MODEL 2
REMARK VINA RESULT:    -4.879      0.697      1.251
REMARK INTER + INTRA:          -6.773
REMARK INTER:                  -6.600
REMARK INTRA:                  -0.173
REMARK UNBOUND:                -0.183
REMARK SMILES CCCCCCCC(=O)[O-]
REMARK SMILES IDX 5 1 6 2 7 3 8 4 9 5 10 6 4 7 3 8 2 9 1 10
REMARK H PARENT
REMARK Flexibility Score: inf
ROOT
ATOM      1  C   UNL     1      22.838 -12.586  18.321  1.00  0.00     0.000 C 
ENDROOT
BRANCH   1   2
ATOM      2  C   UNL     1      23.036 -12.735  19.837  1.00  0.00     0.006 C 
BRANCH   2   3
ATOM      3  C   UNL     1      22.342 -11.599  20.595  1.00  0.00     0.053 C 
BRANCH   3   4
ATOM      4  C   UNL     1      23.351 -10.638  21.139  1.00  0.00     0.041 C 
ATOM      5  O   UNL     1      24.119 -10.016  20.358  1.00  0.00    -0.550 OA
ATOM      6  O   UNL     1      23.479 -10.466  22.511  1.00  0.00    -0.550 OA
ENDBRANCH   3   4
ENDBRANCH   2   3
ENDBRANCH   1   2
BRANCH   1   7
ATOM      7  C   UNL     1      24.104 -12.924  17.519  1.00  0.00     0.000 C 
BRANCH   7   8
ATOM      8  C   UNL     1      24.093 -12.306  16.110  1.00  0.00    -0.000 C 
BRANCH   8   9
ATOM      9  C   UNL     1      24.933 -11.021  16.025  1.00  0.00    -0.003 C 
ATOM     10  C   UNL     1      25.946 -11.050  14.880  1.00  0.00     0.004 C 
ENDBRANCH   8   9
ENDBRANCH   7   8
ENDBRANCH   1   7
TORSDOF 6
ENDMDL
MODEL 3
REMARK VINA RESULT:    -4.810      2.863      5.450
REMARK INTER + INTRA:          -6.680
REMARK INTER:                  -6.482
REMARK INTRA:                  -0.198
REMARK UNBOUND:                -0.183
REMARK SMILES CCCCCCCC(=O)[O-]
REMARK SMILES IDX 5 1 6 2 7 3 8 4 9 5 10 6 4 7 3 8 2 9 1 10
REMARK H PARENT
REMARK Flexibility Score: inf
ROOT
ATOM      1  C   UNL     1      24.026 -12.952  17.887  1.00  0.00     0.000 C 
ENDROOT
BRANCH   1   2
ATOM      2  C   UNL     1      24.018 -12.604  16.391  1.00  0.00     0.006 C 
BRANCH   2   3
ATOM      3  C   UNL     1      24.584 -11.201  16.151  1.00  0.00     0.053 C 
BRANCH   3   4
ATOM      4  C   UNL     1      26.022 -11.277  15.745  1.00  0.00     0.041 C 
ATOM      5  O   UNL     1      26.339 -11.242  14.527  1.00  0.00    -0.550 OA
ATOM      6  O   UNL     1      27.009 -11.439  16.708  1.00  0.00    -0.550 OA
ENDBRANCH   3   4
ENDBRANCH   2   3
ENDBRANCH   1   2
BRANCH   1   7
ATOM      7  C   UNL     1      22.714 -12.571  18.593  1.00  0.00     0.000 C 
BRANCH   7   8
ATOM      8  C   UNL     1      22.924 -11.531  19.707  1.00  0.00    -0.000 C 
BRANCH   8   9
ATOM      9  C   UNL     1      22.649 -12.105  21.107  1.00  0.00    -0.003 C 
ATOM     10  C   UNL     1      22.957 -11.110  22.226  1.00  0.00     0.004 C 
ENDBRANCH   8   9
ENDBRANCH   7   8
ENDBRANCH   1   7
TORSDOF 6
ENDMDL
MODEL 4
REMARK VINA RESULT:    -4.789      2.647      5.187
REMARK INTER + INTRA:          -6.651
REMARK INTER:                  -6.436
REMARK INTRA:                  -0.215
REMARK UNBOUND:                -0.183
REMARK SMILES CCCCCCCC(=O)[O-]
REMARK SMILES IDX 5 1 6 2 7 3 8 4 9 5 10 6 4 7 3 8 2 9 1 10
REMARK H PARENT
REMARK Flexibility Score: inf
ROOT
ATOM      1  C   UNL     1      23.157 -12.362  18.010  1.00  0.00     0.000 C 
ENDROOT
BRANCH   1   2
ATOM      2  C   UNL     1      24.045 -12.848  16.854  1.00  0.00     0.006 C 
BRANCH   2   3
ATOM      3  C   UNL     1      24.412 -11.690  15.921  1.00  0.00     0.053 C 
BRANCH   3   4
ATOM      4  C   UNL     1      25.867 -11.362  16.037  1.00  0.00     0.041 C 
ATOM      5  O   UNL     1      26.477 -11.564  17.120  1.00  0.00    -0.550 OA
ATOM      6  O   UNL     1      26.538 -10.787  14.966  1.00  0.00    -0.550 OA
ENDBRANCH   3   4
ENDBRANCH   2   3
ENDBRANCH   1   2
BRANCH   1   7
ATOM      7  C   UNL     1      23.225 -13.281  19.240  1.00  0.00     0.000 C 
BRANCH   7   8
ATOM      8  C   UNL     1      22.659 -12.615  20.506  1.00  0.00    -0.000 C 
BRANCH   8   9
ATOM      9  C   UNL     1      23.097 -11.148  20.645  1.00  0.00    -0.003 C 
ATOM     10  C   UNL     1      23.137 -10.677  22.099  1.00  0.00     0.004 C 
ENDBRANCH   8   9
ENDBRANCH   7   8
ENDBRANCH   1   7
TORSDOF 6
ENDMDL
MODEL 5
REMARK VINA RESULT:    -4.431      3.385      5.411
REMARK INTER + INTRA:          -6.168
REMARK INTER:                  -5.784
REMARK INTRA:                  -0.384
REMARK UNBOUND:                -0.183
REMARK SMILES CCCCCCCC(=O)[O-]
REMARK SMILES IDX 5 1 6 2 7 3 8 4 9 5 10 6 4 7 3 8 2 9 1 10
REMARK H PARENT
REMARK Flexibility Score: inf
ROOT
ATOM      1  C   UNL     1      24.640 -11.407  16.085  1.00  0.00     0.000 C 
ENDROOT
BRANCH   1   2
ATOM      2  C   UNL     1      25.579 -10.942  17.208  1.00  0.00     0.006 C 
BRANCH   2   3
ATOM      3  C   UNL     1      27.031 -11.325  16.903  1.00  0.00     0.053 C 
BRANCH   3   4
ATOM      4  C   UNL     1      27.546 -10.543  15.736  1.00  0.00     0.041 C 
ATOM      5  O   UNL     1      27.836 -11.129  14.660  1.00  0.00    -0.550 OA
ATOM      6  O   UNL     1      27.754  -9.175  15.853  1.00  0.00    -0.550 OA
ENDBRANCH   3   4
ENDBRANCH   2   3
ENDBRANCH   1   2
BRANCH   1   7
ATOM      7  C   UNL     1      23.785 -12.618  16.487  1.00  0.00     0.000 C 
BRANCH   7   8
ATOM      8  C   UNL     1      23.885 -12.939  17.988  1.00  0.00    -0.000 C 
BRANCH   8   9
ATOM      9  C   UNL     1      22.598 -12.586  18.752  1.00  0.00    -0.003 C 
ATOM     10  C   UNL     1      22.851 -11.662  19.944  1.00  0.00     0.004 C 
ENDBRANCH   8   9
ENDBRANCH   7   8
ENDBRANCH   1   7
TORSDOF 6
ENDMDL
MODEL 6
REMARK VINA RESULT:    -4.205      2.863      4.418
REMARK INTER + INTRA:          -5.863
REMARK INTER:                  -5.513
REMARK INTRA:                  -0.350
REMARK UNBOUND:                -0.183
REMARK SMILES CCCCCCCC(=O)[O-]
REMARK SMILES IDX 5 1 6 2 7 3 8 4 9 5 10 6 4 7 3 8 2 9 1 10
REMARK H PARENT
REMARK Flexibility Score: inf
ROOT
ATOM      1  C   UNL     1      25.871 -10.922  14.844  1.00  0.00     0.000 C 
ENDROOT
BRANCH   1   2
ATOM      2  C   UNL     1      25.028 -11.084  16.118  1.00  0.00     0.006 C 
BRANCH   2   3
ATOM      3  C   UNL     1      24.084 -12.285  16.002  1.00  0.00     0.053 C 
BRANCH   3   4
ATOM      4  C   UNL     1      23.767 -12.836  17.356  1.00  0.00     0.041 C 
ATOM      5  O   UNL     1      24.566 -13.628  17.921  1.00  0.00    -0.550 OA
ATOM      6  O   UNL     1      22.565 -12.515  17.973  1.00  0.00    -0.550 OA
ENDBRANCH   3   4
ENDBRANCH   2   3
ENDBRANCH   1   2
BRANCH   1   7
ATOM      7  C   UNL     1      27.378 -10.850  15.133  1.00  0.00     0.000 C 
BRANCH   7   8
ATOM      8  C   UNL     1      27.719 -11.227  16.585  1.00  0.00    -0.000 C 
BRANCH   8   9
ATOM      9  C   UNL     1      28.423 -10.086  17.339  1.00  0.00    -0.003 C 
ATOM     10  C   UNL     1      27.460  -9.256  18.189  1.00  0.00     0.004 C 
ENDBRANCH   8   9
ENDBRANCH   7   8
ENDBRANCH   1   7
TORSDOF 6
ENDMDL
MODEL 7
REMARK VINA RESULT:    -4.201      2.728      5.017
REMARK INTER + INTRA:          -5.857
REMARK INTER:                  -5.560
REMARK INTRA:                  -0.298
REMARK UNBOUND:                -0.183
REMARK SMILES CCCCCCCC(=O)[O-]
REMARK SMILES IDX 5 1 6 2 7 3 8 4 9 5 10 6 4 7 3 8 2 9 1 10
REMARK H PARENT
REMARK Flexibility Score: inf
ROOT
ATOM      1  C   UNL     1      26.615 -11.039  14.918  1.00  0.00     0.000 C 
ENDROOT
BRANCH   1   2
ATOM      2  C   UNL     1      27.577 -10.882  16.105  1.00  0.00     0.006 C 
BRANCH   2   3
ATOM      3  C   UNL     1      27.876  -9.404  16.376  1.00  0.00     0.053 C 
BRANCH   3   4
ATOM      4  C   UNL     1      27.744  -9.101  17.835  1.00  0.00     0.041 C 
ATOM      5  O   UNL     1      27.459 -10.019  18.650  1.00  0.00    -0.550 OA
ATOM      6  O   UNL     1      27.885  -7.797  18.291  1.00  0.00    -0.550 OA
ENDBRANCH   3   4
ENDBRANCH   2   3
ENDBRANCH   1   2
BRANCH   1   7
ATOM      7  C   UNL     1      25.138 -10.992  15.340  1.00  0.00     0.000 C 
BRANCH   7   8
ATOM      8  C   UNL     1      24.896 -11.634  16.717  1.00  0.00    -0.000 C 
BRANCH   8   9
ATOM      9  C   UNL     1      23.638 -12.517  16.742  1.00  0.00    -0.003 C 
ATOM     10  C   UNL     1      22.959 -12.542  18.112  1.00  0.00     0.004 C 
ENDBRANCH   8   9
ENDBRANCH   7   8
ENDBRANCH   1   7
TORSDOF 6
ENDMDL
MODEL 8
REMARK VINA RESULT:    -4.199      2.587      4.612
REMARK INTER + INTRA:          -5.855
REMARK INTER:                  -5.484
REMARK INTRA:                  -0.371
REMARK UNBOUND:                -0.183
REMARK SMILES CCCCCCCC(=O)[O-]
REMARK SMILES IDX 5 1 6 2 7 3 8 4 9 5 10 6 4 7 3 8 2 9 1 10
REMARK H PARENT
REMARK Flexibility Score: inf
ROOT
ATOM      1  C   UNL     1      25.330 -10.821  16.366  1.00  0.00     0.000 C 
ENDROOT
BRANCH   1   2
ATOM      2  C   UNL     1      26.828 -11.102  16.178  1.00  0.00     0.006 C 
BRANCH   2   3
ATOM      3  C   UNL     1      27.557 -11.115  17.526  1.00  0.00     0.053 C 
BRANCH   3   4
ATOM      4  C   UNL     1      27.552  -9.750  18.138  1.00  0.00     0.041 C 
ATOM      5  O   UNL     1      27.055  -9.570  19.281  1.00  0.00    -0.550 OA
ATOM      6  O   UNL     1      28.051  -8.667  17.427  1.00  0.00    -0.550 OA
ENDBRANCH   3   4
ENDBRANCH   2   3
ENDBRANCH   1   2
BRANCH   1   7
ATOM      7  C   UNL     1      24.438 -11.858  15.666  1.00  0.00     0.000 C 
BRANCH   7   8
ATOM      8  C   UNL     1      23.691 -12.762  16.661  1.00  0.00    -0.000 C 
BRANCH   8   9
ATOM      9  C   UNL     1      23.786 -12.250  18.108  1.00  0.00    -0.003 C 
ATOM     10  C   UNL     1      22.570 -12.631  18.953  1.00  0.00     0.004 C 
ENDBRANCH   8   9
ENDBRANCH   7   8
ENDBRANCH   1   7
TORSDOF 6
ENDMDL
MODEL 9
REMARK VINA RESULT:    -4.016      3.350      5.245
REMARK INTER + INTRA:          -5.607
REMARK INTER:                  -5.132
REMARK INTRA:                  -0.475
REMARK UNBOUND:                -0.183
REMARK SMILES CCCCCCCC(=O)[O-]
REMARK SMILES IDX 5 1 6 2 7 3 8 4 9 5 10 6 4 7 3 8 2 9 1 10
REMARK H PARENT
REMARK Flexibility Score: inf
ROOT
ATOM      1  C   UNL     1      27.364 -10.262  15.322  1.00  0.00     0.000 C 
ENDROOT
BRANCH   1   2
ATOM      2  C   UNL     1      26.225 -11.201  14.898  1.00  0.00     0.006 C 
BRANCH   2   3
ATOM      3  C   UNL     1      24.923 -10.845  15.625  1.00  0.00     0.053 C 
BRANCH   3   4
ATOM      4  C   UNL     1      24.403 -12.028  16.378  1.00  0.00     0.041 C 
ATOM      5  O   UNL     1      23.330 -12.583  16.023  1.00  0.00    -0.550 OA
ATOM      6  O   UNL     1      25.075 -12.487  17.503  1.00  0.00    -0.550 OA
ENDBRANCH   3   4
ENDBRANCH   2   3
ENDBRANCH   1   2
BRANCH   1   7
ATOM      7  C   UNL     1      28.028 -10.690  16.640  1.00  0.00     0.000 C 
BRANCH   7   8
ATOM      8  C   UNL     1      28.718  -9.519  17.361  1.00  0.00    -0.000 C 
BRANCH   8   9
ATOM      9  C   UNL     1      27.769  -8.772  18.313  1.00  0.00    -0.003 C 
ATOM     10  C   UNL     1      26.773  -9.702  19.006  1.00  0.00     0.004 C 
ENDBRANCH   8   9
ENDBRANCH   7   8
ENDBRANCH   1   7
TORSDOF 6
ENDMDL
