MODEL 1
REMARK VINA RESULT:    -3.738      0.000      0.000
REMARK INTER + INTRA:          -8.983
REMARK INTER:                  -7.234
REMARK INTRA:                  -1.749
REMARK UNBOUND:                -1.749
REMARK SMILES CCCCCCCCCCCCCCCCCC(=O)[O-]
REMARK SMILES IDX 10 1 11 2 12 3 13 4 14 5 15 6 16 7 17 8 18 9 19 10 20 11
REMARK SMILES IDX 9 12 8 13 7 14 6 15 5 16 4 17 3 18 2 19 1 20
REMARK H PARENT
REMARK Flexibility Score: inf
ROOT
ATOM      1  C   UNL     1      -4.517  -3.319  31.485  1.00  0.00     0.000 C 
ENDROOT
BRANCH   1   2
ATOM      2  C   UNL     1      -4.145  -4.293  32.610  1.00  0.00     0.000 C 
BRANCH   2   3
ATOM      3  C   UNL     1      -2.678  -4.107  33.037  1.00  0.00     0.000 C 
BRANCH   3   4
ATOM      4  C   UNL     1      -1.879  -5.420  33.008  1.00  0.00     0.000 C 
BRANCH   4   5
ATOM      5  C   UNL     1      -1.378  -5.782  31.600  1.00  0.00     0.000 C 
BRANCH   5   6
ATOM      6  C   UNL     1      -1.947  -7.135  31.144  1.00  0.00     0.000 C 
BRANCH   6   7
ATOM      7  C   UNL     1      -3.101  -6.991  30.134  1.00  0.00     0.006 C 
BRANCH   7   8
ATOM      8  C   UNL     1      -4.437  -7.584  30.607  1.00  0.00     0.053 C 
BRANCH   8   9
ATOM      9  C   UNL     1      -4.662  -8.965  30.074  1.00  0.00     0.041 C 
ATOM     10  O   UNL     1      -5.516  -9.722  30.608  1.00  0.00    -0.550 OA
ATOM     11  O   UNL     1      -3.948  -9.409  28.964  1.00  0.00    -0.550 OA
ENDBRANCH   8   9
ENDBRANCH   7   8
ENDBRANCH   6   7
ENDBRANCH   5   6
ENDBRANCH   4   5
ENDBRANCH   3   4
ENDBRANCH   2   3
ENDBRANCH   1   2
BRANCH   1  12
ATOM     12  C   UNL     1      -3.820  -1.953  31.614  1.00  0.00     0.000 C 
BRANCH  12  13
ATOM     13  C   UNL     1      -4.663  -0.883  32.341  1.00  0.00    -0.000 C 
BRANCH  13  14
ATOM     14  C   UNL     1      -4.345  -0.808  33.846  1.00  0.00    -0.000 C 
BRANCH  14  15
ATOM     15  C   UNL     1      -2.837  -0.652  34.119  1.00  0.00    -0.000 C 
BRANCH  15  16
ATOM     16  C   UNL     1      -2.561   0.200  35.376  1.00  0.00    -0.000 C 
BRANCH  16  17
ATOM     17  C   UNL     1      -3.602   1.314  35.586  1.00  0.00    -0.000 C 
BRANCH  17  18
ATOM     18  C   UNL     1      -3.900   1.575  37.074  1.00  0.00    -0.000 C 
BRANCH  18  19
ATOM     19  C   UNL     1      -3.616   0.345  37.954  1.00  0.00    -0.003 C 
ATOM     20  C   UNL     1      -4.874  -0.476  38.247  1.00  0.00     0.004 C 
ENDBRANCH  18  19
ENDBRANCH  17  18
ENDBRANCH  16  17
ENDBRANCH  15  16
ENDBRANCH  14  15
ENDBRANCH  13  14
ENDBRANCH  12  13
ENDBRANCH   1  12
TORSDOF 16
ENDMDL
MODEL 2
REMARK VINA RESULT:    -3.659      3.770      8.389
REMARK INTER + INTRA:          -8.831
REMARK INTER:                  -7.309
REMARK INTRA:                  -1.522
REMARK UNBOUND:                -1.749
REMARK SMILES CCCCCCCCCCCCCCCCCC(=O)[O-]
REMARK SMILES IDX 10 1 11 2 12 3 13 4 14 5 15 6 16 7 17 8 18 9 19 10 20 11
REMARK SMILES IDX 9 12 8 13 7 14 6 15 5 16 4 17 3 18 2 19 1 20
REMARK H PARENT
REMARK Flexibility Score: inf
ROOT
ATOM      1  C   UNL     1      -3.177  -1.451  33.383  1.00  0.00     0.000 C 
ENDROOT
BRANCH   1   2
ATOM      2  C   UNL     1      -3.557  -0.133  34.069  1.00  0.00     0.000 C 
BRANCH   2   3
ATOM      3  C   UNL     1      -2.627   0.155  35.261  1.00  0.00     0.000 C 
BRANCH   3   4
ATOM      4  C   UNL     1      -2.834   1.559  35.851  1.00  0.00     0.000 C 
BRANCH   4   5
ATOM      5  C   UNL     1      -3.606   1.538  37.181  1.00  0.00     0.000 C 
BRANCH   5   6
ATOM      6  C   UNL     1      -3.485   0.168  37.867  1.00  0.00     0.000 C 
BRANCH   6   7
ATOM      7  C   UNL     1      -4.852  -0.440  38.237  1.00  0.00     0.006 C 
BRANCH   7   8
ATOM      8  C   UNL     1      -5.706  -0.863  37.031  1.00  0.00     0.053 C 
BRANCH   8   9
ATOM      9  C   UNL     1      -7.062  -1.347  37.442  1.00  0.00     0.041 C 
ATOM     10  O   UNL     1      -8.064  -1.130  36.709  1.00  0.00    -0.550 OA
ATOM     11  O   UNL     1      -7.217  -2.066  38.624  1.00  0.00    -0.550 OA
ENDBRANCH   8   9
ENDBRANCH   7   8
ENDBRANCH   6   7
ENDBRANCH   5   6
ENDBRANCH   4   5
ENDBRANCH   3   4
ENDBRANCH   2   3
ENDBRANCH   1   2
BRANCH   1  12
ATOM     12  C   UNL     1      -4.286  -2.515  33.462  1.00  0.00     0.000 C 
BRANCH  12  13
ATOM     13  C   UNL     1      -3.848  -3.918  32.990  1.00  0.00    -0.000 C 
BRANCH  13  14
ATOM     14  C   UNL     1      -2.370  -3.958  32.561  1.00  0.00    -0.000 C 
BRANCH  14  15
ATOM     15  C   UNL     1      -1.695  -5.299  32.910  1.00  0.00    -0.000 C 
BRANCH  15  16
ATOM     16  C   UNL     1      -1.327  -6.108  31.648  1.00  0.00    -0.000 C 
BRANCH  16  17
ATOM     17  C   UNL     1      -1.535  -5.316  30.346  1.00  0.00    -0.000 C 
BRANCH  17  18
ATOM     18  C   UNL     1      -2.736  -5.826  29.526  1.00  0.00    -0.000 C 
BRANCH  18  19
ATOM     19  C   UNL     1      -3.357  -7.100  30.124  1.00  0.00    -0.003 C 
ATOM     20  C   UNL     1      -4.791  -6.887  30.613  1.00  0.00     0.004 C 
ENDBRANCH  18  19
ENDBRANCH  17  18
ENDBRANCH  16  17
ENDBRANCH  15  16
ENDBRANCH  14  15
ENDBRANCH  13  14
ENDBRANCH  12  13
ENDBRANCH   1  12
TORSDOF 16
ENDMDL
MODEL 3
REMARK VINA RESULT:    -3.654      7.771     10.477
REMARK INTER + INTRA:          -8.820
REMARK INTER:                  -6.124
REMARK INTRA:                  -2.696
REMARK UNBOUND:                -1.749
REMARK SMILES CCCCCCCCCCCCCCCCCC(=O)[O-]
REMARK SMILES IDX 10 1 11 2 12 3 13 4 14 5 15 6 16 7 17 8 18 9 19 10 20 11
REMARK SMILES IDX 9 12 8 13 7 14 6 15 5 16 4 17 3 18 2 19 1 20
REMARK H PARENT
REMARK Flexibility Score: inf
ROOT
ATOM      1  C   UNL     1      -7.763   0.105  38.233  1.00  0.00     0.000 C 
ENDROOT
BRANCH   1   2
ATOM      2  C   UNL     1      -7.636   0.304  39.749  1.00  0.00     0.000 C 
BRANCH   2   3
ATOM      3  C   UNL     1      -7.527   1.797  40.101  1.00  0.00     0.000 C 
BRANCH   3   4
ATOM      4  C   UNL     1      -8.112   2.710  39.011  1.00  0.00     0.000 C 
BRANCH   4   5
ATOM      5  C   UNL     1      -7.839   4.201  39.272  1.00  0.00     0.000 C 
BRANCH   5   6
ATOM      6  C   UNL     1      -7.945   5.016  37.974  1.00  0.00     0.000 C 
BRANCH   6   7
ATOM      7  C   UNL     1      -8.875   4.364  36.932  1.00  0.00     0.006 C 
BRANCH   7   8
ATOM      8  C   UNL     1      -9.902   5.323  36.310  1.00  0.00     0.053 C 
BRANCH   8   9
ATOM      9  C   UNL     1     -10.464   4.793  35.027  1.00  0.00     0.041 C 
ATOM     10  O   UNL     1     -11.482   4.051  35.037  1.00  0.00    -0.550 OA
ATOM     11  O   UNL     1      -9.879   5.143  33.812  1.00  0.00    -0.550 OA
ENDBRANCH   8   9
ENDBRANCH   7   8
ENDBRANCH   6   7
ENDBRANCH   5   6
ENDBRANCH   4   5
ENDBRANCH   3   4
ENDBRANCH   2   3
ENDBRANCH   1   2
BRANCH   1  12
ATOM     12  C   UNL     1      -6.678  -0.819  37.652  1.00  0.00     0.000 C 
BRANCH  12  13
ATOM     13  C   UNL     1      -5.382  -0.870  38.488  1.00  0.00    -0.000 C 
BRANCH  13  14
ATOM     14  C   UNL     1      -4.327   0.140  38.000  1.00  0.00    -0.000 C 
BRANCH  14  15
ATOM     15  C   UNL     1      -4.239   0.198  36.464  1.00  0.00    -0.000 C 
BRANCH  15  16
ATOM     16  C   UNL     1      -4.563   1.604  35.917  1.00  0.00    -0.000 C 
BRANCH  16  17
ATOM     17  C   UNL     1      -5.146   2.544  36.987  1.00  0.00    -0.000 C 
BRANCH  17  18
ATOM     18  C   UNL     1      -4.492   3.938  36.972  1.00  0.00    -0.000 C 
BRANCH  18  19
ATOM     19  C   UNL     1      -4.236   4.483  38.388  1.00  0.00    -0.003 C 
ATOM     20  C   UNL     1      -4.162   3.376  39.443  1.00  0.00     0.004 C 
ENDBRANCH  18  19
ENDBRANCH  17  18
ENDBRANCH  16  17
ENDBRANCH  15  16
ENDBRANCH  14  15
ENDBRANCH  13  14
ENDBRANCH  12  13
ENDBRANCH   1  12
TORSDOF 16
ENDMDL
MODEL 4
REMARK VINA RESULT:    -3.649      7.095     10.477
REMARK INTER + INTRA:          -8.811
REMARK INTER:                  -5.580
REMARK INTRA:                  -3.231
REMARK UNBOUND:                -1.749
REMARK SMILES CCCCCCCCCCCCCCCCCC(=O)[O-]
REMARK SMILES IDX 10 1 11 2 12 3 13 4 14 5 15 6 16 7 17 8 18 9 19 10 20 11
REMARK SMILES IDX 9 12 8 13 7 14 6 15 5 16 4 17 3 18 2 19 1 20
REMARK H PARENT
REMARK Flexibility Score: inf
ROOT
ATOM      1  C   UNL     1      -3.806   2.211  38.801  1.00  0.00     0.000 C 
ENDROOT
BRANCH   1   2
ATOM      2  C   UNL     1      -4.825   1.142  38.386  1.00  0.00     0.000 C 
BRANCH   2   3
ATOM      3  C   UNL     1      -6.264   1.647  38.584  1.00  0.00     0.000 C 
BRANCH   3   4
ATOM      4  C   UNL     1      -6.351   2.829  39.563  1.00  0.00     0.000 C 
BRANCH   4   5
ATOM      5  C   UNL     1      -7.728   3.516  39.547  1.00  0.00     0.000 C 
BRANCH   5   6
ATOM      6  C   UNL     1      -7.674   4.837  38.764  1.00  0.00     0.000 C 
BRANCH   6   7
ATOM      7  C   UNL     1      -8.663   4.874  37.582  1.00  0.00     0.006 C 
BRANCH   7   8
ATOM      8  C   UNL     1      -9.258   3.507  37.209  1.00  0.00     0.053 C 
BRANCH   8   9
ATOM      9  C   UNL     1     -10.576   3.637  36.510  1.00  0.00     0.041 C 
ATOM     10  O   UNL     1     -11.633   3.808  37.173  1.00  0.00    -0.550 OA
ATOM     11  O   UNL     1     -10.634   3.599  35.119  1.00  0.00    -0.550 OA
ENDBRANCH   8   9
ENDBRANCH   7   8
ENDBRANCH   6   7
ENDBRANCH   5   6
ENDBRANCH   4   5
ENDBRANCH   3   4
ENDBRANCH   2   3
ENDBRANCH   1   2
BRANCH   1  12
ATOM     12  C   UNL     1      -3.235   2.997  37.607  1.00  0.00     0.000 C 
BRANCH  12  13
ATOM     13  C   UNL     1      -3.567   4.504  37.629  1.00  0.00    -0.000 C 
BRANCH  13  14
ATOM     14  C   UNL     1      -4.701   4.872  36.655  1.00  0.00    -0.000 C 
BRANCH  14  15
ATOM     15  C   UNL     1      -4.740   3.944  35.425  1.00  0.00    -0.000 C 
BRANCH  15  16
ATOM     16  C   UNL     1      -6.144   3.345  35.196  1.00  0.00    -0.000 C 
BRANCH  16  17
ATOM     17  C   UNL     1      -6.114   1.829  34.933  1.00  0.00    -0.000 C 
BRANCH  17  18
ATOM     18  C   UNL     1      -4.801   1.367  34.274  1.00  0.00    -0.000 C 
BRANCH  18  19
ATOM     19  C   UNL     1      -4.211   0.118  34.952  1.00  0.00    -0.003 C 
ATOM     20  C   UNL     1      -2.713   0.251  35.236  1.00  0.00     0.004 C 
ENDBRANCH  18  19
ENDBRANCH  17  18
ENDBRANCH  16  17
ENDBRANCH  15  16
ENDBRANCH  14  15
ENDBRANCH  13  14
ENDBRANCH  12  13
ENDBRANCH   1  12
TORSDOF 16
ENDMDL
MODEL 5
REMARK VINA RESULT:    -3.647      7.819     10.284
REMARK INTER + INTRA:          -8.807
REMARK INTER:                  -5.754
REMARK INTRA:                  -3.053
REMARK UNBOUND:                -1.749
REMARK SMILES CCCCCCCCCCCCCCCCCC(=O)[O-]
REMARK SMILES IDX 10 1 11 2 12 3 13 4 14 5 15 6 16 7 17 8 18 9 19 10 20 11
REMARK SMILES IDX 9 12 8 13 7 14 6 15 5 16 4 17 3 18 2 19 1 20
REMARK H PARENT
REMARK Flexibility Score: inf
ROOT
ATOM      1  C   UNL     1      -3.585   0.390  38.010  1.00  0.00     0.000 C 
ENDROOT
BRANCH   1   2
ATOM      2  C   UNL     1      -3.459   1.856  38.445  1.00  0.00     0.000 C 
BRANCH   2   3
ATOM      3  C   UNL     1      -4.826   2.426  38.861  1.00  0.00     0.000 C 
BRANCH   3   4
ATOM      4  C   UNL     1      -5.982   1.445  38.610  1.00  0.00     0.000 C 
BRANCH   4   5
ATOM      5  C   UNL     1      -7.322   2.156  38.355  1.00  0.00     0.000 C 
BRANCH   5   6
ATOM      6  C   UNL     1      -7.323   3.564  38.971  1.00  0.00     0.000 C 
BRANCH   6   7
ATOM      7  C   UNL     1      -8.401   4.483  38.362  1.00  0.00     0.006 C 
BRANCH   7   8
ATOM      8  C   UNL     1      -8.797   4.129  36.920  1.00  0.00     0.053 C 
BRANCH   8   9
ATOM      9  C   UNL     1     -10.091   4.766  36.518  1.00  0.00     0.041 C 
ATOM     10  O   UNL     1     -10.098   5.901  35.970  1.00  0.00    -0.550 OA
ATOM     11  O   UNL     1     -11.293   4.093  36.722  1.00  0.00    -0.550 OA
ENDBRANCH   8   9
ENDBRANCH   7   8
ENDBRANCH   6   7
ENDBRANCH   5   6
ENDBRANCH   4   5
ENDBRANCH   3   4
ENDBRANCH   2   3
ENDBRANCH   1   2
BRANCH   1  12
ATOM     12  C   UNL     1      -3.286   0.176  36.516  1.00  0.00     0.000 C 
BRANCH  12  13
ATOM     13  C   UNL     1      -2.722   1.422  35.802  1.00  0.00    -0.000 C 
BRANCH  13  14
ATOM     14  C   UNL     1      -3.608   1.879  34.629  1.00  0.00    -0.000 C 
BRANCH  14  15
ATOM     15  C   UNL     1      -5.078   1.453  34.805  1.00  0.00    -0.000 C 
BRANCH  15  16
ATOM     16  C   UNL     1      -6.013   2.664  35.004  1.00  0.00    -0.000 C 
BRANCH  16  17
ATOM     17  C   UNL     1      -5.276   4.012  34.918  1.00  0.00    -0.000 C 
BRANCH  17  18
ATOM     18  C   UNL     1      -5.221   4.745  36.272  1.00  0.00    -0.000 C 
BRANCH  18  19
ATOM     19  C   UNL     1      -3.903   5.515  36.470  1.00  0.00    -0.003 C 
ATOM     20  C   UNL     1      -3.044   5.553  35.205  1.00  0.00     0.004 C 
ENDBRANCH  18  19
ENDBRANCH  17  18
ENDBRANCH  16  17
ENDBRANCH  15  16
ENDBRANCH  14  15
ENDBRANCH  13  14
ENDBRANCH  12  13
ENDBRANCH   1  12
TORSDOF 16
ENDMDL
MODEL 6
REMARK VINA RESULT:    -3.613      8.278     10.515
REMARK INTER + INTRA:          -8.741
REMARK INTER:                  -6.210
REMARK INTRA:                  -2.531
REMARK UNBOUND:                -1.749
REMARK SMILES CCCCCCCCCCCCCCCCCC(=O)[O-]
REMARK SMILES IDX 10 1 11 2 12 3 13 4 14 5 15 6 16 7 17 8 18 9 19 10 20 11
REMARK SMILES IDX 9 12 8 13 7 14 6 15 5 16 4 17 3 18 2 19 1 20
REMARK H PARENT
REMARK Flexibility Score: inf
ROOT
ATOM      1  C   UNL     1      -8.847   1.012  37.767  1.00  0.00     0.000 C 
ENDROOT
BRANCH   1   2
ATOM      2  C   UNL     1      -8.242  -0.398  37.800  1.00  0.00     0.000 C 
BRANCH   2   3
ATOM      3  C   UNL     1      -7.620  -0.698  39.174  1.00  0.00     0.000 C 
BRANCH   3   4
ATOM      4  C   UNL     1      -6.174  -1.211  39.074  1.00  0.00     0.000 C 
BRANCH   4   5
ATOM      5  C   UNL     1      -5.425  -0.648  37.854  1.00  0.00     0.000 C 
BRANCH   5   6
ATOM      6  C   UNL     1      -4.376   0.389  38.284  1.00  0.00     0.000 C 
BRANCH   6   7
ATOM      7  C   UNL     1      -4.962   1.806  38.437  1.00  0.00     0.006 C 
BRANCH   7   8
ATOM      8  C   UNL     1      -3.999   2.827  39.065  1.00  0.00     0.053 C 
BRANCH   8   9
ATOM      9  C   UNL     1      -3.675   3.948  38.126  1.00  0.00     0.041 C 
ATOM     10  O   UNL     1      -4.596   4.661  37.646  1.00  0.00    -0.550 OA
ATOM     11  O   UNL     1      -2.350   4.226  37.803  1.00  0.00    -0.550 OA
ENDBRANCH   8   9
ENDBRANCH   7   8
ENDBRANCH   6   7
ENDBRANCH   5   6
ENDBRANCH   4   5
ENDBRANCH   3   4
ENDBRANCH   2   3
ENDBRANCH   1   2
BRANCH   1  12
ATOM     12  C   UNL     1      -8.695   1.765  39.101  1.00  0.00     0.000 C 
BRANCH  12  13
ATOM     13  C   UNL     1      -8.402   3.272  38.943  1.00  0.00    -0.000 C 
BRANCH  13  14
ATOM     14  C   UNL     1      -8.294   3.698  37.468  1.00  0.00    -0.000 C 
BRANCH  14  15
ATOM     15  C   UNL     1      -8.821   5.127  37.231  1.00  0.00    -0.000 C 
BRANCH  15  16
ATOM     16  C   UNL     1     -10.115   5.136  36.391  1.00  0.00    -0.000 C 
BRANCH  16  17
ATOM     17  C   UNL     1     -10.557   3.728  35.955  1.00  0.00    -0.000 C 
BRANCH  17  18
ATOM     18  C   UNL     1     -12.000   3.400  36.382  1.00  0.00    -0.000 C 
BRANCH  18  19
ATOM     19  C   UNL     1     -12.154   3.309  37.910  1.00  0.00    -0.003 C 
ATOM     20  C   UNL     1     -12.452   1.887  38.391  1.00  0.00     0.004 C 
ENDBRANCH  18  19
ENDBRANCH  17  18
ENDBRANCH  16  17
ENDBRANCH  15  16
ENDBRANCH  14  15
ENDBRANCH  13  14
ENDBRANCH  12  13
ENDBRANCH   1  12
TORSDOF 16
ENDMDL
MODEL 7
REMARK VINA RESULT:    -3.602      7.256      9.914
REMARK INTER + INTRA:          -8.721
REMARK INTER:                  -6.367
REMARK INTRA:                  -2.354
REMARK UNBOUND:                -1.749
REMARK SMILES CCCCCCCCCCCCCCCCCC(=O)[O-]
REMARK SMILES IDX 10 1 11 2 12 3 13 4 14 5 15 6 16 7 17 8 18 9 19 10 20 11
REMARK SMILES IDX 9 12 8 13 7 14 6 15 5 16 4 17 3 18 2 19 1 20
REMARK H PARENT
REMARK Flexibility Score: inf
ROOT
ATOM      1  C   UNL     1      -7.241   2.594  37.173  1.00  0.00     0.000 C 
ENDROOT
BRANCH   1   2
ATOM      2  C   UNL     1      -6.566   3.413  38.281  1.00  0.00     0.000 C 
BRANCH   2   3
ATOM      3  C   UNL     1      -5.574   2.549  39.078  1.00  0.00     0.000 C 
BRANCH   3   4
ATOM      4  C   UNL     1      -4.340   2.146  38.255  1.00  0.00     0.000 C 
BRANCH   4   5
ATOM      5  C   UNL     1      -4.062   0.634  38.299  1.00  0.00     0.000 C 
BRANCH   5   6
ATOM      6  C   UNL     1      -4.733  -0.084  37.118  1.00  0.00     0.000 C 
BRANCH   6   7
ATOM      7  C   UNL     1      -5.993  -0.870  37.531  1.00  0.00     0.006 C 
BRANCH   7   8
ATOM      8  C   UNL     1      -6.109  -1.135  39.040  1.00  0.00     0.053 C 
BRANCH   8   9
ATOM      9  C   UNL     1      -7.444  -1.702  39.412  1.00  0.00     0.041 C 
ATOM     10  O   UNL     1      -8.452  -0.950  39.498  1.00  0.00    -0.550 OA
ATOM     11  O   UNL     1      -7.584  -3.068  39.638  1.00  0.00    -0.550 OA
ENDBRANCH   8   9
ENDBRANCH   7   8
ENDBRANCH   6   7
ENDBRANCH   5   6
ENDBRANCH   4   5
ENDBRANCH   3   4
ENDBRANCH   2   3
ENDBRANCH   1   2
BRANCH   1  12
ATOM     12  C   UNL     1      -8.598   2.006  37.598  1.00  0.00     0.000 C 
BRANCH  12  13
ATOM     13  C   UNL     1      -9.280   2.768  38.753  1.00  0.00    -0.000 C 
BRANCH  13  14
ATOM     14  C   UNL     1     -10.440   1.972  39.379  1.00  0.00    -0.000 C 
BRANCH  14  15
ATOM     15  C   UNL     1     -11.610   1.772  38.396  1.00  0.00    -0.000 C 
BRANCH  15  16
ATOM     16  C   UNL     1     -12.407   3.074  38.171  1.00  0.00    -0.000 C 
BRANCH  16  17
ATOM     17  C   UNL     1     -12.727   3.333  36.688  1.00  0.00    -0.000 C 
BRANCH  17  18
ATOM     18  C   UNL     1     -11.511   3.106  35.770  1.00  0.00    -0.000 C 
BRANCH  18  19
ATOM     19  C   UNL     1     -10.958   4.420  35.192  1.00  0.00    -0.003 C 
ATOM     20  C   UNL     1     -10.060   5.169  36.179  1.00  0.00     0.004 C 
ENDBRANCH  18  19
ENDBRANCH  17  18
ENDBRANCH  16  17
ENDBRANCH  15  16
ENDBRANCH  14  15
ENDBRANCH  13  14
ENDBRANCH  12  13
ENDBRANCH   1  12
TORSDOF 16
ENDMDL
MODEL 8
REMARK VINA RESULT:    -3.602      7.957     10.855
REMARK INTER + INTRA:          -8.719
REMARK INTER:                  -6.344
REMARK INTRA:                  -2.375
REMARK UNBOUND:                -1.749
REMARK SMILES CCCCCCCCCCCCCCCCCC(=O)[O-]
REMARK SMILES IDX 10 1 11 2 12 3 13 4 14 5 15 6 16 7 17 8 18 9 19 10 20 11
REMARK SMILES IDX 9 12 8 13 7 14 6 15 5 16 4 17 3 18 2 19 1 20
REMARK H PARENT
REMARK Flexibility Score: inf
ROOT
ATOM      1  C   UNL     1      -8.437   2.843  40.117  1.00  0.00     0.000 C 
ENDROOT
BRANCH   1   2
ATOM      2  C   UNL     1      -7.347   3.897  39.881  1.00  0.00     0.000 C 
BRANCH   2   3
ATOM      3  C   UNL     1      -7.680   4.770  38.659  1.00  0.00     0.000 C 
BRANCH   3   4
ATOM      4  C   UNL     1      -6.523   4.849  37.650  1.00  0.00     0.000 C 
BRANCH   4   5
ATOM      5  C   UNL     1      -6.727   3.928  36.435  1.00  0.00     0.000 C 
BRANCH   5   6
ATOM      6  C   UNL     1      -5.945   2.616  36.601  1.00  0.00     0.000 C 
BRANCH   6   7
ATOM      7  C   UNL     1      -4.626   2.798  37.376  1.00  0.00     0.006 C 
BRANCH   7   8
ATOM      8  C   UNL     1      -4.447   1.835  38.560  1.00  0.00     0.053 C 
BRANCH   8   9
ATOM      9  C   UNL     1      -4.259   0.418  38.112  1.00  0.00     0.041 C 
ATOM     10  O   UNL     1      -3.183   0.063  37.561  1.00  0.00    -0.550 OA
ATOM     11  O   UNL     1      -5.264  -0.521  38.329  1.00  0.00    -0.550 OA
ENDBRANCH   8   9
ENDBRANCH   7   8
ENDBRANCH   6   7
ENDBRANCH   5   6
ENDBRANCH   4   5
ENDBRANCH   3   4
ENDBRANCH   2   3
ENDBRANCH   1   2
BRANCH   1  12
ATOM     12  C   UNL     1      -8.431   1.722  39.063  1.00  0.00     0.000 C 
BRANCH  12  13
ATOM     13  C   UNL     1      -9.829   1.152  38.742  1.00  0.00    -0.000 C 
BRANCH  13  14
ATOM     14  C   UNL     1     -10.959   1.952  39.416  1.00  0.00    -0.000 C 
BRANCH  14  15
ATOM     15  C   UNL     1     -12.234   2.005  38.553  1.00  0.00    -0.000 C 
BRANCH  15  16
ATOM     16  C   UNL     1     -12.440   3.391  37.907  1.00  0.00    -0.000 C 
BRANCH  16  17
ATOM     17  C   UNL     1     -11.781   3.512  36.522  1.00  0.00    -0.000 C 
BRANCH  17  18
ATOM     18  C   UNL     1     -10.410   4.212  36.577  1.00  0.00    -0.000 C 
BRANCH  18  19
ATOM     19  C   UNL     1     -10.264   5.303  35.502  1.00  0.00    -0.003 C 
ATOM     20  C   UNL     1     -10.997   4.957  34.204  1.00  0.00     0.004 C 
ENDBRANCH  18  19
ENDBRANCH  17  18
ENDBRANCH  16  17
ENDBRANCH  15  16
ENDBRANCH  14  15
ENDBRANCH  13  14
ENDBRANCH  12  13
ENDBRANCH   1  12
TORSDOF 16
ENDMDL
MODEL 9
REMARK VINA RESULT:    -3.592      4.963      9.521
REMARK INTER + INTRA:          -8.700
REMARK INTER:                  -7.147
REMARK INTRA:                  -1.552
REMARK UNBOUND:                -1.749
REMARK SMILES CCCCCCCCCCCCCCCCCC(=O)[O-]
REMARK SMILES IDX 10 1 11 2 12 3 13 4 14 5 15 6 16 7 17 8 18 9 19 10 20 11
REMARK SMILES IDX 9 12 8 13 7 14 6 15 5 16 4 17 3 18 2 19 1 20
REMARK H PARENT
REMARK Flexibility Score: inf
ROOT
ATOM      1  C   UNL     1      -3.864  -1.406  33.682  1.00  0.00     0.000 C 
ENDROOT
BRANCH   1   2
ATOM      2  C   UNL     1      -2.732  -0.480  34.146  1.00  0.00     0.000 C 
BRANCH   2   3
ATOM      3  C   UNL     1      -3.079   0.183  35.490  1.00  0.00     0.000 C 
BRANCH   3   4
ATOM      4  C   UNL     1      -4.510  -0.130  35.956  1.00  0.00     0.000 C 
BRANCH   4   5
ATOM      5  C   UNL     1      -4.675  -0.034  37.483  1.00  0.00     0.000 C 
BRANCH   5   6
ATOM      6  C   UNL     1      -3.454   0.641  38.126  1.00  0.00     0.000 C 
BRANCH   6   7
ATOM      7  C   UNL     1      -3.816   1.925  38.898  1.00  0.00     0.006 C 
BRANCH   7   8
ATOM      8  C   UNL     1      -5.191   2.512  38.543  1.00  0.00     0.053 C 
BRANCH   8   9
ATOM      9  C   UNL     1      -5.088   3.634  37.556  1.00  0.00     0.041 C 
ATOM     10  O   UNL     1      -4.315   4.604  37.775  1.00  0.00    -0.550 OA
ATOM     11  O   UNL     1      -5.825   3.595  36.375  1.00  0.00    -0.550 OA
ENDBRANCH   8   9
ENDBRANCH   7   8
ENDBRANCH   6   7
ENDBRANCH   5   6
ENDBRANCH   4   5
ENDBRANCH   3   4
ENDBRANCH   2   3
ENDBRANCH   1   2
BRANCH   1  12
ATOM     12  C   UNL     1      -3.851  -1.660  32.164  1.00  0.00     0.000 C 
BRANCH  12  13
ATOM     13  C   UNL     1      -3.476  -3.105  31.771  1.00  0.00    -0.000 C 
BRANCH  13  14
ATOM     14  C   UNL     1      -3.319  -4.025  32.996  1.00  0.00    -0.000 C 
BRANCH  14  15
ATOM     15  C   UNL     1      -2.054  -4.900  32.912  1.00  0.00    -0.000 C 
BRANCH  15  16
ATOM     16  C   UNL     1      -1.616  -5.149  31.454  1.00  0.00    -0.000 C 
BRANCH  16  17
ATOM     17  C   UNL     1      -1.233  -6.615  31.184  1.00  0.00    -0.000 C 
BRANCH  17  18
ATOM     18  C   UNL     1      -2.459  -7.543  31.100  1.00  0.00    -0.000 C 
BRANCH  18  19
ATOM     19  C   UNL     1      -3.530  -7.015  30.130  1.00  0.00    -0.003 C 
ATOM     20  C   UNL     1      -4.893  -6.824  30.799  1.00  0.00     0.004 C 
ENDBRANCH  18  19
ENDBRANCH  17  18
ENDBRANCH  16  17
ENDBRANCH  15  16
ENDBRANCH  14  15
ENDBRANCH  13  14
ENDBRANCH  12  13
ENDBRANCH   1  12
TORSDOF 16
ENDMDL
