MODEL 1
REMARK VINA RESULT:    -3.212      0.000      0.000
REMARK INTER + INTRA:         -12.486
REMARK INTER:                  -8.094
REMARK INTRA:                  -4.391
REMARK UNBOUND:                -4.391
REMARK SMILES CCCCCCCCCCCCCCCCCCCCCCCCCCCC(=O)[O-]
REMARK SMILES IDX 15 1 16 2 17 3 18 4 19 5 20 6 21 7 22 8 23 9 24 10 25 11
REMARK SMILES IDX 26 12 27 13 28 14 29 15 30 16 14 17 13 18 12 19 11 20 10 21
REMARK SMILES IDX 9 22 8 23 7 24 6 25 5 26 4 27 3 28 2 29 1 30
REMARK H PARENT
REMARK Flexibility Score: inf
ROOT
ATOM      1  C   UNL     1       6.214  -2.633  -4.488  1.00  0.00     0.000 C 
ENDROOT
BRANCH   1   2
ATOM      2  C   UNL     1       7.157  -3.012  -5.646  1.00  0.00     0.000 C 
BRANCH   2   3
ATOM      3  C   UNL     1       8.627  -2.690  -5.320  1.00  0.00     0.000 C 
BRANCH   3   4
ATOM      4  C   UNL     1       8.773  -1.860  -4.029  1.00  0.00     0.000 C 
BRANCH   4   5
ATOM      5  C   UNL     1      10.138  -1.148  -3.919  1.00  0.00     0.000 C 
BRANCH   5   6
ATOM      6  C   UNL     1      10.624  -0.486  -5.224  1.00  0.00     0.000 C 
BRANCH   6   7
ATOM      7  C   UNL     1       9.980   0.867  -5.565  1.00  0.00     0.000 C 
BRANCH   7   8
ATOM      8  C   UNL     1       9.176   0.835  -6.877  1.00  0.00     0.000 C 
BRANCH   8   9
ATOM      9  C   UNL     1       7.748   1.391  -6.716  1.00  0.00     0.000 C 
BRANCH   9  10
ATOM     10  C   UNL     1       6.663   0.341  -6.399  1.00  0.00     0.000 C 
BRANCH  10  11
ATOM     11  C   UNL     1       5.498   0.263  -7.407  1.00  0.00     0.000 C 
BRANCH  11  12
ATOM     12  C   UNL     1       4.091   0.142  -6.785  1.00  0.00     0.006 C 
BRANCH  12  13
ATOM     13  C   UNL     1       4.000   0.660  -5.338  1.00  0.00     0.053 C 
BRANCH  13  14
ATOM     14  C   UNL     1       2.930   1.691  -5.157  1.00  0.00     0.041 C 
ATOM     15  O   UNL     1       2.399   2.240  -6.158  1.00  0.00    -0.550 OA
ATOM     16  O   UNL     1       2.464   1.994  -3.882  1.00  0.00    -0.550 OA
ENDBRANCH  13  14
ENDBRANCH  12  13
ENDBRANCH  11  12
ENDBRANCH  10  11
ENDBRANCH   9  10
ENDBRANCH   8   9
ENDBRANCH   7   8
ENDBRANCH   6   7
ENDBRANCH   5   6
ENDBRANCH   4   5
ENDBRANCH   3   4
ENDBRANCH   2   3
ENDBRANCH   1   2
BRANCH   1  17
ATOM     17  C   UNL     1       4.775  -3.133  -4.705  1.00  0.00     0.000 C 
BRANCH  17  18
ATOM     18  C   UNL     1       4.560  -3.704  -6.115  1.00  0.00     0.000 C 
BRANCH  18  19
ATOM     19  C   UNL     1       3.605  -4.909  -6.129  1.00  0.00     0.000 C 
BRANCH  19  20
ATOM     20  C   UNL     1       2.141  -4.508  -5.892  1.00  0.00     0.000 C 
BRANCH  20  21
ATOM     21  C   UNL     1       1.445  -5.495  -4.945  1.00  0.00     0.000 C 
BRANCH  21  22
ATOM     22  C   UNL     1       1.998  -6.913  -5.129  1.00  0.00    -0.000 C 
BRANCH  22  23
ATOM     23  C   UNL     1       1.555  -7.834  -3.985  1.00  0.00    -0.000 C 
BRANCH  23  24
ATOM     24  C   UNL     1       2.751  -8.244  -3.116  1.00  0.00    -0.000 C 
BRANCH  24  25
ATOM     25  C   UNL     1       2.693  -7.571  -1.738  1.00  0.00    -0.000 C 
BRANCH  25  26
ATOM     26  C   UNL     1       4.007  -6.838  -1.432  1.00  0.00    -0.000 C 
BRANCH  26  27
ATOM     27  C   UNL     1       4.680  -6.258  -2.687  1.00  0.00    -0.000 C 
BRANCH  27  28
ATOM     28  C   UNL     1       6.037  -6.910  -3.024  1.00  0.00    -0.000 C 
BRANCH  28  29
ATOM     29  C   UNL     1       6.519  -6.547  -4.437  1.00  0.00    -0.003 C 
ATOM     30  C   UNL     1       8.023  -6.275  -4.453  1.00  0.00     0.004 C 
ENDBRANCH  28  29
ENDBRANCH  27  28
ENDBRANCH  26  27
ENDBRANCH  25  26
ENDBRANCH  24  25
ENDBRANCH  23  24
ENDBRANCH  22  23
ENDBRANCH  21  22
ENDBRANCH  20  21
ENDBRANCH  19  20
ENDBRANCH  18  19
ENDBRANCH  17  18
ENDBRANCH   1  17
TORSDOF 26
ENDMDL
MODEL 2
REMARK VINA RESULT:    -3.151      1.104      2.751
REMARK INTER + INTRA:         -12.332
REMARK INTER:                  -7.492
REMARK INTRA:                  -4.840
REMARK UNBOUND:                -4.391
REMARK SMILES CCCCCCCCCCCCCCCCCCCCCCCCCCCC(=O)[O-]
REMARK SMILES IDX 15 1 16 2 17 3 18 4 19 5 20 6 21 7 22 8 23 9 24 10 25 11
REMARK SMILES IDX 26 12 27 13 28 14 29 15 30 16 14 17 13 18 12 19 11 20 10 21
REMARK SMILES IDX 9 22 8 23 7 24 6 25 5 26 4 27 3 28 2 29 1 30
REMARK H PARENT
REMARK Flexibility Score: inf
ROOT
ATOM      1  C   UNL     1       6.274  -2.624  -4.493  1.00  0.00     0.000 C 
ENDROOT
BRANCH   1   2
ATOM      2  C   UNL     1       7.159  -2.802  -5.741  1.00  0.00     0.000 C 
BRANCH   2   3
ATOM      3  C   UNL     1       8.654  -2.635  -5.415  1.00  0.00     0.000 C 
BRANCH   3   4
ATOM      4  C   UNL     1       8.884  -1.948  -4.054  1.00  0.00     0.000 C 
BRANCH   4   5
ATOM      5  C   UNL     1      10.259  -1.255  -3.952  1.00  0.00     0.000 C 
BRANCH   5   6
ATOM      6  C   UNL     1      10.769  -0.640  -5.271  1.00  0.00     0.000 C 
BRANCH   6   7
ATOM      7  C   UNL     1      10.218   0.753  -5.614  1.00  0.00     0.000 C 
BRANCH   7   8
ATOM      8  C   UNL     1       9.440   0.781  -6.942  1.00  0.00     0.000 C 
BRANCH   8   9
ATOM      9  C   UNL     1       8.075   1.485  -6.819  1.00  0.00     0.000 C 
BRANCH   9  10
ATOM     10  C   UNL     1       6.907   0.586  -6.361  1.00  0.00     0.000 C 
BRANCH  10  11
ATOM     11  C   UNL     1       5.845   0.276  -7.436  1.00  0.00     0.000 C 
BRANCH  11  12
ATOM     12  C   UNL     1       4.395   0.643  -7.060  1.00  0.00     0.006 C 
BRANCH  12  13
ATOM     13  C   UNL     1       4.088   0.520  -5.557  1.00  0.00     0.053 C 
BRANCH  13  14
ATOM     14  C   UNL     1       3.114   1.551  -5.077  1.00  0.00     0.041 C 
ATOM     15  O   UNL     1       2.357   2.139  -5.893  1.00  0.00    -0.550 OA
ATOM     16  O   UNL     1       2.990   1.810  -3.716  1.00  0.00    -0.550 OA
ENDBRANCH  13  14
ENDBRANCH  12  13
ENDBRANCH  11  12
ENDBRANCH  10  11
ENDBRANCH   9  10
ENDBRANCH   8   9
ENDBRANCH   7   8
ENDBRANCH   6   7
ENDBRANCH   5   6
ENDBRANCH   4   5
ENDBRANCH   3   4
ENDBRANCH   2   3
ENDBRANCH   1   2
BRANCH   1  17
ATOM     17  C   UNL     1       4.878  -3.250  -4.659  1.00  0.00     0.000 C 
BRANCH  17  18
ATOM     18  C   UNL     1       4.430  -3.301  -6.128  1.00  0.00     0.000 C 
BRANCH  18  19
ATOM     19  C   UNL     1       4.161  -4.733  -6.619  1.00  0.00     0.000 C 
BRANCH  19  20
ATOM     20  C   UNL     1       5.003  -5.106  -7.849  1.00  0.00     0.000 C 
BRANCH  20  21
ATOM     21  C   UNL     1       5.741  -6.434  -7.630  1.00  0.00     0.000 C 
BRANCH  21  22
ATOM     22  C   UNL     1       7.126  -6.196  -7.016  1.00  0.00    -0.000 C 
BRANCH  22  23
ATOM     23  C   UNL     1       7.322  -7.038  -5.749  1.00  0.00    -0.000 C 
BRANCH  23  24
ATOM     24  C   UNL     1       7.311  -6.154  -4.496  1.00  0.00    -0.000 C 
BRANCH  24  25
ATOM     25  C   UNL     1       6.426  -6.758  -3.397  1.00  0.00    -0.000 C 
BRANCH  25  26
ATOM     26  C   UNL     1       5.196  -7.448  -4.004  1.00  0.00    -0.000 C 
BRANCH  26  27
ATOM     27  C   UNL     1       3.874  -6.751  -3.643  1.00  0.00    -0.000 C 
BRANCH  27  28
ATOM     28  C   UNL     1       3.840  -6.181  -2.210  1.00  0.00    -0.000 C 
BRANCH  28  29
ATOM     29  C   UNL     1       3.426  -7.238  -1.175  1.00  0.00    -0.003 C 
ATOM     30  C   UNL     1       4.127  -7.004   0.162  1.00  0.00     0.004 C 
ENDBRANCH  28  29
ENDBRANCH  27  28
ENDBRANCH  26  27
ENDBRANCH  25  26
ENDBRANCH  24  25
ENDBRANCH  23  24
ENDBRANCH  22  23
ENDBRANCH  21  22
ENDBRANCH  20  21
ENDBRANCH  19  20
ENDBRANCH  18  19
ENDBRANCH  17  18
ENDBRANCH   1  17
TORSDOF 26
ENDMDL
MODEL 3
REMARK VINA RESULT:    -3.150      1.456      2.311
REMARK INTER + INTRA:         -12.330
REMARK INTER:                  -7.303
REMARK INTRA:                  -5.027
REMARK UNBOUND:                -4.391
REMARK SMILES CCCCCCCCCCCCCCCCCCCCCCCCCCCC(=O)[O-]
REMARK SMILES IDX 15 1 16 2 17 3 18 4 19 5 20 6 21 7 22 8 23 9 24 10 25 11
REMARK SMILES IDX 26 12 27 13 28 14 29 15 30 16 14 17 13 18 12 19 11 20 10 21
REMARK SMILES IDX 9 22 8 23 7 24 6 25 5 26 4 27 3 28 2 29 1 30
REMARK H PARENT
REMARK Flexibility Score: inf
ROOT
ATOM      1  C   UNL     1       7.114  -2.663  -4.110  1.00  0.00     0.000 C 
ENDROOT
BRANCH   1   2
ATOM      2  C   UNL     1       8.268  -3.500  -4.694  1.00  0.00     0.000 C 
BRANCH   2   3
ATOM      3  C   UNL     1       9.540  -2.660  -4.904  1.00  0.00     0.000 C 
BRANCH   3   4
ATOM      4  C   UNL     1       9.418  -1.249  -4.294  1.00  0.00     0.000 C 
BRANCH   4   5
ATOM      5  C   UNL     1       9.432  -0.128  -5.356  1.00  0.00     0.000 C 
BRANCH   5   6
ATOM      6  C   UNL     1       9.181  -0.608  -6.800  1.00  0.00     0.000 C 
BRANCH   6   7
ATOM      7  C   UNL     1       7.753  -0.403  -7.332  1.00  0.00     0.000 C 
BRANCH   7   8
ATOM      8  C   UNL     1       6.974   0.676  -6.559  1.00  0.00     0.000 C 
BRANCH   8   9
ATOM      9  C   UNL     1       5.462   0.648  -6.854  1.00  0.00     0.000 C 
BRANCH   9  10
ATOM     10  C   UNL     1       4.555   0.419  -5.627  1.00  0.00     0.000 C 
BRANCH  10  11
ATOM     11  C   UNL     1       3.168   1.091  -5.690  1.00  0.00     0.000 C 
BRANCH  11  12
ATOM     12  C   UNL     1       2.857   2.076  -4.544  1.00  0.00     0.006 C 
BRANCH  12  13
ATOM     13  C   UNL     1       2.936   3.558  -4.953  1.00  0.00     0.053 C 
BRANCH  13  14
ATOM     14  C   UNL     1       2.687   3.771  -6.413  1.00  0.00     0.041 C 
ATOM     15  O   UNL     1       1.509   3.860  -6.851  1.00  0.00    -0.550 OA
ATOM     16  O   UNL     1       3.757   3.946  -7.284  1.00  0.00    -0.550 OA
ENDBRANCH  13  14
ENDBRANCH  12  13
ENDBRANCH  11  12
ENDBRANCH  10  11
ENDBRANCH   9  10
ENDBRANCH   8   9
ENDBRANCH   7   8
ENDBRANCH   6   7
ENDBRANCH   5   6
ENDBRANCH   4   5
ENDBRANCH   3   4
ENDBRANCH   2   3
ENDBRANCH   1   2
BRANCH   1  17
ATOM     17  C   UNL     1       5.815  -2.791  -4.924  1.00  0.00     0.000 C 
BRANCH  17  18
ATOM     18  C   UNL     1       6.040  -3.475  -6.282  1.00  0.00     0.000 C 
BRANCH  18  19
ATOM     19  C   UNL     1       4.835  -3.332  -7.226  1.00  0.00     0.000 C 
BRANCH  19  20
ATOM     20  C   UNL     1       3.546  -2.939  -6.487  1.00  0.00     0.000 C 
BRANCH  20  21
ATOM     21  C   UNL     1       2.445  -3.985  -6.707  1.00  0.00     0.000 C 
BRANCH  21  22
ATOM     22  C   UNL     1       2.690  -5.229  -5.845  1.00  0.00    -0.000 C 
BRANCH  22  23
ATOM     23  C   UNL     1       2.207  -5.012  -4.406  1.00  0.00    -0.000 C 
BRANCH  23  24
ATOM     24  C   UNL     1       3.391  -4.944  -3.434  1.00  0.00    -0.000 C 
BRANCH  24  25
ATOM     25  C   UNL     1       3.401  -6.150  -2.484  1.00  0.00    -0.000 C 
BRANCH  25  26
ATOM     26  C   UNL     1       4.753  -6.875  -2.535  1.00  0.00    -0.000 C 
BRANCH  26  27
ATOM     27  C   UNL     1       5.809  -6.123  -3.361  1.00  0.00    -0.000 C 
BRANCH  27  28
ATOM     28  C   UNL     1       6.491  -6.990  -4.441  1.00  0.00    -0.000 C 
BRANCH  28  29
ATOM     29  C   UNL     1       5.554  -7.289  -5.621  1.00  0.00    -0.003 C 
ATOM     30  C   UNL     1       6.229  -6.973  -6.955  1.00  0.00     0.004 C 
ENDBRANCH  28  29
ENDBRANCH  27  28
ENDBRANCH  26  27
ENDBRANCH  25  26
ENDBRANCH  24  25
ENDBRANCH  23  24
ENDBRANCH  22  23
ENDBRANCH  21  22
ENDBRANCH  20  21
ENDBRANCH  19  20
ENDBRANCH  18  19
ENDBRANCH  17  18
ENDBRANCH   1  17
TORSDOF 26
ENDMDL
MODEL 4
REMARK VINA RESULT:    -3.133      1.622      3.901
REMARK INTER + INTRA:         -12.286
REMARK INTER:                  -6.913
REMARK INTRA:                  -5.372
REMARK UNBOUND:                -4.391
REMARK SMILES CCCCCCCCCCCCCCCCCCCCCCCCCCCC(=O)[O-]
REMARK SMILES IDX 15 1 16 2 17 3 18 4 19 5 20 6 21 7 22 8 23 9 24 10 25 11
REMARK SMILES IDX 26 12 27 13 28 14 29 15 30 16 14 17 13 18 12 19 11 20 10 21
REMARK SMILES IDX 9 22 8 23 7 24 6 25 5 26 4 27 3 28 2 29 1 30
REMARK H PARENT
REMARK Flexibility Score: inf
ROOT
ATOM      1  C   UNL     1       1.444  -2.975  -8.336  1.00  0.00     0.000 C 
ENDROOT
BRANCH   1   2
ATOM      2  C   UNL     1       2.562  -2.389  -7.453  1.00  0.00     0.000 C 
BRANCH   2   3
ATOM      3  C   UNL     1       3.932  -3.014  -7.770  1.00  0.00     0.000 C 
BRANCH   3   4
ATOM      4  C   UNL     1       4.312  -4.131  -6.777  1.00  0.00     0.000 C 
BRANCH   4   5
ATOM      5  C   UNL     1       3.869  -3.829  -5.330  1.00  0.00     0.000 C 
BRANCH   5   6
ATOM      6  C   UNL     1       4.883  -3.013  -4.504  1.00  0.00     0.000 C 
BRANCH   6   7
ATOM      7  C   UNL     1       6.363  -3.356  -4.737  1.00  0.00     0.000 C 
BRANCH   7   8
ATOM      8  C   UNL     1       7.229  -2.116  -5.018  1.00  0.00     0.000 C 
BRANCH   8   9
ATOM      9  C   UNL     1       6.959  -1.499  -6.404  1.00  0.00     0.000 C 
BRANCH   9  10
ATOM     10  C   UNL     1       6.915   0.043  -6.442  1.00  0.00     0.000 C 
BRANCH  10  11
ATOM     11  C   UNL     1       5.529   0.663  -6.712  1.00  0.00     0.000 C 
BRANCH  11  12
ATOM     12  C   UNL     1       4.423   0.275  -5.708  1.00  0.00     0.006 C 
BRANCH  12  13
ATOM     13  C   UNL     1       3.096   1.025  -5.917  1.00  0.00     0.053 C 
BRANCH  13  14
ATOM     14  C   UNL     1       2.943   2.202  -5.003  1.00  0.00     0.041 C 
ATOM     15  O   UNL     1       2.371   2.071  -3.889  1.00  0.00    -0.550 OA
ATOM     16  O   UNL     1       3.500   3.428  -5.350  1.00  0.00    -0.550 OA
ENDBRANCH  13  14
ENDBRANCH  12  13
ENDBRANCH  11  12
ENDBRANCH  10  11
ENDBRANCH   9  10
ENDBRANCH   8   9
ENDBRANCH   7   8
ENDBRANCH   6   7
ENDBRANCH   5   6
ENDBRANCH   4   5
ENDBRANCH   3   4
ENDBRANCH   2   3
ENDBRANCH   1   2
BRANCH   1  17
ATOM     17  C   UNL     1       0.644  -4.082  -7.627  1.00  0.00     0.000 C 
BRANCH  17  18
ATOM     18  C   UNL     1       0.131  -3.642  -6.247  1.00  0.00     0.000 C 
BRANCH  18  19
ATOM     19  C   UNL     1       0.230  -4.757  -5.193  1.00  0.00     0.000 C 
BRANCH  19  20
ATOM     20  C   UNL     1       1.005  -5.984  -5.699  1.00  0.00     0.000 C 
BRANCH  20  21
ATOM     21  C   UNL     1       1.047  -7.087  -4.634  1.00  0.00     0.000 C 
BRANCH  21  22
ATOM     22  C   UNL     1       2.069  -8.168  -5.004  1.00  0.00    -0.000 C 
BRANCH  22  23
ATOM     23  C   UNL     1       3.105  -7.634  -6.001  1.00  0.00    -0.000 C 
BRANCH  23  24
ATOM     24  C   UNL     1       4.347  -8.533  -6.036  1.00  0.00    -0.000 C 
BRANCH  24  25
ATOM     25  C   UNL     1       5.144  -8.432  -4.728  1.00  0.00    -0.000 C 
BRANCH  25  26
ATOM     26  C   UNL     1       5.575  -6.983  -4.463  1.00  0.00    -0.000 C 
BRANCH  26  27
ATOM     27  C   UNL     1       5.480  -6.588  -2.980  1.00  0.00    -0.000 C 
BRANCH  27  28
ATOM     28  C   UNL     1       4.071  -6.131  -2.546  1.00  0.00    -0.000 C 
BRANCH  28  29
ATOM     29  C   UNL     1       3.645  -6.758  -1.210  1.00  0.00    -0.003 C 
ATOM     30  C   UNL     1       2.885  -8.065  -1.432  1.00  0.00     0.004 C 
ENDBRANCH  28  29
ENDBRANCH  27  28
ENDBRANCH  26  27
ENDBRANCH  25  26
ENDBRANCH  24  25
ENDBRANCH  23  24
ENDBRANCH  22  23
ENDBRANCH  21  22
ENDBRANCH  20  21
ENDBRANCH  19  20
ENDBRANCH  18  19
ENDBRANCH  17  18
ENDBRANCH   1  17
TORSDOF 26
ENDMDL
MODEL 5
REMARK VINA RESULT:    -3.129      1.466      2.975
REMARK INTER + INTRA:         -12.277
REMARK INTER:                  -7.526
REMARK INTRA:                  -4.751
REMARK UNBOUND:                -4.391
REMARK SMILES CCCCCCCCCCCCCCCCCCCCCCCCCCCC(=O)[O-]
REMARK SMILES IDX 15 1 16 2 17 3 18 4 19 5 20 6 21 7 22 8 23 9 24 10 25 11
REMARK SMILES IDX 26 12 27 13 28 14 29 15 30 16 14 17 13 18 12 19 11 20 10 21
REMARK SMILES IDX 9 22 8 23 7 24 6 25 5 26 4 27 3 28 2 29 1 30
REMARK H PARENT
REMARK Flexibility Score: inf
ROOT
ATOM      1  C   UNL     1       7.101  -3.354  -5.516  1.00  0.00     0.000 C 
ENDROOT
BRANCH   1   2
ATOM      2  C   UNL     1       8.505  -3.175  -4.908  1.00  0.00     0.000 C 
BRANCH   2   3
ATOM      3  C   UNL     1       8.496  -2.204  -3.714  1.00  0.00     0.000 C 
BRANCH   3   4
ATOM      4  C   UNL     1       9.825  -1.437  -3.571  1.00  0.00     0.000 C 
BRANCH   4   5
ATOM      5  C   UNL     1      10.328  -0.844  -4.904  1.00  0.00     0.000 C 
BRANCH   5   6
ATOM      6  C   UNL     1      10.074   0.667  -5.072  1.00  0.00     0.000 C 
BRANCH   6   7
ATOM      7  C   UNL     1       9.183   1.066  -6.260  1.00  0.00     0.000 C 
BRANCH   7   8
ATOM      8  C   UNL     1       7.967   0.140  -6.436  1.00  0.00     0.000 C 
BRANCH   8   9
ATOM      9  C   UNL     1       7.736  -0.271  -7.903  1.00  0.00     0.000 C 
BRANCH   9  10
ATOM     10  C   UNL     1       6.443   0.276  -8.545  1.00  0.00     0.000 C 
BRANCH  10  11
ATOM     11  C   UNL     1       5.774   1.449  -7.799  1.00  0.00     0.000 C 
BRANCH  11  12
ATOM     12  C   UNL     1       4.359   1.166  -7.254  1.00  0.00     0.006 C 
BRANCH  12  13
ATOM     13  C   UNL     1       4.212   1.402  -5.740  1.00  0.00     0.053 C 
BRANCH  13  14
ATOM     14  C   UNL     1       2.789   1.593  -5.317  1.00  0.00     0.041 C 
ATOM     15  O   UNL     1       2.517   1.942  -4.139  1.00  0.00    -0.550 OA
ATOM     16  O   UNL     1       1.763   1.458  -6.247  1.00  0.00    -0.550 OA
ENDBRANCH  13  14
ENDBRANCH  12  13
ENDBRANCH  11  12
ENDBRANCH  10  11
ENDBRANCH   9  10
ENDBRANCH   8   9
ENDBRANCH   7   8
ENDBRANCH   6   7
ENDBRANCH   5   6
ENDBRANCH   4   5
ENDBRANCH   3   4
ENDBRANCH   2   3
ENDBRANCH   1   2
BRANCH   1  17
ATOM     17  C   UNL     1       6.017  -2.579  -4.747  1.00  0.00     0.000 C 
BRANCH  17  18
ATOM     18  C   UNL     1       4.855  -2.142  -5.654  1.00  0.00     0.000 C 
BRANCH  18  19
ATOM     19  C   UNL     1       4.500  -3.196  -6.715  1.00  0.00     0.000 C 
BRANCH  19  20
ATOM     20  C   UNL     1       3.505  -2.671  -7.762  1.00  0.00     0.000 C 
BRANCH  20  21
ATOM     21  C   UNL     1       2.405  -1.829  -7.104  1.00  0.00     0.000 C 
BRANCH  21  22
ATOM     22  C   UNL     1       1.030  -2.165  -7.695  1.00  0.00    -0.000 C 
BRANCH  22  23
ATOM     23  C   UNL     1       0.553  -3.549  -7.237  1.00  0.00    -0.000 C 
BRANCH  23  24
ATOM     24  C   UNL     1      -0.520  -3.426  -6.147  1.00  0.00    -0.000 C 
BRANCH  24  25
ATOM     25  C   UNL     1      -0.214  -4.350  -4.960  1.00  0.00    -0.000 C 
BRANCH  25  26
ATOM     26  C   UNL     1       1.098  -5.113  -5.186  1.00  0.00    -0.000 C 
BRANCH  26  27
ATOM     27  C   UNL     1       2.157  -4.823  -4.109  1.00  0.00    -0.000 C 
BRANCH  27  28
ATOM     28  C   UNL     1       3.202  -5.946  -3.943  1.00  0.00    -0.000 C 
BRANCH  28  29
ATOM     29  C   UNL     1       4.497  -5.441  -3.290  1.00  0.00    -0.003 C 
ATOM     30  C   UNL     1       5.690  -6.308  -3.689  1.00  0.00     0.004 C 
ENDBRANCH  28  29
ENDBRANCH  27  28
ENDBRANCH  26  27
ENDBRANCH  25  26
ENDBRANCH  24  25
ENDBRANCH  23  24
ENDBRANCH  22  23
ENDBRANCH  21  22
ENDBRANCH  20  21
ENDBRANCH  19  20
ENDBRANCH  18  19
ENDBRANCH  17  18
ENDBRANCH   1  17
TORSDOF 26
ENDMDL
MODEL 6
REMARK VINA RESULT:    -3.093     10.612     13.452
REMARK INTER + INTRA:         -12.185
REMARK INTER:                  -8.011
REMARK INTRA:                  -4.174
REMARK UNBOUND:                -4.391
REMARK SMILES CCCCCCCCCCCCCCCCCCCCCCCCCCCC(=O)[O-]
REMARK SMILES IDX 15 1 16 2 17 3 18 4 19 5 20 6 21 7 22 8 23 9 24 10 25 11
REMARK SMILES IDX 26 12 27 13 28 14 29 15 30 16 14 17 13 18 12 19 11 20 10 21
REMARK SMILES IDX 9 22 8 23 7 24 6 25 5 26 4 27 3 28 2 29 1 30
REMARK H PARENT
REMARK Flexibility Score: inf
ROOT
ATOM      1  C   UNL     1       1.638   5.650   3.659  1.00  0.00     0.000 C 
ENDROOT
BRANCH   1   2
ATOM      2  C   UNL     1       0.386   5.143   4.401  1.00  0.00     0.000 C 
BRANCH   2   3
ATOM      3  C   UNL     1       0.289   5.718   5.825  1.00  0.00     0.000 C 
BRANCH   3   4
ATOM      4  C   UNL     1       0.334   4.620   6.906  1.00  0.00     0.000 C 
BRANCH   4   5
ATOM      5  C   UNL     1      -0.154   3.248   6.394  1.00  0.00     0.000 C 
BRANCH   5   6
ATOM      6  C   UNL     1      -1.448   2.737   7.058  1.00  0.00     0.000 C 
BRANCH   6   7
ATOM      7  C   UNL     1      -2.735   2.920   6.238  1.00  0.00     0.000 C 
BRANCH   7   8
ATOM      8  C   UNL     1      -3.411   4.282   6.478  1.00  0.00     0.000 C 
BRANCH   8   9
ATOM      9  C   UNL     1      -4.159   4.804   5.237  1.00  0.00     0.000 C 
BRANCH   9  10
ATOM     10  C   UNL     1      -3.324   4.865   3.940  1.00  0.00     0.000 C 
BRANCH  10  11
ATOM     11  C   UNL     1      -3.015   6.282   3.414  1.00  0.00     0.000 C 
BRANCH  11  12
ATOM     12  C   UNL     1      -2.400   6.344   2.001  1.00  0.00     0.006 C 
BRANCH  12  13
ATOM     13  C   UNL     1      -2.370   4.989   1.271  1.00  0.00     0.053 C 
BRANCH  13  14
ATOM     14  C   UNL     1      -2.591   5.118  -0.204  1.00  0.00     0.041 C 
ATOM     15  O   UNL     1      -2.246   6.167  -0.809  1.00  0.00    -0.550 OA
ATOM     16  O   UNL     1      -3.113   4.050  -0.925  1.00  0.00    -0.550 OA
ENDBRANCH  13  14
ENDBRANCH  12  13
ENDBRANCH  11  12
ENDBRANCH  10  11
ENDBRANCH   9  10
ENDBRANCH   8   9
ENDBRANCH   7   8
ENDBRANCH   6   7
ENDBRANCH   5   6
ENDBRANCH   4   5
ENDBRANCH   3   4
ENDBRANCH   2   3
ENDBRANCH   1   2
BRANCH   1  17
ATOM     17  C   UNL     1       2.935   4.993   4.163  1.00  0.00     0.000 C 
BRANCH  17  18
ATOM     18  C   UNL     1       3.101   3.554   3.650  1.00  0.00     0.000 C 
BRANCH  18  19
ATOM     19  C   UNL     1       2.861   2.501   4.744  1.00  0.00     0.000 C 
BRANCH  19  20
ATOM     20  C   UNL     1       3.580   2.840   6.060  1.00  0.00     0.000 C 
BRANCH  20  21
ATOM     21  C   UNL     1       4.643   1.785   6.395  1.00  0.00     0.000 C 
BRANCH  21  22
ATOM     22  C   UNL     1       4.016   0.585   7.115  1.00  0.00    -0.000 C 
BRANCH  22  23
ATOM     23  C   UNL     1       2.915   1.034   8.085  1.00  0.00    -0.000 C 
BRANCH  23  24
ATOM     24  C   UNL     1       1.610   0.273   7.822  1.00  0.00    -0.000 C 
BRANCH  24  25
ATOM     25  C   UNL     1       1.744  -0.658   6.609  1.00  0.00    -0.000 C 
BRANCH  25  26
ATOM     26  C   UNL     1       0.646  -0.370   5.575  1.00  0.00    -0.000 C 
BRANCH  26  27
ATOM     27  C   UNL     1      -0.035  -1.643   5.049  1.00  0.00    -0.000 C 
BRANCH  27  28
ATOM     28  C   UNL     1       0.593  -2.951   5.575  1.00  0.00    -0.000 C 
BRANCH  28  29
ATOM     29  C   UNL     1       0.205  -4.166   4.719  1.00  0.00    -0.003 C 
ATOM     30  C   UNL     1       1.439  -4.816   4.094  1.00  0.00     0.004 C 
ENDBRANCH  28  29
ENDBRANCH  27  28
ENDBRANCH  26  27
ENDBRANCH  25  26
ENDBRANCH  24  25
ENDBRANCH  23  24
ENDBRANCH  22  23
ENDBRANCH  21  22
ENDBRANCH  20  21
ENDBRANCH  19  20
ENDBRANCH  18  19
ENDBRANCH  17  18
ENDBRANCH   1  17
TORSDOF 26
ENDMDL
MODEL 7
REMARK VINA RESULT:    -3.068     10.723     13.546
REMARK INTER + INTRA:         -12.124
REMARK INTER:                  -8.219
REMARK INTRA:                  -3.905
REMARK UNBOUND:                -4.391
REMARK SMILES CCCCCCCCCCCCCCCCCCCCCCCCCCCC(=O)[O-]
REMARK SMILES IDX 15 1 16 2 17 3 18 4 19 5 20 6 21 7 22 8 23 9 24 10 25 11
REMARK SMILES IDX 26 12 27 13 28 14 29 15 30 16 14 17 13 18 12 19 11 20 10 21
REMARK SMILES IDX 9 22 8 23 7 24 6 25 5 26 4 27 3 28 2 29 1 30
REMARK H PARENT
REMARK Flexibility Score: inf
ROOT
ATOM      1  C   UNL     1      -2.371   6.265   0.994  1.00  0.00     0.000 C 
ENDROOT
BRANCH   1   2
ATOM      2  C   UNL     1      -3.010   6.691   2.329  1.00  0.00     0.000 C 
BRANCH   2   3
ATOM      3  C   UNL     1      -3.155   5.508   3.302  1.00  0.00     0.000 C 
BRANCH   3   4
ATOM      4  C   UNL     1      -2.188   5.610   4.499  1.00  0.00     0.000 C 
BRANCH   4   5
ATOM      5  C   UNL     1      -1.346   6.903   4.486  1.00  0.00     0.000 C 
BRANCH   5   6
ATOM      6  C   UNL     1       0.164   6.684   4.266  1.00  0.00     0.000 C 
BRANCH   6   7
ATOM      7  C   UNL     1       0.569   5.290   3.758  1.00  0.00     0.000 C 
BRANCH   7   8
ATOM      8  C   UNL     1       1.674   4.639   4.608  1.00  0.00     0.000 C 
BRANCH   8   9
ATOM      9  C   UNL     1       2.177   3.309   4.016  1.00  0.00     0.000 C 
BRANCH   9  10
ATOM     10  C   UNL     1       3.540   3.381   3.294  1.00  0.00     0.000 C 
BRANCH  10  11
ATOM     11  C   UNL     1       4.216   4.768   3.287  1.00  0.00     0.000 C 
BRANCH  11  12
ATOM     12  C   UNL     1       4.314   5.450   1.907  1.00  0.00     0.006 C 
BRANCH  12  13
ATOM     13  C   UNL     1       3.461   6.725   1.777  1.00  0.00     0.053 C 
BRANCH  13  14
ATOM     14  C   UNL     1       3.926   7.624   0.674  1.00  0.00     0.041 C 
ATOM     15  O   UNL     1       3.130   7.982  -0.233  1.00  0.00    -0.550 OA
ATOM     16  O   UNL     1       5.222   8.129   0.688  1.00  0.00    -0.550 OA
ENDBRANCH  13  14
ENDBRANCH  12  13
ENDBRANCH  11  12
ENDBRANCH  10  11
ENDBRANCH   9  10
ENDBRANCH   8   9
ENDBRANCH   7   8
ENDBRANCH   6   7
ENDBRANCH   5   6
ENDBRANCH   4   5
ENDBRANCH   3   4
ENDBRANCH   2   3
ENDBRANCH   1   2
BRANCH   1  17
ATOM     17  C   UNL     1      -2.394   4.741   0.783  1.00  0.00     0.000 C 
BRANCH  17  18
ATOM     18  C   UNL     1      -2.778   4.353  -0.654  1.00  0.00     0.000 C 
BRANCH  18  19
ATOM     19  C   UNL     1      -3.475   5.495  -1.411  1.00  0.00     0.000 C 
BRANCH  19  20
ATOM     20  C   UNL     1      -4.201   5.011  -2.676  1.00  0.00     0.000 C 
BRANCH  20  21
ATOM     21  C   UNL     1      -4.033   6.012  -3.826  1.00  0.00     0.000 C 
BRANCH  21  22
ATOM     22  C   UNL     1      -3.881   5.286  -5.168  1.00  0.00    -0.000 C 
BRANCH  22  23
ATOM     23  C   UNL     1      -2.516   5.578  -5.805  1.00  0.00    -0.000 C 
BRANCH  23  24
ATOM     24  C   UNL     1      -2.305   7.087  -5.981  1.00  0.00    -0.000 C 
BRANCH  24  25
ATOM     25  C   UNL     1      -0.971   7.536  -5.370  1.00  0.00    -0.000 C 
BRANCH  25  26
ATOM     26  C   UNL     1       0.014   6.362  -5.284  1.00  0.00    -0.000 C 
BRANCH  26  27
ATOM     27  C   UNL     1       0.692   6.244  -3.909  1.00  0.00    -0.000 C 
BRANCH  27  28
ATOM     28  C   UNL     1      -0.300   6.172  -2.728  1.00  0.00    -0.000 C 
BRANCH  28  29
ATOM     29  C   UNL     1      -0.035   7.264  -1.682  1.00  0.00    -0.003 C 
ATOM     30  C   UNL     1      -1.063   8.390  -1.788  1.00  0.00     0.004 C 
ENDBRANCH  28  29
ENDBRANCH  27  28
ENDBRANCH  26  27
ENDBRANCH  25  26
ENDBRANCH  24  25
ENDBRANCH  23  24
ENDBRANCH  22  23
ENDBRANCH  21  22
ENDBRANCH  20  21
ENDBRANCH  19  20
ENDBRANCH  18  19
ENDBRANCH  17  18
ENDBRANCH   1  17
TORSDOF 26
ENDMDL
MODEL 8
REMARK VINA RESULT:    -3.017     10.308     14.510
REMARK INTER + INTRA:         -11.994
REMARK INTER:                  -7.377
REMARK INTRA:                  -4.617
REMARK UNBOUND:                -4.391
REMARK SMILES CCCCCCCCCCCCCCCCCCCCCCCCCCCC(=O)[O-]
REMARK SMILES IDX 15 1 16 2 17 3 18 4 19 5 20 6 21 7 22 8 23 9 24 10 25 11
REMARK SMILES IDX 26 12 27 13 28 14 29 15 30 16 14 17 13 18 12 19 11 20 10 21
REMARK SMILES IDX 9 22 8 23 7 24 6 25 5 26 4 27 3 28 2 29 1 30
REMARK H PARENT
REMARK Flexibility Score: inf
ROOT
ATOM      1  C   UNL     1       0.724   0.931   6.850  1.00  0.00     0.000 C 
ENDROOT
BRANCH   1   2
ATOM      2  C   UNL     1       0.948   0.364   5.435  1.00  0.00     0.000 C 
BRANCH   2   3
ATOM      3  C   UNL     1       0.273  -1.007   5.251  1.00  0.00     0.000 C 
BRANCH   3   4
ATOM      4  C   UNL     1       0.479  -1.930   6.468  1.00  0.00     0.000 C 
BRANCH   4   5
ATOM      5  C   UNL     1       0.720  -3.404   6.076  1.00  0.00     0.000 C 
BRANCH   5   6
ATOM      6  C   UNL     1       0.708  -3.675   4.559  1.00  0.00     0.000 C 
BRANCH   6   7
ATOM      7  C   UNL     1       0.931  -5.138   4.141  1.00  0.00     0.000 C 
BRANCH   7   8
ATOM      8  C   UNL     1       0.049  -6.126   4.923  1.00  0.00     0.000 C 
BRANCH   8   9
ATOM      9  C   UNL     1      -1.140  -6.650   4.095  1.00  0.00     0.000 C 
BRANCH   9  10
ATOM     10  C   UNL     1      -2.450  -5.847   4.241  1.00  0.00     0.000 C 
BRANCH  10  11
ATOM     11  C   UNL     1      -2.636  -4.689   3.239  1.00  0.00     0.000 C 
BRANCH  11  12
ATOM     12  C   UNL     1      -3.183  -3.376   3.838  1.00  0.00     0.006 C 
BRANCH  12  13
ATOM     13  C   UNL     1      -2.909  -3.214   5.344  1.00  0.00     0.053 C 
BRANCH  13  14
ATOM     14  C   UNL     1      -3.881  -2.295   6.016  1.00  0.00     0.041 C 
ATOM     15  O   UNL     1      -5.119  -2.441   5.840  1.00  0.00    -0.550 OA
ATOM     16  O   UNL     1      -3.424  -1.320   6.896  1.00  0.00    -0.550 OA
ENDBRANCH  13  14
ENDBRANCH  12  13
ENDBRANCH  11  12
ENDBRANCH  10  11
ENDBRANCH   9  10
ENDBRANCH   8   9
ENDBRANCH   7   8
ENDBRANCH   6   7
ENDBRANCH   5   6
ENDBRANCH   4   5
ENDBRANCH   3   4
ENDBRANCH   2   3
ENDBRANCH   1   2
BRANCH   1  17
ATOM     17  C   UNL     1       2.002   1.531   7.459  1.00  0.00     0.000 C 
BRANCH  17  18
ATOM     18  C   UNL     1       3.266   1.136   6.678  1.00  0.00     0.000 C 
BRANCH  18  19
ATOM     19  C   UNL     1       4.356   2.219   6.723  1.00  0.00     0.000 C 
BRANCH  19  20
ATOM     20  C   UNL     1       3.851   3.543   7.318  1.00  0.00     0.000 C 
BRANCH  20  21
ATOM     21  C   UNL     1       4.718   4.721   6.855  1.00  0.00     0.000 C 
BRANCH  21  22
ATOM     22  C   UNL     1       3.872   5.988   6.680  1.00  0.00    -0.000 C 
BRANCH  22  23
ATOM     23  C   UNL     1       4.204   6.700   5.362  1.00  0.00    -0.000 C 
BRANCH  23  24
ATOM     24  C   UNL     1       5.093   5.821   4.474  1.00  0.00    -0.000 C 
BRANCH  24  25
ATOM     25  C   UNL     1       4.783   6.040   2.987  1.00  0.00    -0.000 C 
BRANCH  25  26
ATOM     26  C   UNL     1       3.898   4.911   2.440  1.00  0.00    -0.000 C 
BRANCH  26  27
ATOM     27  C   UNL     1       3.837   3.689   3.371  1.00  0.00    -0.000 C 
BRANCH  27  28
ATOM     28  C   UNL     1       2.405   3.293   3.788  1.00  0.00    -0.000 C 
BRANCH  28  29
ATOM     29  C   UNL     1       1.528   4.518   4.084  1.00  0.00    -0.003 C 
ATOM     30  C   UNL     1       0.770   4.347   5.400  1.00  0.00     0.004 C 
ENDBRANCH  28  29
ENDBRANCH  27  28
ENDBRANCH  26  27
ENDBRANCH  25  26
ENDBRANCH  24  25
ENDBRANCH  23  24
ENDBRANCH  22  23
ENDBRANCH  21  22
ENDBRANCH  20  21
ENDBRANCH  19  20
ENDBRANCH  18  19
ENDBRANCH  17  18
ENDBRANCH   1  17
TORSDOF 26
ENDMDL
MODEL 9
REMARK VINA RESULT:    -3.017      2.675      7.981
REMARK INTER + INTRA:         -11.993
REMARK INTER:                  -6.172
REMARK INTRA:                  -5.821
REMARK UNBOUND:                -4.391
REMARK SMILES CCCCCCCCCCCCCCCCCCCCCCCCCCCC(=O)[O-]
REMARK SMILES IDX 15 1 16 2 17 3 18 4 19 5 20 6 21 7 22 8 23 9 24 10 25 11
REMARK SMILES IDX 26 12 27 13 28 14 29 15 30 16 14 17 13 18 12 19 11 20 10 21
REMARK SMILES IDX 9 22 8 23 7 24 6 25 5 26 4 27 3 28 2 29 1 30
REMARK H PARENT
REMARK Flexibility Score: inf
ROOT
ATOM      1  C   UNL     1       4.007  -6.464  -6.581  1.00  0.00     0.000 C 
ENDROOT
BRANCH   1   2
ATOM      2  C   UNL     1       2.812  -5.495  -6.490  1.00  0.00     0.000 C 
BRANCH   2   3
ATOM      3  C   UNL     1       2.975  -4.487  -5.338  1.00  0.00     0.000 C 
BRANCH   3   4
ATOM      4  C   UNL     1       2.433  -5.032  -4.001  1.00  0.00     0.000 C 
BRANCH   4   5
ATOM      5  C   UNL     1       3.550  -5.388  -2.997  1.00  0.00     0.000 C 
BRANCH   5   6
ATOM      6  C   UNL     1       3.776  -6.900  -2.797  1.00  0.00     0.000 C 
BRANCH   6   7
ATOM      7  C   UNL     1       2.517  -7.778  -2.870  1.00  0.00     0.000 C 
BRANCH   7   8
ATOM      8  C   UNL     1       2.511  -8.721  -4.086  1.00  0.00     0.000 C 
BRANCH   8   9
ATOM      9  C   UNL     1       1.260  -8.551  -4.968  1.00  0.00     0.000 C 
BRANCH   9  10
ATOM     10  C   UNL     1      -0.055  -8.287  -4.203  1.00  0.00     0.000 C 
BRANCH  10  11
ATOM     11  C   UNL     1      -1.107  -7.448  -4.957  1.00  0.00     0.000 C 
BRANCH  11  12
ATOM     12  C   UNL     1      -0.581  -6.149  -5.602  1.00  0.00     0.006 C 
BRANCH  12  13
ATOM     13  C   UNL     1      -1.155  -4.864  -4.979  1.00  0.00     0.053 C 
BRANCH  13  14
ATOM     14  C   UNL     1      -1.235  -3.731  -5.955  1.00  0.00     0.041 C 
ATOM     15  O   UNL     1      -0.242  -3.438  -6.671  1.00  0.00    -0.550 OA
ATOM     16  O   UNL     1      -2.432  -3.045  -6.127  1.00  0.00    -0.550 OA
ENDBRANCH  13  14
ENDBRANCH  12  13
ENDBRANCH  11  12
ENDBRANCH  10  11
ENDBRANCH   9  10
ENDBRANCH   8   9
ENDBRANCH   7   8
ENDBRANCH   6   7
ENDBRANCH   5   6
ENDBRANCH   4   5
ENDBRANCH   3   4
ENDBRANCH   2   3
ENDBRANCH   1   2
BRANCH   1  17
ATOM     17  C   UNL     1       5.364  -5.743  -6.501  1.00  0.00     0.000 C 
BRANCH  17  18
ATOM     18  C   UNL     1       6.311  -6.391  -5.478  1.00  0.00     0.000 C 
BRANCH  18  19
ATOM     19  C   UNL     1       6.903  -5.373  -4.490  1.00  0.00     0.000 C 
BRANCH  19  20
ATOM     20  C   UNL     1       7.013  -3.961  -5.087  1.00  0.00     0.000 C 
BRANCH  20  21
ATOM     21  C   UNL     1       6.147  -2.964  -4.306  1.00  0.00     0.000 C 
BRANCH  21  22
ATOM     22  C   UNL     1       5.534  -1.917  -5.245  1.00  0.00    -0.000 C 
BRANCH  22  23
ATOM     23  C   UNL     1       6.535  -1.488  -6.326  1.00  0.00    -0.000 C 
BRANCH  23  24
ATOM     24  C   UNL     1       5.870  -1.459  -7.708  1.00  0.00    -0.000 C 
BRANCH  24  25
ATOM     25  C   UNL     1       4.655  -2.396  -7.760  1.00  0.00    -0.000 C 
BRANCH  25  26
ATOM     26  C   UNL     1       3.437  -1.677  -8.356  1.00  0.00    -0.000 C 
BRANCH  26  27
ATOM     27  C   UNL     1       2.549  -1.011  -7.292  1.00  0.00    -0.000 C 
BRANCH  27  28
ATOM     28  C   UNL     1       2.732   0.518  -7.195  1.00  0.00    -0.000 C 
BRANCH  28  29
ATOM     29  C   UNL     1       3.518   0.929  -5.941  1.00  0.00    -0.003 C 
ATOM     30  C   UNL     1       4.690   1.842  -6.300  1.00  0.00     0.004 C 
ENDBRANCH  28  29
ENDBRANCH  27  28
ENDBRANCH  26  27
ENDBRANCH  25  26
ENDBRANCH  24  25
ENDBRANCH  23  24
ENDBRANCH  22  23
ENDBRANCH  21  22
ENDBRANCH  20  21
ENDBRANCH  19  20
ENDBRANCH  18  19
ENDBRANCH  17  18
ENDBRANCH   1  17
TORSDOF 26
ENDMDL
