MODEL 1
REMARK VINA RESULT:    -5.969      0.000      0.000
REMARK INTER + INTRA:          -6.318
REMARK INTER:                  -6.318
REMARK INTRA:                   0.000
REMARK UNBOUND:                 0.000
REMARK SMILES O=c1ccc2cc(O)c(O)cc2o1
REMARK SMILES IDX 4 1 3 2 2 3 1 4 13 5 12 6 11 7 9 8 7 9 6 10 5 11 8 12 10 14
REMARK H PARENT 8 13 10 15
REMARK Flexibility Score: inf
ROOT
ATOM      1  C   UNL     1      -4.906  -4.907   8.336  1.00  0.00     0.019 A 
ATOM      2  C   UNL     1      -5.280  -3.572   8.188  1.00  0.00     0.094 A 
ATOM      3  C   UNL     1      -5.672  -3.114   6.926  1.00  0.00     0.336 A 
ATOM      4  O   UNL     1      -6.014  -1.911   6.771  1.00  0.00    -0.246 OA
ATOM      5  O   UNL     1      -5.687  -3.941   5.884  1.00  0.00    -0.423 OA
ATOM      6  C   UNL     1      -5.338  -5.221   5.982  1.00  0.00     0.142 A 
ATOM      7  C   UNL     1      -5.372  -6.044   4.854  1.00  0.00     0.098 A 
ATOM      8  C   UNL     1      -5.007  -7.394   4.941  1.00  0.00     0.161 A 
ATOM      9  C   UNL     1      -4.599  -7.929   6.188  1.00  0.00     0.158 A 
ATOM     10  C   UNL     1      -4.565  -7.102   7.318  1.00  0.00     0.062 A 
ATOM     11  C   UNL     1      -4.931  -5.753   7.223  1.00  0.00     0.022 A 
ENDROOT
BRANCH   9  12
ATOM     12  O   UNL     1      -4.222  -9.264   6.348  1.00  0.00    -0.504 OA
ATOM     13  H   UNL     1      -3.571  -9.588   7.049  1.00  0.00     0.293 HD
ENDBRANCH   9  12
BRANCH   8  14
ATOM     14  O   UNL     1      -5.064  -8.160   3.774  1.00  0.00    -0.504 OA
ATOM     15  H   UNL     1      -5.923  -8.476   3.348  1.00  0.00     0.293 HD
ENDBRANCH   8  14
TORSDOF 2
ENDMDL
MODEL 2
REMARK VINA RESULT:    -5.909      1.945      5.093
REMARK INTER + INTRA:          -6.255
REMARK INTER:                  -6.255
REMARK INTRA:                   0.000
REMARK UNBOUND:                 0.000
REMARK SMILES O=c1ccc2cc(O)c(O)cc2o1
REMARK SMILES IDX 4 1 3 2 2 3 1 4 13 5 12 6 11 7 9 8 7 9 6 10 5 11 8 12 10 14
REMARK H PARENT 8 13 10 15
REMARK Flexibility Score: inf
ROOT
ATOM      1  C   UNL     1      -4.827  -5.987   8.867  1.00  0.00     0.019 A 
ATOM      2  C   UNL     1      -4.337  -6.575   7.702  1.00  0.00     0.094 A 
ATOM      3  C   UNL     1      -4.406  -5.859   6.502  1.00  0.00     0.336 A 
ATOM      4  O   UNL     1      -3.968  -6.372   5.438  1.00  0.00    -0.246 OA
ATOM      5  O   UNL     1      -4.930  -4.636   6.476  1.00  0.00    -0.423 OA
ATOM      6  C   UNL     1      -5.408  -4.040   7.565  1.00  0.00     0.142 A 
ATOM      7  C   UNL     1      -5.948  -2.755   7.479  1.00  0.00     0.098 A 
ATOM      8  C   UNL     1      -6.456  -2.114   8.616  1.00  0.00     0.161 A 
ATOM      9  C   UNL     1      -6.420  -2.778   9.867  1.00  0.00     0.158 A 
ATOM     10  C   UNL     1      -5.878  -4.067   9.952  1.00  0.00     0.062 A 
ATOM     11  C   UNL     1      -5.373  -4.701   8.810  1.00  0.00     0.022 A 
ENDROOT
BRANCH   9  12
ATOM     12  O   UNL     1      -6.908  -2.199  11.042  1.00  0.00    -0.504 OA
ATOM     13  H   UNL     1      -6.688  -2.533  11.970  1.00  0.00     0.293 HD
ENDBRANCH   9  12
BRANCH   8  14
ATOM     14  O   UNL     1      -6.981  -0.829   8.459  1.00  0.00    -0.504 OA
ATOM     15  H   UNL     1      -6.656  -0.166   7.771  1.00  0.00     0.293 HD
ENDBRANCH   8  14
TORSDOF 2
ENDMDL
MODEL 3
REMARK VINA RESULT:    -5.867      1.577      5.012
REMARK INTER + INTRA:          -6.210
REMARK INTER:                  -6.210
REMARK INTRA:                   0.000
REMARK UNBOUND:                 0.000
REMARK SMILES O=c1ccc2cc(O)c(O)cc2o1
REMARK SMILES IDX 4 1 3 2 2 3 1 4 13 5 12 6 11 7 9 8 7 9 6 10 5 11 8 12 10 14
REMARK H PARENT 8 13 10 15
REMARK Flexibility Score: inf
ROOT
ATOM      1  C   UNL     1      -6.157  -5.110   4.990  1.00  0.00     0.019 A 
ATOM      2  C   UNL     1      -5.639  -6.314   4.517  1.00  0.00     0.094 A 
ATOM      3  C   UNL     1      -4.696  -6.997   5.293  1.00  0.00     0.336 A 
ATOM      4  O   UNL     1      -4.215  -8.087   4.884  1.00  0.00    -0.246 OA
ATOM      5  O   UNL     1      -4.303  -6.503   6.464  1.00  0.00    -0.423 OA
ATOM      6  C   UNL     1      -4.773  -5.357   6.951  1.00  0.00     0.142 A 
ATOM      7  C   UNL     1      -4.324  -4.886   8.187  1.00  0.00     0.098 A 
ATOM      8  C   UNL     1      -4.809  -3.682   8.713  1.00  0.00     0.161 A 
ATOM      9  C   UNL     1      -5.766  -2.935   7.982  1.00  0.00     0.158 A 
ATOM     10  C   UNL     1      -6.215  -3.409   6.743  1.00  0.00     0.062 A 
ATOM     11  C   UNL     1      -5.725  -4.614   6.224  1.00  0.00     0.022 A 
ENDROOT
BRANCH   9  12
ATOM     12  O   UNL     1      -6.293  -1.727   8.446  1.00  0.00    -0.504 OA
ATOM     13  H   UNL     1      -7.069  -1.659   9.089  1.00  0.00     0.293 HD
ENDBRANCH   9  12
BRANCH   8  14
ATOM     14  O   UNL     1      -4.317  -3.268   9.953  1.00  0.00    -0.504 OA
ATOM     15  H   UNL     1      -4.735  -2.539  10.512  1.00  0.00     0.293 HD
ENDBRANCH   8  14
TORSDOF 2
ENDMDL
MODEL 4
REMARK VINA RESULT:    -5.786      1.335      4.524
REMARK INTER + INTRA:          -6.124
REMARK INTER:                  -6.124
REMARK INTRA:                   0.000
REMARK UNBOUND:                 0.000
REMARK SMILES O=c1ccc2cc(O)c(O)cc2o1
REMARK SMILES IDX 4 1 3 2 2 3 1 4 13 5 12 6 11 7 9 8 7 9 6 10 5 11 8 12 10 14
REMARK H PARENT 8 13 10 15
REMARK Flexibility Score: inf
ROOT
ATOM      1  C   UNL     1      -3.862  -8.097   6.735  1.00  0.00     0.019 A 
ATOM      2  C   UNL     1      -4.188  -8.919   5.658  1.00  0.00     0.094 A 
ATOM      3  C   UNL     1      -4.962  -8.396   4.616  1.00  0.00     0.336 A 
ATOM      4  O   UNL     1      -5.267  -9.123   3.634  1.00  0.00    -0.246 OA
ATOM      5  O   UNL     1      -5.378  -7.133   4.655  1.00  0.00    -0.423 OA
ATOM      6  C   UNL     1      -5.089  -6.316   5.665  1.00  0.00     0.142 A 
ATOM      7  C   UNL     1      -5.554  -4.999   5.653  1.00  0.00     0.098 A 
ATOM      8  C   UNL     1      -5.258  -4.126   6.708  1.00  0.00     0.161 A 
ATOM      9  C   UNL     1      -4.479  -4.586   7.798  1.00  0.00     0.158 A 
ATOM     10  C   UNL     1      -4.013  -5.907   7.808  1.00  0.00     0.062 A 
ATOM     11  C   UNL     1      -4.313  -6.773   6.749  1.00  0.00     0.022 A 
ENDROOT
BRANCH   9  12
ATOM     12  O   UNL     1      -4.145  -3.771   8.883  1.00  0.00    -0.504 OA
ATOM     13  H   UNL     1      -4.821  -3.367   9.515  1.00  0.00     0.293 HD
ENDBRANCH   9  12
BRANCH   8  14
ATOM     14  O   UNL     1      -5.754  -2.822   6.633  1.00  0.00    -0.504 OA
ATOM     15  H   UNL     1      -6.518  -2.475   7.194  1.00  0.00     0.293 HD
ENDBRANCH   8  14
TORSDOF 2
ENDMDL
MODEL 5
REMARK VINA RESULT:    -5.780      1.928      2.743
REMARK INTER + INTRA:          -6.118
REMARK INTER:                  -6.118
REMARK INTRA:                   0.000
REMARK UNBOUND:                 0.000
REMARK SMILES O=c1ccc2cc(O)c(O)cc2o1
REMARK SMILES IDX 4 1 3 2 2 3 1 4 13 5 12 6 11 7 9 8 7 9 6 10 5 11 8 12 10 14
REMARK H PARENT 8 13 10 15
REMARK Flexibility Score: inf
ROOT
ATOM      1  C   UNL     1      -6.876  -6.305   4.374  1.00  0.00     0.019 A 
ATOM      2  C   UNL     1      -7.251  -5.028   4.789  1.00  0.00     0.094 A 
ATOM      3  C   UNL     1      -6.346  -4.267   5.537  1.00  0.00     0.336 A 
ATOM      4  O   UNL     1      -6.665  -3.111   5.922  1.00  0.00    -0.246 OA
ATOM      5  O   UNL     1      -5.147  -4.755   5.845  1.00  0.00    -0.423 OA
ATOM      6  C   UNL     1      -4.751  -5.968   5.468  1.00  0.00     0.142 A 
ATOM      7  C   UNL     1      -3.481  -6.430   5.820  1.00  0.00     0.098 A 
ATOM      8  C   UNL     1      -3.049  -7.705   5.431  1.00  0.00     0.161 A 
ATOM      9  C   UNL     1      -3.912  -8.533   4.672  1.00  0.00     0.158 A 
ATOM     10  C   UNL     1      -5.186  -8.068   4.319  1.00  0.00     0.062 A 
ATOM     11  C   UNL     1      -5.610  -6.793   4.712  1.00  0.00     0.022 A 
ENDROOT
BRANCH   9  12
ATOM     12  O   UNL     1      -3.547  -9.814   4.249  1.00  0.00    -0.504 OA
ATOM     13  H   UNL     1      -3.022 -10.003   3.407  1.00  0.00     0.293 HD
ENDBRANCH   9  12
BRANCH   8  14
ATOM     14  O   UNL     1      -1.767  -8.104   5.817  1.00  0.00    -0.504 OA
ATOM     15  H   UNL     1      -1.053  -8.412   5.172  1.00  0.00     0.293 HD
ENDBRANCH   8  14
TORSDOF 2
ENDMDL
MODEL 6
REMARK VINA RESULT:    -5.504      1.515      5.003
REMARK INTER + INTRA:          -5.826
REMARK INTER:                  -5.826
REMARK INTRA:                   0.000
REMARK UNBOUND:                 0.000
REMARK SMILES O=c1ccc2cc(O)c(O)cc2o1
REMARK SMILES IDX 4 1 3 2 2 3 1 4 13 5 12 6 11 7 9 8 7 9 6 10 5 11 8 12 10 14
REMARK H PARENT 8 13 10 15
REMARK Flexibility Score: inf
ROOT
ATOM      1  C   UNL     1      -5.102  -7.957   4.506  1.00  0.00     0.019 A 
ATOM      2  C   UNL     1      -4.334  -9.019   4.981  1.00  0.00     0.094 A 
ATOM      3  C   UNL     1      -3.662  -8.877   6.199  1.00  0.00     0.336 A 
ATOM      4  O   UNL     1      -2.963  -9.825   6.646  1.00  0.00    -0.246 OA
ATOM      5  O   UNL     1      -3.756  -7.745   6.893  1.00  0.00    -0.423 OA
ATOM      6  C   UNL     1      -4.477  -6.709   6.475  1.00  0.00     0.142 A 
ATOM      7  C   UNL     1      -4.539  -5.545   7.244  1.00  0.00     0.098 A 
ATOM      8  C   UNL     1      -5.295  -4.444   6.818  1.00  0.00     0.161 A 
ATOM      9  C   UNL     1      -6.003  -4.515   5.593  1.00  0.00     0.158 A 
ATOM     10  C   UNL     1      -5.940  -5.684   4.823  1.00  0.00     0.062 A 
ATOM     11  C   UNL     1      -5.182  -6.779   5.256  1.00  0.00     0.022 A 
ENDROOT
BRANCH   9  12
ATOM     12  O   UNL     1      -6.776  -3.457   5.107  1.00  0.00    -0.504 OA
ATOM     13  H   UNL     1      -6.778  -3.155   4.143  1.00  0.00     0.293 HD
ENDBRANCH   9  12
BRANCH   8  14
ATOM     14  O   UNL     1      -5.313  -3.312   7.635  1.00  0.00    -0.504 OA
ATOM     15  H   UNL     1      -4.746  -3.203   8.463  1.00  0.00     0.293 HD
ENDBRANCH   8  14
TORSDOF 2
ENDMDL
MODEL 7
REMARK VINA RESULT:    -5.428      2.652      4.171
REMARK INTER + INTRA:          -5.746
REMARK INTER:                  -5.746
REMARK INTRA:                   0.000
REMARK UNBOUND:                 0.000
REMARK SMILES O=c1ccc2cc(O)c(O)cc2o1
REMARK SMILES IDX 4 1 3 2 2 3 1 4 13 5 12 6 11 7 9 8 7 9 6 10 5 11 8 12 10 14
REMARK H PARENT 8 13 10 15
REMARK Flexibility Score: inf
ROOT
ATOM      1  C   UNL     1      -7.130  -4.436   5.298  1.00  0.00     0.019 A 
ATOM      2  C   UNL     1      -7.901  -3.426   4.724  1.00  0.00     0.094 A 
ATOM      3  C   UNL     1      -7.941  -2.172   5.343  1.00  0.00     0.336 A 
ATOM      4  O   UNL     1      -8.631  -1.246   4.840  1.00  0.00    -0.246 OA
ATOM      5  O   UNL     1      -7.254  -1.949   6.460  1.00  0.00    -0.423 OA
ATOM      6  C   UNL     1      -6.507  -2.885   7.039  1.00  0.00     0.142 A 
ATOM      7  C   UNL     1      -5.807  -2.595   8.212  1.00  0.00     0.098 A 
ATOM      8  C   UNL     1      -5.016  -3.570   8.834  1.00  0.00     0.161 A 
ATOM      9  C   UNL     1      -4.927  -4.864   8.265  1.00  0.00     0.158 A 
ATOM     10  C   UNL     1      -5.630  -5.154   7.088  1.00  0.00     0.062 A 
ATOM     11  C   UNL     1      -6.418  -4.173   6.473  1.00  0.00     0.022 A 
ENDROOT
BRANCH   9  12
ATOM     12  O   UNL     1      -4.158  -5.885   8.831  1.00  0.00    -0.504 OA
ATOM     13  H   UNL     1      -4.525  -6.786   9.101  1.00  0.00     0.293 HD
ENDBRANCH   9  12
BRANCH   8  14
ATOM     14  O   UNL     1      -4.343  -3.212  10.004  1.00  0.00    -0.504 OA
ATOM     15  H   UNL     1      -3.770  -3.846  10.542  1.00  0.00     0.293 HD
ENDBRANCH   8  14
TORSDOF 2
ENDMDL
MODEL 8
REMARK VINA RESULT:    -5.395      1.740      5.267
REMARK INTER + INTRA:          -5.710
REMARK INTER:                  -5.710
REMARK INTRA:                   0.000
REMARK UNBOUND:                 0.000
REMARK SMILES O=c1ccc2cc(O)c(O)cc2o1
REMARK SMILES IDX 4 1 3 2 2 3 1 4 13 5 12 6 11 7 9 8 7 9 6 10 5 11 8 12 10 14
REMARK H PARENT 8 13 10 15
REMARK Flexibility Score: inf
ROOT
ATOM      1  C   UNL     1      -6.697  -5.603   4.487  1.00  0.00     0.019 A 
ATOM      2  C   UNL     1      -5.651  -6.523   4.544  1.00  0.00     0.094 A 
ATOM      3  C   UNL     1      -4.616  -6.314   5.462  1.00  0.00     0.336 A 
ATOM      4  O   UNL     1      -3.662  -7.134   5.530  1.00  0.00    -0.246 OA
ATOM      5  O   UNL     1      -4.633  -5.255   6.267  1.00  0.00    -0.423 OA
ATOM      6  C   UNL     1      -5.612  -4.355   6.244  1.00  0.00     0.142 A 
ATOM      7  C   UNL     1      -5.577  -3.262   7.113  1.00  0.00     0.098 A 
ATOM      8  C   UNL     1      -6.600  -2.305   7.101  1.00  0.00     0.161 A 
ATOM      9  C   UNL     1      -7.681  -2.449   6.197  1.00  0.00     0.158 A 
ATOM     10  C   UNL     1      -7.715  -3.546   5.327  1.00  0.00     0.062 A 
ATOM     11  C   UNL     1      -6.688  -4.499   5.345  1.00  0.00     0.022 A 
ENDROOT
BRANCH   9  12
ATOM     12  O   UNL     1      -8.735  -1.534   6.131  1.00  0.00    -0.504 OA
ATOM     13  H   UNL     1      -8.738  -0.717   5.538  1.00  0.00     0.293 HD
ENDBRANCH   9  12
BRANCH   8  14
ATOM     14  O   UNL     1      -6.502  -1.237   7.996  1.00  0.00    -0.504 OA
ATOM     15  H   UNL     1      -7.153  -1.070   8.749  1.00  0.00     0.293 HD
ENDBRANCH   8  14
TORSDOF 2
ENDMDL
MODEL 9
REMARK VINA RESULT:    -5.372      1.361      2.347
REMARK INTER + INTRA:          -5.686
REMARK INTER:                  -5.686
REMARK INTRA:                   0.000
REMARK UNBOUND:                 0.000
REMARK SMILES O=c1ccc2cc(O)c(O)cc2o1
REMARK SMILES IDX 4 1 3 2 2 3 1 4 13 5 12 6 11 7 9 8 7 9 6 10 5 11 8 12 10 14
REMARK H PARENT 8 13 10 15
REMARK Flexibility Score: inf
ROOT
ATOM      1  C   UNL     1      -5.898  -4.310   6.124  1.00  0.00     0.019 A 
ATOM      2  C   UNL     1      -5.700  -3.555   7.279  1.00  0.00     0.094 A 
ATOM      3  C   UNL     1      -4.891  -4.072   8.296  1.00  0.00     0.336 A 
ATOM      4  O   UNL     1      -4.699  -3.406   9.348  1.00  0.00    -0.246 OA
ATOM      5  O   UNL     1      -4.320  -5.267   8.162  1.00  0.00    -0.423 OA
ATOM      6  C   UNL     1      -4.484  -6.019   7.076  1.00  0.00     0.142 A 
ATOM      7  C   UNL     1      -3.861  -7.266   6.989  1.00  0.00     0.098 A 
ATOM      8  C   UNL     1      -4.024  -8.070   5.853  1.00  0.00     0.161 A 
ATOM      9  C   UNL     1      -4.830  -7.611   4.782  1.00  0.00     0.158 A 
ATOM     10  C   UNL     1      -5.454  -6.360   4.871  1.00  0.00     0.062 A 
ATOM     11  C   UNL     1      -5.286  -5.562   6.010  1.00  0.00     0.022 A 
ENDROOT
BRANCH   9  12
ATOM     12  O   UNL     1      -5.035  -8.359   3.620  1.00  0.00    -0.504 OA
ATOM     13  H   UNL     1      -5.777  -8.181   2.958  1.00  0.00     0.293 HD
ENDBRANCH   9  12
BRANCH   8  14
ATOM     14  O   UNL     1      -3.373  -9.305   5.832  1.00  0.00    -0.504 OA
ATOM     15  H   UNL     1      -2.448  -9.450   5.453  1.00  0.00     0.293 HD
ENDBRANCH   8  14
TORSDOF 2
ENDMDL
