MODEL 1
REMARK VINA RESULT:     5.729      0.000      0.000
REMARK INTER + INTRA:           8.032
REMARK INTER:                   7.738
REMARK INTRA:                   0.294
REMARK UNBOUND:                 0.294
REMARK SMILES CC[C@@H](CC[C@@H](C)[C@@H]1CC[C@@H]2[C@H]3CC(=O)C4=CC(=O)CC[C@@]4(C)[C@H]3CC[C@@]21C)C(C)C
REMARK SMILES IDX 4 1 3 2 2 3 1 4 29 5 30 6 31 7 5 8 6 9 7 10 8 11 9 12 27 13
REMARK SMILES IDX 10 14 11 15 26 16 28 17 12 18 25 19 24 20 13 21 22 22 14 23
REMARK SMILES IDX 16 24 21 25 23 26 15 27 17 28 20 29 18 30 19 31
REMARK H PARENT
REMARK Flexibility Score: inf
ROOT
ATOM      1  C   UNL     1      -8.125 -12.266  35.490  1.00  0.00     0.004 C 
ENDROOT
BRANCH   1   2
ATOM      2  C   UNL     1      -8.847 -11.497  36.628  1.00  0.00    -0.009 C 
BRANCH   2   3
ATOM      3  C   UNL     1      -9.345 -10.093  36.178  1.00  0.00     0.000 C 
ATOM      4  C   UNL     1      -9.693  -9.976  34.690  1.00  0.00     0.004 C 
ENDBRANCH   2   3
BRANCH   2   5
ATOM      5  C   UNL     1      -8.029 -11.409  37.970  1.00  0.00    -0.014 C 
ATOM      6  C   UNL     1      -7.106 -12.633  38.125  1.00  0.00     0.007 C 
ATOM      7  C   UNL     1      -7.181 -10.132  38.119  1.00  0.00     0.007 C 
ENDBRANCH   2   5
ENDBRANCH   1   2
BRANCH   1   8
ATOM      8  C   UNL     1      -6.672 -11.803  35.249  1.00  0.00     0.004 C 
BRANCH   8   9
ATOM      9  C   UNL     1      -5.784 -12.946  34.673  1.00  0.00    -0.011 C 
ATOM     10  C   UNL     1      -6.697 -14.025  34.041  1.00  0.00     0.008 C 
BRANCH   9  11
ATOM     11  C   UNL     1      -4.658 -12.354  33.746  1.00  0.00    -0.002 C 
ATOM     12  C   UNL     1      -4.910 -10.943  33.216  1.00  0.00     0.005 C 
ATOM     13  C   UNL     1      -4.118 -13.182  32.536  1.00  0.00    -0.026 C 
ATOM     14  C   UNL     1      -3.953 -10.759  32.043  1.00  0.00     0.005 C 
ATOM     15  C   UNL     1      -3.260 -12.115  31.797  1.00  0.00    -0.001 C 
ATOM     16  C   UNL     1      -5.254 -13.716  31.627  1.00  0.00     0.007 C 
ATOM     17  C   UNL     1      -3.253 -14.363  33.054  1.00  0.00     0.012 C 
ATOM     18  C   UNL     1      -2.963 -12.353  30.285  1.00  0.00     0.004 C 
ATOM     19  C   UNL     1      -4.822 -14.064  30.201  1.00  0.00     0.005 C 
ATOM     20  C   UNL     1      -4.212 -12.833  29.491  1.00  0.00     0.003 C 
ATOM     21  C   UNL     1      -1.748 -13.282  30.085  1.00  0.00     0.085 C 
ATOM     22  C   UNL     1      -3.916 -13.013  27.944  1.00  0.00    -0.000 C 
ATOM     23  C   UNL     1      -1.474 -13.528  28.637  1.00  0.00     0.159 C 
ATOM     24  C   UNL     1      -2.590 -13.727  27.691  1.00  0.00     0.005 C 
ATOM     25  C   UNL     1      -5.067 -13.804  27.239  1.00  0.00     0.020 C 
ATOM     26  C   UNL     1      -3.821 -11.603  27.296  1.00  0.00     0.017 C 
ATOM     27  O   UNL     1      -0.278 -13.610  28.245  1.00  0.00    -0.295 OA
ATOM     28  C   UNL     1      -2.371 -14.393  26.538  1.00  0.00     0.055 C 
ATOM     29  C   UNL     1      -4.813 -14.038  25.746  1.00  0.00     0.081 C 
ATOM     30  C   UNL     1      -3.425 -14.570  25.522  1.00  0.00     0.156 C 
ATOM     31  O   UNL     1      -3.150 -15.152  24.439  1.00  0.00    -0.295 OA
ENDBRANCH   9  11
ENDBRANCH   8   9
ENDBRANCH   1   8
TORSDOF 6
ENDMDL
MODEL 2
REMARK VINA RESULT:     6.097      0.773      1.691
REMARK INTER + INTRA:           8.530
REMARK INTER:                   6.355
REMARK INTRA:                   2.175
REMARK UNBOUND:                 0.294
REMARK SMILES CC[C@@H](CC[C@@H](C)[C@@H]1CC[C@@H]2[C@H]3CC(=O)C4=CC(=O)CC[C@@]4(C)[C@H]3CC[C@@]21C)C(C)C
REMARK SMILES IDX 4 1 3 2 2 3 1 4 29 5 30 6 31 7 5 8 6 9 7 10 8 11 9 12 27 13
REMARK SMILES IDX 10 14 11 15 26 16 28 17 12 18 25 19 24 20 13 21 22 22 14 23
REMARK SMILES IDX 16 24 21 25 23 26 15 27 17 28 20 29 18 30 19 31
REMARK H PARENT
REMARK Flexibility Score: inf
ROOT
ATOM      1  C   UNL     1      -6.391 -10.837  35.668  1.00  0.00     0.004 C 
ENDROOT
BRANCH   1   2
ATOM      2  C   UNL     1      -6.983  -9.902  36.755  1.00  0.00    -0.009 C 
BRANCH   2   3
ATOM      3  C   UNL     1      -6.123  -9.875  38.052  1.00  0.00     0.000 C 
ATOM      4  C   UNL     1      -4.613 -10.020  37.831  1.00  0.00     0.004 C 
ENDBRANCH   2   3
BRANCH   2   5
ATOM      5  C   UNL     1      -8.500 -10.168  37.081  1.00  0.00    -0.014 C 
ATOM      6  C   UNL     1      -9.323 -10.280  35.784  1.00  0.00     0.007 C 
ATOM      7  C   UNL     1      -8.759 -11.422  37.938  1.00  0.00     0.007 C 
ENDBRANCH   2   5
ENDBRANCH   1   2
BRANCH   1   8
ATOM      8  C   UNL     1      -7.024 -12.246  35.645  1.00  0.00     0.004 C 
BRANCH   8   9
ATOM      9  C   UNL     1      -6.088 -13.295  34.975  1.00  0.00    -0.011 C 
ATOM     10  C   UNL     1      -6.954 -14.366  34.268  1.00  0.00     0.008 C 
BRANCH   9  11
ATOM     11  C   UNL     1      -5.002 -12.578  34.088  1.00  0.00    -0.002 C 
ATOM     12  C   UNL     1      -5.367 -11.176  33.601  1.00  0.00     0.005 C 
ATOM     13  C   UNL     1      -4.376 -13.315  32.861  1.00  0.00    -0.026 C 
ATOM     14  C   UNL     1      -4.411 -10.871  32.452  1.00  0.00     0.005 C 
ATOM     15  C   UNL     1      -3.601 -12.154  32.173  1.00  0.00    -0.001 C 
ATOM     16  C   UNL     1      -5.449 -13.912  31.915  1.00  0.00     0.007 C 
ATOM     17  C   UNL     1      -3.420 -14.436  33.355  1.00  0.00     0.012 C 
ATOM     18  C   UNL     1      -3.263 -12.314  30.659  1.00  0.00     0.004 C 
ATOM     19  C   UNL     1      -4.967 -14.173  30.486  1.00  0.00     0.005 C 
ATOM     20  C   UNL     1      -4.454 -12.871  29.828  1.00  0.00     0.003 C 
ATOM     21  C   UNL     1      -1.970 -13.128  30.451  1.00  0.00     0.085 C 
ATOM     22  C   UNL     1      -4.121 -12.971  28.281  1.00  0.00    -0.000 C 
ATOM     23  C   UNL     1      -1.654 -13.300  29.001  1.00  0.00     0.159 C 
ATOM     24  C   UNL     1      -2.735 -13.561  28.029  1.00  0.00     0.005 C 
ATOM     25  C   UNL     1      -5.190 -13.832  27.531  1.00  0.00     0.020 C 
ATOM     26  C   UNL     1      -4.137 -11.537  27.683  1.00  0.00     0.017 C 
ATOM     27  O   UNL     1      -0.450 -13.267  28.628  1.00  0.00    -0.295 OA
ATOM     28  C   UNL     1      -2.443 -14.165  26.859  1.00  0.00     0.055 C 
ATOM     29  C   UNL     1      -4.894 -13.992  26.035  1.00  0.00     0.081 C 
ATOM     30  C   UNL     1      -3.463 -14.396  25.819  1.00  0.00     0.156 C 
ATOM     31  O   UNL     1      -3.123 -14.915  24.722  1.00  0.00    -0.295 OA
ENDBRANCH   9  11
ENDBRANCH   8   9
ENDBRANCH   1   8
TORSDOF 6
ENDMDL
MODEL 3
REMARK VINA RESULT:     6.645      1.820      3.616
REMARK INTER + INTRA:           9.270
REMARK INTER:                   9.145
REMARK INTRA:                   0.125
REMARK UNBOUND:                 0.294
REMARK SMILES CC[C@@H](CC[C@@H](C)[C@@H]1CC[C@@H]2[C@H]3CC(=O)C4=CC(=O)CC[C@@]4(C)[C@H]3CC[C@@]21C)C(C)C
REMARK SMILES IDX 4 1 3 2 2 3 1 4 29 5 30 6 31 7 5 8 6 9 7 10 8 11 9 12 27 13
REMARK SMILES IDX 10 14 11 15 26 16 28 17 12 18 25 19 24 20 13 21 22 22 14 23
REMARK SMILES IDX 16 24 21 25 23 26 15 27 17 28 20 29 18 30 19 31
REMARK H PARENT
REMARK Flexibility Score: inf
ROOT
ATOM      1  C   UNL     1      -8.402  -9.998  34.454  1.00  0.00     0.004 C 
ENDROOT
BRANCH   1   2
ATOM      2  C   UNL     1      -9.639 -10.804  34.931  1.00  0.00    -0.009 C 
BRANCH   2   3
ATOM      3  C   UNL     1     -10.948  -9.961  34.902  1.00  0.00     0.000 C 
ATOM      4  C   UNL     1     -12.068 -10.535  34.028  1.00  0.00     0.004 C 
ENDBRANCH   2   3
BRANCH   2   5
ATOM      5  C   UNL     1      -9.450 -11.517  36.321  1.00  0.00    -0.014 C 
ATOM      6  C   UNL     1      -8.476 -12.704  36.195  1.00  0.00     0.007 C 
ATOM      7  C   UNL     1      -8.957 -10.595  37.452  1.00  0.00     0.007 C 
ENDBRANCH   2   5
ENDBRANCH   1   2
BRANCH   1   8
ATOM      8  C   UNL     1      -7.288  -9.880  35.517  1.00  0.00     0.004 C 
BRANCH   8   9
ATOM      9  C   UNL     1      -5.868 -10.022  34.892  1.00  0.00    -0.011 C 
ATOM     10  C   UNL     1      -4.814 -10.022  36.026  1.00  0.00     0.008 C 
BRANCH   9  11
ATOM     11  C   UNL     1      -5.823 -11.241  33.896  1.00  0.00    -0.002 C 
ATOM     12  C   UNL     1      -5.555 -12.604  34.532  1.00  0.00     0.005 C 
ATOM     13  C   UNL     1      -4.934 -11.177  32.613  1.00  0.00    -0.026 C 
ATOM     14  C   UNL     1      -5.132 -13.522  33.390  1.00  0.00     0.005 C 
ATOM     15  C   UNL     1      -5.005 -12.652  32.122  1.00  0.00    -0.001 C 
ATOM     16  C   UNL     1      -3.475 -10.757  32.921  1.00  0.00     0.007 C 
ATOM     17  C   UNL     1      -5.565 -10.195  31.588  1.00  0.00     0.012 C 
ATOM     18  C   UNL     1      -3.866 -13.152  31.182  1.00  0.00     0.004 C 
ATOM     19  C   UNL     1      -2.454 -11.166  31.856  1.00  0.00     0.005 C 
ATOM     20  C   UNL     1      -2.453 -12.698  31.649  1.00  0.00     0.003 C 
ATOM     21  C   UNL     1      -4.143 -12.784  29.711  1.00  0.00     0.085 C 
ATOM     22  C   UNL     1      -1.296 -13.263  30.723  1.00  0.00    -0.000 C 
ATOM     23  C   UNL     1      -3.043 -13.244  28.810  1.00  0.00     0.159 C 
ATOM     24  C   UNL     1      -1.635 -13.134  29.240  1.00  0.00     0.005 C 
ATOM     25  C   UNL     1       0.058 -12.533  31.007  1.00  0.00     0.020 C 
ATOM     26  C   UNL     1      -1.114 -14.775  31.034  1.00  0.00     0.017 C 
ATOM     27  O   UNL     1      -3.332 -13.680  27.663  1.00  0.00    -0.295 OA
ATOM     28  C   UNL     1      -0.659 -13.094  28.309  1.00  0.00     0.055 C 
ATOM     29  C   UNL     1       1.203 -13.016  30.110  1.00  0.00     0.081 C 
ATOM     30  C   UNL     1       0.770 -13.051  28.671  1.00  0.00     0.156 C 
ATOM     31  O   UNL     1       1.641 -13.072  27.761  1.00  0.00    -0.295 OA
ENDBRANCH   9  11
ENDBRANCH   8   9
ENDBRANCH   1   8
TORSDOF 6
ENDMDL
MODEL 4
REMARK VINA RESULT:     7.558      1.893      4.069
REMARK INTER + INTRA:          10.504
REMARK INTER:                  10.518
REMARK INTRA:                  -0.014
REMARK UNBOUND:                 0.294
REMARK SMILES CC[C@@H](CC[C@@H](C)[C@@H]1CC[C@@H]2[C@H]3CC(=O)C4=CC(=O)CC[C@@]4(C)[C@H]3CC[C@@]21C)C(C)C
REMARK SMILES IDX 4 1 3 2 2 3 1 4 29 5 30 6 31 7 5 8 6 9 7 10 8 11 9 12 27 13
REMARK SMILES IDX 10 14 11 15 26 16 28 17 12 18 25 19 24 20 13 21 22 22 14 23
REMARK SMILES IDX 16 24 21 25 23 26 15 27 17 28 20 29 18 30 19 31
REMARK H PARENT
REMARK Flexibility Score: inf
ROOT
ATOM      1  C   UNL     1      -8.472  -9.875  34.653  1.00  0.00     0.004 C 
ENDROOT
BRANCH   1   2
ATOM      2  C   UNL     1      -9.864 -10.126  35.290  1.00  0.00    -0.009 C 
BRANCH   2   3
ATOM      3  C   UNL     1      -9.947 -11.496  36.025  1.00  0.00     0.000 C 
ATOM      4  C   UNL     1      -8.595 -12.105  36.413  1.00  0.00     0.004 C 
ENDBRANCH   2   3
BRANCH   2   5
ATOM      5  C   UNL     1     -11.072  -9.936  34.299  1.00  0.00    -0.014 C 
ATOM      6  C   UNL     1     -11.078 -11.047  33.231  1.00  0.00     0.007 C 
ATOM      7  C   UNL     1     -12.455  -9.898  34.976  1.00  0.00     0.007 C 
ENDBRANCH   2   5
ENDBRANCH   1   2
BRANCH   1   8
ATOM      8  C   UNL     1      -7.308  -9.904  35.667  1.00  0.00     0.004 C 
BRANCH   8   9
ATOM      9  C   UNL     1      -5.920  -9.959  34.961  1.00  0.00    -0.011 C 
ATOM     10  C   UNL     1      -4.805  -9.875  36.032  1.00  0.00     0.008 C 
BRANCH   9  11
ATOM     11  C   UNL     1      -5.851 -11.184  33.975  1.00  0.00    -0.002 C 
ATOM     12  C   UNL     1      -5.579 -12.540  34.624  1.00  0.00     0.005 C 
ATOM     13  C   UNL     1      -4.946 -11.121  32.703  1.00  0.00    -0.026 C 
ATOM     14  C   UNL     1      -5.133 -13.463  33.494  1.00  0.00     0.005 C 
ATOM     15  C   UNL     1      -4.997 -12.600  32.222  1.00  0.00    -0.001 C 
ATOM     16  C   UNL     1      -3.495 -10.686  33.028  1.00  0.00     0.007 C 
ATOM     17  C   UNL     1      -5.572 -10.152  31.663  1.00  0.00     0.012 C 
ATOM     18  C   UNL     1      -3.841 -13.096  31.301  1.00  0.00     0.004 C 
ATOM     19  C   UNL     1      -2.456 -11.093  31.980  1.00  0.00     0.005 C 
ATOM     20  C   UNL     1      -2.439 -12.627  31.784  1.00  0.00     0.003 C 
ATOM     21  C   UNL     1      -4.101 -12.741  29.823  1.00  0.00     0.085 C 
ATOM     22  C   UNL     1      -1.265 -13.187  30.877  1.00  0.00    -0.000 C 
ATOM     23  C   UNL     1      -2.986 -13.197  28.941  1.00  0.00     0.159 C 
ATOM     24  C   UNL     1      -1.584 -13.072  29.388  1.00  0.00     0.005 C 
ATOM     25  C   UNL     1       0.079 -12.443  31.173  1.00  0.00     0.020 C 
ATOM     26  C   UNL     1      -1.073 -14.695  31.201  1.00  0.00     0.017 C 
ATOM     27  O   UNL     1      -3.255 -13.644  27.793  1.00  0.00    -0.295 OA
ATOM     28  C   UNL     1      -0.596 -13.030  28.470  1.00  0.00     0.055 C 
ATOM     29  C   UNL     1       1.240 -12.922  30.295  1.00  0.00     0.081 C 
ATOM     30  C   UNL     1       0.827 -12.971  28.851  1.00  0.00     0.156 C 
ATOM     31  O   UNL     1       1.710 -12.990  27.953  1.00  0.00    -0.295 OA
ENDBRANCH   9  11
ENDBRANCH   8   9
ENDBRANCH   1   8
TORSDOF 6
ENDMDL
