MODEL 1
REMARK VINA RESULT:    -3.544      0.000      0.000
REMARK INTER + INTRA:          -4.624
REMARK INTER:                  -4.373
REMARK INTRA:                  -0.251
REMARK UNBOUND:                -0.251
REMARK SMILES CCCCCC(=O)[O-]
REMARK SMILES IDX 4 1 5 2 6 3 7 4 8 5 3 6 2 7 1 8
REMARK H PARENT
REMARK Flexibility Score: inf
ROOT
ATOM      1  C   UNL     1      -5.188   6.802  -3.079  1.00  0.00     0.006 C 
ENDROOT
BRANCH   1   2
ATOM      2  C   UNL     1      -6.223   5.735  -3.451  1.00  0.00     0.053 C 
BRANCH   2   3
ATOM      3  C   UNL     1      -7.575   6.353  -3.621  1.00  0.00     0.041 C 
ATOM      4  O   UNL     1      -7.905   6.862  -4.724  1.00  0.00    -0.550 OA
ATOM      5  O   UNL     1      -8.453   6.410  -2.546  1.00  0.00    -0.550 OA
ENDBRANCH   2   3
ENDBRANCH   1   2
BRANCH   1   6
ATOM      6  C   UNL     1      -4.347   7.200  -4.301  1.00  0.00     0.000 C 
BRANCH   6   7
ATOM      7  C   UNL     1      -4.783   8.544  -4.905  1.00  0.00    -0.003 C 
ATOM      8  C   UNL     1      -5.345   9.507  -3.859  1.00  0.00     0.004 C 
ENDBRANCH   6   7
ENDBRANCH   1   6
TORSDOF 4
ENDMDL
MODEL 2
REMARK VINA RESULT:    -3.461      1.825      3.461
REMARK INTER + INTRA:          -4.521
REMARK INTER:                  -4.263
REMARK INTRA:                  -0.257
REMARK UNBOUND:                -0.251
REMARK SMILES CCCCCC(=O)[O-]
REMARK SMILES IDX 4 1 5 2 6 3 7 4 8 5 3 6 2 7 1 8
REMARK H PARENT
REMARK Flexibility Score: inf
ROOT
ATOM      1  C   UNL     1      -5.591   8.059  -2.697  1.00  0.00     0.006 C 
ENDROOT
BRANCH   1   2
ATOM      2  C   UNL     1      -5.201   9.228  -3.608  1.00  0.00     0.053 C 
BRANCH   2   3
ATOM      3  C   UNL     1      -5.516   8.907  -5.035  1.00  0.00     0.041 C 
ATOM      4  O   UNL     1      -6.713   8.818  -5.416  1.00  0.00    -0.550 OA
ATOM      5  O   UNL     1      -4.487   8.658  -5.935  1.00  0.00    -0.550 OA
ENDBRANCH   2   3
ENDBRANCH   1   2
BRANCH   1   6
ATOM      6  C   UNL     1      -4.754   6.811  -3.017  1.00  0.00     0.000 C 
BRANCH   6   7
ATOM      7  C   UNL     1      -5.621   5.600  -3.394  1.00  0.00    -0.003 C 
ATOM      8  C   UNL     1      -7.117   5.912  -3.361  1.00  0.00     0.004 C 
ENDBRANCH   6   7
ENDBRANCH   1   6
TORSDOF 4
ENDMDL
MODEL 3
REMARK VINA RESULT:    -3.458      1.114      1.871
REMARK INTER + INTRA:          -4.517
REMARK INTER:                  -4.282
REMARK INTRA:                  -0.235
REMARK UNBOUND:                -0.251
REMARK SMILES CCCCCC(=O)[O-]
REMARK SMILES IDX 4 1 5 2 6 3 7 4 8 5 3 6 2 7 1 8
REMARK H PARENT
REMARK Flexibility Score: inf
ROOT
ATOM      1  C   UNL     1      -6.251   5.675  -3.470  1.00  0.00     0.006 C 
ENDROOT
BRANCH   1   2
ATOM      2  C   UNL     1      -7.599   6.266  -3.046  1.00  0.00     0.053 C 
BRANCH   2   3
ATOM      3  C   UNL     1      -7.922   7.475  -3.865  1.00  0.00     0.041 C 
ATOM      4  O   UNL     1      -7.965   8.613  -3.327  1.00  0.00    -0.550 OA
ATOM      5  O   UNL     1      -8.224   7.341  -5.214  1.00  0.00    -0.550 OA
ENDBRANCH   2   3
ENDBRANCH   1   2
BRANCH   1   6
ATOM      6  C   UNL     1      -5.096   6.618  -3.097  1.00  0.00     0.000 C 
BRANCH   6   7
ATOM      7  C   UNL     1      -4.216   6.978  -4.303  1.00  0.00    -0.003 C 
ATOM      8  C   UNL     1      -4.587   8.323  -4.926  1.00  0.00     0.004 C 
ENDBRANCH   6   7
ENDBRANCH   1   6
TORSDOF 4
ENDMDL
MODEL 4
REMARK VINA RESULT:    -3.446      1.292      2.383
REMARK INTER + INTRA:          -4.503
REMARK INTER:                  -4.263
REMARK INTRA:                  -0.240
REMARK UNBOUND:                -0.251
REMARK SMILES CCCCCC(=O)[O-]
REMARK SMILES IDX 4 1 5 2 6 3 7 4 8 5 3 6 2 7 1 8
REMARK H PARENT
REMARK Flexibility Score: inf
ROOT
ATOM      1  C   UNL     1      -5.343   7.545  -2.819  1.00  0.00     0.006 C 
ENDROOT
BRANCH   1   2
ATOM      2  C   UNL     1      -6.799   7.904  -3.133  1.00  0.00     0.053 C 
BRANCH   2   3
ATOM      3  C   UNL     1      -7.479   6.771  -3.834  1.00  0.00     0.041 C 
ATOM      4  O   UNL     1      -7.399   5.602  -3.373  1.00  0.00    -0.550 OA
ATOM      5  O   UNL     1      -8.160   6.997  -5.023  1.00  0.00    -0.550 OA
ENDBRANCH   2   3
ENDBRANCH   1   2
BRANCH   1   6
ATOM      6  C   UNL     1      -4.526   7.386  -4.111  1.00  0.00     0.000 C 
BRANCH   6   7
ATOM      7  C   UNL     1      -3.895   5.991  -4.242  1.00  0.00    -0.003 C 
ATOM      8  C   UNL     1      -3.743   5.282  -2.896  1.00  0.00     0.004 C 
ENDBRANCH   6   7
ENDBRANCH   1   6
TORSDOF 4
ENDMDL
MODEL 5
REMARK VINA RESULT:    -3.382      2.330      3.280
REMARK INTER + INTRA:          -4.424
REMARK INTER:                  -4.225
REMARK INTRA:                  -0.199
REMARK UNBOUND:                -0.251
REMARK SMILES CCCCCC(=O)[O-]
REMARK SMILES IDX 4 1 5 2 6 3 7 4 8 5 3 6 2 7 1 8
REMARK H PARENT
REMARK Flexibility Score: inf
ROOT
ATOM      1  C   UNL     1      -6.956   6.052  -3.248  1.00  0.00     0.006 C 
ENDROOT
BRANCH   1   2
ATOM      2  C   UNL     1      -5.468   5.853  -3.554  1.00  0.00     0.053 C 
BRANCH   2   3
ATOM      3  C   UNL     1      -4.759   7.170  -3.586  1.00  0.00     0.041 C 
ATOM      4  O   UNL     1      -4.214   7.571  -4.647  1.00  0.00    -0.550 OA
ATOM      5  O   UNL     1      -4.658   7.934  -2.429  1.00  0.00    -0.550 OA
ENDBRANCH   2   3
ENDBRANCH   1   2
BRANCH   1   6
ATOM      6  C   UNL     1      -7.587   7.059  -4.221  1.00  0.00     0.000 C 
BRANCH   6   7
ATOM      7  C   UNL     1      -8.299   8.212  -3.498  1.00  0.00    -0.003 C 
ATOM      8  C   UNL     1      -8.717   7.848  -2.073  1.00  0.00     0.004 C 
ENDBRANCH   6   7
ENDBRANCH   1   6
TORSDOF 4
ENDMDL
MODEL 6
REMARK VINA RESULT:    -3.364      2.383      3.613
REMARK INTER + INTRA:          -4.401
REMARK INTER:                  -4.143
REMARK INTRA:                  -0.258
REMARK UNBOUND:                -0.251
REMARK SMILES CCCCCC(=O)[O-]
REMARK SMILES IDX 4 1 5 2 6 3 7 4 8 5 3 6 2 7 1 8
REMARK H PARENT
REMARK Flexibility Score: inf
ROOT
ATOM      1  C   UNL     1      -5.725   8.185  -4.161  1.00  0.00     0.006 C 
ENDROOT
BRANCH   1   2
ATOM      2  C   UNL     1      -5.316   9.511  -3.512  1.00  0.00     0.053 C 
BRANCH   2   3
ATOM      3  C   UNL     1      -5.503   9.447  -2.029  1.00  0.00     0.041 C 
ATOM      4  O   UNL     1      -4.549   9.727  -1.257  1.00  0.00    -0.550 OA
ATOM      5  O   UNL     1      -6.718   9.030  -1.498  1.00  0.00    -0.550 OA
ENDBRANCH   2   3
ENDBRANCH   1   2
BRANCH   1   6
ATOM      6  C   UNL     1      -4.789   7.047  -3.725  1.00  0.00     0.000 C 
BRANCH   6   7
ATOM      7  C   UNL     1      -5.545   5.744  -3.424  1.00  0.00    -0.003 C 
ATOM      8  C   UNL     1      -7.062   5.933  -3.398  1.00  0.00     0.004 C 
ENDBRANCH   6   7
ENDBRANCH   1   6
TORSDOF 4
ENDMDL
MODEL 7
REMARK VINA RESULT:    -3.218     17.798     18.892
REMARK INTER + INTRA:          -4.221
REMARK INTER:                  -4.118
REMARK INTRA:                  -0.102
REMARK UNBOUND:                -0.251
REMARK SMILES CCCCCC(=O)[O-]
REMARK SMILES IDX 4 1 5 2 6 3 7 4 8 5 3 6 2 7 1 8
REMARK H PARENT
REMARK Flexibility Score: inf
ROOT
ATOM      1  C   UNL     1       1.300  -7.399   4.715  1.00  0.00     0.006 C 
ENDROOT
BRANCH   1   2
ATOM      2  C   UNL     1       0.264  -8.441   4.284  1.00  0.00     0.053 C 
BRANCH   2   3
ATOM      3  C   UNL     1      -1.119  -7.883   4.397  1.00  0.00     0.041 C 
ATOM      4  O   UNL     1      -1.572  -7.533   5.519  1.00  0.00    -0.550 OA
ATOM      5  O   UNL     1      -1.928  -7.794   3.271  1.00  0.00    -0.550 OA
ENDBRANCH   2   3
ENDBRANCH   1   2
BRANCH   1   6
ATOM      6  C   UNL     1       2.729  -7.928   4.514  1.00  0.00     0.000 C 
BRANCH   6   7
ATOM      7  C   UNL     1       2.762  -9.260   3.749  1.00  0.00    -0.003 C 
ATOM      8  C   UNL     1       4.141  -9.574   3.169  1.00  0.00     0.004 C 
ENDBRANCH   6   7
ENDBRANCH   1   6
TORSDOF 4
ENDMDL
MODEL 8
REMARK VINA RESULT:    -3.147     17.921     18.723
REMARK INTER + INTRA:          -4.134
REMARK INTER:                  -4.032
REMARK INTRA:                  -0.101
REMARK UNBOUND:                -0.251
REMARK SMILES CCCCCC(=O)[O-]
REMARK SMILES IDX 4 1 5 2 6 3 7 4 8 5 3 6 2 7 1 8
REMARK H PARENT
REMARK Flexibility Score: inf
ROOT
ATOM      1  C   UNL     1       1.034  -8.929   4.028  1.00  0.00     0.006 C 
ENDROOT
BRANCH   1   2
ATOM      2  C   UNL     1       0.258  -7.754   4.629  1.00  0.00     0.053 C 
BRANCH   2   3
ATOM      3  C   UNL     1      -1.215  -7.982   4.510  1.00  0.00     0.041 C 
ATOM      4  O   UNL     1      -1.788  -7.855   3.397  1.00  0.00    -0.550 OA
ATOM      5  O   UNL     1      -1.965  -8.288   5.639  1.00  0.00    -0.550 OA
ENDBRANCH   2   3
ENDBRANCH   1   2
BRANCH   1   6
ATOM      6  C   UNL     1       2.549  -8.678   4.090  1.00  0.00     0.000 C 
BRANCH   6   7
ATOM      7  C   UNL     1       2.896  -7.329   4.737  1.00  0.00    -0.003 C 
ATOM      8  C   UNL     1       4.403  -7.111   4.878  1.00  0.00     0.004 C 
ENDBRANCH   6   7
ENDBRANCH   1   6
TORSDOF 4
ENDMDL
MODEL 9
REMARK VINA RESULT:    -3.090     13.369     13.879
REMARK INTER + INTRA:          -4.063
REMARK INTER:                  -3.959
REMARK INTRA:                  -0.104
REMARK UNBOUND:                -0.251
REMARK SMILES CCCCCC(=O)[O-]
REMARK SMILES IDX 4 1 5 2 6 3 7 4 8 5 3 6 2 7 1 8
REMARK H PARENT
REMARK Flexibility Score: inf
ROOT
ATOM      1  C   UNL     1       4.251   6.630   5.906  1.00  0.00     0.006 C 
ENDROOT
BRANCH   1   2
ATOM      2  C   UNL     1       3.409   5.352   5.848  1.00  0.00     0.053 C 
BRANCH   2   3
ATOM      3  C   UNL     1       3.991   4.386   4.866  1.00  0.00     0.041 C 
ATOM      4  O   UNL     1       5.164   4.545   4.439  1.00  0.00    -0.550 OA
ATOM      5  O   UNL     1       3.219   3.336   4.383  1.00  0.00    -0.550 OA
ENDBRANCH   2   3
ENDBRANCH   1   2
BRANCH   1   6
ATOM      6  C   UNL     1       3.367   7.860   6.168  1.00  0.00     0.000 C 
BRANCH   6   7
ATOM      7  C   UNL     1       2.245   7.575   7.178  1.00  0.00    -0.003 C 
ATOM      8  C   UNL     1       1.104   8.589   7.096  1.00  0.00     0.004 C 
ENDBRANCH   6   7
ENDBRANCH   1   6
TORSDOF 4
ENDMDL
