MODEL 1
REMARK VINA RESULT:    -4.614      0.000      0.000
REMARK INTER + INTRA:          -5.340
REMARK INTER:                  -5.289
REMARK INTRA:                  -0.052
REMARK UNBOUND:                -0.052
REMARK SMILES O=C([O-])c1cc(O)c(O)c(O)c1
REMARK SMILES IDX 4 1 5 2 12 3 6 4 10 5 8 6 2 7 1 8 3 9 7 10 11 12 9 14
REMARK H PARENT 7 11 11 13 9 15
REMARK Flexibility Score: inf
ROOT
ATOM      1  C   UNL     1     152.292 171.815 181.001  1.00  0.00     0.005 A 
ATOM      2  C   UNL     1     153.610 171.469 180.658  1.00  0.00     0.060 A 
ATOM      3  C   UNL     1     151.973 172.029 182.353  1.00  0.00     0.060 A 
ATOM      4  C   UNL     1     154.594 171.339 181.643  1.00  0.00     0.162 A 
ATOM      5  C   UNL     1     152.954 171.901 183.346  1.00  0.00     0.162 A 
ATOM      6  C   UNL     1     154.269 171.554 182.993  1.00  0.00     0.200 A 
ENDROOT
BRANCH   1   7
ATOM      7  C   UNL     1     151.258 171.950 179.951  1.00  0.00     0.072 C 
ATOM      8  O   UNL     1     151.586 172.125 178.747  1.00  0.00    -0.545 OA
ATOM      9  O   UNL     1     149.908 171.887 180.280  1.00  0.00    -0.545 OA
ENDBRANCH   1   7
BRANCH   4  10
ATOM     10  O   UNL     1     155.890 170.994 181.261  1.00  0.00    -0.504 OA
ATOM     11  H   UNL     1     156.673 171.624 181.379  1.00  0.00     0.293 HD
ENDBRANCH   4  10
BRANCH   5  12
ATOM     12  O   UNL     1     152.625 172.117 184.685  1.00  0.00    -0.504 OA
ATOM     13  H   UNL     1     152.825 172.996 185.145  1.00  0.00     0.293 HD
ENDBRANCH   5  12
BRANCH   6  14
ATOM     14  O   UNL     1     155.257 171.422 183.969  1.00  0.00    -0.502 OA
ATOM     15  H   UNL     1     155.054 171.507 184.959  1.00  0.00     0.293 HD
ENDBRANCH   6  14
TORSDOF 4
ENDMDL
MODEL 2
REMARK VINA RESULT:    -4.560      0.144      2.433
REMARK INTER + INTRA:          -5.278
REMARK INTER:                  -5.225
REMARK INTRA:                  -0.053
REMARK UNBOUND:                -0.052
REMARK SMILES O=C([O-])c1cc(O)c(O)c(O)c1
REMARK SMILES IDX 4 1 5 2 12 3 6 4 10 5 8 6 2 7 1 8 3 9 7 10 11 12 9 14
REMARK H PARENT 7 11 11 13 9 15
REMARK Flexibility Score: inf
ROOT
ATOM      1  C   UNL     1     152.376 171.798 180.941  1.00  0.00     0.005 A 
ATOM      2  C   UNL     1     152.043 172.011 182.289  1.00  0.00     0.060 A 
ATOM      3  C   UNL     1     153.703 171.471 180.610  1.00  0.00     0.060 A 
ATOM      4  C   UNL     1     153.012 171.900 183.291  1.00  0.00     0.162 A 
ATOM      5  C   UNL     1     154.680 171.357 181.608  1.00  0.00     0.162 A 
ATOM      6  C   UNL     1     154.336 171.573 182.954  1.00  0.00     0.200 A 
ENDROOT
BRANCH   1   7
ATOM      7  C   UNL     1     151.343 171.918 179.888  1.00  0.00     0.072 C 
ATOM      8  O   UNL     1     151.656 171.835 178.671  1.00  0.00    -0.545 OA
ATOM      9  O   UNL     1     150.011 172.125 180.229  1.00  0.00    -0.545 OA
ENDBRANCH   1   7
BRANCH   4  10
ATOM     10  O   UNL     1     152.641 172.120 184.617  1.00  0.00    -0.504 OA
ATOM     11  H   UNL     1     151.704 171.937 184.952  1.00  0.00     0.293 HD
ENDBRANCH   4  10
BRANCH   5  12
ATOM     12  O   UNL     1     155.992 171.031 181.267  1.00  0.00    -0.504 OA
ATOM     13  H   UNL     1     156.699 171.745 181.134  1.00  0.00     0.293 HD
ENDBRANCH   5  12
BRANCH   6  14
ATOM     14  O   UNL     1     155.297 171.465 183.960  1.00  0.00    -0.502 OA
ATOM     15  H   UNL     1     156.187 171.003 183.810  1.00  0.00     0.293 HD
ENDBRANCH   6  14
TORSDOF 4
ENDMDL
MODEL 3
REMARK VINA RESULT:    -4.227     13.712     15.004
REMARK INTER + INTRA:          -4.897
REMARK INTER:                  -4.848
REMARK INTRA:                  -0.049
REMARK UNBOUND:                -0.052
REMARK SMILES O=C([O-])c1cc(O)c(O)c(O)c1
REMARK SMILES IDX 4 1 5 2 12 3 6 4 10 5 8 6 2 7 1 8 3 9 7 10 11 12 9 14
REMARK H PARENT 7 11 11 13 9 15
REMARK Flexibility Score: inf
ROOT
ATOM      1  C   UNL     1     157.806 160.126 188.406  1.00  0.00     0.005 A 
ATOM      2  C   UNL     1     158.940 159.298 188.443  1.00  0.00     0.060 A 
ATOM      3  C   UNL     1     157.342 160.701 189.602  1.00  0.00     0.060 A 
ATOM      4  C   UNL     1     159.602 159.046 189.649  1.00  0.00     0.162 A 
ATOM      5  C   UNL     1     157.999 160.454 190.815  1.00  0.00     0.162 A 
ATOM      6  C   UNL     1     159.133 159.624 190.841  1.00  0.00     0.200 A 
ENDROOT
BRANCH   1   7
ATOM      7  C   UNL     1     157.113 160.387 187.125  1.00  0.00     0.072 C 
ATOM      8  O   UNL     1     156.725 161.549 186.831  1.00  0.00    -0.545 OA
ATOM      9  O   UNL     1     156.878 159.351 186.228  1.00  0.00    -0.545 OA
ENDBRANCH   1   7
BRANCH   4  10
ATOM     10  O   UNL     1     160.724 158.218 189.643  1.00  0.00    -0.504 OA
ATOM     11  H   UNL     1     161.663 158.582 189.543  1.00  0.00     0.293 HD
ENDBRANCH   4  10
BRANCH   5  12
ATOM     12  O   UNL     1     157.530 161.031 191.994  1.00  0.00    -0.504 OA
ATOM     13  H   UNL     1     157.119 161.957 192.006  1.00  0.00     0.293 HD
ENDBRANCH   5  12
BRANCH   6  14
ATOM     14  O   UNL     1     159.799 159.366 192.040  1.00  0.00    -0.502 OA
ATOM     15  H   UNL     1     160.661 158.834 192.076  1.00  0.00     0.293 HD
ENDBRANCH   6  14
TORSDOF 4
ENDMDL
MODEL 4
REMARK VINA RESULT:    -4.217      1.369      1.688
REMARK INTER + INTRA:          -4.886
REMARK INTER:                  -4.837
REMARK INTRA:                  -0.049
REMARK UNBOUND:                -0.052
REMARK SMILES O=C([O-])c1cc(O)c(O)c(O)c1
REMARK SMILES IDX 4 1 5 2 12 3 6 4 10 5 8 6 2 7 1 8 3 9 7 10 11 12 9 14
REMARK H PARENT 7 11 11 13 9 15
REMARK Flexibility Score: inf
ROOT
ATOM      1  C   UNL     1     153.039 171.397 181.162  1.00  0.00     0.005 A 
ATOM      2  C   UNL     1     153.984 170.359 181.201  1.00  0.00     0.060 A 
ATOM      3  C   UNL     1     152.587 171.953 182.371  1.00  0.00     0.060 A 
ATOM      4  C   UNL     1     154.472 169.882 182.421  1.00  0.00     0.162 A 
ATOM      5  C   UNL     1     153.071 171.481 183.599  1.00  0.00     0.162 A 
ATOM      6  C   UNL     1     154.017 170.441 183.627  1.00  0.00     0.200 A 
ENDROOT
BRANCH   1   7
ATOM      7  C   UNL     1     152.529 171.895 179.865  1.00  0.00     0.072 C 
ATOM      8  O   UNL     1     151.301 172.125 179.705  1.00  0.00    -0.545 OA
ATOM      9  O   UNL     1     153.400 172.116 178.804  1.00  0.00    -0.545 OA
ENDBRANCH   1   7
BRANCH   4  10
ATOM     10  O   UNL     1     155.410 168.849 182.417  1.00  0.00    -0.504 OA
ATOM     11  H   UNL     1     155.858 168.531 181.566  1.00  0.00     0.293 HD
ENDBRANCH   4  10
BRANCH   5  12
ATOM     12  O   UNL     1     152.615 172.041 184.792  1.00  0.00    -0.504 OA
ATOM     13  H   UNL     1     152.635 171.524 185.663  1.00  0.00     0.293 HD
ENDBRANCH   5  12
BRANCH   6  14
ATOM     14  O   UNL     1     154.508 169.959 184.840  1.00  0.00    -0.502 OA
ATOM     15  H   UNL     1     154.030 169.238 185.368  1.00  0.00     0.293 HD
ENDBRANCH   6  14
TORSDOF 4
ENDMDL
MODEL 5
REMARK VINA RESULT:    -4.176     13.540     15.133
REMARK INTER + INTRA:          -4.838
REMARK INTER:                  -4.788
REMARK INTRA:                  -0.050
REMARK UNBOUND:                -0.052
REMARK SMILES O=C([O-])c1cc(O)c(O)c(O)c1
REMARK SMILES IDX 4 1 5 2 12 3 6 4 10 5 8 6 2 7 1 8 3 9 7 10 11 12 9 14
REMARK H PARENT 7 11 11 13 9 15
REMARK Flexibility Score: inf
ROOT
ATOM      1  C   UNL     1     157.228 160.872 189.839  1.00  0.00     0.005 A 
ATOM      2  C   UNL     1     158.044 160.435 190.896  1.00  0.00     0.060 A 
ATOM      3  C   UNL     1     157.517 160.443 188.532  1.00  0.00     0.060 A 
ATOM      4  C   UNL     1     159.129 159.586 190.657  1.00  0.00     0.162 A 
ATOM      5  C   UNL     1     158.603 159.592 188.284  1.00  0.00     0.162 A 
ATOM      6  C   UNL     1     159.413 159.161 189.349  1.00  0.00     0.200 A 
ENDROOT
BRANCH   1   7
ATOM      7  C   UNL     1     156.082 161.770 190.102  1.00  0.00     0.072 C 
ATOM      8  O   UNL     1     155.407 161.655 191.160  1.00  0.00    -0.545 OA
ATOM      9  O   UNL     1     155.733 162.754 189.184  1.00  0.00    -0.545 OA
ENDBRANCH   1   7
BRANCH   4  10
ATOM     10  O   UNL     1     159.915 159.175 191.734  1.00  0.00    -0.504 OA
ATOM     11  H   UNL     1     160.855 158.821 191.611  1.00  0.00     0.293 HD
ENDBRANCH   4  10
BRANCH   5  12
ATOM     12  O   UNL     1     158.880 159.173 186.983  1.00  0.00    -0.504 OA
ATOM     13  H   UNL     1     158.597 159.719 186.178  1.00  0.00     0.293 HD
ENDBRANCH   5  12
BRANCH   6  14
ATOM     14  O   UNL     1     160.499 158.314 189.119  1.00  0.00    -0.502 OA
ATOM     15  H   UNL     1     161.381 158.653 188.753  1.00  0.00     0.293 HD
ENDBRANCH   6  14
TORSDOF 4
ENDMDL
MODEL 6
REMARK VINA RESULT:    -4.172     13.511     14.963
REMARK INTER + INTRA:          -4.834
REMARK INTER:                  -4.782
REMARK INTRA:                  -0.052
REMARK UNBOUND:                -0.052
REMARK SMILES O=C([O-])c1cc(O)c(O)c(O)c1
REMARK SMILES IDX 4 1 5 2 12 3 6 4 10 5 8 6 2 7 1 8 3 9 7 10 11 12 9 14
REMARK H PARENT 7 11 11 13 9 15
REMARK Flexibility Score: inf
ROOT
ATOM      1  C   UNL     1     157.184 160.898 189.770  1.00  0.00     0.005 A 
ATOM      2  C   UNL     1     157.526 160.450 188.483  1.00  0.00     0.060 A 
ATOM      3  C   UNL     1     157.950 160.468 190.867  1.00  0.00     0.060 A 
ATOM      4  C   UNL     1     158.612 159.591 188.290  1.00  0.00     0.162 A 
ATOM      5  C   UNL     1     159.041 159.607 190.683  1.00  0.00     0.162 A 
ATOM      6  C   UNL     1     159.375 159.165 189.391  1.00  0.00     0.200 A 
ENDROOT
BRANCH   1   7
ATOM      7  C   UNL     1     156.033 161.807 189.962  1.00  0.00     0.072 C 
ATOM      8  O   UNL     1     155.622 162.530 189.016  1.00  0.00    -0.545 OA
ATOM      9  O   UNL     1     155.388 161.877 191.193  1.00  0.00    -0.545 OA
ENDBRANCH   1   7
BRANCH   4  10
ATOM     10  O   UNL     1     158.919 159.169 186.997  1.00  0.00    -0.504 OA
ATOM     11  H   UNL     1     158.718 159.735 186.183  1.00  0.00     0.293 HD
ENDBRANCH   4  10
BRANCH   5  12
ATOM     12  O   UNL     1     159.794 159.189 191.780  1.00  0.00    -0.504 OA
ATOM     13  H   UNL     1     160.410 158.387 191.726  1.00  0.00     0.293 HD
ENDBRANCH   5  12
BRANCH   6  14
ATOM     14  O   UNL     1     160.457 158.307 189.190  1.00  0.00    -0.502 OA
ATOM     15  H   UNL     1     160.390 157.308 189.347  1.00  0.00     0.293 HD
ENDBRANCH   6  14
TORSDOF 4
ENDMDL
MODEL 7
REMARK VINA RESULT:    -4.137      1.301      2.789
REMARK INTER + INTRA:          -4.793
REMARK INTER:                  -4.743
REMARK INTRA:                  -0.050
REMARK UNBOUND:                -0.052
REMARK SMILES O=C([O-])c1cc(O)c(O)c(O)c1
REMARK SMILES IDX 4 1 5 2 12 3 6 4 10 5 8 6 2 7 1 8 3 9 7 10 11 12 9 14
REMARK H PARENT 7 11 11 13 9 15
REMARK Flexibility Score: inf
ROOT
ATOM      1  C   UNL     1     152.841 171.297 181.194  1.00  0.00     0.005 A 
ATOM      2  C   UNL     1     152.438 171.859 182.416  1.00  0.00     0.060 A 
ATOM      3  C   UNL     1     153.845 170.313 181.194  1.00  0.00     0.060 A 
ATOM      4  C   UNL     1     153.021 171.449 183.619  1.00  0.00     0.162 A 
ATOM      5  C   UNL     1     154.435 169.896 182.395  1.00  0.00     0.162 A 
ATOM      6  C   UNL     1     154.023 170.464 183.613  1.00  0.00     0.200 A 
ENDROOT
BRANCH   1   7
ATOM      7  C   UNL     1     152.217 171.738 179.927  1.00  0.00     0.072 C 
ATOM      8  O   UNL     1     151.014 172.112 179.901  1.00  0.00    -0.545 OA
ATOM      9  O   UNL     1     152.951 171.746 178.745  1.00  0.00    -0.545 OA
ENDBRANCH   1   7
BRANCH   4  10
ATOM     10  O   UNL     1     152.592 172.031 184.811  1.00  0.00    -0.504 OA
ATOM     11  H   UNL     1     153.176 172.664 185.343  1.00  0.00     0.293 HD
ENDBRANCH   4  10
BRANCH   5  12
ATOM     12  O   UNL     1     155.429 168.918 182.383  1.00  0.00    -0.504 OA
ATOM     13  H   UNL     1     155.416 168.139 183.031  1.00  0.00     0.293 HD
ENDBRANCH   5  12
BRANCH   6  14
ATOM     14  O   UNL     1     154.601 170.061 184.818  1.00  0.00    -0.502 OA
ATOM     15  H   UNL     1     155.583 170.207 185.022  1.00  0.00     0.293 HD
ENDBRANCH   6  14
TORSDOF 4
ENDMDL
MODEL 8
REMARK VINA RESULT:    -4.097     13.505     14.943
REMARK INTER + INTRA:          -4.748
REMARK INTER:                  -4.702
REMARK INTRA:                  -0.047
REMARK UNBOUND:                -0.052
REMARK SMILES O=C([O-])c1cc(O)c(O)c(O)c1
REMARK SMILES IDX 4 1 5 2 12 3 6 4 10 5 8 6 2 7 1 8 3 9 7 10 11 12 9 14
REMARK H PARENT 7 11 11 13 9 15
REMARK Flexibility Score: inf
ROOT
ATOM      1  C   UNL     1     157.584 160.315 188.314  1.00  0.00     0.005 A 
ATOM      2  C   UNL     1     157.235 160.816 189.580  1.00  0.00     0.060 A 
ATOM      3  C   UNL     1     158.688 159.453 188.203  1.00  0.00     0.060 A 
ATOM      4  C   UNL     1     157.971 160.465 190.715  1.00  0.00     0.162 A 
ATOM      5  C   UNL     1     159.432 159.097 189.336  1.00  0.00     0.162 A 
ATOM      6  C   UNL     1     159.074 159.603 190.598  1.00  0.00     0.200 A 
ENDROOT
BRANCH   1   7
ATOM      7  C   UNL     1     156.797 160.693 187.119  1.00  0.00     0.072 C 
ATOM      8  O   UNL     1     157.346 161.283 186.151  1.00  0.00    -0.545 OA
ATOM      9  O   UNL     1     155.439 160.402 187.048  1.00  0.00    -0.545 OA
ENDBRANCH   1   7
BRANCH   4  10
ATOM     10  O   UNL     1     157.592 160.984 191.953  1.00  0.00    -0.504 OA
ATOM     11  H   UNL     1     156.651 160.890 192.312  1.00  0.00     0.293 HD
ENDBRANCH   4  10
BRANCH   5  12
ATOM     12  O   UNL     1     160.526 158.240 189.213  1.00  0.00    -0.504 OA
ATOM     13  H   UNL     1     160.580 157.371 189.730  1.00  0.00     0.293 HD
ENDBRANCH   5  12
BRANCH   6  14
ATOM     14  O   UNL     1     159.805 159.259 191.736  1.00  0.00    -0.502 OA
ATOM     15  H   UNL     1     159.590 158.435 192.287  1.00  0.00     0.293 HD
ENDBRANCH   6  14
TORSDOF 4
ENDMDL
MODEL 9
REMARK VINA RESULT:    -4.012      1.271      4.403
REMARK INTER + INTRA:          -4.650
REMARK INTER:                  -4.600
REMARK INTRA:                  -0.050
REMARK UNBOUND:                -0.052
REMARK SMILES O=C([O-])c1cc(O)c(O)c(O)c1
REMARK SMILES IDX 4 1 5 2 12 3 6 4 10 5 8 6 2 7 1 8 3 9 7 10 11 12 9 14
REMARK H PARENT 7 11 11 13 9 15
REMARK Flexibility Score: inf
ROOT
ATOM      1  C   UNL     1     153.271 171.635 181.034  1.00  0.00     0.005 A 
ATOM      2  C   UNL     1     153.352 171.798 179.641  1.00  0.00     0.060 A 
ATOM      3  C   UNL     1     152.005 171.612 181.645  1.00  0.00     0.060 A 
ATOM      4  C   UNL     1     152.195 171.936 178.869  1.00  0.00     0.162 A 
ATOM      5  C   UNL     1     150.840 171.750 180.878  1.00  0.00     0.162 A 
ATOM      6  C   UNL     1     150.932 171.913 179.485  1.00  0.00     0.200 A 
ENDROOT
BRANCH   1   7
ATOM      7  C   UNL     1     154.502 171.489 181.842  1.00  0.00     0.072 C 
ATOM      8  O   UNL     1     154.570 171.981 183.000  1.00  0.00    -0.545 OA
ATOM      9  O   UNL     1     155.601 170.807 181.334  1.00  0.00    -0.545 OA
ENDBRANCH   1   7
BRANCH   4  10
ATOM     10  O   UNL     1     152.318 172.097 177.489  1.00  0.00    -0.504 OA
ATOM     11  H   UNL     1     152.110 172.973 177.027  1.00  0.00     0.293 HD
ENDBRANCH   4  10
BRANCH   5  12
ATOM     12  O   UNL     1     149.590 171.725 181.496  1.00  0.00    -0.504 OA
ATOM     13  H   UNL     1     148.750 171.483 180.985  1.00  0.00     0.293 HD
ENDBRANCH   5  12
BRANCH   6  14
ATOM     14  O   UNL     1     149.782 172.052 178.707  1.00  0.00    -0.502 OA
ATOM     15  H   UNL     1     148.959 171.479 178.852  1.00  0.00     0.293 HD
ENDBRANCH   6  14
TORSDOF 4
ENDMDL
