MODEL 1
REMARK VINA RESULT:    -4.228      0.000      0.000
REMARK INTER + INTRA:          -5.636
REMARK INTER:                  -5.464
REMARK INTRA:                  -0.171
REMARK UNBOUND:                -0.171
REMARK SMILES CCCCCCC(=O)[O-]
REMARK SMILES IDX 5 1 6 2 7 3 8 4 9 5 4 6 3 7 2 8 1 9
REMARK H PARENT
REMARK Flexibility Score: inf
ROOT
ATOM      1  C   UNL     1      23.752  71.391  28.077  1.00  0.00     0.006 C 
ENDROOT
BRANCH   1   2
ATOM      2  C   UNL     1      24.542  72.703  27.996  1.00  0.00     0.053 C 
BRANCH   2   3
ATOM      3  C   UNL     1      23.742  73.866  28.498  1.00  0.00     0.041 C 
ATOM      4  O   UNL     1      23.442  74.811  27.721  1.00  0.00    -0.550 OA
ATOM      5  O   UNL     1      23.298  73.891  29.814  1.00  0.00    -0.550 OA
ENDBRANCH   2   3
ENDBRANCH   1   2
BRANCH   1   6
ATOM      6  C   UNL     1      24.606  70.173  27.696  1.00  0.00     0.000 C 
BRANCH   6   7
ATOM      7  C   UNL     1      23.731  68.930  27.491  1.00  0.00    -0.000 C 
BRANCH   7   8
ATOM      8  C   UNL     1      22.242  69.287  27.562  1.00  0.00    -0.003 C 
ATOM      9  C   UNL     1      21.450  68.209  28.297  1.00  0.00     0.004 C 
ENDBRANCH   7   8
ENDBRANCH   6   7
ENDBRANCH   1   6
TORSDOF 5
ENDMDL
MODEL 2
REMARK VINA RESULT:    -4.056      1.662      2.484
REMARK INTER + INTRA:          -5.413
REMARK INTER:                  -5.260
REMARK INTRA:                  -0.153
REMARK UNBOUND:                -0.171
REMARK SMILES CCCCCCC(=O)[O-]
REMARK SMILES IDX 5 1 6 2 7 3 8 4 9 5 4 6 3 7 2 8 1 9
REMARK H PARENT
REMARK Flexibility Score: inf
ROOT
ATOM      1  C   UNL     1      24.264  71.083  28.155  1.00  0.00     0.006 C 
ENDROOT
BRANCH   1   2
ATOM      2  C   UNL     1      24.524  72.574  27.903  1.00  0.00     0.053 C 
BRANCH   2   3
ATOM      3  C   UNL     1      23.256  73.373  27.932  1.00  0.00     0.041 C 
ATOM      4  O   UNL     1      23.300  74.632  27.921  1.00  0.00    -0.550 OA
ATOM      5  O   UNL     1      22.026  72.728  27.936  1.00  0.00    -0.550 OA
ENDBRANCH   2   3
ENDBRANCH   1   2
BRANCH   1   6
ATOM      6  C   UNL     1      25.239  70.184  27.382  1.00  0.00     0.000 C 
BRANCH   6   7
ATOM      7  C   UNL     1      24.619  68.808  27.108  1.00  0.00    -0.000 C 
BRANCH   7   8
ATOM      8  C   UNL     1      25.306  68.122  25.922  1.00  0.00    -0.003 C 
ATOM      9  C   UNL     1      26.124  69.119  25.106  1.00  0.00     0.004 C 
ENDBRANCH   7   8
ENDBRANCH   6   7
ENDBRANCH   1   6
TORSDOF 5
ENDMDL
MODEL 3
REMARK VINA RESULT:    -3.894      9.276     10.101
REMARK INTER + INTRA:          -5.204
REMARK INTER:                  -5.094
REMARK INTRA:                  -0.110
REMARK UNBOUND:                -0.171
REMARK SMILES CCCCCCC(=O)[O-]
REMARK SMILES IDX 5 1 6 2 7 3 8 4 9 5 4 6 3 7 2 8 1 9
REMARK H PARENT
REMARK Flexibility Score: inf
ROOT
ATOM      1  C   UNL     1      17.373  69.121  35.073  1.00  0.00     0.006 C 
ENDROOT
BRANCH   1   2
ATOM      2  C   UNL     1      18.622  69.400  35.919  1.00  0.00     0.053 C 
BRANCH   2   3
ATOM      3  C   UNL     1      18.699  68.498  37.113  1.00  0.00     0.041 C 
ATOM      4  O   UNL     1      17.696  67.822  37.463  1.00  0.00    -0.550 OA
ATOM      5  O   UNL     1      19.890  68.377  37.818  1.00  0.00    -0.550 OA
ENDBRANCH   2   3
ENDBRANCH   1   2
BRANCH   1   6
ATOM      6  C   UNL     1      17.045  70.279  34.119  1.00  0.00     0.000 C 
BRANCH   6   7
ATOM      7  C   UNL     1      16.751  69.760  32.706  1.00  0.00    -0.000 C 
BRANCH   7   8
ATOM      8  C   UNL     1      15.433  68.978  32.670  1.00  0.00    -0.003 C 
ATOM      9  C   UNL     1      14.697  69.199  31.352  1.00  0.00     0.004 C 
ENDBRANCH   7   8
ENDBRANCH   6   7
ENDBRANCH   1   6
TORSDOF 5
ENDMDL
MODEL 4
REMARK VINA RESULT:    -3.847      9.530     10.092
REMARK INTER + INTRA:          -5.143
REMARK INTER:                  -4.916
REMARK INTRA:                  -0.227
REMARK UNBOUND:                -0.171
REMARK SMILES CCCCCCC(=O)[O-]
REMARK SMILES IDX 5 1 6 2 7 3 8 4 9 5 4 6 3 7 2 8 1 9
REMARK H PARENT
REMARK Flexibility Score: inf
ROOT
ATOM      1  C   UNL     1      16.109  68.022  35.366  1.00  0.00     0.006 C 
ENDROOT
BRANCH   1   2
ATOM      2  C   UNL     1      17.413  68.068  36.173  1.00  0.00     0.053 C 
BRANCH   2   3
ATOM      3  C   UNL     1      18.243  69.265  35.821  1.00  0.00     0.041 C 
ATOM      4  O   UNL     1      19.394  69.404  36.313  1.00  0.00    -0.550 OA
ATOM      5  O   UNL     1      17.760  70.208  34.922  1.00  0.00    -0.550 OA
ENDBRANCH   2   3
ENDBRANCH   1   2
BRANCH   1   6
ATOM      6  C   UNL     1      16.126  66.922  34.295  1.00  0.00     0.000 C 
BRANCH   6   7
ATOM      7  C   UNL     1      15.271  67.320  33.085  1.00  0.00    -0.000 C 
BRANCH   7   8
ATOM      8  C   UNL     1      15.465  68.800  32.737  1.00  0.00    -0.003 C 
ATOM      9  C   UNL     1      14.772  69.153  31.424  1.00  0.00     0.004 C 
ENDBRANCH   7   8
ENDBRANCH   6   7
ENDBRANCH   1   6
TORSDOF 5
ENDMDL
MODEL 5
REMARK VINA RESULT:    -3.815      8.598      9.921
REMARK INTER + INTRA:          -5.102
REMARK INTER:                  -4.833
REMARK INTRA:                  -0.269
REMARK UNBOUND:                -0.171
REMARK SMILES CCCCCCC(=O)[O-]
REMARK SMILES IDX 5 1 6 2 7 3 8 4 9 5 4 6 3 7 2 8 1 9
REMARK H PARENT
REMARK Flexibility Score: inf
ROOT
ATOM      1  C   UNL     1      15.599  69.051  33.053  1.00  0.00     0.006 C 
ENDROOT
BRANCH   1   2
ATOM      2  C   UNL     1      17.036  69.588  33.016  1.00  0.00     0.053 C 
BRANCH   2   3
ATOM      3  C   UNL     1      17.370  70.368  34.250  1.00  0.00     0.041 C 
ATOM      4  O   UNL     1      17.172  71.611  34.288  1.00  0.00    -0.550 OA
ATOM      5  O   UNL     1      17.869  69.717  35.372  1.00  0.00    -0.550 OA
ENDBRANCH   2   3
ENDBRANCH   1   2
BRANCH   1   6
ATOM      6  C   UNL     1      15.548  67.543  33.334  1.00  0.00     0.000 C 
BRANCH   6   7
ATOM      7  C   UNL     1      15.502  67.266  34.842  1.00  0.00    -0.000 C 
BRANCH   7   8
ATOM      8  C   UNL     1      16.666  66.365  35.272  1.00  0.00    -0.003 C 
ATOM      9  C   UNL     1      16.814  66.343  36.791  1.00  0.00     0.004 C 
ENDBRANCH   7   8
ENDBRANCH   6   7
ENDBRANCH   1   6
TORSDOF 5
ENDMDL
MODEL 6
REMARK VINA RESULT:    -3.759      8.883      9.577
REMARK INTER + INTRA:          -5.029
REMARK INTER:                  -4.824
REMARK INTRA:                  -0.206
REMARK UNBOUND:                -0.171
REMARK SMILES CCCCCCC(=O)[O-]
REMARK SMILES IDX 5 1 6 2 7 3 8 4 9 5 4 6 3 7 2 8 1 9
REMARK H PARENT
REMARK Flexibility Score: inf
ROOT
ATOM      1  C   UNL     1      16.434  69.531  32.834  1.00  0.00     0.006 C 
ENDROOT
BRANCH   1   2
ATOM      2  C   UNL     1      17.352  68.931  33.906  1.00  0.00     0.053 C 
BRANCH   2   3
ATOM      3  C   UNL     1      17.852  69.974  34.859  1.00  0.00     0.041 C 
ATOM      4  O   UNL     1      18.563  69.644  35.845  1.00  0.00    -0.550 OA
ATOM      5  O   UNL     1      17.562  71.315  34.638  1.00  0.00    -0.550 OA
ENDBRANCH   2   3
ENDBRANCH   1   2
BRANCH   1   6
ATOM      6  C   UNL     1      15.251  68.612  32.500  1.00  0.00     0.000 C 
BRANCH   6   7
ATOM      7  C   UNL     1      15.282  67.342  33.359  1.00  0.00    -0.000 C 
BRANCH   7   8
ATOM      8  C   UNL     1      14.815  66.122  32.556  1.00  0.00    -0.003 C 
ATOM      9  C   UNL     1      15.726  64.922  32.797  1.00  0.00     0.004 C 
ENDBRANCH   7   8
ENDBRANCH   6   7
ENDBRANCH   1   6
TORSDOF 5
ENDMDL
MODEL 7
REMARK VINA RESULT:    -3.695      9.381     10.665
REMARK INTER + INTRA:          -4.946
REMARK INTER:                  -4.786
REMARK INTRA:                  -0.160
REMARK UNBOUND:                -0.171
REMARK SMILES CCCCCCC(=O)[O-]
REMARK SMILES IDX 5 1 6 2 7 3 8 4 9 5 4 6 3 7 2 8 1 9
REMARK H PARENT
REMARK Flexibility Score: inf
ROOT
ATOM      1  C   UNL     1      18.615  69.482  35.929  1.00  0.00     0.006 C 
ENDROOT
BRANCH   1   2
ATOM      2  C   UNL     1      17.427  69.108  35.033  1.00  0.00     0.053 C 
BRANCH   2   3
ATOM      3  C   UNL     1      17.135  70.175  34.022  1.00  0.00     0.041 C 
ATOM      4  O   UNL     1      16.719  69.864  32.875  1.00  0.00    -0.550 OA
ATOM      5  O   UNL     1      17.290  71.515  34.358  1.00  0.00    -0.550 OA
ENDBRANCH   2   3
ENDBRANCH   1   2
BRANCH   1   6
ATOM      6  C   UNL     1      18.708  68.588  37.174  1.00  0.00     0.000 C 
BRANCH   6   7
ATOM      7  C   UNL     1      18.743  69.431  38.455  1.00  0.00    -0.000 C 
BRANCH   7   8
ATOM      8  C   UNL     1      17.857  68.814  39.543  1.00  0.00    -0.003 C 
ATOM      9  C   UNL     1      17.733  67.304  39.364  1.00  0.00     0.004 C 
ENDBRANCH   7   8
ENDBRANCH   6   7
ENDBRANCH   1   6
TORSDOF 5
ENDMDL
MODEL 8
REMARK VINA RESULT:    -3.678      9.112     10.160
REMARK INTER + INTRA:          -4.925
REMARK INTER:                  -4.686
REMARK INTRA:                  -0.239
REMARK UNBOUND:                -0.171
REMARK SMILES CCCCCCC(=O)[O-]
REMARK SMILES IDX 5 1 6 2 7 3 8 4 9 5 4 6 3 7 2 8 1 9
REMARK H PARENT
REMARK Flexibility Score: inf
ROOT
ATOM      1  C   UNL     1      17.431  69.031  33.510  1.00  0.00     0.006 C 
ENDROOT
BRANCH   1   2
ATOM      2  C   UNL     1      16.391  69.783  32.669  1.00  0.00     0.053 C 
BRANCH   2   3
ATOM      3  C   UNL     1      15.283  68.881  32.217  1.00  0.00     0.041 C 
ATOM      4  O   UNL     1      14.512  69.241  31.289  1.00  0.00    -0.550 OA
ATOM      5  O   UNL     1      15.124  67.628  32.798  1.00  0.00    -0.550 OA
ENDBRANCH   2   3
ENDBRANCH   1   2
BRANCH   1   6
ATOM      6  C   UNL     1      17.675  69.703  34.869  1.00  0.00     0.000 C 
BRANCH   6   7
ATOM      7  C   UNL     1      17.803  68.657  35.984  1.00  0.00    -0.000 C 
BRANCH   7   8
ATOM      8  C   UNL     1      16.586  67.724  36.006  1.00  0.00    -0.003 C 
ATOM      9  C   UNL     1      16.889  66.442  36.776  1.00  0.00     0.004 C 
ENDBRANCH   7   8
ENDBRANCH   6   7
ENDBRANCH   1   6
TORSDOF 5
ENDMDL
MODEL 9
REMARK VINA RESULT:    -3.671      9.091     10.250
REMARK INTER + INTRA:          -4.916
REMARK INTER:                  -4.708
REMARK INTRA:                  -0.208
REMARK UNBOUND:                -0.171
REMARK SMILES CCCCCCC(=O)[O-]
REMARK SMILES IDX 5 1 6 2 7 3 8 4 9 5 4 6 3 7 2 8 1 9
REMARK H PARENT
REMARK Flexibility Score: inf
ROOT
ATOM      1  C   UNL     1      17.558  69.128  33.618  1.00  0.00     0.006 C 
ENDROOT
BRANCH   1   2
ATOM      2  C   UNL     1      16.186  69.712  33.257  1.00  0.00     0.053 C 
BRANCH   2   3
ATOM      3  C   UNL     1      15.333  68.721  32.525  1.00  0.00     0.041 C 
ATOM      4  O   UNL     1      15.248  67.533  32.936  1.00  0.00    -0.550 OA
ATOM      5  O   UNL     1      14.605  69.117  31.410  1.00  0.00    -0.550 OA
ENDBRANCH   2   3
ENDBRANCH   1   2
BRANCH   1   6
ATOM      6  C   UNL     1      17.923  69.366  35.090  1.00  0.00     0.000 C 
BRANCH   6   7
ATOM      7  C   UNL     1      17.371  68.247  35.982  1.00  0.00    -0.000 C 
BRANCH   7   8
ATOM      8  C   UNL     1      18.400  67.828  37.039  1.00  0.00    -0.003 C 
ATOM      9  C   UNL     1      19.488  68.886  37.199  1.00  0.00     0.004 C 
ENDBRANCH   7   8
ENDBRANCH   6   7
ENDBRANCH   1   6
TORSDOF 5
ENDMDL
