MODEL 1
REMARK VINA RESULT:    -5.489      0.000      0.000
REMARK INTER + INTRA:          -6.432
REMARK INTER:                  -6.291
REMARK INTRA:                  -0.141
REMARK UNBOUND:                -0.141
REMARK SMILES O=C([O-])C=Cc1ccc(O)cc1
REMARK SMILES IDX 6 1 7 2 12 3 8 4 11 5 9 6 5 7 4 8 2 9 1 10 3 11 10 12
REMARK H PARENT 10 13
REMARK Flexibility Score: inf
ROOT
ATOM      1  C   UNL     1      -5.013   5.179  -6.772  1.00  0.00    -0.025 A 
ATOM      2  C   UNL     1      -5.236   6.523  -6.407  1.00  0.00     0.012 A 
ATOM      3  C   UNL     1      -4.704   4.883  -8.111  1.00  0.00     0.012 A 
ATOM      4  C   UNL     1      -5.123   7.542  -7.359  1.00  0.00     0.047 A 
ATOM      5  C   UNL     1      -4.592   5.905  -9.058  1.00  0.00     0.047 A 
ATOM      6  C   UNL     1      -4.798   7.236  -8.686  1.00  0.00     0.115 A 
ENDROOT
BRANCH   1   7
ATOM      7  C   UNL     1      -5.131   4.059  -5.806  1.00  0.00     0.010 C 
ATOM      8  C   UNL     1      -5.535   4.209  -4.537  1.00  0.00     0.025 C 
BRANCH   8   9
ATOM      9  C   UNL     1      -5.628   3.075  -3.603  1.00  0.00     0.064 C 
ATOM     10  O   UNL     1      -5.181   1.937  -3.911  1.00  0.00    -0.545 OA
ATOM     11  O   UNL     1      -6.219   3.261  -2.360  1.00  0.00    -0.545 OA
ENDBRANCH   8   9
ENDBRANCH   1   7
BRANCH   6  12
ATOM     12  O   UNL     1      -4.683   8.244  -9.641  1.00  0.00    -0.508 OA
ATOM     13  H   UNL     1      -3.828   8.377 -10.169  1.00  0.00     0.293 HD
ENDBRANCH   6  12
TORSDOF 3
ENDMDL
MODEL 2
REMARK VINA RESULT:    -5.463      0.080      1.400
REMARK INTER + INTRA:          -6.403
REMARK INTER:                  -6.249
REMARK INTRA:                  -0.154
REMARK UNBOUND:                -0.141
REMARK SMILES O=C([O-])C=Cc1ccc(O)cc1
REMARK SMILES IDX 6 1 7 2 12 3 8 4 11 5 9 6 5 7 4 8 2 9 1 10 3 11 10 12
REMARK H PARENT 10 13
REMARK Flexibility Score: inf
ROOT
ATOM      1  C   UNL     1      -5.022   5.129  -6.824  1.00  0.00    -0.025 A 
ATOM      2  C   UNL     1      -4.663   4.873  -8.163  1.00  0.00     0.012 A 
ATOM      3  C   UNL     1      -5.240   6.459  -6.423  1.00  0.00     0.012 A 
ATOM      4  C   UNL     1      -4.553   5.924  -9.079  1.00  0.00     0.047 A 
ATOM      5  C   UNL     1      -5.129   7.506  -7.343  1.00  0.00     0.047 A 
ATOM      6  C   UNL     1      -4.788   7.243  -8.672  1.00  0.00     0.115 A 
ENDROOT
BRANCH   1   7
ATOM      7  C   UNL     1      -5.143   4.053  -5.809  1.00  0.00     0.010 C 
ATOM      8  C   UNL     1      -5.569   4.256  -4.555  1.00  0.00     0.025 C 
BRANCH   8   9
ATOM      9  C   UNL     1      -5.664   3.165  -3.571  1.00  0.00     0.064 C 
ATOM     10  O   UNL     1      -5.209   2.017  -3.824  1.00  0.00    -0.545 OA
ATOM     11  O   UNL     1      -6.267   3.403  -2.343  1.00  0.00    -0.545 OA
ENDBRANCH   8   9
ENDBRANCH   1   7
BRANCH   6  12
ATOM     12  O   UNL     1      -4.681   8.297  -9.577  1.00  0.00    -0.508 OA
ATOM     13  H   UNL     1      -3.845   8.867  -9.629  1.00  0.00     0.293 HD
ENDBRANCH   6  12
TORSDOF 3
ENDMDL
MODEL 3
REMARK VINA RESULT:    -4.662      1.237      5.872
REMARK INTER + INTRA:          -5.485
REMARK INTER:                  -5.334
REMARK INTRA:                  -0.151
REMARK UNBOUND:                -0.141
REMARK SMILES O=C([O-])C=Cc1ccc(O)cc1
REMARK SMILES IDX 6 1 7 2 12 3 8 4 11 5 9 6 5 7 4 8 2 9 1 10 3 11 10 12
REMARK H PARENT 10 13
REMARK Flexibility Score: inf
ROOT
ATOM      1  C   UNL     1      -5.142   6.185  -6.921  1.00  0.00    -0.025 A 
ATOM      2  C   UNL     1      -5.247   6.607  -5.579  1.00  0.00     0.012 A 
ATOM      3  C   UNL     1      -5.014   4.812  -7.192  1.00  0.00     0.012 A 
ATOM      4  C   UNL     1      -5.248   5.668  -4.541  1.00  0.00     0.047 A 
ATOM      5  C   UNL     1      -5.017   3.878  -6.151  1.00  0.00     0.047 A 
ATOM      6  C   UNL     1      -5.136   4.302  -4.825  1.00  0.00     0.115 A 
ENDROOT
BRANCH   1   7
ATOM      7  C   UNL     1      -5.124   7.139  -8.058  1.00  0.00     0.010 C 
ATOM      8  C   UNL     1      -5.427   6.800  -9.319  1.00  0.00     0.025 C 
BRANCH   8   9
ATOM      9  C   UNL     1      -5.387   7.771 -10.425  1.00  0.00     0.064 C 
ATOM     10  O   UNL     1      -4.719   8.836 -10.334  1.00  0.00    -0.545 OA
ATOM     11  O   UNL     1      -6.098   7.511 -11.589  1.00  0.00    -0.545 OA
ENDBRANCH   8   9
ENDBRANCH   1   7
BRANCH   6  12
ATOM     12  O   UNL     1      -5.137   3.360  -3.799  1.00  0.00    -0.508 OA
ATOM     13  H   UNL     1      -4.383   3.313  -3.123  1.00  0.00     0.293 HD
ENDBRANCH   6  12
TORSDOF 3
ENDMDL
MODEL 4
REMARK VINA RESULT:    -4.522      1.331      5.872
REMARK INTER + INTRA:          -5.325
REMARK INTER:                  -5.184
REMARK INTRA:                  -0.141
REMARK UNBOUND:                -0.141
REMARK SMILES O=C([O-])C=Cc1ccc(O)cc1
REMARK SMILES IDX 6 1 7 2 12 3 8 4 11 5 9 6 5 7 4 8 2 9 1 10 3 11 10 12
REMARK H PARENT 10 13
REMARK Flexibility Score: inf
ROOT
ATOM      1  C   UNL     1      -5.482   5.194  -5.079  1.00  0.00    -0.025 A 
ATOM      2  C   UNL     1      -5.216   3.815  -4.952  1.00  0.00     0.012 A 
ATOM      3  C   UNL     1      -6.155   5.853  -4.036  1.00  0.00     0.012 A 
ATOM      4  C   UNL     1      -5.594   3.125  -3.795  1.00  0.00     0.047 A 
ATOM      5  C   UNL     1      -6.531   5.159  -2.881  1.00  0.00     0.047 A 
ATOM      6  C   UNL     1      -6.250   3.797  -2.756  1.00  0.00     0.115 A 
ENDROOT
BRANCH   1   7
ATOM      7  C   UNL     1      -5.113   5.971  -6.288  1.00  0.00     0.010 C 
ATOM      8  C   UNL     1      -5.174   5.483  -7.535  1.00  0.00     0.025 C 
BRANCH   8   9
ATOM      9  C   UNL     1      -4.787   6.280  -8.710  1.00  0.00     0.064 C 
ATOM     10  O   UNL     1      -4.906   5.821  -9.878  1.00  0.00    -0.545 OA
ATOM     11  O   UNL     1      -4.283   7.562  -8.530  1.00  0.00    -0.545 OA
ENDBRANCH   8   9
ENDBRANCH   1   7
BRANCH   6  12
ATOM     12  O   UNL     1      -6.630   3.119  -1.599  1.00  0.00    -0.508 OA
ATOM     13  H   UNL     1      -7.169   3.575  -0.872  1.00  0.00     0.293 HD
ENDBRANCH   6  12
TORSDOF 3
ENDMDL
MODEL 5
REMARK VINA RESULT:    -4.520      1.255      6.021
REMARK INTER + INTRA:          -5.322
REMARK INTER:                  -5.182
REMARK INTRA:                  -0.139
REMARK UNBOUND:                -0.141
REMARK SMILES O=C([O-])C=Cc1ccc(O)cc1
REMARK SMILES IDX 6 1 7 2 12 3 8 4 11 5 9 6 5 7 4 8 2 9 1 10 3 11 10 12
REMARK H PARENT 10 13
REMARK Flexibility Score: inf
ROOT
ATOM      1  C   UNL     1      -5.121   6.294  -6.843  1.00  0.00    -0.025 A 
ATOM      2  C   UNL     1      -5.040   4.930  -7.196  1.00  0.00     0.012 A 
ATOM      3  C   UNL     1      -5.228   6.637  -5.485  1.00  0.00     0.012 A 
ATOM      4  C   UNL     1      -5.041   3.943  -6.205  1.00  0.00     0.047 A 
ATOM      5  C   UNL     1      -5.228   5.647  -4.498  1.00  0.00     0.047 A 
ATOM      6  C   UNL     1      -5.133   4.299  -4.853  1.00  0.00     0.115 A 
ENDROOT
BRANCH   1   7
ATOM      7  C   UNL     1      -5.135   7.380  -7.854  1.00  0.00     0.010 C 
ATOM      8  C   UNL     1      -5.814   7.316  -9.008  1.00  0.00     0.025 C 
BRANCH   8   9
ATOM      9  C   UNL     1      -5.795   8.411  -9.993  1.00  0.00     0.064 C 
ATOM     10  O   UNL     1      -4.708   8.890 -10.414  1.00  0.00    -0.545 OA
ATOM     11  O   UNL     1      -6.995   8.925 -10.465  1.00  0.00    -0.545 OA
ENDBRANCH   8   9
ENDBRANCH   1   7
BRANCH   6  12
ATOM     12  O   UNL     1      -5.133   3.323  -3.859  1.00  0.00    -0.508 OA
ATOM     13  H   UNL     1      -5.989   3.044  -3.393  1.00  0.00     0.293 HD
ENDBRANCH   6  12
TORSDOF 3
ENDMDL
MODEL 6
REMARK VINA RESULT:    -4.442      1.571      2.088
REMARK INTER + INTRA:          -5.233
REMARK INTER:                  -5.093
REMARK INTRA:                  -0.140
REMARK UNBOUND:                -0.141
REMARK SMILES O=C([O-])C=Cc1ccc(O)cc1
REMARK SMILES IDX 6 1 7 2 12 3 8 4 11 5 9 6 5 7 4 8 2 9 1 10 3 11 10 12
REMARK H PARENT 10 13
REMARK Flexibility Score: inf
ROOT
ATOM      1  C   UNL     1      -5.438   5.925  -8.520  1.00  0.00    -0.025 A 
ATOM      2  C   UNL     1      -4.643   7.088  -8.448  1.00  0.00     0.012 A 
ATOM      3  C   UNL     1      -6.255   5.732  -9.647  1.00  0.00     0.012 A 
ATOM      4  C   UNL     1      -4.650   8.015  -9.495  1.00  0.00     0.047 A 
ATOM      5  C   UNL     1      -6.258   6.662 -10.692  1.00  0.00     0.047 A 
ATOM      6  C   UNL     1      -5.456   7.803 -10.620  1.00  0.00     0.115 A 
ENDROOT
BRANCH   1   7
ATOM      7  C   UNL     1      -5.477   4.915  -7.433  1.00  0.00     0.010 C 
ATOM      8  C   UNL     1      -5.275   5.204  -6.140  1.00  0.00     0.025 C 
BRANCH   8   9
ATOM      9  C   UNL     1      -5.310   4.171  -5.091  1.00  0.00     0.064 C 
ATOM     10  O   UNL     1      -4.971   2.982  -5.334  1.00  0.00    -0.545 OA
ATOM     11  O   UNL     1      -5.723   4.514  -3.810  1.00  0.00    -0.545 OA
ENDBRANCH   8   9
ENDBRANCH   1   7
BRANCH   6  12
ATOM     12  O   UNL     1      -5.469   8.721 -11.668  1.00  0.00    -0.508 OA
ATOM     13  H   UNL     1      -5.455   9.720 -11.496  1.00  0.00     0.293 HD
ENDBRANCH   6  12
TORSDOF 3
ENDMDL
MODEL 7
REMARK VINA RESULT:    -4.427     12.925     14.323
REMARK INTER + INTRA:          -5.215
REMARK INTER:                  -5.065
REMARK INTRA:                  -0.150
REMARK UNBOUND:                -0.141
REMARK SMILES O=C([O-])C=Cc1ccc(O)cc1
REMARK SMILES IDX 6 1 7 2 12 3 8 4 11 5 9 6 5 7 4 8 2 9 1 10 3 11 10 12
REMARK H PARENT 10 13
REMARK Flexibility Score: inf
ROOT
ATOM      1  C   UNL     1      -5.158  -7.283 -11.734  1.00  0.00    -0.025 A 
ATOM      2  C   UNL     1      -5.749  -7.571 -10.486  1.00  0.00     0.012 A 
ATOM      3  C   UNL     1      -5.496  -6.083 -12.383  1.00  0.00     0.012 A 
ATOM      4  C   UNL     1      -6.634  -6.662  -9.897  1.00  0.00     0.047 A 
ATOM      5  C   UNL     1      -6.380  -5.178 -11.790  1.00  0.00     0.047 A 
ATOM      6  C   UNL     1      -6.950  -5.462 -10.547  1.00  0.00     0.115 A 
ENDROOT
BRANCH   1   7
ATOM      7  C   UNL     1      -4.222  -8.217 -12.408  1.00  0.00     0.010 C 
ATOM      8  C   UNL     1      -3.291  -7.830 -13.292  1.00  0.00     0.025 C 
BRANCH   8   9
ATOM      9  C   UNL     1      -2.386  -8.787 -13.950  1.00  0.00     0.064 C 
ATOM     10  O   UNL     1      -2.273  -9.971 -13.532  1.00  0.00    -0.545 OA
ATOM     11  O   UNL     1      -1.644  -8.378 -15.050  1.00  0.00    -0.545 OA
ENDBRANCH   8   9
ENDBRANCH   1   7
BRANCH   6  12
ATOM     12  O   UNL     1      -7.830  -4.550  -9.968  1.00  0.00    -0.508 OA
ATOM     13  H   UNL     1      -7.497  -3.700  -9.528  1.00  0.00     0.293 HD
ENDBRANCH   6  12
TORSDOF 3
ENDMDL
MODEL 8
REMARK VINA RESULT:    -4.357     12.252     13.722
REMARK INTER + INTRA:          -5.135
REMARK INTER:                  -4.995
REMARK INTRA:                  -0.140
REMARK UNBOUND:                -0.141
REMARK SMILES O=C([O-])C=Cc1ccc(O)cc1
REMARK SMILES IDX 6 1 7 2 12 3 8 4 11 5 9 6 5 7 4 8 2 9 1 10 3 11 10 12
REMARK H PARENT 10 13
REMARK Flexibility Score: inf
ROOT
ATOM      1  C   UNL     1      -3.925  -6.175  -0.462  1.00  0.00    -0.025 A 
ATOM      2  C   UNL     1      -4.182  -7.287   0.368  1.00  0.00     0.012 A 
ATOM      3  C   UNL     1      -4.328  -6.227  -1.808  1.00  0.00     0.012 A 
ATOM      4  C   UNL     1      -4.850  -8.407  -0.138  1.00  0.00     0.047 A 
ATOM      5  C   UNL     1      -4.996  -7.349  -2.308  1.00  0.00     0.047 A 
ATOM      6  C   UNL     1      -5.261  -8.440  -1.476  1.00  0.00     0.115 A 
ENDROOT
BRANCH   1   7
ATOM      7  C   UNL     1      -3.211  -4.967   0.019  1.00  0.00     0.010 C 
ATOM      8  C   UNL     1      -2.143  -5.006   0.828  1.00  0.00     0.025 C 
BRANCH   8   9
ATOM      9  C   UNL     1      -1.467  -3.784   1.295  1.00  0.00     0.064 C 
ATOM     10  O   UNL     1      -0.397  -3.843   1.958  1.00  0.00    -0.545 OA
ATOM     11  O   UNL     1      -2.019  -2.543   1.001  1.00  0.00    -0.545 OA
ENDBRANCH   8   9
ENDBRANCH   1   7
BRANCH   6  12
ATOM     12  O   UNL     1      -5.928  -9.551  -1.988  1.00  0.00    -0.508 OA
ATOM     13  H   UNL     1      -6.227 -10.311  -1.388  1.00  0.00     0.293 HD
ENDBRANCH   6  12
TORSDOF 3
ENDMDL
MODEL 9
REMARK VINA RESULT:    -4.215      2.389      5.802
REMARK INTER + INTRA:          -4.972
REMARK INTER:                  -4.818
REMARK INTRA:                  -0.154
REMARK UNBOUND:                -0.141
REMARK SMILES O=C([O-])C=Cc1ccc(O)cc1
REMARK SMILES IDX 6 1 7 2 12 3 8 4 11 5 9 6 5 7 4 8 2 9 1 10 3 11 10 12
REMARK H PARENT 10 13
REMARK Flexibility Score: inf
ROOT
ATOM      1  C   UNL     1      -5.559   6.041  -7.550  1.00  0.00    -0.025 A 
ATOM      2  C   UNL     1      -5.446   4.982  -6.625  1.00  0.00     0.012 A 
ATOM      3  C   UNL     1      -5.541   7.362  -7.072  1.00  0.00     0.012 A 
ATOM      4  C   UNL     1      -5.292   5.249  -5.260  1.00  0.00     0.047 A 
ATOM      5  C   UNL     1      -5.386   7.624  -5.707  1.00  0.00     0.047 A 
ATOM      6  C   UNL     1      -5.259   6.570  -4.799  1.00  0.00     0.115 A 
ENDROOT
BRANCH   1   7
ATOM      7  C   UNL     1      -5.735   5.814  -9.006  1.00  0.00     0.010 C 
ATOM      8  C   UNL     1      -5.999   6.791  -9.885  1.00  0.00     0.025 C 
BRANCH   8   9
ATOM      9  C   UNL     1      -6.179   6.526 -11.323  1.00  0.00     0.064 C 
ATOM     10  O   UNL     1      -6.240   5.348 -11.766  1.00  0.00    -0.545 OA
ATOM     11  O   UNL     1      -6.283   7.593 -12.205  1.00  0.00    -0.545 OA
ENDBRANCH   8   9
ENDBRANCH   1   7
BRANCH   6  12
ATOM     12  O   UNL     1      -5.106   6.846  -3.442  1.00  0.00    -0.508 OA
ATOM     13  H   UNL     1      -5.892   6.812  -2.803  1.00  0.00     0.293 HD
ENDBRANCH   6  12
TORSDOF 3
ENDMDL
