MODEL 1
REMARK VINA RESULT:    -3.667      0.000      0.000
REMARK INTER + INTRA:          -5.852
REMARK INTER:                  -5.168
REMARK INTRA:                  -0.684
REMARK UNBOUND:                -0.684
REMARK SMILES CCCCCCCCC(=O)[O-]
REMARK SMILES IDX 6 1 7 2 8 3 9 4 10 5 11 6 5 7 4 8 3 9 2 10 1 11
REMARK H PARENT
REMARK Flexibility Score: inf
ROOT
ATOM      1  C   UNL     1      28.860 -22.731  25.580  1.00  0.00     0.000 C 
ENDROOT
BRANCH   1   2
ATOM      2  C   UNL     1      27.579 -22.143  26.208  1.00  0.00     0.006 C 
BRANCH   2   3
ATOM      3  C   UNL     1      27.220 -20.731  25.722  1.00  0.00     0.053 C 
BRANCH   3   4
ATOM      4  C   UNL     1      28.210 -19.708  26.191  1.00  0.00     0.041 C 
ATOM      5  O   UNL     1      28.598 -18.798  25.412  1.00  0.00    -0.550 OA
ATOM      6  O   UNL     1      28.728 -19.779  27.477  1.00  0.00    -0.550 OA
ENDBRANCH   3   4
ENDBRANCH   2   3
ENDBRANCH   1   2
BRANCH   1   7
ATOM      7  C   UNL     1      28.626 -23.817  24.514  1.00  0.00     0.000 C 
BRANCH   7   8
ATOM      8  C   UNL     1      29.195 -23.440  23.138  1.00  0.00    -0.000 C 
BRANCH   8   9
ATOM      9  C   UNL     1      29.643 -21.971  23.115  1.00  0.00    -0.000 C 
BRANCH   9  10
ATOM     10  C   UNL     1      28.726 -21.087  22.254  1.00  0.00    -0.003 C 
ATOM     11  C   UNL     1      29.212 -19.641  22.163  1.00  0.00     0.004 C 
ENDBRANCH   9  10
ENDBRANCH   8   9
ENDBRANCH   7   8
ENDBRANCH   1   7
TORSDOF 7
ENDMDL
MODEL 2
REMARK VINA RESULT:    -3.518      2.155      3.920
REMARK INTER + INTRA:          -5.642
REMARK INTER:                  -4.974
REMARK INTRA:                  -0.667
REMARK UNBOUND:                -0.684
REMARK SMILES CCCCCCCCC(=O)[O-]
REMARK SMILES IDX 6 1 7 2 8 3 9 4 10 5 11 6 5 7 4 8 3 9 2 10 1 11
REMARK H PARENT
REMARK Flexibility Score: inf
ROOT
ATOM      1  C   UNL     1      29.337 -22.432  24.438  1.00  0.00     0.000 C 
ENDROOT
BRANCH   1   2
ATOM      2  C   UNL     1      29.046 -22.532  22.926  1.00  0.00     0.006 C 
BRANCH   2   3
ATOM      3  C   UNL     1      28.649 -21.205  22.263  1.00  0.00     0.053 C 
BRANCH   3   4
ATOM      4  C   UNL     1      29.846 -20.390  21.878  1.00  0.00     0.041 C 
ATOM      5  O   UNL     1      30.918 -20.958  21.543  1.00  0.00    -0.550 OA
ATOM      6  O   UNL     1      29.787 -19.003  21.921  1.00  0.00    -0.550 OA
ENDBRANCH   3   4
ENDBRANCH   2   3
ENDBRANCH   1   2
BRANCH   1   7
ATOM      7  C   UNL     1      28.293 -23.102  25.350  1.00  0.00     0.000 C 
BRANCH   7   8
ATOM      8  C   UNL     1      27.639 -22.120  26.334  1.00  0.00    -0.000 C 
BRANCH   8   9
ATOM      9  C   UNL     1      27.174 -20.848  25.609  1.00  0.00    -0.000 C 
BRANCH   9  10
ATOM     10  C   UNL     1      27.690 -19.565  26.280  1.00  0.00    -0.003 C 
ATOM     11  C   UNL     1      28.854 -18.927  25.521  1.00  0.00     0.004 C 
ENDBRANCH   9  10
ENDBRANCH   8   9
ENDBRANCH   7   8
ENDBRANCH   1   7
TORSDOF 7
ENDMDL
MODEL 3
REMARK VINA RESULT:    -3.447      1.719      3.667
REMARK INTER + INTRA:          -5.541
REMARK INTER:                  -4.681
REMARK INTRA:                  -0.860
REMARK UNBOUND:                -0.684
REMARK SMILES CCCCCCCCC(=O)[O-]
REMARK SMILES IDX 6 1 7 2 8 3 9 4 10 5 11 6 5 7 4 8 3 9 2 10 1 11
REMARK H PARENT
REMARK Flexibility Score: inf
ROOT
ATOM      1  C   UNL     1      29.590 -22.774  23.846  1.00  0.00     0.000 C 
ENDROOT
BRANCH   1   2
ATOM      2  C   UNL     1      28.924 -22.292  22.540  1.00  0.00     0.006 C 
BRANCH   2   3
ATOM      3  C   UNL     1      28.517 -20.811  22.539  1.00  0.00     0.053 C 
BRANCH   3   4
ATOM      4  C   UNL     1      29.708 -19.902  22.513  1.00  0.00     0.041 C 
ATOM      5  O   UNL     1      29.780 -18.930  23.309  1.00  0.00    -0.550 OA
ATOM      6  O   UNL     1      30.721 -20.108  21.585  1.00  0.00    -0.550 OA
ENDBRANCH   3   4
ENDBRANCH   2   3
ENDBRANCH   1   2
BRANCH   1   7
ATOM      7  C   UNL     1      28.681 -23.597  24.777  1.00  0.00     0.000 C 
BRANCH   7   8
ATOM      8  C   UNL     1      28.223 -22.812  26.015  1.00  0.00    -0.000 C 
BRANCH   8   9
ATOM      9  C   UNL     1      29.094 -21.564  26.226  1.00  0.00    -0.000 C 
BRANCH   9  10
ATOM     10  C   UNL     1      28.268 -20.268  26.264  1.00  0.00    -0.003 C 
ATOM     11  C   UNL     1      26.813 -20.482  25.845  1.00  0.00     0.004 C 
ENDBRANCH   9  10
ENDBRANCH   8   9
ENDBRANCH   7   8
ENDBRANCH   1   7
TORSDOF 7
ENDMDL
MODEL 4
REMARK VINA RESULT:    -3.411     13.319     14.892
REMARK INTER + INTRA:          -5.491
REMARK INTER:                  -5.050
REMARK INTRA:                  -0.440
REMARK UNBOUND:                -0.684
REMARK SMILES CCCCCCCCC(=O)[O-]
REMARK SMILES IDX 6 1 7 2 8 3 9 4 10 5 11 6 5 7 4 8 3 9 2 10 1 11
REMARK H PARENT
REMARK Flexibility Score: inf
ROOT
ATOM      1  C   UNL     1      32.348  -6.371  19.561  1.00  0.00     0.000 C 
ENDROOT
BRANCH   1   2
ATOM      2  C   UNL     1      31.355  -7.367  20.197  1.00  0.00     0.006 C 
BRANCH   2   3
ATOM      3  C   UNL     1      31.027  -7.086  21.671  1.00  0.00     0.053 C 
BRANCH   3   4
ATOM      4  C   UNL     1      30.331  -8.243  22.321  1.00  0.00     0.041 C 
ATOM      5  O   UNL     1      29.555  -8.051  23.294  1.00  0.00    -0.550 OA
ATOM      6  O   UNL     1      30.564  -9.537  21.873  1.00  0.00    -0.550 OA
ENDBRANCH   3   4
ENDBRANCH   2   3
ENDBRANCH   1   2
BRANCH   1   7
ATOM      7  C   UNL     1      32.272  -6.263  18.027  1.00  0.00     0.000 C 
BRANCH   7   8
ATOM      8  C   UNL     1      31.422  -7.374  17.390  1.00  0.00    -0.000 C 
BRANCH   8   9
ATOM      9  C   UNL     1      32.076  -7.891  16.099  1.00  0.00    -0.000 C 
BRANCH   9  10
ATOM     10  C   UNL     1      32.442  -9.381  16.180  1.00  0.00    -0.003 C 
ATOM     11  C   UNL     1      32.426  -9.918  17.612  1.00  0.00     0.004 C 
ENDBRANCH   9  10
ENDBRANCH   8   9
ENDBRANCH   7   8
ENDBRANCH   1   7
TORSDOF 7
ENDMDL
MODEL 5
REMARK VINA RESULT:    -3.410      1.163      1.811
REMARK INTER + INTRA:          -5.489
REMARK INTER:                  -4.797
REMARK INTRA:                  -0.692
REMARK UNBOUND:                -0.684
REMARK SMILES CCCCCCCCC(=O)[O-]
REMARK SMILES IDX 6 1 7 2 8 3 9 4 10 5 11 6 5 7 4 8 3 9 2 10 1 11
REMARK H PARENT
REMARK Flexibility Score: inf
ROOT
ATOM      1  C   UNL     1      28.752 -23.660  23.964  1.00  0.00     0.000 C 
ENDROOT
BRANCH   1   2
ATOM      2  C   UNL     1      28.838 -23.413  25.485  1.00  0.00     0.006 C 
BRANCH   2   3
ATOM      3  C   UNL     1      27.631 -22.672  26.081  1.00  0.00     0.053 C 
BRANCH   3   4
ATOM      4  C   UNL     1      27.722 -21.192  25.869  1.00  0.00     0.041 C 
ATOM      5  O   UNL     1      26.678 -20.512  25.689  1.00  0.00    -0.550 OA
ATOM      6  O   UNL     1      28.962 -20.567  25.839  1.00  0.00    -0.550 OA
ENDBRANCH   3   4
ENDBRANCH   2   3
ENDBRANCH   1   2
BRANCH   1   7
ATOM      7  C   UNL     1      30.067 -23.444  23.193  1.00  0.00     0.000 C 
BRANCH   7   8
ATOM      8  C   UNL     1      30.254 -21.995  22.720  1.00  0.00    -0.000 C 
BRANCH   8   9
ATOM      9  C   UNL     1      28.903 -21.359  22.356  1.00  0.00    -0.000 C 
BRANCH   9  10
ATOM     10  C   UNL     1      28.982 -19.828  22.247  1.00  0.00    -0.003 C 
ATOM     11  C   UNL     1      30.296 -19.264  22.789  1.00  0.00     0.004 C 
ENDBRANCH   9  10
ENDBRANCH   8   9
ENDBRANCH   7   8
ENDBRANCH   1   7
TORSDOF 7
ENDMDL
MODEL 6
REMARK VINA RESULT:    -3.369      2.113      3.846
REMARK INTER + INTRA:          -5.431
REMARK INTER:                  -4.791
REMARK INTRA:                  -0.641
REMARK UNBOUND:                -0.684
REMARK SMILES CCCCCCCCC(=O)[O-]
REMARK SMILES IDX 6 1 7 2 8 3 9 4 10 5 11 6 5 7 4 8 3 9 2 10 1 11
REMARK H PARENT
REMARK Flexibility Score: inf
ROOT
ATOM      1  C   UNL     1      30.885 -22.803  23.554  1.00  0.00     0.000 C 
ENDROOT
BRANCH   1   2
ATOM      2  C   UNL     1      31.007 -21.766  22.417  1.00  0.00     0.006 C 
BRANCH   2   3
ATOM      3  C   UNL     1      30.712 -20.319  22.839  1.00  0.00     0.053 C 
BRANCH   3   4
ATOM      4  C   UNL     1      29.398 -19.836  22.306  1.00  0.00     0.041 C 
ATOM      5  O   UNL     1      28.429 -20.631  22.194  1.00  0.00    -0.550 OA
ATOM      6  O   UNL     1      29.254 -18.515  21.901  1.00  0.00    -0.550 OA
ENDBRANCH   3   4
ENDBRANCH   2   3
ENDBRANCH   1   2
BRANCH   1   7
ATOM      7  C   UNL     1      29.840 -23.909  23.320  1.00  0.00     0.000 C 
BRANCH   7   8
ATOM      8  C   UNL     1      28.750 -23.943  24.402  1.00  0.00    -0.000 C 
BRANCH   8   9
ATOM      9  C   UNL     1      28.925 -22.781  25.392  1.00  0.00    -0.000 C 
BRANCH   9  10
ATOM     10  C   UNL     1      27.584 -22.261  25.933  1.00  0.00    -0.003 C 
ATOM     11  C   UNL     1      27.362 -20.777  25.638  1.00  0.00     0.004 C 
ENDBRANCH   9  10
ENDBRANCH   8   9
ENDBRANCH   7   8
ENDBRANCH   1   7
TORSDOF 7
ENDMDL
MODEL 7
REMARK VINA RESULT:    -3.310      2.590      4.333
REMARK INTER + INTRA:          -5.348
REMARK INTER:                  -4.693
REMARK INTRA:                  -0.655
REMARK UNBOUND:                -0.684
REMARK SMILES CCCCCCCCC(=O)[O-]
REMARK SMILES IDX 6 1 7 2 8 3 9 4 10 5 11 6 5 7 4 8 3 9 2 10 1 11
REMARK H PARENT
REMARK Flexibility Score: inf
ROOT
ATOM      1  C   UNL     1      28.760 -22.693  22.947  1.00  0.00     0.000 C 
ENDROOT
BRANCH   1   2
ATOM      2  C   UNL     1      29.139 -21.199  22.857  1.00  0.00     0.006 C 
BRANCH   2   3
ATOM      3  C   UNL     1      30.309 -20.894  21.911  1.00  0.00     0.053 C 
BRANCH   3   4
ATOM      4  C   UNL     1      31.567 -21.591  22.332  1.00  0.00     0.041 C 
ATOM      5  O   UNL     1      32.039 -21.406  23.484  1.00  0.00    -0.550 OA
ATOM      6  O   UNL     1      32.236 -22.419  21.439  1.00  0.00    -0.550 OA
ENDBRANCH   3   4
ENDBRANCH   2   3
ENDBRANCH   1   2
BRANCH   1   7
ATOM      7  C   UNL     1      29.016 -23.349  24.316  1.00  0.00     0.000 C 
BRANCH   7   8
ATOM      8  C   UNL     1      28.997 -22.343  25.477  1.00  0.00    -0.000 C 
BRANCH   8   9
ATOM      9  C   UNL     1      27.583 -22.206  26.059  1.00  0.00    -0.000 C 
BRANCH   9  10
ATOM     10  C   UNL     1      26.951 -20.837  25.756  1.00  0.00    -0.003 C 
ATOM     11  C   UNL     1      27.863 -19.669  26.131  1.00  0.00     0.004 C 
ENDBRANCH   9  10
ENDBRANCH   8   9
ENDBRANCH   7   8
ENDBRANCH   1   7
TORSDOF 7
ENDMDL
MODEL 8
REMARK VINA RESULT:    -3.258      2.131      3.425
REMARK INTER + INTRA:          -5.275
REMARK INTER:                  -4.767
REMARK INTRA:                  -0.507
REMARK UNBOUND:                -0.684
REMARK SMILES CCCCCCCCC(=O)[O-]
REMARK SMILES IDX 6 1 7 2 8 3 9 4 10 5 11 6 5 7 4 8 3 9 2 10 1 11
REMARK H PARENT
REMARK Flexibility Score: inf
ROOT
ATOM      1  C   UNL     1      28.625 -20.097  25.858  1.00  0.00     0.000 C 
ENDROOT
BRANCH   1   2
ATOM      2  C   UNL     1      29.819 -20.748  26.587  1.00  0.00     0.006 C 
BRANCH   2   3
ATOM      3  C   UNL     1      29.428 -21.699  27.728  1.00  0.00     0.053 C 
BRANCH   3   4
ATOM      4  C   UNL     1      29.986 -21.254  29.045  1.00  0.00     0.041 C 
ATOM      5  O   UNL     1      29.600 -20.174  29.565  1.00  0.00    -0.550 OA
ATOM      6  O   UNL     1      30.957 -22.015  29.684  1.00  0.00    -0.550 OA
ENDBRANCH   3   4
ENDBRANCH   2   3
ENDBRANCH   1   2
BRANCH   1   7
ATOM      7  C   UNL     1      27.932 -20.991  24.814  1.00  0.00     0.000 C 
BRANCH   7   8
ATOM      8  C   UNL     1      28.701 -21.069  23.486  1.00  0.00    -0.000 C 
BRANCH   8   9
ATOM      9  C   UNL     1      28.957 -22.530  23.087  1.00  0.00    -0.000 C 
BRANCH   9  10
ATOM     10  C   UNL     1      28.930 -23.484  24.292  1.00  0.00    -0.003 C 
ATOM     11  C   UNL     1      29.221 -24.935  23.905  1.00  0.00     0.004 C 
ENDBRANCH   9  10
ENDBRANCH   8   9
ENDBRANCH   7   8
ENDBRANCH   1   7
TORSDOF 7
ENDMDL
MODEL 9
REMARK VINA RESULT:    -3.253      1.368      2.209
REMARK INTER + INTRA:          -5.268
REMARK INTER:                  -4.600
REMARK INTRA:                  -0.668
REMARK UNBOUND:                -0.684
REMARK SMILES CCCCCCCCC(=O)[O-]
REMARK SMILES IDX 6 1 7 2 8 3 9 4 10 5 11 6 5 7 4 8 3 9 2 10 1 11
REMARK H PARENT
REMARK Flexibility Score: inf
ROOT
ATOM      1  C   UNL     1      27.091 -21.050  25.768  1.00  0.00     0.000 C 
ENDROOT
BRANCH   1   2
ATOM      2  C   UNL     1      27.527 -19.601  26.073  1.00  0.00     0.006 C 
BRANCH   2   3
ATOM      3  C   UNL     1      29.040 -19.355  25.972  1.00  0.00     0.053 C 
BRANCH   3   4
ATOM      4  C   UNL     1      29.364 -17.898  25.844  1.00  0.00     0.041 C 
ATOM      5  O   UNL     1      28.465 -17.074  25.529  1.00  0.00    -0.550 OA
ATOM      6  O   UNL     1      30.665 -17.454  26.040  1.00  0.00    -0.550 OA
ENDBRANCH   3   4
ENDBRANCH   2   3
ENDBRANCH   1   2
BRANCH   1   7
ATOM      7  C   UNL     1      28.046 -22.141  26.286  1.00  0.00     0.000 C 
BRANCH   7   8
ATOM      8  C   UNL     1      28.417 -23.173  25.210  1.00  0.00    -0.000 C 
BRANCH   8   9
ATOM      9  C   UNL     1      29.460 -22.600  24.239  1.00  0.00    -0.000 C 
BRANCH   9  10
ATOM     10  C   UNL     1      28.899 -22.402  22.821  1.00  0.00    -0.003 C 
ATOM     11  C   UNL     1      28.745 -20.927  22.447  1.00  0.00     0.004 C 
ENDBRANCH   9  10
ENDBRANCH   8   9
ENDBRANCH   7   8
ENDBRANCH   1   7
TORSDOF 7
ENDMDL
