MODEL 1
REMARK VINA RESULT:    79.035      0.000      0.000
REMARK INTER + INTRA:         105.133
REMARK INTER:                 104.447
REMARK INTRA:                   0.686
REMARK UNBOUND:                 0.686
REMARK SMILES C=C(CC[C@H](C)[C@@H]1CC[C@@]2(C)[C@H]3CC[C@H]4C(C)(C)[C@@H](O)CC[C@]45C[C@]35CC[C@@]12C)C(C)C
REMARK SMILES IDX 4 1 3 2 2 3 1 4 30 5 31 6 32 7 5 8 6 9 7 10 8 11 28 12 9 13
REMARK SMILES IDX 10 14 27 15 29 16 11 17 12 18 26 19 25 20 13 21 23 22 24 23
REMARK SMILES IDX 14 24 15 25 22 26 16 27 21 28 19 29 17 30 18 31 20 32
REMARK H PARENT 20 33
REMARK Flexibility Score: inf
ROOT
ATOM      1  C   UNL     1     -19.174  25.278  -5.906  1.00  0.00     0.008 C 
ENDROOT
BRANCH   1   2
ATOM      2  C   UNL     1     -18.878  24.034  -5.046  1.00  0.00     0.031 C 
BRANCH   2   3
ATOM      3  C   UNL     1     -19.768  22.819  -5.320  1.00  0.00    -0.075 C 
ATOM      4  C   UNL     1     -20.117  21.960  -4.341  1.00  0.00     0.008 C 
BRANCH   3   5
ATOM      5  C   UNL     1     -20.109  22.424  -6.758  1.00  0.00     0.008 C 
ATOM      6  C   UNL     1     -21.297  23.196  -7.355  1.00  0.00     0.012 C 
ATOM      7  C   UNL     1     -18.876  22.567  -7.658  1.00  0.00     0.012 C 
ENDBRANCH   3   5
ENDBRANCH   2   3
ENDBRANCH   1   2
BRANCH   1   8
ATOM      8  C   UNL     1     -19.470  26.578  -5.102  1.00  0.00    -0.010 C 
ATOM      9  C   UNL     1     -19.307  26.282  -3.591  1.00  0.00     0.008 C 
BRANCH   8  10
ATOM     10  C   UNL     1     -20.746  27.413  -5.543  1.00  0.00    -0.002 C 
ATOM     11  C   UNL     1     -21.937  27.271  -4.572  1.00  0.00     0.005 C 
ATOM     12  C   UNL     1     -21.377  27.372  -7.006  1.00  0.00    -0.024 C 
ATOM     13  C   UNL     1     -23.206  27.352  -5.413  1.00  0.00     0.008 C 
ATOM     14  C   UNL     1     -22.841  26.803  -6.803  1.00  0.00    -0.024 C 
ATOM     15  C   UNL     1     -21.437  28.858  -7.504  1.00  0.00     0.008 C 
ATOM     16  C   UNL     1     -20.567  26.559  -8.054  1.00  0.00     0.012 C 
ATOM     17  C   UNL     1     -22.817  25.241  -6.713  1.00  0.00     0.012 C 
ATOM     18  C   UNL     1     -23.902  27.208  -7.926  1.00  0.00     0.002 C 
ATOM     19  C   UNL     1     -22.250  29.051  -8.767  1.00  0.00     0.008 C 
ATOM     20  C   UNL     1     -23.712  28.638  -8.524  1.00  0.00    -0.020 C 
ATOM     21  C   UNL     1     -25.371  26.909  -7.503  1.00  0.00     0.005 C 
ATOM     22  C   UNL     1     -24.903  29.656  -8.536  1.00  0.00    -0.020 C 
ATOM     23  C   UNL     1     -24.480  28.935  -9.819  1.00  0.00     0.015 C 
ATOM     24  C   UNL     1     -26.126  28.116  -6.937  1.00  0.00     0.005 C 
ATOM     25  C   UNL     1     -26.310  29.178  -8.031  1.00  0.00     0.004 C 
ATOM     26  C   UNL     1     -24.410  31.110  -8.281  1.00  0.00     0.010 C 
ATOM     27  C   UNL     1     -27.301  30.357  -7.689  1.00  0.00    -0.006 C 
ATOM     28  C   UNL     1     -25.480  32.128  -7.897  1.00  0.00     0.033 C 
ATOM     29  C   UNL     1     -26.560  31.535  -6.993  1.00  0.00     0.120 C 
ATOM     30  C   UNL     1     -28.478  29.908  -6.783  1.00  0.00     0.014 C 
ATOM     31  C   UNL     1     -27.951  30.853  -9.016  1.00  0.00     0.014 C 
BRANCH  29  32
ATOM     32  O   UNL     1     -25.968  31.117  -5.787  1.00  0.00    -0.393 OA
ATOM     33  H   UNL     1     -26.362  30.234  -5.555  1.00  0.00     0.210 HD
ENDBRANCH  29  32
ENDBRANCH   8  10
ENDBRANCH   1   8
TORSDOF 6
ENDMDL
MODEL 2
REMARK VINA RESULT:    80.008      2.047      7.860
REMARK INTER + INTRA:         106.419
REMARK INTER:                 106.391
REMARK INTRA:                   0.027
REMARK UNBOUND:                 0.686
REMARK SMILES C=C(CC[C@H](C)[C@@H]1CC[C@@]2(C)[C@H]3CC[C@H]4C(C)(C)[C@@H](O)CC[C@]45C[C@]35CC[C@@]12C)C(C)C
REMARK SMILES IDX 4 1 3 2 2 3 1 4 30 5 31 6 32 7 5 8 6 9 7 10 8 11 28 12 9 13
REMARK SMILES IDX 10 14 27 15 29 16 11 17 12 18 26 19 25 20 13 21 23 22 24 23
REMARK SMILES IDX 14 24 15 25 22 26 16 27 21 28 19 29 17 30 18 31 20 32
REMARK H PARENT 20 33
REMARK Flexibility Score: inf
ROOT
ATOM      1  C   UNL     1     -24.777  31.018  -8.322  1.00  0.00     0.008 C 
ENDROOT
BRANCH   1   2
ATOM      2  C   UNL     1     -25.531  30.484  -7.087  1.00  0.00     0.031 C 
BRANCH   2   3
ATOM      3  C   UNL     1     -27.036  30.282  -7.273  1.00  0.00    -0.075 C 
ATOM      4  C   UNL     1     -27.848  31.295  -7.638  1.00  0.00     0.008 C 
BRANCH   3   5
ATOM      5  C   UNL     1     -27.697  28.972  -6.840  1.00  0.00     0.008 C 
ATOM      6  C   UNL     1     -27.228  27.742  -7.634  1.00  0.00     0.012 C 
ATOM      7  C   UNL     1     -27.494  28.744  -5.338  1.00  0.00     0.012 C 
ENDBRANCH   3   5
ENDBRANCH   2   3
ENDBRANCH   1   2
BRANCH   1   8
ATOM      8  C   UNL     1     -24.339  29.930  -9.345  1.00  0.00    -0.010 C 
ATOM      9  C   UNL     1     -25.502  29.676 -10.336  1.00  0.00     0.008 C 
BRANCH   8  10
ATOM     10  C   UNL     1     -23.598  28.655  -8.757  1.00  0.00    -0.002 C 
ATOM     11  C   UNL     1     -24.507  27.767  -7.883  1.00  0.00     0.005 C 
ATOM     12  C   UNL     1     -22.195  28.709  -8.003  1.00  0.00    -0.024 C 
ATOM     13  C   UNL     1     -23.626  27.168  -6.792  1.00  0.00     0.008 C 
ATOM     14  C   UNL     1     -22.499  28.185  -6.539  1.00  0.00    -0.024 C 
ATOM     15  C   UNL     1     -21.251  27.706  -8.752  1.00  0.00     0.008 C 
ATOM     16  C   UNL     1     -21.497  30.097  -7.999  1.00  0.00     0.012 C 
ATOM     17  C   UNL     1     -23.079  29.336  -5.652  1.00  0.00     0.012 C 
ATOM     18  C   UNL     1     -21.257  27.550  -5.760  1.00  0.00     0.002 C 
ATOM     19  C   UNL     1     -19.955  27.419  -8.023  1.00  0.00     0.008 C 
ATOM     20  C   UNL     1     -20.248  26.769  -6.659  1.00  0.00    -0.020 C 
ATOM     21  C   UNL     1     -21.684  26.762  -4.487  1.00  0.00     0.005 C 
ATOM     22  C   UNL     1     -19.859  25.292  -6.313  1.00  0.00    -0.020 C 
ATOM     23  C   UNL     1     -18.891  26.441  -6.022  1.00  0.00     0.015 C 
ATOM     24  C   UNL     1     -21.804  25.248  -4.688  1.00  0.00     0.005 C 
ATOM     25  C   UNL     1     -20.423  24.650  -4.996  1.00  0.00     0.004 C 
ATOM     26  C   UNL     1     -19.664  24.439  -7.602  1.00  0.00     0.010 C 
ATOM     27  C   UNL     1     -20.328  23.075  -4.960  1.00  0.00    -0.006 C 
ATOM     28  C   UNL     1     -19.657  22.924  -7.414  1.00  0.00     0.033 C 
ATOM     29  C   UNL     1     -20.650  22.457  -6.351  1.00  0.00     0.120 C 
ATOM     30  C   UNL     1     -21.274  22.442  -3.905  1.00  0.00     0.014 C 
ATOM     31  C   UNL     1     -18.884  22.681  -4.528  1.00  0.00     0.014 C 
BRANCH  29  32
ATOM     32  O   UNL     1     -21.953  22.793  -6.764  1.00  0.00    -0.393 OA
ATOM     33  H   UNL     1     -22.336  23.395  -6.072  1.00  0.00     0.210 HD
ENDBRANCH  29  32
ENDBRANCH   8  10
ENDBRANCH   1   8
TORSDOF 6
ENDMDL
MODEL 3
REMARK VINA RESULT:    81.956      5.550      9.800
REMARK INTER + INTRA:         108.994
REMARK INTER:                 109.886
REMARK INTRA:                  -0.892
REMARK UNBOUND:                 0.686
REMARK SMILES C=C(CC[C@H](C)[C@@H]1CC[C@@]2(C)[C@H]3CC[C@H]4C(C)(C)[C@@H](O)CC[C@]45C[C@]35CC[C@@]12C)C(C)C
REMARK SMILES IDX 4 1 3 2 2 3 1 4 30 5 31 6 32 7 5 8 6 9 7 10 8 11 28 12 9 13
REMARK SMILES IDX 10 14 27 15 29 16 11 17 12 18 26 19 25 20 13 21 23 22 24 23
REMARK SMILES IDX 14 24 15 25 22 26 16 27 21 28 19 29 17 30 18 31 20 32
REMARK H PARENT 20 33
REMARK Flexibility Score: inf
ROOT
ATOM      1  C   UNL     1     -25.731  31.631  -4.879  1.00  0.00     0.008 C 
ENDROOT
BRANCH   1   2
ATOM      2  C   UNL     1     -26.470  30.633  -5.793  1.00  0.00     0.031 C 
BRANCH   2   3
ATOM      3  C   UNL     1     -26.459  30.976  -7.284  1.00  0.00    -0.075 C 
ATOM      4  C   UNL     1     -27.590  31.289  -7.948  1.00  0.00     0.008 C 
BRANCH   3   5
ATOM      5  C   UNL     1     -25.192  30.761  -8.114  1.00  0.00     0.008 C 
ATOM      6  C   UNL     1     -25.120  29.389  -8.803  1.00  0.00     0.012 C 
ATOM      7  C   UNL     1     -25.035  31.883  -9.147  1.00  0.00     0.012 C 
ENDBRANCH   3   5
ENDBRANCH   2   3
ENDBRANCH   1   2
BRANCH   1   8
ATOM      8  C   UNL     1     -26.633  32.369  -3.847  1.00  0.00    -0.010 C 
ATOM      9  C   UNL     1     -25.892  32.431  -2.488  1.00  0.00     0.008 C 
BRANCH   8  10
ATOM     10  C   UNL     1     -28.166  31.956  -3.818  1.00  0.00    -0.002 C 
ATOM     11  C   UNL     1     -29.108  33.126  -3.464  1.00  0.00     0.005 C 
ATOM     12  C   UNL     1     -28.734  30.692  -3.031  1.00  0.00    -0.024 C 
ATOM     13  C   UNL     1     -30.277  32.533  -2.684  1.00  0.00     0.008 C 
ATOM     14  C   UNL     1     -29.727  31.295  -1.953  1.00  0.00    -0.024 C 
ATOM     15  C   UNL     1     -29.528  29.838  -4.080  1.00  0.00     0.008 C 
ATOM     16  C   UNL     1     -27.659  29.770  -2.393  1.00  0.00     0.012 C 
ATOM     17  C   UNL     1     -28.939  31.789  -0.695  1.00  0.00     0.012 C 
ATOM     18  C   UNL     1     -30.880  30.312  -1.449  1.00  0.00     0.002 C 
ATOM     19  C   UNL     1     -30.365  28.735  -3.469  1.00  0.00     0.008 C 
ATOM     20  C   UNL     1     -31.430  29.333  -2.535  1.00  0.00    -0.020 C 
ATOM     21  C   UNL     1     -32.002  31.053  -0.664  1.00  0.00     0.005 C 
ATOM     22  C   UNL     1     -32.966  29.265  -2.832  1.00  0.00    -0.020 C 
ATOM     23  C   UNL     1     -32.280  28.163  -2.020  1.00  0.00     0.015 C 
ATOM     24  C   UNL     1     -33.236  31.404  -1.501  1.00  0.00     0.005 C 
ATOM     25  C   UNL     1     -33.946  30.119  -1.952  1.00  0.00     0.004 C 
ATOM     26  C   UNL     1     -33.242  29.034  -4.347  1.00  0.00     0.010 C 
ATOM     27  C   UNL     1     -35.378  30.308  -2.588  1.00  0.00    -0.006 C 
ATOM     28  C   UNL     1     -34.663  29.320  -4.826  1.00  0.00     0.033 C 
ATOM     29  C   UNL     1     -35.290  30.525  -4.126  1.00  0.00     0.120 C 
ATOM     30  C   UNL     1     -36.159  31.495  -1.964  1.00  0.00     0.014 C 
ATOM     31  C   UNL     1     -36.222  29.035  -2.282  1.00  0.00     0.014 C 
BRANCH  29  32
ATOM     32  O   UNL     1     -34.537  31.674  -4.432  1.00  0.00    -0.393 OA
ATOM     33  H   UNL     1     -35.078  32.462  -4.162  1.00  0.00     0.210 HD
ENDBRANCH  29  32
ENDBRANCH   8  10
ENDBRANCH   1   8
TORSDOF 6
ENDMDL
