MODEL 1
REMARK VINA RESULT:    -6.932      0.000      0.000
REMARK INTER + INTRA:         -13.465
REMARK INTER:                 -12.606
REMARK INTRA:                  -0.859
REMARK UNBOUND:                -0.859
REMARK SMILES CCCCCC=CCC=CCCCCCCCC(=O)[O-]
REMARK SMILES IDX 11 1 12 2 13 3 14 4 15 5 16 6 17 7 18 8 19 9 20 10 10 11
REMARK SMILES IDX 9 12 8 13 7 14 6 15 5 16 4 17 3 18 2 19 1 20
REMARK H PARENT
REMARK Flexibility Score: inf
ROOT
ATOM      1  C   UNL     1      15.453 119.034  17.130  1.00  0.00     0.027 C 
ENDROOT
BRANCH   1   2
ATOM      2  C   UNL     1      13.986 119.353  17.466  1.00  0.00     0.004 C 
BRANCH   2   3
ATOM      3  C   UNL     1      13.553 118.936  18.886  1.00  0.00     0.000 C 
BRANCH   3   4
ATOM      4  C   UNL     1      14.599 119.198  19.986  1.00  0.00     0.000 C 
BRANCH   4   5
ATOM      5  C   UNL     1      14.353 118.365  21.255  1.00  0.00     0.000 C 
BRANCH   5   6
ATOM      6  C   UNL     1      15.066 118.940  22.492  1.00  0.00     0.006 C 
BRANCH   6   7
ATOM      7  C   UNL     1      14.546 120.317  22.934  1.00  0.00     0.053 C 
BRANCH   7   8
ATOM      8  C   UNL     1      13.143 120.247  23.455  1.00  0.00     0.041 C 
ATOM      9  O   UNL     1      12.221 120.882  22.879  1.00  0.00    -0.550 OA
ATOM     10  O   UNL     1      12.848 119.454  24.557  1.00  0.00    -0.550 OA
ENDBRANCH   7   8
ENDBRANCH   6   7
ENDBRANCH   5   6
ENDBRANCH   4   5
ENDBRANCH   3   4
ENDBRANCH   2   3
ENDBRANCH   1   2
BRANCH   1  11
ATOM     11  C   UNL     1      16.268 120.277  16.897  1.00  0.00    -0.031 C 
ATOM     12  C   UNL     1      16.734 120.590  15.679  1.00  0.00    -0.027 C 
BRANCH  12  13
ATOM     13  C   UNL     1      17.561 121.826  15.466  1.00  0.00     0.054 C 
BRANCH  13  14
ATOM     14  C   UNL     1      17.879 122.483  16.787  1.00  0.00    -0.027 C 
ATOM     15  C   UNL     1      18.163 123.788  16.982  1.00  0.00    -0.031 C 
BRANCH  15  16
ATOM     16  C   UNL     1      18.253 124.852  15.913  1.00  0.00     0.027 C 
BRANCH  16  17
ATOM     17  C   UNL     1      19.540 125.680  16.031  1.00  0.00     0.004 C 
BRANCH  17  18
ATOM     18  C   UNL     1      19.413 127.057  15.363  1.00  0.00     0.000 C 
BRANCH  18  19
ATOM     19  C   UNL     1      19.399 128.209  16.377  1.00  0.00    -0.003 C 
ATOM     20  C   UNL     1      18.929 127.769  17.763  1.00  0.00     0.004 C 
ENDBRANCH  18  19
ENDBRANCH  17  18
ENDBRANCH  16  17
ENDBRANCH  15  16
ENDBRANCH  13  14
ENDBRANCH  12  13
ENDBRANCH   1  11
TORSDOF 14
ENDMDL
MODEL 2
REMARK VINA RESULT:    -6.904      5.029      6.144
REMARK INTER + INTRA:         -13.414
REMARK INTER:                 -12.793
REMARK INTRA:                  -0.621
REMARK UNBOUND:                -0.859
REMARK SMILES CCCCCC=CCC=CCCCCCCCC(=O)[O-]
REMARK SMILES IDX 11 1 12 2 13 3 14 4 15 5 16 6 17 7 18 8 19 9 20 10 10 11
REMARK SMILES IDX 9 12 8 13 7 14 6 15 5 16 4 17 3 18 2 19 1 20
REMARK H PARENT
REMARK Flexibility Score: inf
ROOT
ATOM      1  C   UNL     1      13.438 118.529  17.349  1.00  0.00     0.027 C 
ENDROOT
BRANCH   1   2
ATOM      2  C   UNL     1      13.334 117.686  16.066  1.00  0.00     0.004 C 
BRANCH   2   3
ATOM      3  C   UNL     1      12.342 116.509  16.157  1.00  0.00     0.000 C 
BRANCH   3   4
ATOM      4  C   UNL     1      11.807 116.005  14.804  1.00  0.00     0.000 C 
BRANCH   4   5
ATOM      5  C   UNL     1      11.501 114.498  14.806  1.00  0.00     0.000 C 
BRANCH   5   6
ATOM      6  C   UNL     1      11.187 113.956  16.212  1.00  0.00     0.006 C 
BRANCH   6   7
ATOM      7  C   UNL     1      11.832 112.596  16.521  1.00  0.00     0.053 C 
BRANCH   7   8
ATOM      8  C   UNL     1      10.806 111.527  16.746  1.00  0.00     0.041 C 
ATOM      9  O   UNL     1       9.904 111.324  15.891  1.00  0.00    -0.550 OA
ATOM     10  O   UNL     1      10.867 110.734  17.885  1.00  0.00    -0.550 OA
ENDBRANCH   7   8
ENDBRANCH   6   7
ENDBRANCH   5   6
ENDBRANCH   4   5
ENDBRANCH   3   4
ENDBRANCH   2   3
ENDBRANCH   1   2
BRANCH   1  11
ATOM     11  C   UNL     1      14.504 119.586  17.253  1.00  0.00    -0.031 C 
ATOM     12  C   UNL     1      15.806 119.267  17.259  1.00  0.00    -0.027 C 
BRANCH  12  13
ATOM     13  C   UNL     1      16.860 120.335  17.179  1.00  0.00     0.054 C 
BRANCH  13  14
ATOM     14  C   UNL     1      16.891 120.945  15.798  1.00  0.00    -0.027 C 
ATOM     15  C   UNL     1      17.404 122.148  15.468  1.00  0.00    -0.031 C 
BRANCH  15  16
ATOM     16  C   UNL     1      18.025 123.146  16.418  1.00  0.00     0.027 C 
BRANCH  16  17
ATOM     17  C   UNL     1      18.519 124.404  15.691  1.00  0.00     0.004 C 
BRANCH  17  18
ATOM     18  C   UNL     1      19.117 125.440  16.654  1.00  0.00     0.000 C 
BRANCH  18  19
ATOM     19  C   UNL     1      19.144 126.855  16.059  1.00  0.00    -0.003 C 
ATOM     20  C   UNL     1      19.038 127.945  17.125  1.00  0.00     0.004 C 
ENDBRANCH  18  19
ENDBRANCH  17  18
ENDBRANCH  16  17
ENDBRANCH  15  16
ENDBRANCH  13  14
ENDBRANCH  12  13
ENDBRANCH   1  11
TORSDOF 14
ENDMDL
MODEL 3
REMARK VINA RESULT:    -6.892      1.592      2.047
REMARK INTER + INTRA:         -13.392
REMARK INTER:                 -12.479
REMARK INTRA:                  -0.913
REMARK UNBOUND:                -0.859
REMARK SMILES CCCCCC=CCC=CCCCCCCCC(=O)[O-]
REMARK SMILES IDX 11 1 12 2 13 3 14 4 15 5 16 6 17 7 18 8 19 9 20 10 10 11
REMARK SMILES IDX 9 12 8 13 7 14 6 15 5 16 4 17 3 18 2 19 1 20
REMARK H PARENT
REMARK Flexibility Score: inf
ROOT
ATOM      1  C   UNL     1      16.416 119.423  17.163  1.00  0.00     0.027 C 
ENDROOT
BRANCH   1   2
ATOM      2  C   UNL     1      15.044 119.138  16.527  1.00  0.00     0.004 C 
BRANCH   2   3
ATOM      3  C   UNL     1      13.866 119.156  17.522  1.00  0.00     0.000 C 
BRANCH   3   4
ATOM      4  C   UNL     1      14.270 119.243  19.005  1.00  0.00     0.000 C 
BRANCH   4   5
ATOM      5  C   UNL     1      13.123 118.870  19.960  1.00  0.00     0.000 C 
BRANCH   5   6
ATOM      6  C   UNL     1      13.513 119.011  21.442  1.00  0.00     0.006 C 
BRANCH   6   7
ATOM      7  C   UNL     1      14.963 119.464  21.671  1.00  0.00     0.053 C 
BRANCH   7   8
ATOM      8  C   UNL     1      15.566 118.824  22.884  1.00  0.00     0.041 C 
ATOM      9  O   UNL     1      16.156 119.529  23.746  1.00  0.00    -0.550 OA
ATOM     10  O   UNL     1      15.450 117.453  23.078  1.00  0.00    -0.550 OA
ENDBRANCH   7   8
ENDBRANCH   6   7
ENDBRANCH   5   6
ENDBRANCH   4   5
ENDBRANCH   3   4
ENDBRANCH   2   3
ENDBRANCH   1   2
BRANCH   1  11
ATOM     11  C   UNL     1      16.863 120.842  16.943  1.00  0.00    -0.031 C 
ATOM     12  C   UNL     1      17.190 121.291  15.723  1.00  0.00    -0.027 C 
BRANCH  12  13
ATOM     13  C   UNL     1      17.652 122.707  15.522  1.00  0.00     0.054 C 
BRANCH  13  14
ATOM     14  C   UNL     1      18.240 123.257  16.799  1.00  0.00    -0.027 C 
ATOM     15  C   UNL     1      18.379 124.560  17.117  1.00  0.00    -0.031 C 
BRANCH  15  16
ATOM     16  C   UNL     1      18.002 125.738  16.248  1.00  0.00     0.027 C 
BRANCH  16  17
ATOM     17  C   UNL     1      18.153 127.073  16.990  1.00  0.00     0.004 C 
BRANCH  17  18
ATOM     18  C   UNL     1      19.232 127.970  16.366  1.00  0.00     0.000 C 
BRANCH  18  19
ATOM     19  C   UNL     1      20.294 127.172  15.596  1.00  0.00    -0.003 C 
ATOM     20  C   UNL     1      20.719 127.856  14.298  1.00  0.00     0.004 C 
ENDBRANCH  18  19
ENDBRANCH  17  18
ENDBRANCH  16  17
ENDBRANCH  15  16
ENDBRANCH  13  14
ENDBRANCH  12  13
ENDBRANCH   1  11
TORSDOF 14
ENDMDL
MODEL 4
REMARK VINA RESULT:    -6.859      5.466     10.801
REMARK INTER + INTRA:         -13.331
REMARK INTER:                 -12.628
REMARK INTRA:                  -0.703
REMARK UNBOUND:                -0.859
REMARK SMILES CCCCCC=CCC=CCCCCCCCC(=O)[O-]
REMARK SMILES IDX 11 1 12 2 13 3 14 4 15 5 16 6 17 7 18 8 19 9 20 10 10 11
REMARK SMILES IDX 9 12 8 13 7 14 6 15 5 16 4 17 3 18 2 19 1 20
REMARK H PARENT
REMARK Flexibility Score: inf
ROOT
ATOM      1  C   UNL     1      16.350 120.116  16.610  1.00  0.00     0.027 C 
ENDROOT
BRANCH   1   2
ATOM      2  C   UNL     1      16.360 121.007  15.356  1.00  0.00     0.004 C 
BRANCH   2   3
ATOM      3  C   UNL     1      17.294 122.231  15.452  1.00  0.00     0.000 C 
BRANCH   3   4
ATOM      4  C   UNL     1      17.940 122.447  16.833  1.00  0.00     0.000 C 
BRANCH   4   5
ATOM      5  C   UNL     1      18.570 123.842  16.986  1.00  0.00     0.000 C 
BRANCH   5   6
ATOM      6  C   UNL     1      18.554 124.649  15.675  1.00  0.00     0.006 C 
BRANCH   6   7
ATOM      7  C   UNL     1      18.113 126.111  15.842  1.00  0.00     0.053 C 
BRANCH   7   8
ATOM      8  C   UNL     1      19.282 127.036  15.995  1.00  0.00     0.041 C 
ATOM      9  O   UNL     1      20.403 126.726  15.511  1.00  0.00    -0.550 OA
ATOM     10  O   UNL     1      19.126 128.255  16.642  1.00  0.00    -0.550 OA
ENDBRANCH   7   8
ENDBRANCH   6   7
ENDBRANCH   5   6
ENDBRANCH   4   5
ENDBRANCH   3   4
ENDBRANCH   2   3
ENDBRANCH   1   2
BRANCH   1  11
ATOM     11  C   UNL     1      15.324 119.020  16.523  1.00  0.00    -0.031 C 
ATOM     12  C   UNL     1      14.182 119.074  17.224  1.00  0.00    -0.027 C 
BRANCH  12  13
ATOM     13  C   UNL     1      13.174 117.963  17.140  1.00  0.00     0.054 C 
BRANCH  13  14
ATOM     14  C   UNL     1      13.055 117.464  15.719  1.00  0.00    -0.027 C 
ATOM     15  C   UNL     1      12.394 116.360  15.314  1.00  0.00    -0.031 C 
BRANCH  15  16
ATOM     16  C   UNL     1      11.664 115.380  16.201  1.00  0.00     0.027 C 
BRANCH  16  17
ATOM     17  C   UNL     1      11.624 113.971  15.593  1.00  0.00     0.004 C 
BRANCH  17  18
ATOM     18  C   UNL     1      10.623 113.052  16.308  1.00  0.00     0.000 C 
BRANCH  18  19
ATOM     19  C   UNL     1      10.967 111.565  16.151  1.00  0.00    -0.003 C 
ATOM     20  C   UNL     1       9.941 110.807  15.309  1.00  0.00     0.004 C 
ENDBRANCH  18  19
ENDBRANCH  17  18
ENDBRANCH  16  17
ENDBRANCH  15  16
ENDBRANCH  13  14
ENDBRANCH  12  13
ENDBRANCH   1  11
TORSDOF 14
ENDMDL
MODEL 5
REMARK VINA RESULT:    -6.761      5.824     11.005
REMARK INTER + INTRA:         -13.153
REMARK INTER:                 -12.351
REMARK INTRA:                  -0.802
REMARK UNBOUND:                -0.859
REMARK SMILES CCCCCC=CCC=CCCCCCCCC(=O)[O-]
REMARK SMILES IDX 11 1 12 2 13 3 14 4 15 5 16 6 17 7 18 8 19 9 20 10 10 11
REMARK SMILES IDX 9 12 8 13 7 14 6 15 5 16 4 17 3 18 2 19 1 20
REMARK H PARENT
REMARK Flexibility Score: inf
ROOT
ATOM      1  C   UNL     1      13.844 119.093  17.679  1.00  0.00     0.027 C 
ENDROOT
BRANCH   1   2
ATOM      2  C   UNL     1      14.944 119.544  16.704  1.00  0.00     0.004 C 
BRANCH   2   3
ATOM      3  C   UNL     1      16.379 119.404  17.254  1.00  0.00     0.000 C 
BRANCH   3   4
ATOM      4  C   UNL     1      17.205 120.703  17.249  1.00  0.00     0.000 C 
BRANCH   4   5
ATOM      5  C   UNL     1      17.003 121.536  15.972  1.00  0.00     0.000 C 
BRANCH   5   6
ATOM      6  C   UNL     1      18.052 122.652  15.817  1.00  0.00     0.006 C 
BRANCH   6   7
ATOM      7  C   UNL     1      18.054 123.676  16.962  1.00  0.00     0.053 C 
BRANCH   7   8
ATOM      8  C   UNL     1      18.512 125.028  16.504  1.00  0.00     0.041 C 
ATOM      9  O   UNL     1      19.652 125.169  15.987  1.00  0.00    -0.550 OA
ATOM     10  O   UNL     1      17.668 126.125  16.620  1.00  0.00    -0.550 OA
ENDBRANCH   7   8
ENDBRANCH   6   7
ENDBRANCH   5   6
ENDBRANCH   4   5
ENDBRANCH   3   4
ENDBRANCH   2   3
ENDBRANCH   1   2
BRANCH   1  11
ATOM     11  C   UNL     1      13.131 117.856  17.203  1.00  0.00    -0.031 C 
ATOM     12  C   UNL     1      13.156 117.487  15.915  1.00  0.00    -0.027 C 
BRANCH  12  13
ATOM     13  C   UNL     1      12.425 116.259  15.452  1.00  0.00     0.054 C 
BRANCH  13  14
ATOM     14  C   UNL     1      11.661 115.636  16.596  1.00  0.00    -0.027 C 
ATOM     15  C   UNL     1      11.337 114.333  16.724  1.00  0.00    -0.031 C 
BRANCH  15  16
ATOM     16  C   UNL     1      11.646 113.234  15.734  1.00  0.00     0.027 C 
BRANCH  16  17
ATOM     17  C   UNL     1      12.102 111.944  16.429  1.00  0.00     0.004 C 
BRANCH  17  18
ATOM     18  C   UNL     1      11.141 110.773  16.178  1.00  0.00     0.000 C 
BRANCH  18  19
ATOM     19  C   UNL     1       9.784 111.227  15.623  1.00  0.00    -0.003 C 
ATOM     20  C   UNL     1       9.208 110.250  14.599  1.00  0.00     0.004 C 
ENDBRANCH  18  19
ENDBRANCH  17  18
ENDBRANCH  16  17
ENDBRANCH  15  16
ENDBRANCH  13  14
ENDBRANCH  12  13
ENDBRANCH   1  11
TORSDOF 14
ENDMDL
MODEL 6
REMARK VINA RESULT:    -6.716      4.394      5.475
REMARK INTER + INTRA:         -13.072
REMARK INTER:                 -12.292
REMARK INTRA:                  -0.780
REMARK UNBOUND:                -0.859
REMARK SMILES CCCCCC=CCC=CCCCCCCCC(=O)[O-]
REMARK SMILES IDX 11 1 12 2 13 3 14 4 15 5 16 6 17 7 18 8 19 9 20 10 10 11
REMARK SMILES IDX 9 12 8 13 7 14 6 15 5 16 4 17 3 18 2 19 1 20
REMARK H PARENT
REMARK Flexibility Score: inf
ROOT
ATOM      1  C   UNL     1      15.931 119.050  17.688  1.00  0.00     0.027 C 
ENDROOT
BRANCH   1   2
ATOM      2  C   UNL     1      14.414 119.309  17.725  1.00  0.00     0.004 C 
BRANCH   2   3
ATOM      3  C   UNL     1      13.619 118.590  16.617  1.00  0.00     0.000 C 
BRANCH   3   4
ATOM      4  C   UNL     1      12.745 117.418  17.101  1.00  0.00     0.000 C 
BRANCH   4   5
ATOM      5  C   UNL     1      12.354 116.456  15.967  1.00  0.00     0.000 C 
BRANCH   5   6
ATOM      6  C   UNL     1      11.621 115.202  16.477  1.00  0.00     0.006 C 
BRANCH   6   7
ATOM      7  C   UNL     1      11.370 114.138  15.398  1.00  0.00     0.053 C 
BRANCH   7   8
ATOM      8  C   UNL     1      11.240 112.764  15.984  1.00  0.00     0.041 C 
ATOM      9  O   UNL     1      10.116 112.197  16.024  1.00  0.00    -0.550 OA
ATOM     10  O   UNL     1      12.364 112.100  16.456  1.00  0.00    -0.550 OA
ENDBRANCH   7   8
ENDBRANCH   6   7
ENDBRANCH   5   6
ENDBRANCH   4   5
ENDBRANCH   3   4
ENDBRANCH   2   3
ENDBRANCH   1   2
BRANCH   1  11
ATOM     11  C   UNL     1      16.704 120.253  17.220  1.00  0.00    -0.031 C 
ATOM     12  C   UNL     1      16.821 120.545  15.917  1.00  0.00    -0.027 C 
BRANCH  12  13
ATOM     13  C   UNL     1      17.611 121.740  15.464  1.00  0.00     0.054 C 
BRANCH  13  14
ATOM     14  C   UNL     1      18.015 122.586  16.648  1.00  0.00    -0.027 C 
ATOM     15  C   UNL     1      18.432 123.868  16.608  1.00  0.00    -0.031 C 
BRANCH  15  16
ATOM     16  C   UNL     1      18.611 124.711  15.367  1.00  0.00     0.027 C 
BRANCH  16  17
ATOM     17  C   UNL     1      18.035 126.123  15.542  1.00  0.00     0.004 C 
BRANCH  17  18
ATOM     18  C   UNL     1      18.075 126.594  17.003  1.00  0.00     0.000 C 
BRANCH  18  19
ATOM     19  C   UNL     1      18.874 127.892  17.186  1.00  0.00    -0.003 C 
ATOM     20  C   UNL     1      19.803 128.182  16.009  1.00  0.00     0.004 C 
ENDBRANCH  18  19
ENDBRANCH  17  18
ENDBRANCH  16  17
ENDBRANCH  15  16
ENDBRANCH  13  14
ENDBRANCH  12  13
ENDBRANCH   1  11
TORSDOF 14
ENDMDL
MODEL 7
REMARK VINA RESULT:    -6.716      5.130     10.265
REMARK INTER + INTRA:         -13.072
REMARK INTER:                 -12.262
REMARK INTRA:                  -0.810
REMARK UNBOUND:                -0.859
REMARK SMILES CCCCCC=CCC=CCCCCCCCC(=O)[O-]
REMARK SMILES IDX 11 1 12 2 13 3 14 4 15 5 16 6 17 7 18 8 19 9 20 10 10 11
REMARK SMILES IDX 9 12 8 13 7 14 6 15 5 16 4 17 3 18 2 19 1 20
REMARK H PARENT
REMARK Flexibility Score: inf
ROOT
ATOM      1  C   UNL     1      16.524 119.737  18.165  1.00  0.00     0.027 C 
ENDROOT
BRANCH   1   2
ATOM      2  C   UNL     1      17.269 120.955  17.592  1.00  0.00     0.004 C 
BRANCH   2   3
ATOM      3  C   UNL     1      16.862 121.331  16.152  1.00  0.00     0.000 C 
BRANCH   3   4
ATOM      4  C   UNL     1      17.743 122.404  15.488  1.00  0.00     0.000 C 
BRANCH   4   5
ATOM      5  C   UNL     1      18.038 123.594  16.416  1.00  0.00     0.000 C 
BRANCH   5   6
ATOM      6  C   UNL     1      18.648 124.794  15.670  1.00  0.00     0.006 C 
BRANCH   6   7
ATOM      7  C   UNL     1      18.089 126.157  16.106  1.00  0.00     0.053 C 
BRANCH   7   8
ATOM      8  C   UNL     1      19.169 127.186  16.253  1.00  0.00     0.041 C 
ATOM      9  O   UNL     1      19.134 128.009  17.206  1.00  0.00    -0.550 OA
ATOM     10  O   UNL     1      20.229 127.215  15.357  1.00  0.00    -0.550 OA
ENDBRANCH   7   8
ENDBRANCH   6   7
ENDBRANCH   5   6
ENDBRANCH   4   5
ENDBRANCH   3   4
ENDBRANCH   2   3
ENDBRANCH   1   2
BRANCH   1  11
ATOM     11  C   UNL     1      15.492 119.199  17.212  1.00  0.00    -0.031 C 
ATOM     12  C   UNL     1      14.218 119.022  17.588  1.00  0.00    -0.027 C 
BRANCH  12  13
ATOM     13  C   UNL     1      13.202 118.468  16.630  1.00  0.00     0.054 C 
BRANCH  13  14
ATOM     14  C   UNL     1      13.877 117.621  15.578  1.00  0.00    -0.027 C 
ATOM     15  C   UNL     1      13.273 116.737  14.757  1.00  0.00    -0.031 C 
BRANCH  15  16
ATOM     16  C   UNL     1      11.802 116.391  14.743  1.00  0.00     0.027 C 
BRANCH  16  17
ATOM     17  C   UNL     1      11.566 114.875  14.789  1.00  0.00     0.004 C 
BRANCH  17  18
ATOM     18  C   UNL     1      11.320 114.365  16.217  1.00  0.00     0.000 C 
BRANCH  18  19
ATOM     19  C   UNL     1      10.682 112.969  16.245  1.00  0.00    -0.003 C 
ATOM     20  C   UNL     1      11.490 111.935  15.462  1.00  0.00     0.004 C 
ENDBRANCH  18  19
ENDBRANCH  17  18
ENDBRANCH  16  17
ENDBRANCH  15  16
ENDBRANCH  13  14
ENDBRANCH  12  13
ENDBRANCH   1  11
TORSDOF 14
ENDMDL
MODEL 8
REMARK VINA RESULT:    -6.587      4.135      9.680
REMARK INTER + INTRA:         -12.836
REMARK INTER:                 -12.138
REMARK INTRA:                  -0.698
REMARK UNBOUND:                -0.859
REMARK SMILES CCCCCC=CCC=CCCCCCCCC(=O)[O-]
REMARK SMILES IDX 11 1 12 2 13 3 14 4 15 5 16 6 17 7 18 8 19 9 20 10 10 11
REMARK SMILES IDX 9 12 8 13 7 14 6 15 5 16 4 17 3 18 2 19 1 20
REMARK H PARENT
REMARK Flexibility Score: inf
ROOT
ATOM      1  C   UNL     1      17.755 122.314  15.303  1.00  0.00     0.027 C 
ENDROOT
BRANCH   1   2
ATOM      2  C   UNL     1      18.365 122.929  16.574  1.00  0.00     0.004 C 
BRANCH   2   3
ATOM      3  C   UNL     1      18.997 124.321  16.368  1.00  0.00     0.000 C 
BRANCH   3   4
ATOM      4  C   UNL     1      18.127 125.317  15.579  1.00  0.00     0.000 C 
BRANCH   4   5
ATOM      5  C   UNL     1      18.896 126.583  15.165  1.00  0.00     0.000 C 
BRANCH   5   6
ATOM      6  C   UNL     1      19.776 127.142  16.297  1.00  0.00     0.006 C 
BRANCH   6   7
ATOM      7  C   UNL     1      19.144 128.312  17.067  1.00  0.00     0.053 C 
BRANCH   7   8
ATOM      8  C   UNL     1      18.523 127.866  18.356  1.00  0.00     0.041 C 
ATOM      9  O   UNL     1      18.031 128.712  19.149  1.00  0.00    -0.550 OA
ATOM     10  O   UNL     1      18.460 126.514  18.667  1.00  0.00    -0.550 OA
ENDBRANCH   7   8
ENDBRANCH   6   7
ENDBRANCH   5   6
ENDBRANCH   4   5
ENDBRANCH   3   4
ENDBRANCH   2   3
ENDBRANCH   1   2
BRANCH   1  11
ATOM     11  C   UNL     1      17.157 120.956  15.556  1.00  0.00    -0.031 C 
ATOM     12  C   UNL     1      16.501 120.682  16.692  1.00  0.00    -0.027 C 
BRANCH  12  13
ATOM     13  C   UNL     1      15.925 119.316  16.937  1.00  0.00     0.054 C 
BRANCH  13  14
ATOM     14  C   UNL     1      14.450 119.413  17.245  1.00  0.00    -0.027 C 
ATOM     15  C   UNL     1      13.478 118.618  16.753  1.00  0.00    -0.031 C 
BRANCH  15  16
ATOM     16  C   UNL     1      13.662 117.486  15.769  1.00  0.00     0.027 C 
BRANCH  16  17
ATOM     17  C   UNL     1      12.362 116.702  15.543  1.00  0.00     0.004 C 
BRANCH  17  18
ATOM     18  C   UNL     1      11.978 115.844  16.758  1.00  0.00     0.000 C 
BRANCH  18  19
ATOM     19  C   UNL     1      11.306 114.522  16.361  1.00  0.00    -0.003 C 
ATOM     20  C   UNL     1      11.360 114.261  14.856  1.00  0.00     0.004 C 
ENDBRANCH  18  19
ENDBRANCH  17  18
ENDBRANCH  16  17
ENDBRANCH  15  16
ENDBRANCH  13  14
ENDBRANCH  12  13
ENDBRANCH   1  11
TORSDOF 14
ENDMDL
MODEL 9
REMARK VINA RESULT:    -6.513      3.870      8.702
REMARK INTER + INTRA:         -12.702
REMARK INTER:                 -11.600
REMARK INTRA:                  -1.101
REMARK UNBOUND:                -0.859
REMARK SMILES CCCCCC=CCC=CCCCCCCCC(=O)[O-]
REMARK SMILES IDX 11 1 12 2 13 3 14 4 15 5 16 6 17 7 18 8 19 9 20 10 10 11
REMARK SMILES IDX 9 12 8 13 7 14 6 15 5 16 4 17 3 18 2 19 1 20
REMARK H PARENT
REMARK Flexibility Score: inf
ROOT
ATOM      1  C   UNL     1      16.511 119.724  16.576  1.00  0.00     0.027 C 
ENDROOT
BRANCH   1   2
ATOM      2  C   UNL     1      16.171 120.972  15.743  1.00  0.00     0.004 C 
BRANCH   2   3
ATOM      3  C   UNL     1      17.339 121.967  15.581  1.00  0.00     0.000 C 
BRANCH   3   4
ATOM      4  C   UNL     1      18.011 122.398  16.897  1.00  0.00     0.000 C 
BRANCH   4   5
ATOM      5  C   UNL     1      18.533 123.843  16.856  1.00  0.00     0.000 C 
BRANCH   5   6
ATOM      6  C   UNL     1      18.381 124.492  15.469  1.00  0.00     0.006 C 
BRANCH   6   7
ATOM      7  C   UNL     1      18.234 126.021  15.501  1.00  0.00     0.053 C 
BRANCH   7   8
ATOM      8  C   UNL     1      19.373 126.679  16.219  1.00  0.00     0.041 C 
ATOM      9  O   UNL     1      20.526 126.679  15.712  1.00  0.00    -0.550 OA
ATOM     10  O   UNL     1      19.154 127.320  17.432  1.00  0.00    -0.550 OA
ENDBRANCH   7   8
ENDBRANCH   6   7
ENDBRANCH   5   6
ENDBRANCH   4   5
ENDBRANCH   3   4
ENDBRANCH   2   3
ENDBRANCH   1   2
BRANCH   1  11
ATOM     11  C   UNL     1      15.973 119.810  17.979  1.00  0.00    -0.031 C 
ATOM     12  C   UNL     1      16.772 119.656  19.044  1.00  0.00    -0.027 C 
BRANCH  12  13
ATOM     13  C   UNL     1      16.217 119.728  20.439  1.00  0.00     0.054 C 
BRANCH  13  14
ATOM     14  C   UNL     1      14.855 119.079  20.499  1.00  0.00    -0.027 C 
ATOM     15  C   UNL     1      14.309 118.468  21.570  1.00  0.00    -0.031 C 
BRANCH  15  16
ATOM     16  C   UNL     1      14.961 118.279  22.920  1.00  0.00     0.027 C 
BRANCH  16  17
ATOM     17  C   UNL     1      14.375 119.222  23.980  1.00  0.00     0.004 C 
BRANCH  17  18
ATOM     18  C   UNL     1      14.887 120.662  23.830  1.00  0.00     0.000 C 
BRANCH  18  19
ATOM     19  C   UNL     1      13.817 121.617  23.281  1.00  0.00    -0.003 C 
ATOM     20  C   UNL     1      13.174 122.472  24.371  1.00  0.00     0.004 C 
ENDBRANCH  18  19
ENDBRANCH  17  18
ENDBRANCH  16  17
ENDBRANCH  15  16
ENDBRANCH  13  14
ENDBRANCH  12  13
ENDBRANCH   1  11
TORSDOF 14
ENDMDL
