MODEL 1
REMARK VINA RESULT:    -3.044      0.000      0.000
REMARK INTER + INTRA:         -13.235
REMARK INTER:                  -7.671
REMARK INTRA:                  -5.564
REMARK UNBOUND:                -5.564
REMARK SMILES CCCCCCCCCCCCCCCCCCCCCCCCCCCC(=O)[O-]
REMARK SMILES IDX 15 1 16 2 17 3 18 4 19 5 20 6 21 7 22 8 23 9 24 10 25 11
REMARK SMILES IDX 26 12 27 13 28 14 29 15 30 16 14 17 13 18 12 19 11 20 10 21
REMARK SMILES IDX 9 22 8 23 7 24 6 25 5 26 4 27 3 28 2 29 1 30
REMARK H PARENT
REMARK Flexibility Score: inf
ROOT
ATOM      1  C   UNL     1      -3.337  -9.764  64.382  1.00  0.00     0.000 C 
ENDROOT
BRANCH   1   2
ATOM      2  C   UNL     1      -4.725 -10.429  64.412  1.00  0.00     0.000 C 
BRANCH   2   3
ATOM      3  C   UNL     1      -5.747  -9.624  65.233  1.00  0.00     0.000 C 
BRANCH   3   4
ATOM      4  C   UNL     1      -6.528 -10.490  66.234  1.00  0.00     0.000 C 
BRANCH   4   5
ATOM      5  C   UNL     1      -6.655  -9.786  67.590  1.00  0.00     0.000 C 
BRANCH   5   6
ATOM      6  C   UNL     1      -5.561  -8.723  67.761  1.00  0.00     0.000 C 
BRANCH   6   7
ATOM      7  C   UNL     1      -4.458  -9.172  68.740  1.00  0.00     0.000 C 
BRANCH   7   8
ATOM      8  C   UNL     1      -4.880 -10.326  69.669  1.00  0.00     0.000 C 
BRANCH   8   9
ATOM      9  C   UNL     1      -4.043 -11.612  69.497  1.00  0.00     0.000 C 
BRANCH   9  10
ATOM     10  C   UNL     1      -2.972 -11.546  68.387  1.00  0.00     0.000 C 
BRANCH  10  11
ATOM     11  C   UNL     1      -3.316 -12.303  67.089  1.00  0.00     0.000 C 
BRANCH  11  12
ATOM     12  C   UNL     1      -4.414 -13.364  67.280  1.00  0.00     0.006 C 
BRANCH  12  13
ATOM     13  C   UNL     1      -4.506 -14.322  66.084  1.00  0.00     0.053 C 
BRANCH  13  14
ATOM     14  C   UNL     1      -5.733 -14.067  65.262  1.00  0.00     0.041 C 
ATOM     15  O   UNL     1      -5.634 -13.852  64.025  1.00  0.00    -0.550 OA
ATOM     16  O   UNL     1      -6.982 -14.033  65.869  1.00  0.00    -0.550 OA
ENDBRANCH  13  14
ENDBRANCH  12  13
ENDBRANCH  11  12
ENDBRANCH  10  11
ENDBRANCH   9  10
ENDBRANCH   8   9
ENDBRANCH   7   8
ENDBRANCH   6   7
ENDBRANCH   5   6
ENDBRANCH   4   5
ENDBRANCH   3   4
ENDBRANCH   2   3
ENDBRANCH   1   2
BRANCH   1  17
ATOM     17  C   UNL     1      -3.357  -8.308  64.883  1.00  0.00     0.000 C 
BRANCH  17  18
ATOM     18  C   UNL     1      -2.993  -7.245  63.826  1.00  0.00     0.000 C 
BRANCH  18  19
ATOM     19  C   UNL     1      -2.333  -5.964  64.375  1.00  0.00     0.000 C 
BRANCH  19  20
ATOM     20  C   UNL     1      -2.904  -4.648  63.817  1.00  0.00     0.000 C 
BRANCH  20  21
ATOM     21  C   UNL     1      -3.171  -3.602  64.910  1.00  0.00     0.000 C 
BRANCH  21  22
ATOM     22  C   UNL     1      -2.516  -4.017  66.233  1.00  0.00    -0.000 C 
BRANCH  22  23
ATOM     23  C   UNL     1      -3.523  -3.962  67.394  1.00  0.00    -0.000 C 
BRANCH  23  24
ATOM     24  C   UNL     1      -4.572  -5.091  67.307  1.00  0.00    -0.000 C 
BRANCH  24  25
ATOM     25  C   UNL     1      -6.024  -4.586  67.235  1.00  0.00    -0.000 C 
BRANCH  25  26
ATOM     26  C   UNL     1      -6.646  -4.749  65.839  1.00  0.00    -0.000 C 
BRANCH  26  27
ATOM     27  C   UNL     1      -6.427  -6.151  65.242  1.00  0.00    -0.000 C 
BRANCH  27  28
ATOM     28  C   UNL     1      -6.394  -6.214  63.703  1.00  0.00    -0.000 C 
BRANCH  28  29
ATOM     29  C   UNL     1      -6.589  -4.841  63.042  1.00  0.00    -0.003 C 
ATOM     30  C   UNL     1      -5.948  -4.801  61.659  1.00  0.00     0.004 C 
ENDBRANCH  28  29
ENDBRANCH  27  28
ENDBRANCH  26  27
ENDBRANCH  25  26
ENDBRANCH  24  25
ENDBRANCH  23  24
ENDBRANCH  22  23
ENDBRANCH  21  22
ENDBRANCH  20  21
ENDBRANCH  19  20
ENDBRANCH  18  19
ENDBRANCH  17  18
ENDBRANCH   1  17
TORSDOF 26
ENDMDL
MODEL 2
REMARK VINA RESULT:    -2.982      9.947     13.173
REMARK INTER + INTRA:         -13.079
REMARK INTER:                 -11.868
REMARK INTRA:                  -1.211
REMARK UNBOUND:                -5.564
REMARK SMILES CCCCCCCCCCCCCCCCCCCCCCCCCCCC(=O)[O-]
REMARK SMILES IDX 15 1 16 2 17 3 18 4 19 5 20 6 21 7 22 8 23 9 24 10 25 11
REMARK SMILES IDX 26 12 27 13 28 14 29 15 30 16 14 17 13 18 12 19 11 20 10 21
REMARK SMILES IDX 9 22 8 23 7 24 6 25 5 26 4 27 3 28 2 29 1 30
REMARK H PARENT
REMARK Flexibility Score: inf
ROOT
ATOM      1  C   UNL     1       3.425   0.122  67.741  1.00  0.00     0.000 C 
ENDROOT
BRANCH   1   2
ATOM      2  C   UNL     1       2.363  -0.602  68.588  1.00  0.00     0.000 C 
BRANCH   2   3
ATOM      3  C   UNL     1       0.930  -0.173  68.228  1.00  0.00     0.000 C 
BRANCH   3   4
ATOM      4  C   UNL     1       0.342  -0.974  67.056  1.00  0.00     0.000 C 
BRANCH   4   5
ATOM      5  C   UNL     1      -0.561  -2.108  67.560  1.00  0.00     0.000 C 
BRANCH   5   6
ATOM      6  C   UNL     1      -0.347  -3.386  66.737  1.00  0.00     0.000 C 
BRANCH   6   7
ATOM      7  C   UNL     1      -1.676  -3.990  66.241  1.00  0.00     0.000 C 
BRANCH   7   8
ATOM      8  C   UNL     1      -1.684  -5.529  66.197  1.00  0.00     0.000 C 
BRANCH   8   9
ATOM      9  C   UNL     1      -3.091  -6.155  66.309  1.00  0.00     0.000 C 
BRANCH   9  10
ATOM     10  C   UNL     1      -3.872  -6.241  64.980  1.00  0.00     0.000 C 
BRANCH  10  11
ATOM     11  C   UNL     1      -3.026  -6.071  63.703  1.00  0.00     0.000 C 
BRANCH  11  12
ATOM     12  C   UNL     1      -3.730  -5.243  62.615  1.00  0.00     0.006 C 
BRANCH  12  13
ATOM     13  C   UNL     1      -2.960  -3.958  62.277  1.00  0.00     0.053 C 
BRANCH  13  14
ATOM     14  C   UNL     1      -3.843  -2.750  62.338  1.00  0.00     0.041 C 
ATOM     15  O   UNL     1      -3.963  -2.000  61.333  1.00  0.00    -0.550 OA
ATOM     16  O   UNL     1      -4.507  -2.432  63.517  1.00  0.00    -0.550 OA
ENDBRANCH  13  14
ENDBRANCH  12  13
ENDBRANCH  11  12
ENDBRANCH  10  11
ENDBRANCH   9  10
ENDBRANCH   8   9
ENDBRANCH   7   8
ENDBRANCH   6   7
ENDBRANCH   5   6
ENDBRANCH   4   5
ENDBRANCH   3   4
ENDBRANCH   2   3
ENDBRANCH   1   2
BRANCH   1  17
ATOM     17  C   UNL     1       4.723   0.407  68.519  1.00  0.00     0.000 C 
BRANCH  17  18
ATOM     18  C   UNL     1       5.440   1.718  68.139  1.00  0.00     0.000 C 
BRANCH  18  19
ATOM     19  C   UNL     1       6.770   1.983  68.875  1.00  0.00     0.000 C 
BRANCH  19  20
ATOM     20  C   UNL     1       7.810   2.785  68.072  1.00  0.00     0.000 C 
BRANCH  20  21
ATOM     21  C   UNL     1       9.143   2.041  67.908  1.00  0.00     0.000 C 
BRANCH  21  22
ATOM     22  C   UNL     1      10.018   2.718  66.845  1.00  0.00    -0.000 C 
BRANCH  22  23
ATOM     23  C   UNL     1      11.468   2.213  66.915  1.00  0.00    -0.000 C 
BRANCH  23  24
ATOM     24  C   UNL     1      12.006   1.796  65.529  1.00  0.00    -0.000 C 
BRANCH  24  25
ATOM     25  C   UNL     1      12.586   0.371  65.490  1.00  0.00    -0.000 C 
BRANCH  25  26
ATOM     26  C   UNL     1      11.674  -0.628  64.761  1.00  0.00    -0.000 C 
BRANCH  26  27
ATOM     27  C   UNL     1      11.604  -1.999  65.457  1.00  0.00    -0.000 C 
BRANCH  27  28
ATOM     28  C   UNL     1      10.943  -3.122  64.634  1.00  0.00    -0.000 C 
BRANCH  28  29
ATOM     29  C   UNL     1       9.960  -2.594  63.579  1.00  0.00    -0.003 C 
ATOM     30  C   UNL     1      10.167  -3.289  62.238  1.00  0.00     0.004 C 
ENDBRANCH  28  29
ENDBRANCH  27  28
ENDBRANCH  26  27
ENDBRANCH  25  26
ENDBRANCH  24  25
ENDBRANCH  23  24
ENDBRANCH  22  23
ENDBRANCH  21  22
ENDBRANCH  20  21
ENDBRANCH  19  20
ENDBRANCH  18  19
ENDBRANCH  17  18
ENDBRANCH   1  17
TORSDOF 26
ENDMDL
MODEL 3
REMARK VINA RESULT:    -2.926      4.306      6.623
REMARK INTER + INTRA:         -12.938
REMARK INTER:                  -9.533
REMARK INTRA:                  -3.405
REMARK UNBOUND:                -5.564
REMARK SMILES CCCCCCCCCCCCCCCCCCCCCCCCCCCC(=O)[O-]
REMARK SMILES IDX 15 1 16 2 17 3 18 4 19 5 20 6 21 7 22 8 23 9 24 10 25 11
REMARK SMILES IDX 26 12 27 13 28 14 29 15 30 16 14 17 13 18 12 19 11 20 10 21
REMARK SMILES IDX 9 22 8 23 7 24 6 25 5 26 4 27 3 28 2 29 1 30
REMARK H PARENT
REMARK Flexibility Score: inf
ROOT
ATOM      1  C   UNL     1      -5.498  -4.085  61.451  1.00  0.00     0.000 C 
ENDROOT
BRANCH   1   2
ATOM      2  C   UNL     1      -6.538  -4.458  62.521  1.00  0.00     0.000 C 
BRANCH   2   3
ATOM      3  C   UNL     1      -6.381  -5.906  63.017  1.00  0.00     0.000 C 
BRANCH   3   4
ATOM      4  C   UNL     1      -6.368  -6.017  64.549  1.00  0.00     0.000 C 
BRANCH   4   5
ATOM      5  C   UNL     1      -5.706  -4.789  65.185  1.00  0.00     0.000 C 
BRANCH   5   6
ATOM      6  C   UNL     1      -4.475  -5.194  66.009  1.00  0.00     0.000 C 
BRANCH   6   7
ATOM      7  C   UNL     1      -3.415  -5.918  65.156  1.00  0.00     0.000 C 
BRANCH   7   8
ATOM      8  C   UNL     1      -3.073  -7.335  65.654  1.00  0.00     0.000 C 
BRANCH   8   9
ATOM      9  C   UNL     1      -3.467  -8.460  64.673  1.00  0.00     0.000 C 
BRANCH   9  10
ATOM     10  C   UNL     1      -4.666  -9.323  65.121  1.00  0.00     0.000 C 
BRANCH  10  11
ATOM     11  C   UNL     1      -4.306 -10.599  65.906  1.00  0.00     0.000 C 
BRANCH  11  12
ATOM     12  C   UNL     1      -3.922 -11.780  65.000  1.00  0.00     0.006 C 
BRANCH  12  13
ATOM     13  C   UNL     1      -4.957 -12.020  63.892  1.00  0.00     0.053 C 
BRANCH  13  14
ATOM     14  C   UNL     1      -5.259 -13.478  63.721  1.00  0.00     0.041 C 
ATOM     15  O   UNL     1      -5.849 -14.114  64.633  1.00  0.00    -0.550 OA
ATOM     16  O   UNL     1      -4.857 -14.140  62.567  1.00  0.00    -0.550 OA
ENDBRANCH  13  14
ENDBRANCH  12  13
ENDBRANCH  11  12
ENDBRANCH  10  11
ENDBRANCH   9  10
ENDBRANCH   8   9
ENDBRANCH   7   8
ENDBRANCH   6   7
ENDBRANCH   5   6
ENDBRANCH   4   5
ENDBRANCH   3   4
ENDBRANCH   2   3
ENDBRANCH   1   2
BRANCH   1  17
ATOM     17  C   UNL     1      -4.097  -4.652  61.749  1.00  0.00     0.000 C 
BRANCH  17  18
ATOM     18  C   UNL     1      -3.035  -3.603  62.137  1.00  0.00     0.000 C 
BRANCH  18  19
ATOM     19  C   UNL     1      -3.392  -2.715  63.347  1.00  0.00     0.000 C 
BRANCH  19  20
ATOM     20  C   UNL     1      -3.369  -1.200  63.072  1.00  0.00     0.000 C 
BRANCH  20  21
ATOM     21  C   UNL     1      -3.838  -0.844  61.654  1.00  0.00     0.000 C 
BRANCH  21  22
ATOM     22  C   UNL     1      -2.997   0.300  61.073  1.00  0.00    -0.000 C 
BRANCH  22  23
ATOM     23  C   UNL     1      -2.672   0.054  59.591  1.00  0.00    -0.000 C 
BRANCH  23  24
ATOM     24  C   UNL     1      -2.937  -1.408  59.172  1.00  0.00    -0.000 C 
BRANCH  24  25
ATOM     25  C   UNL     1      -2.114  -1.865  57.955  1.00  0.00    -0.000 C 
BRANCH  25  26
ATOM     26  C   UNL     1      -0.601  -1.872  58.224  1.00  0.00    -0.000 C 
BRANCH  26  27
ATOM     27  C   UNL     1       0.209  -1.152  57.131  1.00  0.00    -0.000 C 
BRANCH  27  28
ATOM     28  C   UNL     1       1.564  -0.578  57.586  1.00  0.00    -0.000 C 
BRANCH  28  29
ATOM     29  C   UNL     1       1.492   0.911  57.954  1.00  0.00    -0.003 C 
ATOM     30  C   UNL     1       0.248   1.565  57.362  1.00  0.00     0.004 C 
ENDBRANCH  28  29
ENDBRANCH  27  28
ENDBRANCH  26  27
ENDBRANCH  25  26
ENDBRANCH  24  25
ENDBRANCH  23  24
ENDBRANCH  22  23
ENDBRANCH  21  22
ENDBRANCH  20  21
ENDBRANCH  19  20
ENDBRANCH  18  19
ENDBRANCH  17  18
ENDBRANCH   1  17
TORSDOF 26
ENDMDL
MODEL 4
REMARK VINA RESULT:    -2.918      3.080      5.845
REMARK INTER + INTRA:         -12.917
REMARK INTER:                  -9.409
REMARK INTRA:                  -3.508
REMARK UNBOUND:                -5.564
REMARK SMILES CCCCCCCCCCCCCCCCCCCCCCCCCCCC(=O)[O-]
REMARK SMILES IDX 15 1 16 2 17 3 18 4 19 5 20 6 21 7 22 8 23 9 24 10 25 11
REMARK SMILES IDX 26 12 27 13 28 14 29 15 30 16 14 17 13 18 12 19 11 20 10 21
REMARK SMILES IDX 9 22 8 23 7 24 6 25 5 26 4 27 3 28 2 29 1 30
REMARK H PARENT
REMARK Flexibility Score: inf
ROOT
ATOM      1  C   UNL     1      -4.099  -4.718  62.036  1.00  0.00     0.000 C 
ENDROOT
BRANCH   1   2
ATOM      2  C   UNL     1      -5.484  -4.309  62.567  1.00  0.00     0.000 C 
BRANCH   2   3
ATOM      3  C   UNL     1      -6.358  -5.522  62.929  1.00  0.00     0.000 C 
BRANCH   3   4
ATOM      4  C   UNL     1      -6.385  -5.811  64.438  1.00  0.00     0.000 C 
BRANCH   4   5
ATOM      5  C   UNL     1      -5.877  -7.226  64.738  1.00  0.00     0.000 C 
BRANCH   5   6
ATOM      6  C   UNL     1      -5.005  -7.239  66.001  1.00  0.00     0.000 C 
BRANCH   6   7
ATOM      7  C   UNL     1      -3.538  -7.600  65.694  1.00  0.00     0.000 C 
BRANCH   7   8
ATOM      8  C   UNL     1      -3.297  -8.057  64.244  1.00  0.00     0.000 C 
BRANCH   8   9
ATOM      9  C   UNL     1      -2.997  -9.565  64.099  1.00  0.00     0.000 C 
BRANCH   9  10
ATOM     10  C   UNL     1      -4.158 -10.500  64.499  1.00  0.00     0.000 C 
BRANCH  10  11
ATOM     11  C   UNL     1      -3.916 -11.355  65.757  1.00  0.00     0.000 C 
BRANCH  11  12
ATOM     12  C   UNL     1      -4.340 -12.823  65.583  1.00  0.00     0.006 C 
BRANCH  12  13
ATOM     13  C   UNL     1      -5.189 -13.034  64.322  1.00  0.00     0.053 C 
BRANCH  13  14
ATOM     14  C   UNL     1      -4.679 -14.174  63.494  1.00  0.00     0.041 C 
ATOM     15  O   UNL     1      -4.018 -15.101  64.031  1.00  0.00    -0.550 OA
ATOM     16  O   UNL     1      -4.906 -14.195  62.123  1.00  0.00    -0.550 OA
ENDBRANCH  13  14
ENDBRANCH  12  13
ENDBRANCH  11  12
ENDBRANCH  10  11
ENDBRANCH   9  10
ENDBRANCH   8   9
ENDBRANCH   7   8
ENDBRANCH   6   7
ENDBRANCH   5   6
ENDBRANCH   4   5
ENDBRANCH   3   4
ENDBRANCH   2   3
ENDBRANCH   1   2
BRANCH   1  17
ATOM     17  C   UNL     1      -2.974  -4.515  63.069  1.00  0.00     0.000 C 
BRANCH  17  18
ATOM     18  C   UNL     1      -3.298  -3.522  64.204  1.00  0.00     0.000 C 
BRANCH  18  19
ATOM     19  C   UNL     1      -2.973  -4.016  65.628  1.00  0.00     0.000 C 
BRANCH  19  20
ATOM     20  C   UNL     1      -1.513  -4.452  65.848  1.00  0.00     0.000 C 
BRANCH  20  21
ATOM     21  C   UNL     1      -0.755  -3.533  66.818  1.00  0.00     0.000 C 
BRANCH  21  22
ATOM     22  C   UNL     1      -1.727  -2.828  67.773  1.00  0.00    -0.000 C 
BRANCH  22  23
ATOM     23  C   UNL     1      -1.591  -1.300  67.676  1.00  0.00    -0.000 C 
BRANCH  23  24
ATOM     24  C   UNL     1      -0.954  -0.856  66.342  1.00  0.00    -0.000 C 
BRANCH  24  25
ATOM     25  C   UNL     1       0.252   0.085  66.512  1.00  0.00    -0.000 C 
BRANCH  25  26
ATOM     26  C   UNL     1       1.211  -0.365  67.626  1.00  0.00    -0.000 C 
BRANCH  26  27
ATOM     27  C   UNL     1       2.576  -0.834  67.092  1.00  0.00    -0.000 C 
BRANCH  27  28
ATOM     28  C   UNL     1       2.645  -2.314  66.669  1.00  0.00    -0.000 C 
BRANCH  28  29
ATOM     29  C   UNL     1       4.079  -2.859  66.619  1.00  0.00    -0.003 C 
ATOM     30  C   UNL     1       4.430  -3.603  67.903  1.00  0.00     0.004 C 
ENDBRANCH  28  29
ENDBRANCH  27  28
ENDBRANCH  26  27
ENDBRANCH  25  26
ENDBRANCH  24  25
ENDBRANCH  23  24
ENDBRANCH  22  23
ENDBRANCH  21  22
ENDBRANCH  20  21
ENDBRANCH  19  20
ENDBRANCH  18  19
ENDBRANCH  17  18
ENDBRANCH   1  17
TORSDOF 26
ENDMDL
MODEL 5
REMARK VINA RESULT:    -2.915      4.825      8.022
REMARK INTER + INTRA:         -12.910
REMARK INTER:                  -8.761
REMARK INTRA:                  -4.150
REMARK UNBOUND:                -5.564
REMARK SMILES CCCCCCCCCCCCCCCCCCCCCCCCCCCC(=O)[O-]
REMARK SMILES IDX 15 1 16 2 17 3 18 4 19 5 20 6 21 7 22 8 23 9 24 10 25 11
REMARK SMILES IDX 26 12 27 13 28 14 29 15 30 16 14 17 13 18 12 19 11 20 10 21
REMARK SMILES IDX 9 22 8 23 7 24 6 25 5 26 4 27 3 28 2 29 1 30
REMARK H PARENT
REMARK Flexibility Score: inf
ROOT
ATOM      1  C   UNL     1      -3.372  -2.425  62.699  1.00  0.00     0.000 C 
ENDROOT
BRANCH   1   2
ATOM      2  C   UNL     1      -3.103  -3.404  61.543  1.00  0.00     0.000 C 
BRANCH   2   3
ATOM      3  C   UNL     1      -3.763  -4.775  61.766  1.00  0.00     0.000 C 
BRANCH   3   4
ATOM      4  C   UNL     1      -5.250  -4.794  61.378  1.00  0.00     0.000 C 
BRANCH   4   5
ATOM      5  C   UNL     1      -6.115  -5.306  62.536  1.00  0.00     0.000 C 
BRANCH   5   6
ATOM      6  C   UNL     1      -6.853  -4.149  63.223  1.00  0.00     0.000 C 
BRANCH   6   7
ATOM      7  C   UNL     1      -6.201  -3.755  64.564  1.00  0.00     0.000 C 
BRANCH   7   8
ATOM      8  C   UNL     1      -5.484  -4.918  65.275  1.00  0.00     0.000 C 
BRANCH   8   9
ATOM      9  C   UNL     1      -3.970  -4.696  65.477  1.00  0.00     0.000 C 
BRANCH   9  10
ATOM     10  C   UNL     1      -3.178  -5.955  65.890  1.00  0.00     0.000 C 
BRANCH  10  11
ATOM     11  C   UNL     1      -3.032  -7.034  64.799  1.00  0.00     0.000 C 
BRANCH  11  12
ATOM     12  C   UNL     1      -3.805  -8.325  65.115  1.00  0.00     0.006 C 
BRANCH  12  13
ATOM     13  C   UNL     1      -3.284  -9.523  64.310  1.00  0.00     0.053 C 
BRANCH  13  14
ATOM     14  C   UNL     1      -3.754 -10.825  64.884  1.00  0.00     0.041 C 
ATOM     15  O   UNL     1      -4.537 -11.561  64.228  1.00  0.00    -0.550 OA
ATOM     16  O   UNL     1      -3.354 -11.208  66.158  1.00  0.00    -0.550 OA
ENDBRANCH  13  14
ENDBRANCH  12  13
ENDBRANCH  11  12
ENDBRANCH  10  11
ENDBRANCH   9  10
ENDBRANCH   8   9
ENDBRANCH   7   8
ENDBRANCH   6   7
ENDBRANCH   5   6
ENDBRANCH   4   5
ENDBRANCH   3   4
ENDBRANCH   2   3
ENDBRANCH   1   2
BRANCH   1  17
ATOM     17  C   UNL     1      -3.841  -1.039  62.217  1.00  0.00     0.000 C 
BRANCH  17  18
ATOM     18  C   UNL     1      -5.110  -1.045  61.341  1.00  0.00     0.000 C 
BRANCH  18  19
ATOM     19  C   UNL     1      -5.253   0.149  60.374  1.00  0.00     0.000 C 
BRANCH  19  20
ATOM     20  C   UNL     1      -4.517  -0.010  59.031  1.00  0.00     0.000 C 
BRANCH  20  21
ATOM     21  C   UNL     1      -4.850  -1.331  58.321  1.00  0.00     0.000 C 
BRANCH  21  22
ATOM     22  C   UNL     1      -3.579  -2.157  58.085  1.00  0.00    -0.000 C 
BRANCH  22  23
ATOM     23  C   UNL     1      -2.317  -1.296  58.256  1.00  0.00    -0.000 C 
BRANCH  23  24
ATOM     24  C   UNL     1      -1.112  -2.123  58.755  1.00  0.00    -0.000 C 
BRANCH  24  25
ATOM     25  C   UNL     1       0.091  -2.110  57.795  1.00  0.00    -0.000 C 
BRANCH  25  26
ATOM     26  C   UNL     1       0.288  -0.754  57.101  1.00  0.00    -0.000 C 
BRANCH  26  27
ATOM     27  C   UNL     1       1.471   0.049  57.672  1.00  0.00    -0.000 C 
BRANCH  27  28
ATOM     28  C   UNL     1       1.215   1.556  57.859  1.00  0.00    -0.000 C 
BRANCH  28  29
ATOM     29  C   UNL     1      -0.228   1.873  58.278  1.00  0.00    -0.003 C 
ATOM     30  C   UNL     1      -0.437   1.614  59.767  1.00  0.00     0.004 C 
ENDBRANCH  28  29
ENDBRANCH  27  28
ENDBRANCH  26  27
ENDBRANCH  25  26
ENDBRANCH  24  25
ENDBRANCH  23  24
ENDBRANCH  22  23
ENDBRANCH  21  22
ENDBRANCH  20  21
ENDBRANCH  19  20
ENDBRANCH  18  19
ENDBRANCH  17  18
ENDBRANCH   1  17
TORSDOF 26
ENDMDL
MODEL 6
REMARK VINA RESULT:    -2.888      5.955      9.783
REMARK INTER + INTRA:         -12.842
REMARK INTER:                  -7.739
REMARK INTRA:                  -5.103
REMARK UNBOUND:                -5.564
REMARK SMILES CCCCCCCCCCCCCCCCCCCCCCCCCCCC(=O)[O-]
REMARK SMILES IDX 15 1 16 2 17 3 18 4 19 5 20 6 21 7 22 8 23 9 24 10 25 11
REMARK SMILES IDX 26 12 27 13 28 14 29 15 30 16 14 17 13 18 12 19 11 20 10 21
REMARK SMILES IDX 9 22 8 23 7 24 6 25 5 26 4 27 3 28 2 29 1 30
REMARK H PARENT
REMARK Flexibility Score: inf
ROOT
ATOM      1  C   UNL     1      -1.233  -1.700  57.244  1.00  0.00     0.000 C 
ENDROOT
BRANCH   1   2
ATOM      2  C   UNL     1      -2.411  -2.092  58.154  1.00  0.00     0.000 C 
BRANCH   2   3
ATOM      3  C   UNL     1      -2.025  -2.111  59.643  1.00  0.00     0.000 C 
BRANCH   3   4
ATOM      4  C   UNL     1      -3.112  -1.514  60.551  1.00  0.00     0.000 C 
BRANCH   4   5
ATOM      5  C   UNL     1      -4.359  -1.136  59.742  1.00  0.00     0.000 C 
BRANCH   5   6
ATOM      6  C   UNL     1      -5.558  -2.006  60.147  1.00  0.00     0.000 C 
BRANCH   6   7
ATOM      7  C   UNL     1      -5.291  -3.508  59.926  1.00  0.00     0.000 C 
BRANCH   7   8
ATOM      8  C   UNL     1      -6.074  -4.428  60.880  1.00  0.00     0.000 C 
BRANCH   8   9
ATOM      9  C   UNL     1      -5.384  -4.658  62.242  1.00  0.00     0.000 C 
BRANCH   9  10
ATOM     10  C   UNL     1      -3.849  -4.815  62.175  1.00  0.00     0.000 C 
BRANCH  10  11
ATOM     11  C   UNL     1      -3.068  -4.192  63.349  1.00  0.00     0.000 C 
BRANCH  11  12
ATOM     12  C   UNL     1      -2.252  -5.222  64.147  1.00  0.00     0.006 C 
BRANCH  12  13
ATOM     13  C   UNL     1      -2.716  -6.660  63.880  1.00  0.00     0.053 C 
BRANCH  13  14
ATOM     14  C   UNL     1      -3.544  -7.195  65.008  1.00  0.00     0.041 C 
ATOM     15  O   UNL     1      -3.491  -6.656  66.145  1.00  0.00    -0.550 OA
ATOM     16  O   UNL     1      -4.350  -8.310  64.812  1.00  0.00    -0.550 OA
ENDBRANCH  13  14
ENDBRANCH  12  13
ENDBRANCH  11  12
ENDBRANCH  10  11
ENDBRANCH   9  10
ENDBRANCH   8   9
ENDBRANCH   7   8
ENDBRANCH   6   7
ENDBRANCH   5   6
ENDBRANCH   4   5
ENDBRANCH   3   4
ENDBRANCH   2   3
ENDBRANCH   1   2
BRANCH   1  17
ATOM     17  C   UNL     1       0.137  -1.874  57.926  1.00  0.00     0.000 C 
BRANCH  17  18
ATOM     18  C   UNL     1       1.144  -0.733  57.674  1.00  0.00     0.000 C 
BRANCH  18  19
ATOM     19  C   UNL     1       0.562   0.693  57.753  1.00  0.00     0.000 C 
BRANCH  19  20
ATOM     20  C   UNL     1       0.002   1.092  59.130  1.00  0.00     0.000 C 
BRANCH  20  21
ATOM     21  C   UNL     1      -1.462   1.552  59.070  1.00  0.00     0.000 C 
BRANCH  21  22
ATOM     22  C   UNL     1      -1.826   2.024  57.657  1.00  0.00    -0.000 C 
BRANCH  22  23
ATOM     23  C   UNL     1      -3.147   1.396  57.184  1.00  0.00    -0.000 C 
BRANCH  23  24
ATOM     24  C   UNL     1      -3.110   1.021  55.687  1.00  0.00    -0.000 C 
BRANCH  24  25
ATOM     25  C   UNL     1      -4.047  -0.141  55.314  1.00  0.00    -0.000 C 
BRANCH  25  26
ATOM     26  C   UNL     1      -5.157  -0.372  56.351  1.00  0.00    -0.000 C 
BRANCH  26  27
ATOM     27  C   UNL     1      -5.821  -1.755  56.225  1.00  0.00    -0.000 C 
BRANCH  27  28
ATOM     28  C   UNL     1      -4.942  -2.852  55.594  1.00  0.00    -0.000 C 
BRANCH  28  29
ATOM     29  C   UNL     1      -5.134  -4.227  56.251  1.00  0.00    -0.003 C 
ATOM     30  C   UNL     1      -6.600  -4.473  56.594  1.00  0.00     0.004 C 
ENDBRANCH  28  29
ENDBRANCH  27  28
ENDBRANCH  26  27
ENDBRANCH  25  26
ENDBRANCH  24  25
ENDBRANCH  23  24
ENDBRANCH  22  23
ENDBRANCH  21  22
ENDBRANCH  20  21
ENDBRANCH  19  20
ENDBRANCH  18  19
ENDBRANCH  17  18
ENDBRANCH   1  17
TORSDOF 26
ENDMDL
MODEL 7
REMARK VINA RESULT:    -2.880      3.213      8.139
REMARK INTER + INTRA:         -12.821
REMARK INTER:                  -7.987
REMARK INTRA:                  -4.834
REMARK UNBOUND:                -5.564
REMARK SMILES CCCCCCCCCCCCCCCCCCCCCCCCCCCC(=O)[O-]
REMARK SMILES IDX 15 1 16 2 17 3 18 4 19 5 20 6 21 7 22 8 23 9 24 10 25 11
REMARK SMILES IDX 26 12 27 13 28 14 29 15 30 16 14 17 13 18 12 19 11 20 10 21
REMARK SMILES IDX 9 22 8 23 7 24 6 25 5 26 4 27 3 28 2 29 1 30
REMARK H PARENT
REMARK Flexibility Score: inf
ROOT
ATOM      1  C   UNL     1      -3.114  -9.522  64.378  1.00  0.00     0.000 C 
ENDROOT
BRANCH   1   2
ATOM      2  C   UNL     1      -4.180  -8.666  65.083  1.00  0.00     0.000 C 
BRANCH   2   3
ATOM      3  C   UNL     1      -3.569  -7.670  66.084  1.00  0.00     0.000 C 
BRANCH   3   4
ATOM      4  C   UNL     1      -4.481  -7.398  67.291  1.00  0.00     0.000 C 
BRANCH   4   5
ATOM      5  C   UNL     1      -5.944  -7.252  66.855  1.00  0.00     0.000 C 
BRANCH   5   6
ATOM      6  C   UNL     1      -6.234  -5.822  66.378  1.00  0.00     0.000 C 
BRANCH   6   7
ATOM      7  C   UNL     1      -7.110  -5.796  65.110  1.00  0.00     0.000 C 
BRANCH   7   8
ATOM      8  C   UNL     1      -6.342  -6.115  63.814  1.00  0.00     0.000 C 
BRANCH   8   9
ATOM      9  C   UNL     1      -5.341  -5.021  63.387  1.00  0.00     0.000 C 
BRANCH   9  10
ATOM     10  C   UNL     1      -3.909  -5.524  63.107  1.00  0.00     0.000 C 
BRANCH  10  11
ATOM     11  C   UNL     1      -2.780  -4.718  63.779  1.00  0.00     0.000 C 
BRANCH  11  12
ATOM     12  C   UNL     1      -3.129  -4.260  65.205  1.00  0.00     0.006 C 
BRANCH  12  13
ATOM     13  C   UNL     1      -2.065  -3.318  65.786  1.00  0.00     0.053 C 
BRANCH  13  14
ATOM     14  C   UNL     1      -0.963  -4.075  66.462  1.00  0.00     0.041 C 
ATOM     15  O   UNL     1      -1.161  -5.247  66.878  1.00  0.00    -0.550 OA
ATOM     16  O   UNL     1       0.273  -3.473  66.662  1.00  0.00    -0.550 OA
ENDBRANCH  13  14
ENDBRANCH  12  13
ENDBRANCH  11  12
ENDBRANCH  10  11
ENDBRANCH   9  10
ENDBRANCH   8   9
ENDBRANCH   7   8
ENDBRANCH   6   7
ENDBRANCH   5   6
ENDBRANCH   4   5
ENDBRANCH   3   4
ENDBRANCH   2   3
ENDBRANCH   1   2
BRANCH   1  17
ATOM     17  C   UNL     1      -3.466 -11.021  64.355  1.00  0.00     0.000 C 
BRANCH  17  18
ATOM     18  C   UNL     1      -4.957 -11.342  64.126  1.00  0.00     0.000 C 
BRANCH  18  19
ATOM     19  C   UNL     1      -5.250 -12.724  63.507  1.00  0.00     0.000 C 
BRANCH  19  20
ATOM     20  C   UNL     1      -4.108 -13.749  63.636  1.00  0.00     0.000 C 
BRANCH  20  21
ATOM     21  C   UNL     1      -4.383 -14.818  64.705  1.00  0.00     0.000 C 
BRANCH  21  22
ATOM     22  C   UNL     1      -4.058 -14.284  66.105  1.00  0.00    -0.000 C 
BRANCH  22  23
ATOM     23  C   UNL     1      -5.057 -14.812  67.147  1.00  0.00    -0.000 C 
BRANCH  23  24
ATOM     24  C   UNL     1      -6.495 -14.322  66.874  1.00  0.00    -0.000 C 
BRANCH  24  25
ATOM     25  C   UNL     1      -6.661 -12.795  66.974  1.00  0.00    -0.000 C 
BRANCH  25  26
ATOM     26  C   UNL     1      -5.999 -12.202  68.227  1.00  0.00    -0.000 C 
BRANCH  26  27
ATOM     27  C   UNL     1      -5.187 -10.927  67.934  1.00  0.00    -0.000 C 
BRANCH  27  28
ATOM     28  C   UNL     1      -3.666 -11.131  67.804  1.00  0.00    -0.000 C 
BRANCH  28  29
ATOM     29  C   UNL     1      -2.881 -10.569  68.999  1.00  0.00    -0.003 C 
ATOM     30  C   UNL     1      -2.571 -11.662  70.016  1.00  0.00     0.004 C 
ENDBRANCH  28  29
ENDBRANCH  27  28
ENDBRANCH  26  27
ENDBRANCH  25  26
ENDBRANCH  24  25
ENDBRANCH  23  24
ENDBRANCH  22  23
ENDBRANCH  21  22
ENDBRANCH  20  21
ENDBRANCH  19  20
ENDBRANCH  18  19
ENDBRANCH  17  18
ENDBRANCH   1  17
TORSDOF 26
ENDMDL
MODEL 8
REMARK VINA RESULT:    -2.838      3.117      7.773
REMARK INTER + INTRA:         -12.715
REMARK INTER:                  -7.100
REMARK INTRA:                  -5.615
REMARK UNBOUND:                -5.564
REMARK SMILES CCCCCCCCCCCCCCCCCCCCCCCCCCCC(=O)[O-]
REMARK SMILES IDX 15 1 16 2 17 3 18 4 19 5 20 6 21 7 22 8 23 9 24 10 25 11
REMARK SMILES IDX 26 12 27 13 28 14 29 15 30 16 14 17 13 18 12 19 11 20 10 21
REMARK SMILES IDX 9 22 8 23 7 24 6 25 5 26 4 27 3 28 2 29 1 30
REMARK H PARENT
REMARK Flexibility Score: inf
ROOT
ATOM      1  C   UNL     1      -4.190  -9.712  64.660  1.00  0.00     0.000 C 
ENDROOT
BRANCH   1   2
ATOM      2  C   UNL     1      -5.699  -9.677  64.359  1.00  0.00     0.000 C 
BRANCH   2   3
ATOM      3  C   UNL     1      -6.493  -8.891  65.416  1.00  0.00     0.000 C 
BRANCH   3   4
ATOM      4  C   UNL     1      -6.420  -7.370  65.213  1.00  0.00     0.000 C 
BRANCH   4   5
ATOM      5  C   UNL     1      -6.324  -6.638  66.557  1.00  0.00     0.000 C 
BRANCH   5   6
ATOM      6  C   UNL     1      -6.135  -7.632  67.711  1.00  0.00     0.000 C 
BRANCH   6   7
ATOM      7  C   UNL     1      -4.850  -7.355  68.516  1.00  0.00     0.000 C 
BRANCH   7   8
ATOM      8  C   UNL     1      -3.554  -7.531  67.704  1.00  0.00     0.000 C 
BRANCH   8   9
ATOM      9  C   UNL     1      -2.760  -6.224  67.490  1.00  0.00     0.000 C 
BRANCH   9  10
ATOM     10  C   UNL     1      -2.797  -5.670  66.049  1.00  0.00     0.000 C 
BRANCH  10  11
ATOM     11  C   UNL     1      -2.425  -6.677  64.943  1.00  0.00     0.000 C 
BRANCH  11  12
ATOM     12  C   UNL     1      -3.110  -6.381  63.599  1.00  0.00     0.006 C 
BRANCH  12  13
ATOM     13  C   UNL     1      -3.774  -4.997  63.581  1.00  0.00     0.053 C 
BRANCH  13  14
ATOM     14  C   UNL     1      -3.770  -4.398  62.207  1.00  0.00     0.041 C 
ATOM     15  O   UNL     1      -4.627  -4.754  61.357  1.00  0.00    -0.550 OA
ATOM     16  O   UNL     1      -2.796  -3.470  61.856  1.00  0.00    -0.550 OA
ENDBRANCH  13  14
ENDBRANCH  12  13
ENDBRANCH  11  12
ENDBRANCH  10  11
ENDBRANCH   9  10
ENDBRANCH   8   9
ENDBRANCH   7   8
ENDBRANCH   6   7
ENDBRANCH   5   6
ENDBRANCH   4   5
ENDBRANCH   3   4
ENDBRANCH   2   3
ENDBRANCH   1   2
BRANCH   1  17
ATOM     17  C   UNL     1      -3.569 -11.107  64.462  1.00  0.00     0.000 C 
BRANCH  17  18
ATOM     18  C   UNL     1      -4.571 -12.227  64.116  1.00  0.00     0.000 C 
BRANCH  18  19
ATOM     19  C   UNL     1      -4.123 -13.655  64.490  1.00  0.00     0.000 C 
BRANCH  19  20
ATOM     20  C   UNL     1      -4.856 -14.272  65.695  1.00  0.00     0.000 C 
BRANCH  20  21
ATOM     21  C   UNL     1      -6.382 -14.119  65.608  1.00  0.00     0.000 C 
BRANCH  21  22
ATOM     22  C   UNL     1      -6.959 -13.646  66.948  1.00  0.00    -0.000 C 
BRANCH  22  23
ATOM     23  C   UNL     1      -6.898 -12.115  67.071  1.00  0.00    -0.000 C 
BRANCH  23  24
ATOM     24  C   UNL     1      -5.990 -11.660  68.233  1.00  0.00    -0.000 C 
BRANCH  24  25
ATOM     25  C   UNL     1      -4.630 -11.101  67.777  1.00  0.00    -0.000 C 
BRANCH  25  26
ATOM     26  C   UNL     1      -3.482 -11.464  68.732  1.00  0.00    -0.000 C 
BRANCH  26  27
ATOM     27  C   UNL     1      -2.983 -12.909  68.552  1.00  0.00    -0.000 C 
BRANCH  27  28
ATOM     28  C   UNL     1      -3.375 -13.886  69.677  1.00  0.00    -0.000 C 
BRANCH  28  29
ATOM     29  C   UNL     1      -4.420 -14.921  69.237  1.00  0.00    -0.003 C 
ATOM     30  C   UNL     1      -5.613 -14.936  70.186  1.00  0.00     0.004 C 
ENDBRANCH  28  29
ENDBRANCH  27  28
ENDBRANCH  26  27
ENDBRANCH  25  26
ENDBRANCH  24  25
ENDBRANCH  23  24
ENDBRANCH  22  23
ENDBRANCH  21  22
ENDBRANCH  20  21
ENDBRANCH  19  20
ENDBRANCH  18  19
ENDBRANCH  17  18
ENDBRANCH   1  17
TORSDOF 26
ENDMDL
MODEL 9
REMARK VINA RESULT:    -2.835      2.833      7.485
REMARK INTER + INTRA:         -12.708
REMARK INTER:                  -7.309
REMARK INTRA:                  -5.399
REMARK UNBOUND:                -5.564
REMARK SMILES CCCCCCCCCCCCCCCCCCCCCCCCCCCC(=O)[O-]
REMARK SMILES IDX 15 1 16 2 17 3 18 4 19 5 20 6 21 7 22 8 23 9 24 10 25 11
REMARK SMILES IDX 26 12 27 13 28 14 29 15 30 16 14 17 13 18 12 19 11 20 10 21
REMARK SMILES IDX 9 22 8 23 7 24 6 25 5 26 4 27 3 28 2 29 1 30
REMARK H PARENT
REMARK Flexibility Score: inf
ROOT
ATOM      1  C   UNL     1      -3.356 -11.218  64.613  1.00  0.00     0.000 C 
ENDROOT
BRANCH   1   2
ATOM      2  C   UNL     1      -3.632  -9.722  64.381  1.00  0.00     0.000 C 
BRANCH   2   3
ATOM      3  C   UNL     1      -4.536  -9.114  65.467  1.00  0.00     0.000 C 
BRANCH   3   4
ATOM      4  C   UNL     1      -5.938  -8.756  64.949  1.00  0.00     0.000 C 
BRANCH   4   5
ATOM      5  C   UNL     1      -6.322  -7.324  65.342  1.00  0.00     0.000 C 
BRANCH   5   6
ATOM      6  C   UNL     1      -6.252  -6.385  64.130  1.00  0.00     0.000 C 
BRANCH   6   7
ATOM      7  C   UNL     1      -5.082  -5.388  64.230  1.00  0.00     0.000 C 
BRANCH   7   8
ATOM      8  C   UNL     1      -3.903  -5.711  63.293  1.00  0.00     0.000 C 
BRANCH   8   9
ATOM      9  C   UNL     1      -2.635  -6.206  64.021  1.00  0.00     0.000 C 
BRANCH   9  10
ATOM     10  C   UNL     1      -2.269  -5.418  65.297  1.00  0.00     0.000 C 
BRANCH  10  11
ATOM     11  C   UNL     1      -2.206  -6.248  66.593  1.00  0.00     0.000 C 
BRANCH  11  12
ATOM     12  C   UNL     1      -3.453  -6.087  67.478  1.00  0.00     0.006 C 
BRANCH  12  13
ATOM     13  C   UNL     1      -3.650  -7.280  68.424  1.00  0.00     0.053 C 
BRANCH  13  14
ATOM     14  C   UNL     1      -2.939  -7.077  69.727  1.00  0.00     0.041 C 
ATOM     15  O   UNL     1      -3.273  -6.134  70.491  1.00  0.00    -0.550 OA
ATOM     16  O   UNL     1      -1.885  -7.910  70.082  1.00  0.00    -0.550 OA
ENDBRANCH  13  14
ENDBRANCH  12  13
ENDBRANCH  11  12
ENDBRANCH  10  11
ENDBRANCH   9  10
ENDBRANCH   8   9
ENDBRANCH   7   8
ENDBRANCH   6   7
ENDBRANCH   5   6
ENDBRANCH   4   5
ENDBRANCH   3   4
ENDBRANCH   2   3
ENDBRANCH   1   2
BRANCH   1  17
ATOM     17  C   UNL     1      -4.458 -12.129  64.040  1.00  0.00     0.000 C 
BRANCH  17  18
ATOM     18  C   UNL     1      -4.242 -13.640  64.263  1.00  0.00     0.000 C 
BRANCH  18  19
ATOM     19  C   UNL     1      -4.892 -14.221  65.536  1.00  0.00     0.000 C 
BRANCH  19  20
ATOM     20  C   UNL     1      -6.429 -14.146  65.573  1.00  0.00     0.000 C 
BRANCH  20  21
ATOM     21  C   UNL     1      -6.959 -13.340  66.768  1.00  0.00     0.000 C 
BRANCH  21  22
ATOM     22  C   UNL     1      -6.246 -11.985  66.871  1.00  0.00    -0.000 C 
BRANCH  22  23
ATOM     23  C   UNL     1      -7.000 -11.030  67.810  1.00  0.00    -0.000 C 
BRANCH  23  24
ATOM     24  C   UNL     1      -6.039 -10.179  68.668  1.00  0.00    -0.000 C 
BRANCH  24  25
ATOM     25  C   UNL     1      -5.384 -10.957  69.823  1.00  0.00    -0.000 C 
BRANCH  25  26
ATOM     26  C   UNL     1      -3.864 -10.748  69.900  1.00  0.00    -0.000 C 
BRANCH  26  27
ATOM     27  C   UNL     1      -3.163 -10.911  68.539  1.00  0.00    -0.000 C 
BRANCH  27  28
ATOM     28  C   UNL     1      -3.007 -12.362  68.049  1.00  0.00    -0.000 C 
BRANCH  28  29
ATOM     29  C   UNL     1      -2.858 -13.372  69.197  1.00  0.00    -0.003 C 
ATOM     30  C   UNL     1      -4.011 -14.369  69.206  1.00  0.00     0.004 C 
ENDBRANCH  28  29
ENDBRANCH  27  28
ENDBRANCH  26  27
ENDBRANCH  25  26
ENDBRANCH  24  25
ENDBRANCH  23  24
ENDBRANCH  22  23
ENDBRANCH  21  22
ENDBRANCH  20  21
ENDBRANCH  19  20
ENDBRANCH  18  19
ENDBRANCH  17  18
ENDBRANCH   1  17
TORSDOF 26
ENDMDL
