MODEL 1
REMARK VINA RESULT:    -4.177      0.000      0.000
REMARK INTER + INTRA:          -6.712
REMARK INTER:                  -6.008
REMARK INTRA:                  -0.704
REMARK UNBOUND:                -0.704
REMARK SMILES CCCCCCCCCO
REMARK SMILES IDX 6 1 5 2 4 3 3 4 2 5 1 6 7 7 8 8 9 9 10 10
REMARK H PARENT 10 11
REMARK Flexibility Score: inf
ROOT
ATOM      1  C   UNL     1       0.396   4.648   9.495  1.00  0.00     0.000 C 
ENDROOT
BRANCH   1   2
ATOM      2  C   UNL     1       1.705   4.035  10.014  1.00  0.00     0.000 C 
BRANCH   2   3
ATOM      3  C   UNL     1       2.887   5.014   9.939  1.00  0.00    -0.000 C 
BRANCH   3   4
ATOM      4  C   UNL     1       3.352   5.486  11.327  1.00  0.00    -0.000 C 
BRANCH   4   5
ATOM      5  C   UNL     1       2.459   6.597  11.900  1.00  0.00    -0.003 C 
ATOM      6  C   UNL     1       2.130   7.679  10.873  1.00  0.00     0.004 C 
ENDBRANCH   4   5
ENDBRANCH   3   4
ENDBRANCH   2   3
ENDBRANCH   1   2
BRANCH   1   7
ATOM      7  C   UNL     1      -0.652   4.733  10.612  1.00  0.00     0.002 C 
BRANCH   7   8
ATOM      8  C   UNL     1      -0.179   3.992  11.869  1.00  0.00     0.028 C 
BRANCH   8   9
ATOM      9  C   UNL     1      -1.313   3.792  12.879  1.00  0.00     0.156 C 
BRANCH   9  10
ATOM     10  O   UNL     1      -2.539   4.208  12.336  1.00  0.00    -0.396 OA
ATOM     11  H   UNL     1      -2.695   5.135  12.654  1.00  0.00     0.210 HD
ENDBRANCH   9  10
ENDBRANCH   8   9
ENDBRANCH   7   8
ENDBRANCH   1   7
TORSDOF 8
ENDMDL
MODEL 2
REMARK VINA RESULT:    -4.093      5.949      7.399
REMARK INTER + INTRA:          -6.592
REMARK INTER:                  -6.229
REMARK INTRA:                  -0.363
REMARK UNBOUND:                -0.704
REMARK SMILES CCCCCCCCCO
REMARK SMILES IDX 6 1 5 2 4 3 3 4 2 5 1 6 7 7 8 8 9 9 10 10
REMARK H PARENT 10 11
REMARK Flexibility Score: inf
ROOT
ATOM      1  C   UNL     1       1.432  -0.796  15.626  1.00  0.00     0.000 C 
ENDROOT
BRANCH   1   2
ATOM      2  C   UNL     1       0.444   0.241  15.073  1.00  0.00     0.000 C 
BRANCH   2   3
ATOM      3  C   UNL     1       0.041  -0.042  13.617  1.00  0.00    -0.000 C 
BRANCH   3   4
ATOM      4  C   UNL     1      -0.390   1.229  12.866  1.00  0.00    -0.000 C 
BRANCH   4   5
ATOM      5  C   UNL     1      -1.055   2.261  13.789  1.00  0.00    -0.003 C 
ATOM      6  C   UNL     1      -1.144   3.649  13.156  1.00  0.00     0.004 C 
ENDBRANCH   4   5
ENDBRANCH   3   4
ENDBRANCH   2   3
ENDBRANCH   1   2
BRANCH   1   7
ATOM      7  C   UNL     1       2.724  -0.820  14.799  1.00  0.00     0.002 C 
BRANCH   7   8
ATOM      8  C   UNL     1       3.080  -2.252  14.376  1.00  0.00     0.028 C 
BRANCH   8   9
ATOM      9  C   UNL     1       2.236  -3.295  15.115  1.00  0.00     0.156 C 
BRANCH   9  10
ATOM     10  O   UNL     1       2.362  -4.555  14.508  1.00  0.00    -0.396 OA
ATOM     11  H   UNL     1       1.507  -4.734  14.037  1.00  0.00     0.210 HD
ENDBRANCH   9  10
ENDBRANCH   8   9
ENDBRANCH   7   8
ENDBRANCH   1   7
TORSDOF 8
ENDMDL
MODEL 3
REMARK VINA RESULT:    -4.071      2.287      4.694
REMARK INTER + INTRA:          -6.559
REMARK INTER:                  -6.159
REMARK INTRA:                  -0.400
REMARK UNBOUND:                -0.704
REMARK SMILES CCCCCCCCCO
REMARK SMILES IDX 6 1 5 2 4 3 3 4 2 5 1 6 7 7 8 8 9 9 10 10
REMARK H PARENT 10 11
REMARK Flexibility Score: inf
ROOT
ATOM      1  C   UNL     1       2.324   4.379  10.258  1.00  0.00     0.000 C 
ENDROOT
BRANCH   1   2
ATOM      2  C   UNL     1       1.042   3.673  10.722  1.00  0.00     0.000 C 
BRANCH   2   3
ATOM      3  C   UNL     1       0.193   4.543  11.662  1.00  0.00    -0.000 C 
BRANCH   3   4
ATOM      4  C   UNL     1      -0.628   3.709  12.660  1.00  0.00    -0.000 C 
BRANCH   4   5
ATOM      5  C   UNL     1      -0.502   2.199  12.408  1.00  0.00    -0.003 C 
ATOM      6  C   UNL     1      -0.504   1.382  13.699  1.00  0.00     0.004 C 
ENDBRANCH   4   5
ENDBRANCH   3   4
ENDBRANCH   2   3
ENDBRANCH   1   2
BRANCH   1   7
ATOM      7  C   UNL     1       2.844   5.338  11.336  1.00  0.00     0.002 C 
BRANCH   7   8
ATOM      8  C   UNL     1       3.205   6.702  10.732  1.00  0.00     0.028 C 
BRANCH   8   9
ATOM      9  C   UNL     1       1.994   7.637  10.662  1.00  0.00     0.156 C 
BRANCH   9  10
ATOM     10  O   UNL     1       1.861   8.367  11.854  1.00  0.00    -0.396 OA
ATOM     11  H   UNL     1       2.705   8.876  11.976  1.00  0.00     0.210 HD
ENDBRANCH   9  10
ENDBRANCH   8   9
ENDBRANCH   7   8
ENDBRANCH   1   7
TORSDOF 8
ENDMDL
MODEL 4
REMARK VINA RESULT:    -3.995      7.236      8.548
REMARK INTER + INTRA:          -6.451
REMARK INTER:                  -5.918
REMARK INTRA:                  -0.532
REMARK UNBOUND:                -0.704
REMARK SMILES CCCCCCCCCO
REMARK SMILES IDX 6 1 5 2 4 3 3 4 2 5 1 6 7 7 8 8 9 9 10 10
REMARK H PARENT 10 11
REMARK Flexibility Score: inf
ROOT
ATOM      1  C   UNL     1       1.863  -0.548  14.716  1.00  0.00     0.000 C 
ENDROOT
BRANCH   1   2
ATOM      2  C   UNL     1       0.516  -0.617  13.982  1.00  0.00     0.000 C 
BRANCH   2   3
ATOM      3  C   UNL     1      -0.651  -0.970  14.918  1.00  0.00    -0.000 C 
BRANCH   3   4
ATOM      4  C   UNL     1      -0.273  -0.852  16.404  1.00  0.00    -0.000 C 
BRANCH   4   5
ATOM      5  C   UNL     1      -1.209   0.091  17.175  1.00  0.00    -0.003 C 
ATOM      6  C   UNL     1      -1.350   1.459  16.507  1.00  0.00     0.004 C 
ENDBRANCH   4   5
ENDBRANCH   3   4
ENDBRANCH   2   3
ENDBRANCH   1   2
BRANCH   1   7
ATOM      7  C   UNL     1       2.803  -1.666  14.249  1.00  0.00     0.002 C 
BRANCH   7   8
ATOM      8  C   UNL     1       3.156  -2.608  15.407  1.00  0.00     0.028 C 
BRANCH   8   9
ATOM      9  C   UNL     1       2.228  -3.826  15.459  1.00  0.00     0.156 C 
BRANCH   9  10
ATOM     10  O   UNL     1       2.402  -4.632  14.324  1.00  0.00    -0.396 OA
ATOM     11  H   UNL     1       2.707  -4.036  13.590  1.00  0.00     0.210 HD
ENDBRANCH   9  10
ENDBRANCH   8   9
ENDBRANCH   7   8
ENDBRANCH   1   7
TORSDOF 8
ENDMDL
MODEL 5
REMARK VINA RESULT:    -3.992      4.867      6.497
REMARK INTER + INTRA:          -6.446
REMARK INTER:                  -6.208
REMARK INTRA:                  -0.238
REMARK UNBOUND:                -0.704
REMARK SMILES CCCCCCCCCO
REMARK SMILES IDX 6 1 5 2 4 3 3 4 2 5 1 6 7 7 8 8 9 9 10 10
REMARK H PARENT 10 11
REMARK Flexibility Score: inf
ROOT
ATOM      1  C   UNL     1      -0.487   0.780  13.732  1.00  0.00     0.000 C 
ENDROOT
BRANCH   1   2
ATOM      2  C   UNL     1       0.482  -0.411  13.765  1.00  0.00     0.000 C 
BRANCH   2   3
ATOM      3  C   UNL     1       1.379  -0.411  15.012  1.00  0.00    -0.000 C 
BRANCH   3   4
ATOM      4  C   UNL     1       2.796  -0.936  14.722  1.00  0.00    -0.000 C 
BRANCH   4   5
ATOM      5  C   UNL     1       2.785  -2.331  14.078  1.00  0.00    -0.003 C 
ATOM      6  C   UNL     1       2.474  -3.441  15.081  1.00  0.00     0.004 C 
ENDBRANCH   4   5
ENDBRANCH   3   4
ENDBRANCH   2   3
ENDBRANCH   1   2
BRANCH   1   7
ATOM      7  C   UNL     1      -0.665   1.305  12.302  1.00  0.00     0.002 C 
BRANCH   7   8
ATOM      8  C   UNL     1      -0.213   2.767  12.192  1.00  0.00     0.028 C 
BRANCH   8   9
ATOM      9  C   UNL     1      -1.011   3.686  13.122  1.00  0.00     0.156 C 
BRANCH   9  10
ATOM     10  O   UNL     1      -2.191   4.121  12.498  1.00  0.00    -0.396 OA
ATOM     11  H   UNL     1      -1.953   4.917  11.954  1.00  0.00     0.210 HD
ENDBRANCH   9  10
ENDBRANCH   8   9
ENDBRANCH   7   8
ENDBRANCH   1   7
TORSDOF 8
ENDMDL
MODEL 6
REMARK VINA RESULT:    -3.977      2.283      3.120
REMARK INTER + INTRA:          -6.424
REMARK INTER:                  -5.993
REMARK INTRA:                  -0.431
REMARK UNBOUND:                -0.704
REMARK SMILES CCCCCCCCCO
REMARK SMILES IDX 6 1 5 2 4 3 3 4 2 5 1 6 7 7 8 8 9 9 10 10
REMARK H PARENT 10 11
REMARK Flexibility Score: inf
ROOT
ATOM      1  C   UNL     1       0.230   4.536   9.823  1.00  0.00     0.000 C 
ENDROOT
BRANCH   1   2
ATOM      2  C   UNL     1       1.431   3.995  10.613  1.00  0.00     0.000 C 
BRANCH   2   3
ATOM      3  C   UNL     1       2.750   4.684  10.230  1.00  0.00    -0.000 C 
BRANCH   3   4
ATOM      4  C   UNL     1       3.359   5.485  11.394  1.00  0.00    -0.000 C 
BRANCH   4   5
ATOM      5  C   UNL     1       2.444   6.626  11.864  1.00  0.00    -0.003 C 
ATOM      6  C   UNL     1       2.206   7.676  10.778  1.00  0.00     0.004 C 
ENDBRANCH   4   5
ENDBRANCH   3   4
ENDBRANCH   2   3
ENDBRANCH   1   2
BRANCH   1   7
ATOM      7  C   UNL     1       0.518   4.538   8.317  1.00  0.00     0.002 C 
BRANCH   7   8
ATOM      8  C   UNL     1      -0.730   4.145   7.516  1.00  0.00     0.028 C 
BRANCH   8   9
ATOM      9  C   UNL     1      -0.596   2.753   6.891  1.00  0.00     0.156 C 
BRANCH   9  10
ATOM     10  O   UNL     1       0.067   1.878   7.766  1.00  0.00    -0.396 OA
ATOM     11  H   UNL     1       0.042   0.978   7.348  1.00  0.00     0.210 HD
ENDBRANCH   9  10
ENDBRANCH   8   9
ENDBRANCH   7   8
ENDBRANCH   1   7
TORSDOF 8
ENDMDL
MODEL 7
REMARK VINA RESULT:    -3.889      2.734      4.773
REMARK INTER + INTRA:          -6.297
REMARK INTER:                  -5.770
REMARK INTRA:                  -0.527
REMARK UNBOUND:                -0.704
REMARK SMILES CCCCCCCCCO
REMARK SMILES IDX 6 1 5 2 4 3 3 4 2 5 1 6 7 7 8 8 9 9 10 10
REMARK H PARENT 10 11
REMARK Flexibility Score: inf
ROOT
ATOM      1  C   UNL     1       2.750   4.760  10.011  1.00  0.00     0.000 C 
ENDROOT
BRANCH   1   2
ATOM      2  C   UNL     1       1.610   3.894  10.566  1.00  0.00     0.000 C 
BRANCH   2   3
ATOM      3  C   UNL     1       0.321   4.010   9.737  1.00  0.00    -0.000 C 
BRANCH   3   4
ATOM      4  C   UNL     1       0.565   4.620   8.346  1.00  0.00    -0.000 C 
BRANCH   4   5
ATOM      5  C   UNL     1       0.096   3.699   7.210  1.00  0.00    -0.003 C 
ATOM      6  C   UNL     1      -0.461   2.370   7.719  1.00  0.00     0.004 C 
ENDBRANCH   4   5
ENDBRANCH   3   4
ENDBRANCH   2   3
ENDBRANCH   1   2
BRANCH   1   7
ATOM      7  C   UNL     1       3.354   5.644  11.110  1.00  0.00     0.002 C 
BRANCH   7   8
ATOM      8  C   UNL     1       2.341   6.687  11.597  1.00  0.00     0.028 C 
BRANCH   8   9
ATOM      9  C   UNL     1       1.926   7.650  10.480  1.00  0.00     0.156 C 
BRANCH   9  10
ATOM     10  O   UNL     1       3.032   8.385  10.023  1.00  0.00    -0.396 OA
ATOM     11  H   UNL     1       3.470   7.839   9.320  1.00  0.00     0.210 HD
ENDBRANCH   9  10
ENDBRANCH   8   9
ENDBRANCH   7   8
ENDBRANCH   1   7
TORSDOF 8
ENDMDL
MODEL 8
REMARK VINA RESULT:    -3.844      6.403      7.598
REMARK INTER + INTRA:          -6.232
REMARK INTER:                  -5.904
REMARK INTRA:                  -0.329
REMARK UNBOUND:                -0.704
REMARK SMILES CCCCCCCCCO
REMARK SMILES IDX 6 1 5 2 4 3 3 4 2 5 1 6 7 7 8 8 9 9 10 10
REMARK H PARENT 10 11
REMARK Flexibility Score: inf
ROOT
ATOM      1  C   UNL     1      -0.286   0.243  14.236  1.00  0.00     0.000 C 
ENDROOT
BRANCH   1   2
ATOM      2  C   UNL     1       0.880  -0.732  14.020  1.00  0.00     0.000 C 
BRANCH   2   3
ATOM      3  C   UNL     1       2.007  -0.544  15.049  1.00  0.00    -0.000 C 
BRANCH   3   4
ATOM      4  C   UNL     1       3.208  -1.469  14.786  1.00  0.00    -0.000 C 
BRANCH   4   5
ATOM      5  C   UNL     1       2.785  -2.840  14.237  1.00  0.00    -0.003 C 
ATOM      6  C   UNL     1       2.462  -3.845  15.342  1.00  0.00     0.004 C 
ENDBRANCH   4   5
ENDBRANCH   3   4
ENDBRANCH   2   3
ENDBRANCH   1   2
BRANCH   1   7
ATOM      7  C   UNL     1      -1.465  -0.453  14.926  1.00  0.00     0.002 C 
BRANCH   7   8
ATOM      8  C   UNL     1      -2.281   0.543  15.760  1.00  0.00     0.028 C 
BRANCH   8   9
ATOM      9  C   UNL     1      -1.432   1.726  16.235  1.00  0.00     0.156 C 
BRANCH   9  10
ATOM     10  O   UNL     1      -1.079   1.573  17.585  1.00  0.00    -0.396 OA
ATOM     11  H   UNL     1      -1.913   1.671  18.114  1.00  0.00     0.210 HD
ENDBRANCH   9  10
ENDBRANCH   8   9
ENDBRANCH   7   8
ENDBRANCH   1   7
TORSDOF 8
ENDMDL
MODEL 9
REMARK VINA RESULT:    -3.838      2.037      2.285
REMARK INTER + INTRA:          -6.225
REMARK INTER:                  -5.792
REMARK INTRA:                  -0.433
REMARK UNBOUND:                -0.704
REMARK SMILES CCCCCCCCCO
REMARK SMILES IDX 6 1 5 2 4 3 3 4 2 5 1 6 7 7 8 8 9 9 10 10
REMARK H PARENT 10 11
REMARK Flexibility Score: inf
ROOT
ATOM      1  C   UNL     1       0.181   4.359  11.704  1.00  0.00     0.000 C 
ENDROOT
BRANCH   1   2
ATOM      2  C   UNL     1       0.830   3.708  10.474  1.00  0.00     0.000 C 
BRANCH   2   3
ATOM      3  C   UNL     1       2.100   4.442  10.015  1.00  0.00    -0.000 C 
BRANCH   3   4
ATOM      4  C   UNL     1       2.942   4.959  11.194  1.00  0.00    -0.000 C 
BRANCH   4   5
ATOM      5  C   UNL     1       3.372   6.422  11.012  1.00  0.00    -0.003 C 
ATOM      6  C   UNL     1       2.186   7.385  10.963  1.00  0.00     0.004 C 
ENDBRANCH   4   5
ENDBRANCH   3   4
ENDBRANCH   2   3
ENDBRANCH   1   2
BRANCH   1   7
ATOM      7  C   UNL     1      -0.642   3.337  12.498  1.00  0.00     0.002 C 
BRANCH   7   8
ATOM      8  C   UNL     1      -0.413   1.915  11.969  1.00  0.00     0.028 C 
BRANCH   8   9
ATOM      9  C   UNL     1      -0.332   0.888  13.102  1.00  0.00     0.156 C 
BRANCH   9  10
ATOM     10  O   UNL     1      -0.867  -0.344  12.694  1.00  0.00    -0.396 OA
ATOM     11  H   UNL     1      -1.655  -0.523  13.271  1.00  0.00     0.210 HD
ENDBRANCH   9  10
ENDBRANCH   8   9
ENDBRANCH   7   8
ENDBRANCH   1   7
TORSDOF 8
ENDMDL
