MODEL 1
REMARK VINA RESULT:    -3.591      0.000      0.000
REMARK INTER + INTRA:          -6.362
REMARK INTER:                  -5.691
REMARK INTRA:                  -0.671
REMARK UNBOUND:                -0.671
REMARK SMILES CCCCCCCCCCCC(=O)[O-]
REMARK SMILES IDX 7 1 8 2 9 3 10 4 11 5 12 6 13 7 14 8 6 9 5 10 4 11 3 12 2 13
REMARK SMILES IDX 1 14
REMARK H PARENT
REMARK Flexibility Score: inf
ROOT
ATOM      1  C   UNL     1      -1.685 -50.783   2.036  1.00  0.00     0.000 C 
ENDROOT
BRANCH   1   2
ATOM      2  C   UNL     1      -1.772 -51.630   3.315  1.00  0.00     0.000 C 
BRANCH   2   3
ATOM      3  C   UNL     1      -3.168 -51.589   3.959  1.00  0.00     0.000 C 
BRANCH   3   4
ATOM      4  C   UNL     1      -3.172 -52.123   5.399  1.00  0.00     0.006 C 
BRANCH   4   5
ATOM      5  C   UNL     1      -2.015 -51.529   6.207  1.00  0.00     0.053 C 
BRANCH   5   6
ATOM      6  C   UNL     1      -2.489 -51.090   7.557  1.00  0.00     0.041 C 
ATOM      7  O   UNL     1      -3.560 -50.439   7.671  1.00  0.00    -0.550 OA
ATOM      8  O   UNL     1      -1.772 -51.443   8.693  1.00  0.00    -0.550 OA
ENDBRANCH   5   6
ENDBRANCH   4   5
ENDBRANCH   3   4
ENDBRANCH   2   3
ENDBRANCH   1   2
BRANCH   1   9
ATOM      9  C   UNL     1      -1.277 -51.648   0.833  1.00  0.00     0.000 C 
BRANCH   9  10
ATOM     10  C   UNL     1      -2.379 -51.744  -0.233  1.00  0.00    -0.000 C 
BRANCH  10  11
ATOM     11  C   UNL     1      -3.652 -50.974   0.161  1.00  0.00    -0.000 C 
BRANCH  11  12
ATOM     12  C   UNL     1      -4.803 -51.908   0.567  1.00  0.00    -0.000 C 
BRANCH  12  13
ATOM     13  C   UNL     1      -6.183 -51.350   0.183  1.00  0.00    -0.003 C 
ATOM     14  C   UNL     1      -7.257 -51.827   1.156  1.00  0.00     0.004 C 
ENDBRANCH  12  13
ENDBRANCH  11  12
ENDBRANCH  10  11
ENDBRANCH   9  10
ENDBRANCH   1   9
TORSDOF 10
ENDMDL
MODEL 2
REMARK VINA RESULT:    -3.570      1.327      2.570
REMARK INTER + INTRA:          -6.328
REMARK INTER:                  -5.676
REMARK INTRA:                  -0.652
REMARK UNBOUND:                -0.671
REMARK SMILES CCCCCCCCCCCC(=O)[O-]
REMARK SMILES IDX 7 1 8 2 9 3 10 4 11 5 12 6 13 7 14 8 6 9 5 10 4 11 3 12 2 13
REMARK SMILES IDX 1 14
REMARK H PARENT
REMARK Flexibility Score: inf
ROOT
ATOM      1  C   UNL     1      -3.074 -50.626   0.705  1.00  0.00     0.000 C 
ENDROOT
BRANCH   1   2
ATOM      2  C   UNL     1      -1.769 -51.337   1.094  1.00  0.00     0.000 C 
BRANCH   2   3
ATOM      3  C   UNL     1      -1.457 -51.224   2.595  1.00  0.00     0.000 C 
BRANCH   3   4
ATOM      4  C   UNL     1      -2.386 -52.087   3.461  1.00  0.00     0.006 C 
BRANCH   4   5
ATOM      5  C   UNL     1      -2.055 -51.928   4.947  1.00  0.00     0.053 C 
BRANCH   5   6
ATOM      6  C   UNL     1      -3.254 -51.451   5.704  1.00  0.00     0.041 C 
ATOM      7  O   UNL     1      -3.112 -50.853   6.803  1.00  0.00    -0.550 OA
ATOM      8  O   UNL     1      -4.525 -51.623   5.171  1.00  0.00    -0.550 OA
ENDBRANCH   5   6
ENDBRANCH   4   5
ENDBRANCH   3   4
ENDBRANCH   2   3
ENDBRANCH   1   2
BRANCH   1   9
ATOM      9  C   UNL     1      -4.103 -51.628   0.160  1.00  0.00     0.000 C 
BRANCH   9  10
ATOM     10  C   UNL     1      -5.509 -51.025   0.022  1.00  0.00    -0.000 C 
BRANCH  10  11
ATOM     11  C   UNL     1      -6.600 -51.920   0.637  1.00  0.00    -0.000 C 
BRANCH  11  12
ATOM     12  C   UNL     1      -6.488 -52.019   2.166  1.00  0.00    -0.000 C 
BRANCH  12  13
ATOM     13  C   UNL     1      -7.733 -51.481   2.889  1.00  0.00    -0.003 C 
ATOM     14  C   UNL     1      -8.688 -50.809   1.907  1.00  0.00     0.004 C 
ENDBRANCH  12  13
ENDBRANCH  11  12
ENDBRANCH  10  11
ENDBRANCH   9  10
ENDBRANCH   1   9
TORSDOF 10
ENDMDL
MODEL 3
REMARK VINA RESULT:    -3.513      1.764      3.487
REMARK INTER + INTRA:          -6.238
REMARK INTER:                  -5.584
REMARK INTRA:                  -0.654
REMARK UNBOUND:                -0.671
REMARK SMILES CCCCCCCCCCCC(=O)[O-]
REMARK SMILES IDX 7 1 8 2 9 3 10 4 11 5 12 6 13 7 14 8 6 9 5 10 4 11 3 12 2 13
REMARK SMILES IDX 1 14
REMARK H PARENT
REMARK Flexibility Score: inf
ROOT
ATOM      1  C   UNL     1      -3.637 -50.620   0.471  1.00  0.00     0.000 C 
ENDROOT
BRANCH   1   2
ATOM      2  C   UNL     1      -2.516 -51.546  -0.024  1.00  0.00     0.000 C 
BRANCH   2   3
ATOM      3  C   UNL     1      -1.464 -51.836   1.060  1.00  0.00     0.000 C 
BRANCH   3   4
ATOM      4  C   UNL     1      -1.685 -51.012   2.336  1.00  0.00     0.006 C 
BRANCH   4   5
ATOM      5  C   UNL     1      -1.272 -51.805   3.580  1.00  0.00     0.053 C 
BRANCH   5   6
ATOM      6  C   UNL     1      -2.329 -51.715   4.634  1.00  0.00     0.041 C 
ATOM      7  O   UNL     1      -2.013 -51.747   5.853  1.00  0.00    -0.550 OA
ATOM      8  O   UNL     1      -3.660 -51.546   4.271  1.00  0.00    -0.550 OA
ENDBRANCH   5   6
ENDBRANCH   4   5
ENDBRANCH   3   4
ENDBRANCH   2   3
ENDBRANCH   1   2
BRANCH   1   9
ATOM      9  C   UNL     1      -5.011 -51.131   0.013  1.00  0.00     0.000 C 
BRANCH   9  10
ATOM     10  C   UNL     1      -5.804 -51.806   1.143  1.00  0.00    -0.000 C 
BRANCH  10  11
ATOM     11  C   UNL     1      -7.298 -51.960   0.806  1.00  0.00    -0.000 C 
BRANCH  11  12
ATOM     12  C   UNL     1      -8.211 -51.376   1.895  1.00  0.00    -0.000 C 
BRANCH  12  13
ATOM     13  C   UNL     1      -7.611 -51.504   3.304  1.00  0.00    -0.003 C 
ATOM     14  C   UNL     1      -8.248 -50.504   4.264  1.00  0.00     0.004 C 
ENDBRANCH  12  13
ENDBRANCH  11  12
ENDBRANCH  10  11
ENDBRANCH   9  10
ENDBRANCH   1   9
TORSDOF 10
ENDMDL
MODEL 4
REMARK VINA RESULT:    -3.398      0.884      1.594
REMARK INTER + INTRA:          -6.056
REMARK INTER:                  -5.586
REMARK INTRA:                  -0.470
REMARK UNBOUND:                -0.671
REMARK SMILES CCCCCCCCCCCC(=O)[O-]
REMARK SMILES IDX 7 1 8 2 9 3 10 4 11 5 12 6 13 7 14 8 6 9 5 10 4 11 3 12 2 13
REMARK SMILES IDX 1 14
REMARK H PARENT
REMARK Flexibility Score: inf
ROOT
ATOM      1  C   UNL     1      -2.995 -52.058   3.046  1.00  0.00     0.000 C 
ENDROOT
BRANCH   1   2
ATOM      2  C   UNL     1      -2.919 -51.937   4.575  1.00  0.00     0.000 C 
BRANCH   2   3
ATOM      3  C   UNL     1      -1.479 -51.769   5.086  1.00  0.00     0.000 C 
BRANCH   3   4
ATOM      4  C   UNL     1      -1.419 -51.278   6.540  1.00  0.00     0.006 C 
BRANCH   4   5
ATOM      5  C   UNL     1      -2.802 -50.841   7.029  1.00  0.00     0.053 C 
BRANCH   5   6
ATOM      6  C   UNL     1      -3.055 -51.351   8.413  1.00  0.00     0.041 C 
ATOM      7  O   UNL     1      -4.167 -51.151   8.968  1.00  0.00    -0.550 OA
ATOM      8  O   UNL     1      -2.079 -52.090   9.069  1.00  0.00    -0.550 OA
ENDBRANCH   5   6
ENDBRANCH   4   5
ENDBRANCH   3   4
ENDBRANCH   2   3
ENDBRANCH   1   2
BRANCH   1   9
ATOM      9  C   UNL     1      -2.172 -50.953   2.368  1.00  0.00     0.000 C 
BRANCH   9  10
ATOM     10  C   UNL     1      -1.565 -51.398   1.028  1.00  0.00    -0.000 C 
BRANCH  10  11
ATOM     11  C   UNL     1      -2.504 -51.137  -0.162  1.00  0.00    -0.000 C 
BRANCH  11  12
ATOM     12  C   UNL     1      -3.898 -50.663   0.279  1.00  0.00    -0.000 C 
BRANCH  12  13
ATOM     13  C   UNL     1      -5.024 -51.573  -0.235  1.00  0.00    -0.003 C 
ATOM     14  C   UNL     1      -6.152 -51.681   0.788  1.00  0.00     0.004 C 
ENDBRANCH  12  13
ENDBRANCH  11  12
ENDBRANCH  10  11
ENDBRANCH   9  10
ENDBRANCH   1   9
TORSDOF 10
ENDMDL
MODEL 5
REMARK VINA RESULT:    -3.275      2.453      5.198
REMARK INTER + INTRA:          -5.861
REMARK INTER:                  -5.172
REMARK INTRA:                  -0.689
REMARK UNBOUND:                -0.671
REMARK SMILES CCCCCCCCCCCC(=O)[O-]
REMARK SMILES IDX 7 1 8 2 9 3 10 4 11 5 12 6 13 7 14 8 6 9 5 10 4 11 3 12 2 13
REMARK SMILES IDX 1 14
REMARK H PARENT
REMARK Flexibility Score: inf
ROOT
ATOM      1  C   UNL     1      -2.848 -50.708   1.105  1.00  0.00     0.000 C 
ENDROOT
BRANCH   1   2
ATOM      2  C   UNL     1      -3.832 -51.861   1.350  1.00  0.00     0.000 C 
BRANCH   2   3
ATOM      3  C   UNL     1      -5.264 -51.523   0.903  1.00  0.00     0.000 C 
BRANCH   3   4
ATOM      4  C   UNL     1      -6.332 -52.123   1.829  1.00  0.00     0.006 C 
BRANCH   4   5
ATOM      5  C   UNL     1      -6.025 -51.809   3.296  1.00  0.00     0.053 C 
BRANCH   5   6
ATOM      6  C   UNL     1      -7.271 -51.406   4.018  1.00  0.00     0.041 C 
ATOM      7  O   UNL     1      -8.274 -51.001   3.374  1.00  0.00    -0.550 OA
ATOM      8  O   UNL     1      -7.342 -51.525   5.401  1.00  0.00    -0.550 OA
ENDBRANCH   5   6
ENDBRANCH   4   5
ENDBRANCH   3   4
ENDBRANCH   2   3
ENDBRANCH   1   2
BRANCH   1   9
ATOM      9  C   UNL     1      -1.633 -50.817   2.040  1.00  0.00     0.000 C 
BRANCH   9  10
ATOM     10  C   UNL     1      -1.666 -52.079   2.916  1.00  0.00    -0.000 C 
BRANCH  10  11
ATOM     11  C   UNL     1      -1.244 -51.801   4.369  1.00  0.00    -0.000 C 
BRANCH  11  12
ATOM     12  C   UNL     1      -2.430 -51.839   5.345  1.00  0.00    -0.000 C 
BRANCH  12  13
ATOM     13  C   UNL     1      -1.991 -51.762   6.816  1.00  0.00    -0.003 C 
ATOM     14  C   UNL     1      -2.973 -50.933   7.639  1.00  0.00     0.004 C 
ENDBRANCH  12  13
ENDBRANCH  11  12
ENDBRANCH  10  11
ENDBRANCH   9  10
ENDBRANCH   1   9
TORSDOF 10
ENDMDL
MODEL 6
REMARK VINA RESULT:    -3.261      2.857      5.919
REMARK INTER + INTRA:          -5.838
REMARK INTER:                  -5.135
REMARK INTRA:                  -0.702
REMARK UNBOUND:                -0.671
REMARK SMILES CCCCCCCCCCCC(=O)[O-]
REMARK SMILES IDX 7 1 8 2 9 3 10 4 11 5 12 6 13 7 14 8 6 9 5 10 4 11 3 12 2 13
REMARK SMILES IDX 1 14
REMARK H PARENT
REMARK Flexibility Score: inf
ROOT
ATOM      1  C   UNL     1      -2.798 -50.619   1.139  1.00  0.00     0.000 C 
ENDROOT
BRANCH   1   2
ATOM      2  C   UNL     1      -3.021 -51.844   0.239  1.00  0.00     0.000 C 
BRANCH   2   3
ATOM      3  C   UNL     1      -4.499 -52.048  -0.131  1.00  0.00     0.000 C 
BRANCH   3   4
ATOM      4  C   UNL     1      -5.446 -51.797   1.051  1.00  0.00     0.006 C 
BRANCH   4   5
ATOM      5  C   UNL     1      -6.910 -51.868   0.606  1.00  0.00     0.053 C 
BRANCH   5   6
ATOM      6  C   UNL     1      -7.820 -51.491   1.732  1.00  0.00     0.041 C 
ATOM      7  O   UNL     1      -7.503 -51.759   2.920  1.00  0.00    -0.550 OA
ATOM      8  O   UNL     1      -8.995 -50.797   1.471  1.00  0.00    -0.550 OA
ENDBRANCH   5   6
ENDBRANCH   4   5
ENDBRANCH   3   4
ENDBRANCH   2   3
ENDBRANCH   1   2
BRANCH   1   9
ATOM      9  C   UNL     1      -1.813 -50.944   2.272  1.00  0.00     0.000 C 
BRANCH   9  10
ATOM     10  C   UNL     1      -2.351 -52.005   3.245  1.00  0.00    -0.000 C 
BRANCH  10  11
ATOM     11  C   UNL     1      -3.553 -51.501   4.063  1.00  0.00    -0.000 C 
BRANCH  11  12
ATOM     12  C   UNL     1      -3.522 -51.991   5.519  1.00  0.00    -0.000 C 
BRANCH  12  13
ATOM     13  C   UNL     1      -2.431 -51.301   6.353  1.00  0.00    -0.003 C 
ATOM     14  C   UNL     1      -2.936 -50.978   7.757  1.00  0.00     0.004 C 
ENDBRANCH  12  13
ENDBRANCH  11  12
ENDBRANCH  10  11
ENDBRANCH   9  10
ENDBRANCH   1   9
TORSDOF 10
ENDMDL
MODEL 7
REMARK VINA RESULT:    -3.249      3.265      6.625
REMARK INTER + INTRA:          -5.820
REMARK INTER:                  -5.289
REMARK INTRA:                  -0.531
REMARK UNBOUND:                -0.671
REMARK SMILES CCCCCCCCCCCC(=O)[O-]
REMARK SMILES IDX 7 1 8 2 9 3 10 4 11 5 12 6 13 7 14 8 6 9 5 10 4 11 3 12 2 13
REMARK SMILES IDX 1 14
REMARK H PARENT
REMARK Flexibility Score: inf
ROOT
ATOM      1  C   UNL     1      -3.150 -51.779   4.098  1.00  0.00     0.000 C 
ENDROOT
BRANCH   1   2
ATOM      2  C   UNL     1      -1.703 -51.653   3.598  1.00  0.00     0.000 C 
BRANCH   2   3
ATOM      3  C   UNL     1      -1.608 -50.970   2.225  1.00  0.00     0.000 C 
BRANCH   3   4
ATOM      4  C   UNL     1      -2.466 -51.662   1.156  1.00  0.00     0.006 C 
BRANCH   4   5
ATOM      5  C   UNL     1      -3.468 -50.683   0.537  1.00  0.00     0.053 C 
BRANCH   5   6
ATOM      6  C   UNL     1      -4.828 -51.301   0.465  1.00  0.00     0.041 C 
ATOM      7  O   UNL     1      -5.332 -51.846   1.482  1.00  0.00    -0.550 OA
ATOM      8  O   UNL     1      -5.561 -51.230  -0.713  1.00  0.00    -0.550 OA
ENDBRANCH   5   6
ENDBRANCH   4   5
ENDBRANCH   3   4
ENDBRANCH   2   3
ENDBRANCH   1   2
BRANCH   1   9
ATOM      9  C   UNL     1      -3.185 -52.106   5.599  1.00  0.00     0.000 C 
BRANCH   9  10
ATOM     10  C   UNL     1      -2.230 -51.229   6.423  1.00  0.00    -0.000 C 
BRANCH  10  11
ATOM     11  C   UNL     1      -2.598 -51.196   7.917  1.00  0.00    -0.000 C 
BRANCH  11  12
ATOM     12  C   UNL     1      -4.075 -51.539   8.168  1.00  0.00    -0.000 C 
BRANCH  12  13
ATOM     13  C   UNL     1      -4.690 -50.710   9.306  1.00  0.00    -0.003 C 
ATOM     14  C   UNL     1      -6.212 -50.826   9.308  1.00  0.00     0.004 C 
ENDBRANCH  12  13
ENDBRANCH  11  12
ENDBRANCH  10  11
ENDBRANCH   9  10
ENDBRANCH   1   9
TORSDOF 10
ENDMDL
MODEL 8
REMARK VINA RESULT:    -3.134      2.751      5.977
REMARK INTER + INTRA:          -5.638
REMARK INTER:                  -4.947
REMARK INTRA:                  -0.690
REMARK UNBOUND:                -0.671
REMARK SMILES CCCCCCCCCCCC(=O)[O-]
REMARK SMILES IDX 7 1 8 2 9 3 10 4 11 5 12 6 13 7 14 8 6 9 5 10 4 11 3 12 2 13
REMARK SMILES IDX 1 14
REMARK H PARENT
REMARK Flexibility Score: inf
ROOT
ATOM      1  C   UNL     1      -1.838 -50.986   2.552  1.00  0.00     0.000 C 
ENDROOT
BRANCH   1   2
ATOM      2  C   UNL     1      -1.769 -51.997   1.399  1.00  0.00     0.000 C 
BRANCH   2   3
ATOM      3  C   UNL     1      -2.392 -51.459   0.100  1.00  0.00     0.000 C 
BRANCH   3   4
ATOM      4  C   UNL     1      -3.679 -50.658   0.348  1.00  0.00     0.006 C 
BRANCH   4   5
ATOM      5  C   UNL     1      -4.909 -51.432  -0.136  1.00  0.00     0.053 C 
BRANCH   5   6
ATOM      6  C   UNL     1      -5.806 -51.764   1.014  1.00  0.00     0.041 C 
ATOM      7  O   UNL     1      -7.035 -51.963   0.822  1.00  0.00    -0.550 OA
ATOM      8  O   UNL     1      -5.276 -51.902   2.291  1.00  0.00    -0.550 OA
ENDBRANCH   5   6
ENDBRANCH   4   5
ENDBRANCH   3   4
ENDBRANCH   2   3
ENDBRANCH   1   2
BRANCH   1   9
ATOM      9  C   UNL     1      -0.903 -51.399   3.700  1.00  0.00     0.000 C 
BRANCH   9  10
ATOM     10  C   UNL     1      -1.640 -52.125   4.837  1.00  0.00    -0.000 C 
BRANCH  10  11
ATOM     11  C   UNL     1      -3.110 -51.688   4.962  1.00  0.00    -0.000 C 
BRANCH  11  12
ATOM     12  C   UNL     1      -3.650 -51.840   6.393  1.00  0.00    -0.000 C 
BRANCH  12  13
ATOM     13  C   UNL     1      -2.685 -51.287   7.453  1.00  0.00    -0.003 C 
ATOM     14  C   UNL     1      -3.203 -51.561   8.862  1.00  0.00     0.004 C 
ENDBRANCH  12  13
ENDBRANCH  11  12
ENDBRANCH  10  11
ENDBRANCH   9  10
ENDBRANCH   1   9
TORSDOF 10
ENDMDL
