MODEL 1
REMARK VINA RESULT:    -3.565      0.000      0.000
REMARK INTER + INTRA:         -10.628
REMARK INTER:                  -8.151
REMARK INTRA:                  -2.476
REMARK UNBOUND:                -2.476
REMARK SMILES CCCCCCCCCCCCCCCCCCCCCCCC(=O)[O-]
REMARK SMILES IDX 13 1 14 2 15 3 16 4 17 5 18 6 19 7 20 8 21 9 22 10 23 11
REMARK SMILES IDX 24 12 25 13 26 14 12 15 11 16 10 17 9 18 8 19 7 20 6 21 5 22
REMARK SMILES IDX 4 23 3 24 2 25 1 26
REMARK H PARENT
REMARK Flexibility Score: inf
ROOT
ATOM      1  C   UNL     1       4.106   7.145  -1.835  1.00  0.00     0.000 C 
ENDROOT
BRANCH   1   2
ATOM      2  C   UNL     1       4.865   6.055  -2.606  1.00  0.00     0.000 C 
BRANCH   2   3
ATOM      3  C   UNL     1       6.161   6.570  -3.256  1.00  0.00     0.000 C 
BRANCH   3   4
ATOM      4  C   UNL     1       7.265   5.509  -3.448  1.00  0.00     0.000 C 
BRANCH   4   5
ATOM      5  C   UNL     1       6.775   4.048  -3.487  1.00  0.00     0.000 C 
BRANCH   5   6
ATOM      6  C   UNL     1       7.140   3.276  -4.767  1.00  0.00     0.000 C 
BRANCH   6   7
ATOM      7  C   UNL     1       7.158   1.753  -4.564  1.00  0.00     0.000 C 
BRANCH   7   8
ATOM      8  C   UNL     1       5.925   1.068  -5.196  1.00  0.00     0.000 C 
BRANCH   8   9
ATOM      9  C   UNL     1       5.508  -0.228  -4.480  1.00  0.00     0.000 C 
BRANCH   9  10
ATOM     10  C   UNL     1       4.875  -1.294  -5.396  1.00  0.00     0.006 C 
BRANCH  10  11
ATOM     11  C   UNL     1       4.430  -2.569  -4.654  1.00  0.00     0.053 C 
BRANCH  11  12
ATOM     12  C   UNL     1       3.142  -2.383  -3.912  1.00  0.00     0.041 C 
ATOM     13  O   UNL     1       3.133  -1.831  -2.781  1.00  0.00    -0.550 OA
ATOM     14  O   UNL     1       1.945  -2.789  -4.488  1.00  0.00    -0.550 OA
ENDBRANCH  11  12
ENDBRANCH  10  11
ENDBRANCH   9  10
ENDBRANCH   8   9
ENDBRANCH   7   8
ENDBRANCH   6   7
ENDBRANCH   5   6
ENDBRANCH   4   5
ENDBRANCH   3   4
ENDBRANCH   2   3
ENDBRANCH   1   2
BRANCH   1  15
ATOM     15  C   UNL     1       5.073   8.007  -1.017  1.00  0.00     0.000 C 
BRANCH  15  16
ATOM     16  C   UNL     1       5.267   7.434   0.392  1.00  0.00     0.000 C 
BRANCH  16  17
ATOM     17  C   UNL     1       6.753   7.164   0.674  1.00  0.00     0.000 C 
BRANCH  17  18
ATOM     18  C   UNL     1       7.140   5.695   0.439  1.00  0.00    -0.000 C 
BRANCH  18  19
ATOM     19  C   UNL     1       8.614   5.530   0.041  1.00  0.00    -0.000 C 
BRANCH  19  20
ATOM     20  C   UNL     1       9.400   4.806   1.145  1.00  0.00    -0.000 C 
BRANCH  20  21
ATOM     21  C   UNL     1       8.541   3.802   1.935  1.00  0.00    -0.000 C 
BRANCH  21  22
ATOM     22  C   UNL     1       9.096   3.401   3.319  1.00  0.00    -0.000 C 
BRANCH  22  23
ATOM     23  C   UNL     1       9.310   4.567   4.305  1.00  0.00    -0.000 C 
BRANCH  23  24
ATOM     24  C   UNL     1       8.002   5.112   4.921  1.00  0.00    -0.000 C 
BRANCH  24  25
ATOM     25  C   UNL     1       7.517   6.419   4.273  1.00  0.00    -0.003 C 
ATOM     26  C   UNL     1       8.665   7.339   3.861  1.00  0.00     0.004 C 
ENDBRANCH  24  25
ENDBRANCH  23  24
ENDBRANCH  22  23
ENDBRANCH  21  22
ENDBRANCH  20  21
ENDBRANCH  19  20
ENDBRANCH  18  19
ENDBRANCH  17  18
ENDBRANCH  16  17
ENDBRANCH  15  16
ENDBRANCH   1  15
TORSDOF 22
ENDMDL
MODEL 2
REMARK VINA RESULT:    -3.510      1.328      3.517
REMARK INTER + INTRA:         -10.500
REMARK INTER:                  -8.011
REMARK INTRA:                  -2.489
REMARK UNBOUND:                -2.476
REMARK SMILES CCCCCCCCCCCCCCCCCCCCCCCC(=O)[O-]
REMARK SMILES IDX 13 1 14 2 15 3 16 4 17 5 18 6 19 7 20 8 21 9 22 10 23 11
REMARK SMILES IDX 24 12 25 13 26 14 12 15 11 16 10 17 9 18 8 19 7 20 6 21 5 22
REMARK SMILES IDX 4 23 3 24 2 25 1 26
REMARK H PARENT
REMARK Flexibility Score: inf
ROOT
ATOM      1  C   UNL     1       8.278   5.843  -3.462  1.00  0.00     0.000 C 
ENDROOT
BRANCH   1   2
ATOM      2  C   UNL     1       8.442   5.105  -2.124  1.00  0.00     0.000 C 
BRANCH   2   3
ATOM      3  C   UNL     1       9.234   3.792  -2.255  1.00  0.00     0.000 C 
BRANCH   3   4
ATOM      4  C   UNL     1       9.216   3.153  -3.659  1.00  0.00     0.000 C 
BRANCH   4   5
ATOM      5  C   UNL     1       8.226   1.985  -3.839  1.00  0.00     0.000 C 
BRANCH   5   6
ATOM      6  C   UNL     1       6.896   2.361  -4.515  1.00  0.00     0.000 C 
BRANCH   6   7
ATOM      7  C   UNL     1       6.019   1.141  -4.834  1.00  0.00     0.000 C 
BRANCH   7   8
ATOM      8  C   UNL     1       6.133   0.714  -6.314  1.00  0.00     0.000 C 
BRANCH   8   9
ATOM      9  C   UNL     1       5.273  -0.511  -6.669  1.00  0.00     0.000 C 
BRANCH   9  10
ATOM     10  C   UNL     1       4.622  -1.212  -5.460  1.00  0.00     0.006 C 
BRANCH  10  11
ATOM     11  C   UNL     1       3.405  -2.083  -5.826  1.00  0.00     0.053 C 
BRANCH  11  12
ATOM     12  C   UNL     1       2.840  -2.810  -4.644  1.00  0.00     0.041 C 
ATOM     13  O   UNL     1       2.212  -2.183  -3.751  1.00  0.00    -0.550 OA
ATOM     14  O   UNL     1       2.978  -4.189  -4.546  1.00  0.00    -0.550 OA
ENDBRANCH  11  12
ENDBRANCH  10  11
ENDBRANCH   9  10
ENDBRANCH   8   9
ENDBRANCH   7   8
ENDBRANCH   6   7
ENDBRANCH   5   6
ENDBRANCH   4   5
ENDBRANCH   3   4
ENDBRANCH   2   3
ENDBRANCH   1   2
BRANCH   1  15
ATOM     15  C   UNL     1       6.808   6.197  -3.711  1.00  0.00     0.000 C 
BRANCH  15  16
ATOM     16  C   UNL     1       5.878   5.321  -2.863  1.00  0.00     0.000 C 
BRANCH  16  17
ATOM     17  C   UNL     1       4.533   6.025  -2.621  1.00  0.00     0.000 C 
BRANCH  17  18
ATOM     18  C   UNL     1       4.648   7.556  -2.694  1.00  0.00    -0.000 C 
BRANCH  18  19
ATOM     19  C   UNL     1       3.940   8.256  -1.524  1.00  0.00    -0.000 C 
BRANCH  19  20
ATOM     20  C   UNL     1       4.410   7.682  -0.179  1.00  0.00    -0.000 C 
BRANCH  20  21
ATOM     21  C   UNL     1       5.904   7.933   0.093  1.00  0.00    -0.000 C 
BRANCH  21  22
ATOM     22  C   UNL     1       6.684   6.731   0.671  1.00  0.00    -0.000 C 
BRANCH  22  23
ATOM     23  C   UNL     1       7.685   7.075   1.792  1.00  0.00    -0.000 C 
BRANCH  23  24
ATOM     24  C   UNL     1       8.270   5.837   2.508  1.00  0.00    -0.000 C 
BRANCH  24  25
ATOM     25  C   UNL     1       8.355   4.592   1.610  1.00  0.00    -0.003 C 
ATOM     26  C   UNL     1       9.012   3.402   2.306  1.00  0.00     0.004 C 
ENDBRANCH  24  25
ENDBRANCH  23  24
ENDBRANCH  22  23
ENDBRANCH  21  22
ENDBRANCH  20  21
ENDBRANCH  19  20
ENDBRANCH  18  19
ENDBRANCH  17  18
ENDBRANCH  16  17
ENDBRANCH  15  16
ENDBRANCH   1  15
TORSDOF 22
ENDMDL
MODEL 3
REMARK VINA RESULT:    -3.465      6.359      9.066
REMARK INTER + INTRA:         -10.399
REMARK INTER:                  -7.116
REMARK INTRA:                  -3.283
REMARK UNBOUND:                -2.476
REMARK SMILES CCCCCCCCCCCCCCCCCCCCCCCC(=O)[O-]
REMARK SMILES IDX 13 1 14 2 15 3 16 4 17 5 18 6 19 7 20 8 21 9 22 10 23 11
REMARK SMILES IDX 24 12 25 13 26 14 12 15 11 16 10 17 9 18 8 19 7 20 6 21 5 22
REMARK SMILES IDX 4 23 3 24 2 25 1 26
REMARK H PARENT
REMARK Flexibility Score: inf
ROOT
ATOM      1  C   UNL     1       0.724   0.378  -9.526  1.00  0.00     0.000 C 
ENDROOT
BRANCH   1   2
ATOM      2  C   UNL     1      -0.106   0.721  -8.279  1.00  0.00     0.000 C 
BRANCH   2   3
ATOM      3  C   UNL     1      -0.469  -0.516  -7.439  1.00  0.00     0.000 C 
BRANCH   3   4
ATOM      4  C   UNL     1       0.724  -1.406  -7.033  1.00  0.00     0.000 C 
BRANCH   4   5
ATOM      5  C   UNL     1       0.597  -2.894  -7.417  1.00  0.00     0.000 C 
BRANCH   5   6
ATOM      6  C   UNL     1       1.399  -3.314  -8.661  1.00  0.00     0.000 C 
BRANCH   6   7
ATOM      7  C   UNL     1       2.693  -2.506  -8.841  1.00  0.00     0.000 C 
BRANCH   7   8
ATOM      8  C   UNL     1       3.920  -3.235  -8.250  1.00  0.00     0.000 C 
BRANCH   8   9
ATOM      9  C   UNL     1       4.306  -2.748  -6.842  1.00  0.00     0.000 C 
BRANCH   9  10
ATOM     10  C   UNL     1       3.812  -3.648  -5.692  1.00  0.00     0.006 C 
BRANCH  10  11
ATOM     11  C   UNL     1       4.287  -3.194  -4.298  1.00  0.00     0.053 C 
BRANCH  11  12
ATOM     12  C   UNL     1       3.316  -2.266  -3.633  1.00  0.00     0.041 C 
ATOM     13  O   UNL     1       2.090  -2.318  -3.915  1.00  0.00    -0.550 OA
ATOM     14  O   UNL     1       3.762  -1.367  -2.673  1.00  0.00    -0.550 OA
ENDBRANCH  11  12
ENDBRANCH  10  11
ENDBRANCH   9  10
ENDBRANCH   8   9
ENDBRANCH   7   8
ENDBRANCH   6   7
ENDBRANCH   5   6
ENDBRANCH   4   5
ENDBRANCH   3   4
ENDBRANCH   2   3
ENDBRANCH   1   2
BRANCH   1  15
ATOM     15  C   UNL     1       2.040   1.163  -9.536  1.00  0.00     0.000 C 
BRANCH  15  16
ATOM     16  C   UNL     1       1.781   2.674  -9.477  1.00  0.00     0.000 C 
BRANCH  16  17
ATOM     17  C   UNL     1       3.104   3.454  -9.421  1.00  0.00     0.000 C 
BRANCH  17  18
ATOM     18  C   UNL     1       4.333   2.532  -9.436  1.00  0.00    -0.000 C 
BRANCH  18  19
ATOM     19  C   UNL     1       5.552   3.162  -8.744  1.00  0.00    -0.000 C 
BRANCH  19  20
ATOM     20  C   UNL     1       6.312   2.116  -7.916  1.00  0.00    -0.000 C 
BRANCH  20  21
ATOM     21  C   UNL     1       5.456   0.884  -7.571  1.00  0.00    -0.000 C 
BRANCH  21  22
ATOM     22  C   UNL     1       5.444   0.481  -6.080  1.00  0.00    -0.000 C 
BRANCH  22  23
ATOM     23  C   UNL     1       6.334   1.340  -5.160  1.00  0.00    -0.000 C 
BRANCH  23  24
ATOM     24  C   UNL     1       7.329   0.519  -4.308  1.00  0.00    -0.000 C 
BRANCH  24  25
ATOM     25  C   UNL     1       7.406  -0.961  -4.715  1.00  0.00    -0.003 C 
ATOM     26  C   UNL     1       7.612  -1.894  -3.522  1.00  0.00     0.004 C 
ENDBRANCH  24  25
ENDBRANCH  23  24
ENDBRANCH  22  23
ENDBRANCH  21  22
ENDBRANCH  20  21
ENDBRANCH  19  20
ENDBRANCH  18  19
ENDBRANCH  17  18
ENDBRANCH  16  17
ENDBRANCH  15  16
ENDBRANCH   1  15
TORSDOF 22
ENDMDL
MODEL 4
REMARK VINA RESULT:    -3.451      3.529      6.376
REMARK INTER + INTRA:         -10.367
REMARK INTER:                  -6.951
REMARK INTRA:                  -3.416
REMARK UNBOUND:                -2.476
REMARK SMILES CCCCCCCCCCCCCCCCCCCCCCCC(=O)[O-]
REMARK SMILES IDX 13 1 14 2 15 3 16 4 17 5 18 6 19 7 20 8 21 9 22 10 23 11
REMARK SMILES IDX 24 12 25 13 26 14 12 15 11 16 10 17 9 18 8 19 7 20 6 21 5 22
REMARK SMILES IDX 4 23 3 24 2 25 1 26
REMARK H PARENT
REMARK Flexibility Score: inf
ROOT
ATOM      1  C   UNL     1       8.549   5.508  -3.313  1.00  0.00     0.000 C 
ENDROOT
BRANCH   1   2
ATOM      2  C   UNL     1       9.466   4.308  -3.596  1.00  0.00     0.000 C 
BRANCH   2   3
ATOM      3  C   UNL     1       9.186   3.106  -2.677  1.00  0.00     0.000 C 
BRANCH   3   4
ATOM      4  C   UNL     1       9.166   1.734  -3.381  1.00  0.00     0.000 C 
BRANCH   4   5
ATOM      5  C   UNL     1       8.288   1.655  -4.647  1.00  0.00     0.000 C 
BRANCH   5   6
ATOM      6  C   UNL     1       6.779   1.824  -4.400  1.00  0.00     0.000 C 
BRANCH   6   7
ATOM      7  C   UNL     1       6.022   0.488  -4.372  1.00  0.00     0.000 C 
BRANCH   7   8
ATOM      8  C   UNL     1       5.421   0.131  -5.750  1.00  0.00     0.000 C 
BRANCH   8   9
ATOM      9  C   UNL     1       4.594  -1.167  -5.742  1.00  0.00     0.000 C 
BRANCH   9  10
ATOM     10  C   UNL     1       5.300  -2.376  -5.096  1.00  0.00     0.006 C 
BRANCH  10  11
ATOM     11  C   UNL     1       4.467  -3.072  -4.003  1.00  0.00     0.053 C 
BRANCH  11  12
ATOM     12  C   UNL     1       3.372  -2.199  -3.469  1.00  0.00     0.041 C 
ATOM     13  O   UNL     1       2.206  -2.282  -3.936  1.00  0.00    -0.550 OA
ATOM     14  O   UNL     1       3.634  -1.317  -2.428  1.00  0.00    -0.550 OA
ENDBRANCH  11  12
ENDBRANCH  10  11
ENDBRANCH   9  10
ENDBRANCH   8   9
ENDBRANCH   7   8
ENDBRANCH   6   7
ENDBRANCH   5   6
ENDBRANCH   4   5
ENDBRANCH   3   4
ENDBRANCH   2   3
ENDBRANCH   1   2
BRANCH   1  15
ATOM     15  C   UNL     1       7.421   5.115  -2.352  1.00  0.00     0.000 C 
BRANCH  15  16
ATOM     16  C   UNL     1       6.066   5.095  -3.070  1.00  0.00     0.000 C 
BRANCH  16  17
ATOM     17  C   UNL     1       5.016   5.891  -2.280  1.00  0.00     0.000 C 
BRANCH  17  18
ATOM     18  C   UNL     1       4.432   7.061  -3.087  1.00  0.00    -0.000 C 
BRANCH  18  19
ATOM     19  C   UNL     1       5.504   8.081  -3.503  1.00  0.00    -0.000 C 
BRANCH  19  20
ATOM     20  C   UNL     1       5.642   8.135  -5.032  1.00  0.00    -0.000 C 
BRANCH  20  21
ATOM     21  C   UNL     1       7.097   8.329  -5.498  1.00  0.00    -0.000 C 
BRANCH  21  22
ATOM     22  C   UNL     1       7.667   7.197  -6.380  1.00  0.00    -0.000 C 
BRANCH  22  23
ATOM     23  C   UNL     1       6.721   6.001  -6.607  1.00  0.00    -0.000 C 
BRANCH  23  24
ATOM     24  C   UNL     1       7.452   4.650  -6.779  1.00  0.00    -0.000 C 
BRANCH  24  25
ATOM     25  C   UNL     1       6.705   3.660  -7.688  1.00  0.00    -0.003 C 
ATOM     26  C   UNL     1       7.581   2.494  -8.141  1.00  0.00     0.004 C 
ENDBRANCH  24  25
ENDBRANCH  23  24
ENDBRANCH  22  23
ENDBRANCH  21  22
ENDBRANCH  20  21
ENDBRANCH  19  20
ENDBRANCH  18  19
ENDBRANCH  17  18
ENDBRANCH  16  17
ENDBRANCH  15  16
ENDBRANCH   1  15
TORSDOF 22
ENDMDL
MODEL 5
REMARK VINA RESULT:    -3.445      5.027      7.962
REMARK INTER + INTRA:         -10.351
REMARK INTER:                  -6.613
REMARK INTRA:                  -3.738
REMARK UNBOUND:                -2.476
REMARK SMILES CCCCCCCCCCCCCCCCCCCCCCCC(=O)[O-]
REMARK SMILES IDX 13 1 14 2 15 3 16 4 17 5 18 6 19 7 20 8 21 9 22 10 23 11
REMARK SMILES IDX 24 12 25 13 26 14 12 15 11 16 10 17 9 18 8 19 7 20 6 21 5 22
REMARK SMILES IDX 4 23 3 24 2 25 1 26
REMARK H PARENT
REMARK Flexibility Score: inf
ROOT
ATOM      1  C   UNL     1       5.840  -0.669  -6.595  1.00  0.00     0.000 C 
ENDROOT
BRANCH   1   2
ATOM      2  C   UNL     1       5.636   0.491  -5.610  1.00  0.00     0.000 C 
BRANCH   2   3
ATOM      3  C   UNL     1       5.507   0.024  -4.149  1.00  0.00     0.000 C 
BRANCH   3   4
ATOM      4  C   UNL     1       6.361  -1.206  -3.777  1.00  0.00     0.000 C 
BRANCH   4   5
ATOM      5  C   UNL     1       5.575  -2.408  -3.214  1.00  0.00     0.000 C 
BRANCH   5   6
ATOM      6  C   UNL     1       5.200  -3.479  -4.253  1.00  0.00     0.000 C 
BRANCH   6   7
ATOM      7  C   UNL     1       3.684  -3.707  -4.359  1.00  0.00     0.000 C 
BRANCH   7   8
ATOM      8  C   UNL     1       2.922  -2.402  -4.682  1.00  0.00     0.000 C 
BRANCH   8   9
ATOM      9  C   UNL     1       2.692  -2.181  -6.187  1.00  0.00     0.000 C 
BRANCH   9  10
ATOM     10  C   UNL     1       1.242  -2.412  -6.657  1.00  0.00     0.006 C 
BRANCH  10  11
ATOM     11  C   UNL     1       0.796  -1.467  -7.789  1.00  0.00     0.053 C 
BRANCH  11  12
ATOM     12  C   UNL     1      -0.356  -0.595  -7.392  1.00  0.00     0.041 C 
ATOM     13  O   UNL     1      -0.833  -0.660  -6.229  1.00  0.00    -0.550 OA
ATOM     14  O   UNL     1      -0.880   0.317  -8.299  1.00  0.00    -0.550 OA
ENDBRANCH  11  12
ENDBRANCH  10  11
ENDBRANCH   9  10
ENDBRANCH   8   9
ENDBRANCH   7   8
ENDBRANCH   6   7
ENDBRANCH   5   6
ENDBRANCH   4   5
ENDBRANCH   3   4
ENDBRANCH   2   3
ENDBRANCH   1   2
BRANCH   1  15
ATOM     15  C   UNL     1       5.754  -0.174  -8.043  1.00  0.00     0.000 C 
BRANCH  15  16
ATOM     16  C   UNL     1       4.915   1.106  -8.140  1.00  0.00     0.000 C 
BRANCH  16  17
ATOM     17  C   UNL     1       5.475   2.048  -9.217  1.00  0.00     0.000 C 
BRANCH  17  18
ATOM     18  C   UNL     1       5.751   3.461  -8.678  1.00  0.00    -0.000 C 
BRANCH  18  19
ATOM     19  C   UNL     1       6.704   3.456  -7.473  1.00  0.00    -0.000 C 
BRANCH  19  20
ATOM     20  C   UNL     1       8.095   3.968  -7.874  1.00  0.00    -0.000 C 
BRANCH  20  21
ATOM     21  C   UNL     1       9.234   3.040  -7.415  1.00  0.00    -0.000 C 
BRANCH  21  22
ATOM     22  C   UNL     1       8.791   1.786  -6.629  1.00  0.00    -0.000 C 
BRANCH  22  23
ATOM     23  C   UNL     1       9.582   1.507  -5.336  1.00  0.00    -0.000 C 
BRANCH  23  24
ATOM     24  C   UNL     1       8.755   1.695  -4.044  1.00  0.00    -0.000 C 
BRANCH  24  25
ATOM     25  C   UNL     1       8.462   3.167  -3.713  1.00  0.00    -0.003 C 
ATOM     26  C   UNL     1       6.989   3.533  -3.885  1.00  0.00     0.004 C 
ENDBRANCH  24  25
ENDBRANCH  23  24
ENDBRANCH  22  23
ENDBRANCH  21  22
ENDBRANCH  20  21
ENDBRANCH  19  20
ENDBRANCH  18  19
ENDBRANCH  17  18
ENDBRANCH  16  17
ENDBRANCH  15  16
ENDBRANCH   1  15
TORSDOF 22
ENDMDL
MODEL 6
REMARK VINA RESULT:    -3.408      2.042      4.924
REMARK INTER + INTRA:         -10.268
REMARK INTER:                  -7.110
REMARK INTRA:                  -3.158
REMARK UNBOUND:                -2.476
REMARK SMILES CCCCCCCCCCCCCCCCCCCCCCCC(=O)[O-]
REMARK SMILES IDX 13 1 14 2 15 3 16 4 17 5 18 6 19 7 20 8 21 9 22 10 23 11
REMARK SMILES IDX 24 12 25 13 26 14 12 15 11 16 10 17 9 18 8 19 7 20 6 21 5 22
REMARK SMILES IDX 4 23 3 24 2 25 1 26
REMARK H PARENT
REMARK Flexibility Score: inf
ROOT
ATOM      1  C   UNL     1       8.341   4.576  -4.016  1.00  0.00     0.000 C 
ENDROOT
BRANCH   1   2
ATOM      2  C   UNL     1       7.257   3.863  -4.837  1.00  0.00     0.000 C 
BRANCH   2   3
ATOM      3  C   UNL     1       6.693   2.615  -4.135  1.00  0.00     0.000 C 
BRANCH   3   4
ATOM      4  C   UNL     1       7.332   1.278  -4.563  1.00  0.00     0.000 C 
BRANCH   4   5
ATOM      5  C   UNL     1       6.566   0.500  -5.652  1.00  0.00     0.000 C 
BRANCH   5   6
ATOM      6  C   UNL     1       5.352  -0.298  -5.145  1.00  0.00     0.000 C 
BRANCH   6   7
ATOM      7  C   UNL     1       5.566  -0.891  -3.745  1.00  0.00     0.000 C 
BRANCH   7   8
ATOM      8  C   UNL     1       6.377  -2.205  -3.787  1.00  0.00     0.000 C 
BRANCH   8   9
ATOM      9  C   UNL     1       5.507  -3.469  -3.675  1.00  0.00     0.000 C 
BRANCH   9  10
ATOM     10  C   UNL     1       4.847  -3.914  -4.995  1.00  0.00     0.006 C 
BRANCH  10  11
ATOM     11  C   UNL     1       3.318  -4.080  -4.903  1.00  0.00     0.053 C 
BRANCH  11  12
ATOM     12  C   UNL     1       2.593  -2.770  -4.937  1.00  0.00     0.041 C 
ATOM     13  O   UNL     1       2.181  -2.241  -3.872  1.00  0.00    -0.550 OA
ATOM     14  O   UNL     1       2.404  -2.113  -6.147  1.00  0.00    -0.550 OA
ENDBRANCH  11  12
ENDBRANCH  10  11
ENDBRANCH   9  10
ENDBRANCH   8   9
ENDBRANCH   7   8
ENDBRANCH   6   7
ENDBRANCH   5   6
ENDBRANCH   4   5
ENDBRANCH   3   4
ENDBRANCH   2   3
ENDBRANCH   1   2
BRANCH   1  15
ATOM     15  C   UNL     1       8.316   6.087  -4.277  1.00  0.00     0.000 C 
BRANCH  15  16
ATOM     16  C   UNL     1       7.164   6.465  -5.215  1.00  0.00     0.000 C 
BRANCH  16  17
ATOM     17  C   UNL     1       6.735   7.924  -4.995  1.00  0.00     0.000 C 
BRANCH  17  18
ATOM     18  C   UNL     1       7.256   8.497  -3.668  1.00  0.00    -0.000 C 
BRANCH  18  19
ATOM     19  C   UNL     1       6.183   9.291  -2.907  1.00  0.00    -0.000 C 
BRANCH  19  20
ATOM     20  C   UNL     1       4.774   8.856  -3.338  1.00  0.00    -0.000 C 
BRANCH  20  21
ATOM     21  C   UNL     1       4.107   7.899  -2.334  1.00  0.00    -0.000 C 
BRANCH  21  22
ATOM     22  C   UNL     1       4.135   6.405  -2.723  1.00  0.00    -0.000 C 
BRANCH  22  23
ATOM     23  C   UNL     1       5.319   5.599  -2.151  1.00  0.00    -0.000 C 
BRANCH  23  24
ATOM     24  C   UNL     1       5.933   6.214  -0.873  1.00  0.00    -0.000 C 
BRANCH  24  25
ATOM     25  C   UNL     1       7.367   5.737  -0.592  1.00  0.00    -0.003 C 
ATOM     26  C   UNL     1       7.671   5.619   0.901  1.00  0.00     0.004 C 
ENDBRANCH  24  25
ENDBRANCH  23  24
ENDBRANCH  22  23
ENDBRANCH  21  22
ENDBRANCH  20  21
ENDBRANCH  19  20
ENDBRANCH  18  19
ENDBRANCH  17  18
ENDBRANCH  16  17
ENDBRANCH  15  16
ENDBRANCH   1  15
TORSDOF 22
ENDMDL
MODEL 7
REMARK VINA RESULT:    -3.394      4.366      8.399
REMARK INTER + INTRA:         -10.235
REMARK INTER:                  -7.211
REMARK INTRA:                  -3.024
REMARK UNBOUND:                -2.476
REMARK SMILES CCCCCCCCCCCCCCCCCCCCCCCC(=O)[O-]
REMARK SMILES IDX 13 1 14 2 15 3 16 4 17 5 18 6 19 7 20 8 21 9 22 10 23 11
REMARK SMILES IDX 24 12 25 13 26 14 12 15 11 16 10 17 9 18 8 19 7 20 6 21 5 22
REMARK SMILES IDX 4 23 3 24 2 25 1 26
REMARK H PARENT
REMARK Flexibility Score: inf
ROOT
ATOM      1  C   UNL     1       5.754   4.850   6.737  1.00  0.00     0.000 C 
ENDROOT
BRANCH   1   2
ATOM      2  C   UNL     1       7.288   4.901   6.803  1.00  0.00     0.000 C 
BRANCH   2   3
ATOM      3  C   UNL     1       7.942   3.513   6.689  1.00  0.00     0.000 C 
BRANCH   3   4
ATOM      4  C   UNL     1       9.047   3.394   5.618  1.00  0.00     0.000 C 
BRANCH   4   5
ATOM      5  C   UNL     1       8.732   4.070   4.269  1.00  0.00     0.000 C 
BRANCH   5   6
ATOM      6  C   UNL     1       9.662   5.238   3.896  1.00  0.00     0.000 C 
BRANCH   6   7
ATOM      7  C   UNL     1       9.008   6.244   2.938  1.00  0.00     0.000 C 
BRANCH   7   8
ATOM      8  C   UNL     1       8.013   5.564   1.971  1.00  0.00     0.000 C 
BRANCH   8   9
ATOM      9  C   UNL     1       7.584   6.462   0.798  1.00  0.00     0.000 C 
BRANCH   9  10
ATOM     10  C   UNL     1       6.359   5.954   0.013  1.00  0.00     0.006 C 
BRANCH  10  11
ATOM     11  C   UNL     1       6.135   6.677  -1.329  1.00  0.00     0.053 C 
BRANCH  11  12
ATOM     12  C   UNL     1       5.491   5.797  -2.357  1.00  0.00     0.041 C 
ATOM     13  O   UNL     1       6.104   4.799  -2.816  1.00  0.00    -0.550 OA
ATOM     14  O   UNL     1       4.195   6.062  -2.782  1.00  0.00    -0.550 OA
ENDBRANCH  11  12
ENDBRANCH  10  11
ENDBRANCH   9  10
ENDBRANCH   8   9
ENDBRANCH   7   8
ENDBRANCH   6   7
ENDBRANCH   5   6
ENDBRANCH   4   5
ENDBRANCH   3   4
ENDBRANCH   2   3
ENDBRANCH   1   2
BRANCH   1  15
ATOM     15  C   UNL     1       5.194   6.131   6.109  1.00  0.00     0.000 C 
BRANCH  15  16
ATOM     16  C   UNL     1       6.297   6.928   5.402  1.00  0.00     0.000 C 
BRANCH  16  17
ATOM     17  C   UNL     1       5.726   7.718   4.214  1.00  0.00     0.000 C 
BRANCH  17  18
ATOM     18  C   UNL     1       4.278   8.175   4.452  1.00  0.00    -0.000 C 
BRANCH  18  19
ATOM     19  C   UNL     1       3.583   8.626   3.158  1.00  0.00    -0.000 C 
BRANCH  19  20
ATOM     20  C   UNL     1       4.457   8.320   1.933  1.00  0.00    -0.000 C 
BRANCH  20  21
ATOM     21  C   UNL     1       3.904   8.930   0.632  1.00  0.00    -0.000 C 
BRANCH  21  22
ATOM     22  C   UNL     1       2.878   8.060  -0.125  1.00  0.00    -0.000 C 
BRANCH  22  23
ATOM     23  C   UNL     1       1.560   8.769  -0.495  1.00  0.00    -0.000 C 
BRANCH  23  24
ATOM     24  C   UNL     1       0.431   8.569   0.542  1.00  0.00    -0.000 C 
BRANCH  24  25
ATOM     25  C   UNL     1       0.470   7.197   1.233  1.00  0.00    -0.003 C 
ATOM     26  C   UNL     1      -0.899   6.521   1.289  1.00  0.00     0.004 C 
ENDBRANCH  24  25
ENDBRANCH  23  24
ENDBRANCH  22  23
ENDBRANCH  21  22
ENDBRANCH  20  21
ENDBRANCH  19  20
ENDBRANCH  18  19
ENDBRANCH  17  18
ENDBRANCH  16  17
ENDBRANCH  15  16
ENDBRANCH   1  15
TORSDOF 22
ENDMDL
MODEL 8
REMARK VINA RESULT:    -3.374      7.058     10.557
REMARK INTER + INTRA:         -10.191
REMARK INTER:                  -7.771
REMARK INTRA:                  -2.420
REMARK UNBOUND:                -2.476
REMARK SMILES CCCCCCCCCCCCCCCCCCCCCCCC(=O)[O-]
REMARK SMILES IDX 13 1 14 2 15 3 16 4 17 5 18 6 19 7 20 8 21 9 22 10 23 11
REMARK SMILES IDX 24 12 25 13 26 14 12 15 11 16 10 17 9 18 8 19 7 20 6 21 5 22
REMARK SMILES IDX 4 23 3 24 2 25 1 26
REMARK H PARENT
REMARK Flexibility Score: inf
ROOT
ATOM      1  C   UNL     1       1.877   1.106  -9.616  1.00  0.00     0.000 C 
ENDROOT
BRANCH   1   2
ATOM      2  C   UNL     1       0.589   1.750  -9.082  1.00  0.00     0.000 C 
BRANCH   2   3
ATOM      3  C   UNL     1      -0.461   0.717  -8.638  1.00  0.00     0.000 C 
BRANCH   3   4
ATOM      4  C   UNL     1      -0.045  -0.170  -7.446  1.00  0.00     0.000 C 
BRANCH   4   5
ATOM      5  C   UNL     1      -0.971  -1.369  -7.161  1.00  0.00     0.000 C 
BRANCH   5   6
ATOM      6  C   UNL     1      -2.275  -1.388  -7.977  1.00  0.00     0.000 C 
BRANCH   6   7
ATOM      7  C   UNL     1      -3.464  -0.775  -7.223  1.00  0.00     0.000 C 
BRANCH   7   8
ATOM      8  C   UNL     1      -3.866  -1.615  -5.989  1.00  0.00     0.000 C 
BRANCH   8   9
ATOM      9  C   UNL     1      -5.205  -1.186  -5.363  1.00  0.00     0.000 C 
BRANCH   9  10
ATOM     10  C   UNL     1      -5.359  -1.540  -3.871  1.00  0.00     0.006 C 
BRANCH  10  11
ATOM     11  C   UNL     1      -6.095  -2.870  -3.619  1.00  0.00     0.053 C 
BRANCH  11  12
ATOM     12  C   UNL     1      -5.173  -3.961  -3.164  1.00  0.00     0.041 C 
ATOM     13  O   UNL     1      -4.829  -4.041  -1.956  1.00  0.00    -0.550 OA
ATOM     14  O   UNL     1      -4.722  -4.912  -4.071  1.00  0.00    -0.550 OA
ENDBRANCH  11  12
ENDBRANCH  10  11
ENDBRANCH   9  10
ENDBRANCH   8   9
ENDBRANCH   7   8
ENDBRANCH   6   7
ENDBRANCH   5   6
ENDBRANCH   4   5
ENDBRANCH   3   4
ENDBRANCH   2   3
ENDBRANCH   1   2
BRANCH   1  15
ATOM     15  C   UNL     1       3.087   2.008  -9.350  1.00  0.00     0.000 C 
BRANCH  15  16
ATOM     16  C   UNL     1       4.207   1.236  -8.642  1.00  0.00     0.000 C 
BRANCH  16  17
ATOM     17  C   UNL     1       4.007  -0.280  -8.795  1.00  0.00     0.000 C 
BRANCH  17  18
ATOM     18  C   UNL     1       4.103  -1.025  -7.454  1.00  0.00    -0.000 C 
BRANCH  18  19
ATOM     19  C   UNL     1       3.079  -2.164  -7.338  1.00  0.00    -0.000 C 
BRANCH  19  20
ATOM     20  C   UNL     1       3.353  -3.021  -6.093  1.00  0.00    -0.000 C 
BRANCH  20  21
ATOM     21  C   UNL     1       2.607  -2.521  -4.843  1.00  0.00    -0.000 C 
BRANCH  21  22
ATOM     22  C   UNL     1       3.501  -2.175  -3.632  1.00  0.00    -0.000 C 
BRANCH  22  23
ATOM     23  C   UNL     1       4.971  -2.624  -3.750  1.00  0.00    -0.000 C 
BRANCH  23  24
ATOM     24  C   UNL     1       5.980  -1.454  -3.798  1.00  0.00    -0.000 C 
BRANCH  24  25
ATOM     25  C   UNL     1       5.321  -0.088  -4.049  1.00  0.00    -0.003 C 
ATOM     26  C   UNL     1       6.130   0.795  -4.998  1.00  0.00     0.004 C 
ENDBRANCH  24  25
ENDBRANCH  23  24
ENDBRANCH  22  23
ENDBRANCH  21  22
ENDBRANCH  20  21
ENDBRANCH  19  20
ENDBRANCH  18  19
ENDBRANCH  17  18
ENDBRANCH  16  17
ENDBRANCH  15  16
ENDBRANCH   1  15
TORSDOF 22
ENDMDL
MODEL 9
REMARK VINA RESULT:    -3.365     11.288     14.876
REMARK INTER + INTRA:         -10.168
REMARK INTER:                  -5.911
REMARK INTRA:                  -4.257
REMARK UNBOUND:                -2.476
REMARK SMILES CCCCCCCCCCCCCCCCCCCCCCCC(=O)[O-]
REMARK SMILES IDX 13 1 14 2 15 3 16 4 17 5 18 6 19 7 20 8 21 9 22 10 23 11
REMARK SMILES IDX 24 12 25 13 26 14 12 15 11 16 10 17 9 18 8 19 7 20 6 21 5 22
REMARK SMILES IDX 4 23 3 24 2 25 1 26
REMARK H PARENT
REMARK Flexibility Score: inf
ROOT
ATOM      1  C   UNL     1      -8.039  -2.908  -4.026  1.00  0.00     0.000 C 
ENDROOT
BRANCH   1   2
ATOM      2  C   UNL     1      -7.208  -1.865  -3.262  1.00  0.00     0.000 C 
BRANCH   2   3
ATOM      3  C   UNL     1      -5.717  -2.234  -3.170  1.00  0.00     0.000 C 
BRANCH   3   4
ATOM      4  C   UNL     1      -4.793  -1.473  -4.144  1.00  0.00     0.000 C 
BRANCH   4   5
ATOM      5  C   UNL     1      -5.399  -1.174  -5.530  1.00  0.00     0.000 C 
BRANCH   5   6
ATOM      6  C   UNL     1      -4.371  -0.936  -6.649  1.00  0.00     0.000 C 
BRANCH   6   7
ATOM      7  C   UNL     1      -4.801   0.161  -7.635  1.00  0.00     0.000 C 
BRANCH   7   8
ATOM      8  C   UNL     1      -4.139  -0.012  -9.021  1.00  0.00     0.000 C 
BRANCH   8   9
ATOM      9  C   UNL     1      -3.132  -1.174  -9.080  1.00  0.00     0.000 C 
BRANCH   9  10
ATOM     10  C   UNL     1      -1.659  -0.759  -8.900  1.00  0.00     0.006 C 
BRANCH  10  11
ATOM     11  C   UNL     1      -0.785  -1.838  -8.232  1.00  0.00     0.053 C 
BRANCH  11  12
ATOM     12  C   UNL     1      -0.201  -1.381  -6.930  1.00  0.00     0.041 C 
ATOM     13  O   UNL     1       0.885  -1.863  -6.514  1.00  0.00    -0.550 OA
ATOM     14  O   UNL     1      -0.842  -0.394  -6.191  1.00  0.00    -0.550 OA
ENDBRANCH  11  12
ENDBRANCH  10  11
ENDBRANCH   9  10
ENDBRANCH   8   9
ENDBRANCH   7   8
ENDBRANCH   6   7
ENDBRANCH   5   6
ENDBRANCH   4   5
ENDBRANCH   3   4
ENDBRANCH   2   3
ENDBRANCH   1   2
BRANCH   1  15
ATOM     15  C   UNL     1      -7.449  -4.311  -3.845  1.00  0.00     0.000 C 
BRANCH  15  16
ATOM     16  C   UNL     1      -7.055  -4.922  -5.195  1.00  0.00     0.000 C 
BRANCH  16  17
ATOM     17  C   UNL     1      -7.529  -4.036  -6.357  1.00  0.00     0.000 C 
BRANCH  17  18
ATOM     18  C   UNL     1      -6.522  -3.996  -7.517  1.00  0.00    -0.000 C 
BRANCH  18  19
ATOM     19  C   UNL     1      -5.376  -5.004  -7.337  1.00  0.00    -0.000 C 
BRANCH  19  20
ATOM     20  C   UNL     1      -4.079  -4.475  -7.966  1.00  0.00    -0.000 C 
BRANCH  20  21
ATOM     21  C   UNL     1      -2.845  -4.690  -7.072  1.00  0.00    -0.000 C 
BRANCH  21  22
ATOM     22  C   UNL     1      -3.004  -4.242  -5.602  1.00  0.00    -0.000 C 
BRANCH  22  23
ATOM     23  C   UNL     1      -3.199  -5.384  -4.585  1.00  0.00    -0.000 C 
BRANCH  23  24
ATOM     24  C   UNL     1      -3.101  -4.930  -3.110  1.00  0.00    -0.000 C 
BRANCH  24  25
ATOM     25  C   UNL     1      -4.249  -5.452  -2.231  1.00  0.00    -0.003 C 
ATOM     26  C   UNL     1      -4.821  -6.778  -2.729  1.00  0.00     0.004 C 
ENDBRANCH  24  25
ENDBRANCH  23  24
ENDBRANCH  22  23
ENDBRANCH  21  22
ENDBRANCH  20  21
ENDBRANCH  19  20
ENDBRANCH  18  19
ENDBRANCH  17  18
ENDBRANCH  16  17
ENDBRANCH  15  16
ENDBRANCH   1  15
TORSDOF 22
ENDMDL
