MODEL 1
REMARK VINA RESULT:    -4.196      0.000      0.000
REMARK INTER + INTRA:         -15.551
REMARK INTER:                 -10.573
REMARK INTRA:                  -4.978
REMARK UNBOUND:                -4.978
REMARK SMILES CCCCCCCCCCCCCCCCCCCCCCCCCCCC(=O)[O-]
REMARK SMILES IDX 15 1 16 2 17 3 18 4 19 5 20 6 21 7 22 8 23 9 24 10 25 11
REMARK SMILES IDX 26 12 27 13 28 14 29 15 30 16 14 17 13 18 12 19 11 20 10 21
REMARK SMILES IDX 9 22 8 23 7 24 6 25 5 26 4 27 3 28 2 29 1 30
REMARK H PARENT
REMARK Flexibility Score: inf
ROOT
ATOM      1  C   UNL     1      97.378  84.459  81.837  1.00  0.00     0.000 C 
ENDROOT
BRANCH   1   2
ATOM      2  C   UNL     1      98.557  83.592  82.308  1.00  0.00     0.000 C 
BRANCH   2   3
ATOM      3  C   UNL     1      99.856  83.887  81.533  1.00  0.00     0.000 C 
BRANCH   3   4
ATOM      4  C   UNL     1     101.142  83.843  82.380  1.00  0.00     0.000 C 
BRANCH   4   5
ATOM      5  C   UNL     1     100.959  84.170  83.876  1.00  0.00     0.000 C 
BRANCH   5   6
ATOM      6  C   UNL     1     101.824  85.331  84.411  1.00  0.00     0.000 C 
BRANCH   6   7
ATOM      7  C   UNL     1     101.984  86.524  83.440  1.00  0.00     0.000 C 
BRANCH   7   8
ATOM      8  C   UNL     1     100.954  87.649  83.656  1.00  0.00     0.000 C 
BRANCH   8   9
ATOM      9  C   UNL     1      99.655  87.502  82.844  1.00  0.00     0.000 C 
BRANCH   9  10
ATOM     10  C   UNL     1      98.359  87.482  83.682  1.00  0.00     0.000 C 
BRANCH  10  11
ATOM     11  C   UNL     1      98.536  87.052  85.151  1.00  0.00     0.000 C 
BRANCH  11  12
ATOM     12  C   UNL     1      98.177  85.586  85.446  1.00  0.00     0.006 C 
BRANCH  12  13
ATOM     13  C   UNL     1      97.893  85.331  86.933  1.00  0.00     0.053 C 
BRANCH  13  14
ATOM     14  C   UNL     1      99.167  85.059  87.670  1.00  0.00     0.041 C 
ATOM     15  O   UNL     1     100.024  84.275  87.183  1.00  0.00    -0.550 OA
ATOM     16  O   UNL     1      99.389  85.635  88.915  1.00  0.00    -0.550 OA
ENDBRANCH  13  14
ENDBRANCH  12  13
ENDBRANCH  11  12
ENDBRANCH  10  11
ENDBRANCH   9  10
ENDBRANCH   8   9
ENDBRANCH   7   8
ENDBRANCH   6   7
ENDBRANCH   5   6
ENDBRANCH   4   5
ENDBRANCH   3   4
ENDBRANCH   2   3
ENDBRANCH   1   2
BRANCH   1  17
ATOM     17  C   UNL     1      97.758  85.429  80.702  1.00  0.00     0.000 C 
BRANCH  17  18
ATOM     18  C   UNL     1      96.575  86.021  79.907  1.00  0.00     0.000 C 
BRANCH  18  19
ATOM     19  C   UNL     1      95.181  85.522  80.330  1.00  0.00     0.000 C 
BRANCH  19  20
ATOM     20  C   UNL     1      94.618  84.446  79.387  1.00  0.00     0.000 C 
BRANCH  20  21
ATOM     21  C   UNL     1      93.500  83.617  80.040  1.00  0.00     0.000 C 
BRANCH  21  22
ATOM     22  C   UNL     1      92.131  84.312  79.985  1.00  0.00    -0.000 C 
BRANCH  22  23
ATOM     23  C   UNL     1      91.692  84.774  81.380  1.00  0.00    -0.000 C 
BRANCH  23  24
ATOM     24  C   UNL     1      91.581  86.305  81.444  1.00  0.00    -0.000 C 
BRANCH  24  25
ATOM     25  C   UNL     1      92.601  86.932  82.407  1.00  0.00    -0.000 C 
BRANCH  25  26
ATOM     26  C   UNL     1      93.028  85.971  83.530  1.00  0.00    -0.000 C 
BRANCH  26  27
ATOM     27  C   UNL     1      94.498  86.151  83.946  1.00  0.00    -0.000 C 
BRANCH  27  28
ATOM     28  C   UNL     1      94.707  86.645  85.390  1.00  0.00    -0.000 C 
BRANCH  28  29
ATOM     29  C   UNL     1      94.246  88.094  85.601  1.00  0.00    -0.003 C 
ATOM     30  C   UNL     1      95.385  89.077  85.344  1.00  0.00     0.004 C 
ENDBRANCH  28  29
ENDBRANCH  27  28
ENDBRANCH  26  27
ENDBRANCH  25  26
ENDBRANCH  24  25
ENDBRANCH  23  24
ENDBRANCH  22  23
ENDBRANCH  21  22
ENDBRANCH  20  21
ENDBRANCH  19  20
ENDBRANCH  18  19
ENDBRANCH  17  18
ENDBRANCH   1  17
TORSDOF 26
ENDMDL
MODEL 2
REMARK VINA RESULT:    -4.187      1.467      3.574
REMARK INTER + INTRA:         -15.530
REMARK INTER:                 -11.376
REMARK INTRA:                  -4.154
REMARK UNBOUND:                -4.978
REMARK SMILES CCCCCCCCCCCCCCCCCCCCCCCCCCCC(=O)[O-]
REMARK SMILES IDX 15 1 16 2 17 3 18 4 19 5 20 6 21 7 22 8 23 9 24 10 25 11
REMARK SMILES IDX 26 12 27 13 28 14 29 15 30 16 14 17 13 18 12 19 11 20 10 21
REMARK SMILES IDX 9 22 8 23 7 24 6 25 5 26 4 27 3 28 2 29 1 30
REMARK H PARENT
REMARK Flexibility Score: inf
ROOT
ATOM      1  C   UNL     1     100.639  83.978  83.917  1.00  0.00     0.000 C 
ENDROOT
BRANCH   1   2
ATOM      2  C   UNL     1     101.411  85.108  84.619  1.00  0.00     0.000 C 
BRANCH   2   3
ATOM      3  C   UNL     1     102.494  85.734  83.720  1.00  0.00     0.000 C 
BRANCH   3   4
ATOM      4  C   UNL     1     102.914  87.165  84.108  1.00  0.00     0.000 C 
BRANCH   4   5
ATOM      5  C   UNL     1     101.851  88.255  83.860  1.00  0.00     0.000 C 
BRANCH   5   6
ATOM      6  C   UNL     1     101.133  88.183  82.497  1.00  0.00     0.000 C 
BRANCH   6   7
ATOM      7  C   UNL     1      99.658  87.724  82.561  1.00  0.00     0.000 C 
BRANCH   7   8
ATOM      8  C   UNL     1      98.927  88.150  83.848  1.00  0.00     0.000 C 
BRANCH   8   9
ATOM      9  C   UNL     1      98.520  86.992  84.776  1.00  0.00     0.000 C 
BRANCH   9  10
ATOM     10  C   UNL     1      97.043  86.557  84.671  1.00  0.00     0.000 C 
BRANCH  10  11
ATOM     11  C   UNL     1      96.753  85.110  85.113  1.00  0.00     0.000 C 
BRANCH  11  12
ATOM     12  C   UNL     1      95.797  84.975  86.310  1.00  0.00     0.006 C 
BRANCH  12  13
ATOM     13  C   UNL     1      95.840  86.191  87.246  1.00  0.00     0.053 C 
BRANCH  13  14
ATOM     14  C   UNL     1      96.673  85.893  88.453  1.00  0.00     0.041 C 
ATOM     15  O   UNL     1      97.925  85.807  88.352  1.00  0.00    -0.550 OA
ATOM     16  O   UNL     1      96.064  85.665  89.681  1.00  0.00    -0.550 OA
ENDBRANCH  13  14
ENDBRANCH  12  13
ENDBRANCH  11  12
ENDBRANCH  10  11
ENDBRANCH   9  10
ENDBRANCH   8   9
ENDBRANCH   7   8
ENDBRANCH   6   7
ENDBRANCH   5   6
ENDBRANCH   4   5
ENDBRANCH   3   4
ENDBRANCH   2   3
ENDBRANCH   1   2
BRANCH   1  17
ATOM     17  C   UNL     1     100.911  83.914  82.402  1.00  0.00     0.000 C 
BRANCH  17  18
ATOM     18  C   UNL     1      99.692  84.190  81.495  1.00  0.00     0.000 C 
BRANCH  18  19
ATOM     19  C   UNL     1      98.401  83.446  81.880  1.00  0.00     0.000 C 
BRANCH  19  20
ATOM     20  C   UNL     1      97.153  84.342  81.823  1.00  0.00     0.000 C 
BRANCH  20  21
ATOM     21  C   UNL     1      97.246  85.412  80.723  1.00  0.00     0.000 C 
BRANCH  21  22
ATOM     22  C   UNL     1      95.997  85.459  79.829  1.00  0.00    -0.000 C 
BRANCH  22  23
ATOM     23  C   UNL     1      94.898  84.537  80.371  1.00  0.00    -0.000 C 
BRANCH  23  24
ATOM     24  C   UNL     1      94.096  83.903  79.223  1.00  0.00    -0.000 C 
BRANCH  24  25
ATOM     25  C   UNL     1      92.666  84.459  79.124  1.00  0.00    -0.000 C 
BRANCH  25  26
ATOM     26  C   UNL     1      92.263  85.285  80.357  1.00  0.00    -0.000 C 
BRANCH  26  27
ATOM     27  C   UNL     1      91.288  84.539  81.285  1.00  0.00    -0.000 C 
BRANCH  27  28
ATOM     28  C   UNL     1      91.340  84.970  82.763  1.00  0.00    -0.000 C 
BRANCH  28  29
ATOM     29  C   UNL     1      92.652  85.675  83.135  1.00  0.00    -0.003 C 
ATOM     30  C   UNL     1      92.704  85.990  84.627  1.00  0.00     0.004 C 
ENDBRANCH  28  29
ENDBRANCH  27  28
ENDBRANCH  26  27
ENDBRANCH  25  26
ENDBRANCH  24  25
ENDBRANCH  23  24
ENDBRANCH  22  23
ENDBRANCH  21  22
ENDBRANCH  20  21
ENDBRANCH  19  20
ENDBRANCH  18  19
ENDBRANCH  17  18
ENDBRANCH   1  17
TORSDOF 26
ENDMDL
MODEL 3
REMARK VINA RESULT:    -4.174      1.290      3.687
REMARK INTER + INTRA:         -15.495
REMARK INTER:                 -10.904
REMARK INTRA:                  -4.591
REMARK UNBOUND:                -4.978
REMARK SMILES CCCCCCCCCCCCCCCCCCCCCCCCCCCC(=O)[O-]
REMARK SMILES IDX 15 1 16 2 17 3 18 4 19 5 20 6 21 7 22 8 23 9 24 10 25 11
REMARK SMILES IDX 26 12 27 13 28 14 29 15 30 16 14 17 13 18 12 19 11 20 10 21
REMARK SMILES IDX 9 22 8 23 7 24 6 25 5 26 4 27 3 28 2 29 1 30
REMARK H PARENT
REMARK Flexibility Score: inf
ROOT
ATOM      1  C   UNL     1      96.521  86.787  80.425  1.00  0.00     0.000 C 
ENDROOT
BRANCH   1   2
ATOM      2  C   UNL     1      97.680  85.829  80.744  1.00  0.00     0.000 C 
BRANCH   2   3
ATOM      3  C   UNL     1      97.200  84.504  81.366  1.00  0.00     0.000 C 
BRANCH   3   4
ATOM      4  C   UNL     1      98.305  83.655  82.024  1.00  0.00     0.000 C 
BRANCH   4   5
ATOM      5  C   UNL     1      99.735  83.920  81.509  1.00  0.00     0.000 C 
BRANCH   5   6
ATOM      6  C   UNL     1     100.853  83.789  82.564  1.00  0.00     0.000 C 
BRANCH   6   7
ATOM      7  C   UNL     1     100.827  84.862  83.677  1.00  0.00     0.000 C 
BRANCH   7   8
ATOM      8  C   UNL     1     100.705  86.305  83.152  1.00  0.00     0.000 C 
BRANCH   8   9
ATOM      9  C   UNL     1      99.516  87.102  83.717  1.00  0.00     0.000 C 
BRANCH   9  10
ATOM     10  C   UNL     1      98.450  86.257  84.446  1.00  0.00     0.000 C 
BRANCH  10  11
ATOM     11  C   UNL     1      98.214  86.632  85.922  1.00  0.00     0.000 C 
BRANCH  11  12
ATOM     12  C   UNL     1      97.888  85.448  86.848  1.00  0.00     0.006 C 
BRANCH  12  13
ATOM     13  C   UNL     1      98.953  85.231  87.932  1.00  0.00     0.053 C 
BRANCH  13  14
ATOM     14  C   UNL     1     100.280  84.930  87.309  1.00  0.00     0.041 C 
ATOM     15  O   UNL     1     101.141  85.840  87.183  1.00  0.00    -0.550 OA
ATOM     16  O   UNL     1     100.550  83.655  86.826  1.00  0.00    -0.550 OA
ENDBRANCH  13  14
ENDBRANCH  12  13
ENDBRANCH  11  12
ENDBRANCH  10  11
ENDBRANCH   9  10
ENDBRANCH   8   9
ENDBRANCH   7   8
ENDBRANCH   6   7
ENDBRANCH   5   6
ENDBRANCH   4   5
ENDBRANCH   3   4
ENDBRANCH   2   3
ENDBRANCH   1   2
BRANCH   1  17
ATOM     17  C   UNL     1      96.546  88.069  81.279  1.00  0.00     0.000 C 
BRANCH  17  18
ATOM     18  C   UNL     1      95.800  87.984  82.628  1.00  0.00     0.000 C 
BRANCH  18  19
ATOM     19  C   UNL     1      94.670  86.940  82.692  1.00  0.00     0.000 C 
BRANCH  19  20
ATOM     20  C   UNL     1      94.836  85.949  83.857  1.00  0.00     0.000 C 
BRANCH  20  21
ATOM     21  C   UNL     1      94.169  86.445  85.151  1.00  0.00     0.000 C 
BRANCH  21  22
ATOM     22  C   UNL     1      92.670  86.735  84.977  1.00  0.00    -0.000 C 
BRANCH  22  23
ATOM     23  C   UNL     1      91.878  85.436  84.785  1.00  0.00    -0.000 C 
BRANCH  23  24
ATOM     24  C   UNL     1      90.459  85.727  84.270  1.00  0.00    -0.000 C 
BRANCH  24  25
ATOM     25  C   UNL     1      90.350  85.616  82.742  1.00  0.00    -0.000 C 
BRANCH  25  26
ATOM     26  C   UNL     1      91.462  84.747  82.128  1.00  0.00    -0.000 C 
BRANCH  26  27
ATOM     27  C   UNL     1      91.054  84.110  80.788  1.00  0.00    -0.000 C 
BRANCH  27  28
ATOM     28  C   UNL     1      91.791  84.667  79.555  1.00  0.00    -0.000 C 
BRANCH  28  29
ATOM     29  C   UNL     1      93.270  84.973  79.828  1.00  0.00    -0.003 C 
ATOM     30  C   UNL     1      94.170  83.866  79.286  1.00  0.00     0.004 C 
ENDBRANCH  28  29
ENDBRANCH  27  28
ENDBRANCH  26  27
ENDBRANCH  25  26
ENDBRANCH  24  25
ENDBRANCH  23  24
ENDBRANCH  22  23
ENDBRANCH  21  22
ENDBRANCH  20  21
ENDBRANCH  19  20
ENDBRANCH  18  19
ENDBRANCH  17  18
ENDBRANCH   1  17
TORSDOF 26
ENDMDL
MODEL 4
REMARK VINA RESULT:    -4.120      2.738      5.413
REMARK INTER + INTRA:         -15.360
REMARK INTER:                 -10.204
REMARK INTRA:                  -5.156
REMARK UNBOUND:                -4.978
REMARK SMILES CCCCCCCCCCCCCCCCCCCCCCCCCCCC(=O)[O-]
REMARK SMILES IDX 15 1 16 2 17 3 18 4 19 5 20 6 21 7 22 8 23 9 24 10 25 11
REMARK SMILES IDX 26 12 27 13 28 14 29 15 30 16 14 17 13 18 12 19 11 20 10 21
REMARK SMILES IDX 9 22 8 23 7 24 6 25 5 26 4 27 3 28 2 29 1 30
REMARK H PARENT
REMARK Flexibility Score: inf
ROOT
ATOM      1  C   UNL     1      98.621  86.869  85.059  1.00  0.00     0.000 C 
ENDROOT
BRANCH   1   2
ATOM      2  C   UNL     1     100.152  87.012  85.019  1.00  0.00     0.000 C 
BRANCH   2   3
ATOM      3  C   UNL     1     100.688  87.252  83.594  1.00  0.00     0.000 C 
BRANCH   3   4
ATOM      4  C   UNL     1     101.299  86.013  82.912  1.00  0.00     0.000 C 
BRANCH   4   5
ATOM      5  C   UNL     1     101.396  84.754  83.796  1.00  0.00     0.000 C 
BRANCH   5   6
ATOM      6  C   UNL     1     100.341  83.664  83.516  1.00  0.00     0.000 C 
BRANCH   6   7
ATOM      7  C   UNL     1      99.706  83.719  82.107  1.00  0.00     0.000 C 
BRANCH   7   8
ATOM      8  C   UNL     1      98.222  83.310  82.073  1.00  0.00     0.000 C 
BRANCH   8   9
ATOM      9  C   UNL     1      97.260  84.402  81.571  1.00  0.00     0.000 C 
BRANCH   9  10
ATOM     10  C   UNL     1      97.848  85.828  81.539  1.00  0.00     0.000 C 
BRANCH  10  11
ATOM     11  C   UNL     1      97.320  86.729  80.407  1.00  0.00     0.000 C 
BRANCH  11  12
ATOM     12  C   UNL     1      96.860  88.128  80.851  1.00  0.00     0.006 C 
BRANCH  12  13
ATOM     13  C   UNL     1      97.969  88.925  81.552  1.00  0.00     0.053 C 
BRANCH  13  14
ATOM     14  C   UNL     1      98.761  89.709  80.553  1.00  0.00     0.041 C 
ATOM     15  O   UNL     1      99.806  90.314  80.909  1.00  0.00    -0.550 OA
ATOM     16  O   UNL     1      98.320  89.811  79.239  1.00  0.00    -0.550 OA
ENDBRANCH  13  14
ENDBRANCH  12  13
ENDBRANCH  11  12
ENDBRANCH  10  11
ENDBRANCH   9  10
ENDBRANCH   8   9
ENDBRANCH   7   8
ENDBRANCH   6   7
ENDBRANCH   5   6
ENDBRANCH   4   5
ENDBRANCH   3   4
ENDBRANCH   2   3
ENDBRANCH   1   2
BRANCH   1  17
ATOM     17  C   UNL     1      98.158  85.524  85.650  1.00  0.00     0.000 C 
BRANCH  17  18
ATOM     18  C   UNL     1      96.783  85.020  85.160  1.00  0.00     0.000 C 
BRANCH  18  19
ATOM     19  C   UNL     1      95.576  85.479  85.998  1.00  0.00     0.000 C 
BRANCH  19  20
ATOM     20  C   UNL     1      94.344  85.814  85.140  1.00  0.00     0.000 C 
BRANCH  20  21
ATOM     21  C   UNL     1      94.681  86.741  83.962  1.00  0.00     0.000 C 
BRANCH  21  22
ATOM     22  C   UNL     1      94.163  86.209  82.616  1.00  0.00    -0.000 C 
BRANCH  22  23
ATOM     23  C   UNL     1      92.647  86.403  82.495  1.00  0.00    -0.000 C 
BRANCH  23  24
ATOM     24  C   UNL     1      91.937  85.061  82.253  1.00  0.00    -0.000 C 
BRANCH  24  25
ATOM     25  C   UNL     1      90.731  85.192  81.311  1.00  0.00    -0.000 C 
BRANCH  25  26
ATOM     26  C   UNL     1      91.000  86.138  80.127  1.00  0.00    -0.000 C 
BRANCH  26  27
ATOM     27  C   UNL     1      91.772  85.459  78.982  1.00  0.00    -0.000 C 
BRANCH  27  28
ATOM     28  C   UNL     1      93.165  86.051  78.699  1.00  0.00    -0.000 C 
BRANCH  28  29
ATOM     29  C   UNL     1      94.307  85.191  79.257  1.00  0.00    -0.003 C 
ATOM     30  C   UNL     1      93.906  83.720  79.325  1.00  0.00     0.004 C 
ENDBRANCH  28  29
ENDBRANCH  27  28
ENDBRANCH  26  27
ENDBRANCH  25  26
ENDBRANCH  24  25
ENDBRANCH  23  24
ENDBRANCH  22  23
ENDBRANCH  21  22
ENDBRANCH  20  21
ENDBRANCH  19  20
ENDBRANCH  18  19
ENDBRANCH  17  18
ENDBRANCH   1  17
TORSDOF 26
ENDMDL
MODEL 5
REMARK VINA RESULT:    -4.094      2.794      5.273
REMARK INTER + INTRA:         -15.294
REMARK INTER:                 -10.546
REMARK INTRA:                  -4.748
REMARK UNBOUND:                -4.978
REMARK SMILES CCCCCCCCCCCCCCCCCCCCCCCCCCCC(=O)[O-]
REMARK SMILES IDX 15 1 16 2 17 3 18 4 19 5 20 6 21 7 22 8 23 9 24 10 25 11
REMARK SMILES IDX 26 12 27 13 28 14 29 15 30 16 14 17 13 18 12 19 11 20 10 21
REMARK SMILES IDX 9 22 8 23 7 24 6 25 5 26 4 27 3 28 2 29 1 30
REMARK H PARENT
REMARK Flexibility Score: inf
ROOT
ATOM      1  C   UNL     1      99.399  86.039  86.311  1.00  0.00     0.000 C 
ENDROOT
BRANCH   1   2
ATOM      2  C   UNL     1     100.697  86.010  85.487  1.00  0.00     0.000 C 
BRANCH   2   3
ATOM      3  C   UNL     1     100.848  84.716  84.664  1.00  0.00     0.000 C 
BRANCH   3   4
ATOM      4  C   UNL     1     100.909  84.920  83.138  1.00  0.00     0.000 C 
BRANCH   4   5
ATOM      5  C   UNL     1     100.539  83.685  82.292  1.00  0.00     0.000 C 
BRANCH   5   6
ATOM      6  C   UNL     1      99.055  83.583  81.882  1.00  0.00     0.000 C 
BRANCH   6   7
ATOM      7  C   UNL     1      98.255  84.901  82.000  1.00  0.00     0.000 C 
BRANCH   7   8
ATOM      8  C   UNL     1      98.313  85.782  80.738  1.00  0.00     0.000 C 
BRANCH   8   9
ATOM      9  C   UNL     1      98.420  87.294  81.007  1.00  0.00     0.000 C 
BRANCH   9  10
ATOM     10  C   UNL     1      98.400  87.696  82.497  1.00  0.00     0.000 C 
BRANCH  10  11
ATOM     11  C   UNL     1      99.549  88.621  82.941  1.00  0.00     0.000 C 
BRANCH  11  12
ATOM     12  C   UNL     1     100.883  88.400  82.207  1.00  0.00     0.006 C 
BRANCH  12  13
ATOM     13  C   UNL     1     101.528  89.711  81.737  1.00  0.00     0.053 C 
BRANCH  13  14
ATOM     14  C   UNL     1     100.569  90.495  80.896  1.00  0.00     0.041 C 
ATOM     15  O   UNL     1     100.116  91.594  81.310  1.00  0.00    -0.550 OA
ATOM     16  O   UNL     1     100.140  89.989  79.675  1.00  0.00    -0.550 OA
ENDBRANCH  13  14
ENDBRANCH  12  13
ENDBRANCH  11  12
ENDBRANCH  10  11
ENDBRANCH   9  10
ENDBRANCH   8   9
ENDBRANCH   7   8
ENDBRANCH   6   7
ENDBRANCH   5   6
ENDBRANCH   4   5
ENDBRANCH   3   4
ENDBRANCH   2   3
ENDBRANCH   1   2
BRANCH   1  17
ATOM     17  C   UNL     1      98.190  85.463  85.552  1.00  0.00     0.000 C 
BRANCH  17  18
ATOM     18  C   UNL     1      96.911  86.326  85.583  1.00  0.00     0.000 C 
BRANCH  18  19
ATOM     19  C   UNL     1      95.755  85.825  84.698  1.00  0.00     0.000 C 
BRANCH  19  20
ATOM     20  C   UNL     1      94.973  86.968  84.030  1.00  0.00     0.000 C 
BRANCH  20  21
ATOM     21  C   UNL     1      94.607  86.656  82.570  1.00  0.00     0.000 C 
BRANCH  21  22
ATOM     22  C   UNL     1      93.096  86.742  82.301  1.00  0.00    -0.000 C 
BRANCH  22  23
ATOM     23  C   UNL     1      92.367  85.515  82.862  1.00  0.00    -0.000 C 
BRANCH  23  24
ATOM     24  C   UNL     1      91.015  85.310  82.161  1.00  0.00    -0.000 C 
BRANCH  24  25
ATOM     25  C   UNL     1      91.002  84.071  81.252  1.00  0.00    -0.000 C 
BRANCH  25  26
ATOM     26  C   UNL     1      90.951  84.431  79.757  1.00  0.00    -0.000 C 
BRANCH  26  27
ATOM     27  C   UNL     1      92.313  84.885  79.203  1.00  0.00    -0.000 C 
BRANCH  27  28
ATOM     28  C   UNL     1      93.422  83.818  79.257  1.00  0.00    -0.000 C 
BRANCH  28  29
ATOM     29  C   UNL     1      94.721  84.334  79.893  1.00  0.00    -0.003 C 
ATOM     30  C   UNL     1      95.307  85.489  79.086  1.00  0.00     0.004 C 
ENDBRANCH  28  29
ENDBRANCH  27  28
ENDBRANCH  26  27
ENDBRANCH  25  26
ENDBRANCH  24  25
ENDBRANCH  23  24
ENDBRANCH  22  23
ENDBRANCH  21  22
ENDBRANCH  20  21
ENDBRANCH  19  20
ENDBRANCH  18  19
ENDBRANCH  17  18
ENDBRANCH   1  17
TORSDOF 26
ENDMDL
MODEL 6
REMARK VINA RESULT:    -4.084      1.343      3.309
REMARK INTER + INTRA:         -15.268
REMARK INTER:                 -11.138
REMARK INTRA:                  -4.130
REMARK UNBOUND:                -4.978
REMARK SMILES CCCCCCCCCCCCCCCCCCCCCCCCCCCC(=O)[O-]
REMARK SMILES IDX 15 1 16 2 17 3 18 4 19 5 20 6 21 7 22 8 23 9 24 10 25 11
REMARK SMILES IDX 26 12 27 13 28 14 29 15 30 16 14 17 13 18 12 19 11 20 10 21
REMARK SMILES IDX 9 22 8 23 7 24 6 25 5 26 4 27 3 28 2 29 1 30
REMARK H PARENT
REMARK Flexibility Score: inf
ROOT
ATOM      1  C   UNL     1      97.304  88.002  81.893  1.00  0.00     0.000 C 
ENDROOT
BRANCH   1   2
ATOM      2  C   UNL     1      98.158  88.007  83.172  1.00  0.00     0.000 C 
BRANCH   2   3
ATOM      3  C   UNL     1      97.436  87.361  84.369  1.00  0.00     0.000 C 
BRANCH   3   4
ATOM      4  C   UNL     1      96.688  86.053  84.049  1.00  0.00     0.000 C 
BRANCH   4   5
ATOM      5  C   UNL     1      97.583  84.811  83.857  1.00  0.00     0.000 C 
BRANCH   5   6
ATOM      6  C   UNL     1      97.486  84.132  82.475  1.00  0.00     0.000 C 
BRANCH   6   7
ATOM      7  C   UNL     1      98.677  83.214  82.116  1.00  0.00     0.000 C 
BRANCH   7   8
ATOM      8  C   UNL     1      99.996  83.970  81.869  1.00  0.00     0.000 C 
BRANCH   8   9
ATOM      9  C   UNL     1     101.028  83.861  83.007  1.00  0.00     0.000 C 
BRANCH   9  10
ATOM     10  C   UNL     1     102.190  84.874  82.935  1.00  0.00     0.000 C 
BRANCH  10  11
ATOM     11  C   UNL     1     102.265  85.869  84.108  1.00  0.00     0.000 C 
BRANCH  11  12
ATOM     12  C   UNL     1     100.924  86.153  84.806  1.00  0.00     0.006 C 
BRANCH  12  13
ATOM     13  C   UNL     1     100.977  85.907  86.320  1.00  0.00     0.053 C 
BRANCH  13  14
ATOM     14  C   UNL     1     100.114  84.742  86.691  1.00  0.00     0.041 C 
ATOM     15  O   UNL     1      98.947  84.932  87.124  1.00  0.00    -0.550 OA
ATOM     16  O   UNL     1     100.613  83.448  86.602  1.00  0.00    -0.550 OA
ENDBRANCH  13  14
ENDBRANCH  12  13
ENDBRANCH  11  12
ENDBRANCH  10  11
ENDBRANCH   9  10
ENDBRANCH   8   9
ENDBRANCH   7   8
ENDBRANCH   6   7
ENDBRANCH   5   6
ENDBRANCH   4   5
ENDBRANCH   3   4
ENDBRANCH   2   3
ENDBRANCH   1   2
BRANCH   1  17
ATOM     17  C   UNL     1      98.025  87.365  80.690  1.00  0.00     0.000 C 
BRANCH  17  18
ATOM     18  C   UNL     1      97.256  86.234  79.975  1.00  0.00     0.000 C 
BRANCH  18  19
ATOM     19  C   UNL     1      95.794  86.556  79.616  1.00  0.00     0.000 C 
BRANCH  19  20
ATOM     20  C   UNL     1      94.782  85.846  80.532  1.00  0.00     0.000 C 
BRANCH  20  21
ATOM     21  C   UNL     1      94.680  84.340  80.240  1.00  0.00     0.000 C 
BRANCH  21  22
ATOM     22  C   UNL     1      93.680  84.015  79.119  1.00  0.00    -0.000 C 
BRANCH  22  23
ATOM     23  C   UNL     1      92.279  84.535  79.464  1.00  0.00    -0.000 C 
BRANCH  23  24
ATOM     24  C   UNL     1      91.761  83.901  80.764  1.00  0.00    -0.000 C 
BRANCH  24  25
ATOM     25  C   UNL     1      90.445  84.531  81.246  1.00  0.00    -0.000 C 
BRANCH  25  26
ATOM     26  C   UNL     1      90.588  85.243  82.602  1.00  0.00    -0.000 C 
BRANCH  26  27
ATOM     27  C   UNL     1      91.809  86.178  82.661  1.00  0.00    -0.000 C 
BRANCH  27  28
ATOM     28  C   UNL     1      92.841  85.829  83.750  1.00  0.00    -0.000 C 
BRANCH  28  29
ATOM     29  C   UNL     1      93.121  86.996  84.707  1.00  0.00    -0.003 C 
ATOM     30  C   UNL     1      91.831  87.715  85.093  1.00  0.00     0.004 C 
ENDBRANCH  28  29
ENDBRANCH  27  28
ENDBRANCH  26  27
ENDBRANCH  25  26
ENDBRANCH  24  25
ENDBRANCH  23  24
ENDBRANCH  22  23
ENDBRANCH  21  22
ENDBRANCH  20  21
ENDBRANCH  19  20
ENDBRANCH  18  19
ENDBRANCH  17  18
ENDBRANCH   1  17
TORSDOF 26
ENDMDL
MODEL 7
REMARK VINA RESULT:    -4.083      3.239      4.955
REMARK INTER + INTRA:         -15.267
REMARK INTER:                 -11.101
REMARK INTRA:                  -4.166
REMARK UNBOUND:                -4.978
REMARK SMILES CCCCCCCCCCCCCCCCCCCCCCCCCCCC(=O)[O-]
REMARK SMILES IDX 15 1 16 2 17 3 18 4 19 5 20 6 21 7 22 8 23 9 24 10 25 11
REMARK SMILES IDX 26 12 27 13 28 14 29 15 30 16 14 17 13 18 12 19 11 20 10 21
REMARK SMILES IDX 9 22 8 23 7 24 6 25 5 26 4 27 3 28 2 29 1 30
REMARK H PARENT
REMARK Flexibility Score: inf
ROOT
ATOM      1  C   UNL     1      96.321  86.356  83.226  1.00  0.00     0.000 C 
ENDROOT
BRANCH   1   2
ATOM      2  C   UNL     1      97.616  85.607  82.866  1.00  0.00     0.000 C 
BRANCH   2   3
ATOM      3  C   UNL     1      97.364  84.133  82.498  1.00  0.00     0.000 C 
BRANCH   3   4
ATOM      4  C   UNL     1      98.595  83.377  81.961  1.00  0.00     0.000 C 
BRANCH   4   5
ATOM      5  C   UNL     1      99.882  84.218  81.834  1.00  0.00     0.000 C 
BRANCH   5   6
ATOM      6  C   UNL     1     100.994  83.886  82.851  1.00  0.00     0.000 C 
BRANCH   6   7
ATOM      7  C   UNL     1     101.726  85.114  83.439  1.00  0.00     0.000 C 
BRANCH   7   8
ATOM      8  C   UNL     1     100.922  85.862  84.520  1.00  0.00     0.000 C 
BRANCH   8   9
ATOM      9  C   UNL     1     100.570  87.320  84.172  1.00  0.00     0.000 C 
BRANCH   9  10
ATOM     10  C   UNL     1     101.072  87.803  82.796  1.00  0.00     0.000 C 
BRANCH  10  11
ATOM     11  C   UNL     1      99.970  88.061  81.750  1.00  0.00     0.000 C 
BRANCH  11  12
ATOM     12  C   UNL     1      99.835  89.524  81.295  1.00  0.00     0.006 C 
BRANCH  12  13
ATOM     13  C   UNL     1      98.616  90.227  81.906  1.00  0.00     0.053 C 
BRANCH  13  14
ATOM     14  C   UNL     1      97.791  90.869  80.834  1.00  0.00     0.041 C 
ATOM     15  O   UNL     1      98.260  91.009  79.674  1.00  0.00    -0.550 OA
ATOM     16  O   UNL     1      96.523  91.355  81.128  1.00  0.00    -0.550 OA
ENDBRANCH  13  14
ENDBRANCH  12  13
ENDBRANCH  11  12
ENDBRANCH  10  11
ENDBRANCH   9  10
ENDBRANCH   8   9
ENDBRANCH   7   8
ENDBRANCH   6   7
ENDBRANCH   5   6
ENDBRANCH   4   5
ENDBRANCH   3   4
ENDBRANCH   2   3
ENDBRANCH   1   2
BRANCH   1  17
ATOM     17  C   UNL     1      95.597  86.933  81.996  1.00  0.00     0.000 C 
BRANCH  17  18
ATOM     18  C   UNL     1      96.512  87.410  80.847  1.00  0.00     0.000 C 
BRANCH  18  19
ATOM     19  C   UNL     1      96.574  86.478  79.624  1.00  0.00     0.000 C 
BRANCH  19  20
ATOM     20  C   UNL     1      95.188  85.982  79.177  1.00  0.00     0.000 C 
BRANCH  20  21
ATOM     21  C   UNL     1      94.987  84.481  79.440  1.00  0.00     0.000 C 
BRANCH  21  22
ATOM     22  C   UNL     1      93.563  84.005  79.114  1.00  0.00    -0.000 C 
BRANCH  22  23
ATOM     23  C   UNL     1      92.828  83.559  80.384  1.00  0.00    -0.000 C 
BRANCH  23  24
ATOM     24  C   UNL     1      92.513  84.761  81.289  1.00  0.00    -0.000 C 
BRANCH  24  25
ATOM     25  C   UNL     1      91.107  84.685  81.904  1.00  0.00    -0.000 C 
BRANCH  25  26
ATOM     26  C   UNL     1      90.103  83.945  81.004  1.00  0.00    -0.000 C 
BRANCH  26  27
ATOM     27  C   UNL     1      89.050  84.882  80.385  1.00  0.00    -0.000 C 
BRANCH  27  28
ATOM     28  C   UNL     1      89.595  86.238  79.899  1.00  0.00    -0.000 C 
BRANCH  28  29
ATOM     29  C   UNL     1      90.234  86.162  78.505  1.00  0.00    -0.003 C 
ATOM     30  C   UNL     1      91.563  86.912  78.467  1.00  0.00     0.004 C 
ENDBRANCH  28  29
ENDBRANCH  27  28
ENDBRANCH  26  27
ENDBRANCH  25  26
ENDBRANCH  24  25
ENDBRANCH  23  24
ENDBRANCH  22  23
ENDBRANCH  21  22
ENDBRANCH  20  21
ENDBRANCH  19  20
ENDBRANCH  18  19
ENDBRANCH  17  18
ENDBRANCH   1  17
TORSDOF 26
ENDMDL
MODEL 8
REMARK VINA RESULT:    -4.076      2.664      4.555
REMARK INTER + INTRA:         -15.249
REMARK INTER:                 -10.695
REMARK INTRA:                  -4.554
REMARK UNBOUND:                -4.978
REMARK SMILES CCCCCCCCCCCCCCCCCCCCCCCCCCCC(=O)[O-]
REMARK SMILES IDX 15 1 16 2 17 3 18 4 19 5 20 6 21 7 22 8 23 9 24 10 25 11
REMARK SMILES IDX 26 12 27 13 28 14 29 15 30 16 14 17 13 18 12 19 11 20 10 21
REMARK SMILES IDX 9 22 8 23 7 24 6 25 5 26 4 27 3 28 2 29 1 30
REMARK H PARENT
REMARK Flexibility Score: inf
ROOT
ATOM      1  C   UNL     1      94.702  84.031  79.674  1.00  0.00     0.000 C 
ENDROOT
BRANCH   1   2
ATOM      2  C   UNL     1      95.006  85.521  79.443  1.00  0.00     0.000 C 
BRANCH   2   3
ATOM      3  C   UNL     1      96.260  85.994  80.202  1.00  0.00     0.000 C 
BRANCH   3   4
ATOM      4  C   UNL     1      96.825  84.985  81.219  1.00  0.00     0.000 C 
BRANCH   4   5
ATOM      5  C   UNL     1      98.364  84.895  81.276  1.00  0.00     0.000 C 
BRANCH   5   6
ATOM      6  C   UNL     1      98.930  83.559  81.800  1.00  0.00     0.000 C 
BRANCH   6   7
ATOM      7  C   UNL     1     100.245  83.680  82.604  1.00  0.00     0.000 C 
BRANCH   7   8
ATOM      8  C   UNL     1     100.127  84.555  83.866  1.00  0.00     0.000 C 
BRANCH   8   9
ATOM      9  C   UNL     1     101.300  85.526  84.094  1.00  0.00     0.000 C 
BRANCH   9  10
ATOM     10  C   UNL     1     101.135  86.915  83.444  1.00  0.00     0.000 C 
BRANCH  10  11
ATOM     11  C   UNL     1      99.705  87.488  83.480  1.00  0.00     0.000 C 
BRANCH  11  12
ATOM     12  C   UNL     1      99.270  88.229  82.204  1.00  0.00     0.006 C 
BRANCH  12  13
ATOM     13  C   UNL     1      98.127  89.222  82.453  1.00  0.00     0.053 C 
BRANCH  13  14
ATOM     14  C   UNL     1      97.532  89.671  81.155  1.00  0.00     0.041 C 
ATOM     15  O   UNL     1      97.855  89.100  80.080  1.00  0.00    -0.550 OA
ATOM     16  O   UNL     1      96.654  90.748  81.125  1.00  0.00    -0.550 OA
ENDBRANCH  13  14
ENDBRANCH  12  13
ENDBRANCH  11  12
ENDBRANCH  10  11
ENDBRANCH   9  10
ENDBRANCH   8   9
ENDBRANCH   7   8
ENDBRANCH   6   7
ENDBRANCH   5   6
ENDBRANCH   4   5
ENDBRANCH   3   4
ENDBRANCH   2   3
ENDBRANCH   1   2
BRANCH   1  17
ATOM     17  C   UNL     1      93.214  83.757  79.963  1.00  0.00     0.000 C 
BRANCH  17  18
ATOM     18  C   UNL     1      92.215  84.708  79.269  1.00  0.00     0.000 C 
BRANCH  18  19
ATOM     19  C   UNL     1      90.797  84.726  79.868  1.00  0.00     0.000 C 
BRANCH  19  20
ATOM     20  C   UNL     1      90.676  83.878  81.145  1.00  0.00     0.000 C 
BRANCH  20  21
ATOM     21  C   UNL     1      90.955  84.690  82.420  1.00  0.00     0.000 C 
BRANCH  21  22
ATOM     22  C   UNL     1      90.571  86.171  82.281  1.00  0.00    -0.000 C 
BRANCH  22  23
ATOM     23  C   UNL     1      91.808  87.072  82.380  1.00  0.00    -0.000 C 
BRANCH  23  24
ATOM     24  C   UNL     1      93.061  86.252  82.727  1.00  0.00    -0.000 C 
BRANCH  24  25
ATOM     25  C   UNL     1      94.287  87.134  83.005  1.00  0.00    -0.000 C 
BRANCH  25  26
ATOM     26  C   UNL     1      94.851  86.938  84.423  1.00  0.00    -0.000 C 
BRANCH  26  27
ATOM     27  C   UNL     1      96.355  86.610  84.429  1.00  0.00    -0.000 C 
BRANCH  27  28
ATOM     28  C   UNL     1      96.704  85.180  84.884  1.00  0.00    -0.000 C 
BRANCH  28  29
ATOM     29  C   UNL     1      96.760  85.035  86.411  1.00  0.00    -0.003 C 
ATOM     30  C   UNL     1      98.141  85.399  86.949  1.00  0.00     0.004 C 
ENDBRANCH  28  29
ENDBRANCH  27  28
ENDBRANCH  26  27
ENDBRANCH  25  26
ENDBRANCH  24  25
ENDBRANCH  23  24
ENDBRANCH  22  23
ENDBRANCH  21  22
ENDBRANCH  20  21
ENDBRANCH  19  20
ENDBRANCH  18  19
ENDBRANCH  17  18
ENDBRANCH   1  17
TORSDOF 26
ENDMDL
MODEL 9
REMARK VINA RESULT:    -4.047      3.350      7.895
REMARK INTER + INTRA:         -15.177
REMARK INTER:                 -10.180
REMARK INTRA:                  -4.997
REMARK UNBOUND:                -4.978
REMARK SMILES CCCCCCCCCCCCCCCCCCCCCCCCCCCC(=O)[O-]
REMARK SMILES IDX 15 1 16 2 17 3 18 4 19 5 20 6 21 7 22 8 23 9 24 10 25 11
REMARK SMILES IDX 26 12 27 13 28 14 29 15 30 16 14 17 13 18 12 19 11 20 10 21
REMARK SMILES IDX 9 22 8 23 7 24 6 25 5 26 4 27 3 28 2 29 1 30
REMARK H PARENT
REMARK Flexibility Score: inf
ROOT
ATOM      1  C   UNL     1     101.762  84.279  82.638  1.00  0.00     0.000 C 
ENDROOT
BRANCH   1   2
ATOM      2  C   UNL     1     100.426  83.625  83.029  1.00  0.00     0.000 C 
BRANCH   2   3
ATOM      3  C   UNL     1      99.383  83.684  81.897  1.00  0.00     0.000 C 
BRANCH   3   4
ATOM      4  C   UNL     1      97.995  84.204  82.319  1.00  0.00     0.000 C 
BRANCH   4   5
ATOM      5  C   UNL     1      98.005  85.347  83.354  1.00  0.00     0.000 C 
BRANCH   5   6
ATOM      6  C   UNL     1      96.949  85.235  84.474  1.00  0.00     0.000 C 
BRANCH   6   7
ATOM      7  C   UNL     1      95.638  86.012  84.213  1.00  0.00     0.000 C 
BRANCH   7   8
ATOM      8  C   UNL     1      95.776  87.137  83.170  1.00  0.00     0.000 C 
BRANCH   8   9
ATOM      9  C   UNL     1      95.050  86.878  81.837  1.00  0.00     0.000 C 
BRANCH   9  10
ATOM     10  C   UNL     1      95.972  86.731  80.609  1.00  0.00     0.000 C 
BRANCH  10  11
ATOM     11  C   UNL     1      95.476  85.748  79.531  1.00  0.00     0.000 C 
BRANCH  11  12
ATOM     12  C   UNL     1      95.083  84.356  80.054  1.00  0.00     0.006 C 
BRANCH  12  13
ATOM     13  C   UNL     1      93.883  83.757  79.308  1.00  0.00     0.053 C 
BRANCH  13  14
ATOM     14  C   UNL     1      92.609  84.386  79.778  1.00  0.00     0.041 C 
ATOM     15  O   UNL     1      92.394  84.536  81.010  1.00  0.00    -0.550 OA
ATOM     16  O   UNL     1      91.638  84.765  78.859  1.00  0.00    -0.550 OA
ENDBRANCH  13  14
ENDBRANCH  12  13
ENDBRANCH  11  12
ENDBRANCH  10  11
ENDBRANCH   9  10
ENDBRANCH   8   9
ENDBRANCH   7   8
ENDBRANCH   6   7
ENDBRANCH   5   6
ENDBRANCH   4   5
ENDBRANCH   3   4
ENDBRANCH   2   3
ENDBRANCH   1   2
BRANCH   1  17
ATOM     17  C   UNL     1     102.166  85.432  83.576  1.00  0.00     0.000 C 
BRANCH  17  18
ATOM     18  C   UNL     1     101.390  85.509  84.908  1.00  0.00     0.000 C 
BRANCH  18  19
ATOM     19  C   UNL     1     101.599  86.801  85.719  1.00  0.00     0.000 C 
BRANCH  19  20
ATOM     20  C   UNL     1     102.929  87.503  85.396  1.00  0.00     0.000 C 
BRANCH  20  21
ATOM     21  C   UNL     1     102.831  89.033  85.507  1.00  0.00     0.000 C 
BRANCH  21  22
ATOM     22  C   UNL     1     103.576  89.762  84.378  1.00  0.00    -0.000 C 
BRANCH  22  23
ATOM     23  C   UNL     1     103.725  88.862  83.146  1.00  0.00    -0.000 C 
BRANCH  23  24
ATOM     24  C   UNL     1     103.269  89.592  81.872  1.00  0.00    -0.000 C 
BRANCH  24  25
ATOM     25  C   UNL     1     101.796  90.026  81.936  1.00  0.00    -0.000 C 
BRANCH  25  26
ATOM     26  C   UNL     1     100.834  88.942  81.421  1.00  0.00    -0.000 C 
BRANCH  26  27
ATOM     27  C   UNL     1     100.088  88.215  82.555  1.00  0.00    -0.000 C 
BRANCH  27  28
ATOM     28  C   UNL     1      98.958  89.029  83.213  1.00  0.00    -0.000 C 
BRANCH  28  29
ATOM     29  C   UNL     1      99.229  89.347  84.690  1.00  0.00    -0.003 C 
ATOM     30  C   UNL     1      98.234  88.631  85.599  1.00  0.00     0.004 C 
ENDBRANCH  28  29
ENDBRANCH  27  28
ENDBRANCH  26  27
ENDBRANCH  25  26
ENDBRANCH  24  25
ENDBRANCH  23  24
ENDBRANCH  22  23
ENDBRANCH  21  22
ENDBRANCH  20  21
ENDBRANCH  19  20
ENDBRANCH  18  19
ENDBRANCH  17  18
ENDBRANCH   1  17
TORSDOF 26
ENDMDL
