MODEL 1
REMARK VINA RESULT:     0.878      0.000      0.000
REMARK INTER + INTRA:           0.780
REMARK INTER:                   1.186
REMARK INTRA:                  -0.406
REMARK UNBOUND:                -0.406
REMARK SMILES CCCCCCC=CC(=O)[O-]
REMARK SMILES IDX 5 1 6 2 7 3 8 4 9 5 10 6 11 7 4 8 3 9 2 10 1 11
REMARK H PARENT
REMARK Flexibility Score: inf
ROOT
ATOM      1  C   UNL     1     -12.735  17.977  -9.164  1.00  0.00     0.004 C 
ENDROOT
BRANCH   1   2
ATOM      2  C   UNL     1     -13.387  19.005 -10.097  1.00  0.00     0.027 C 
BRANCH   2   3
ATOM      3  C   UNL     1     -13.097  18.695 -11.537  1.00  0.00    -0.025 C 
ATOM      4  C   UNL     1     -12.665  19.637 -12.382  1.00  0.00     0.020 C 
BRANCH   4   5
ATOM      5  C   UNL     1     -12.362  19.353 -13.793  1.00  0.00     0.064 C 
ATOM      6  O   UNL     1     -11.192  19.472 -14.246  1.00  0.00    -0.545 OA
ATOM      7  O   UNL     1     -13.383  18.943 -14.642  1.00  0.00    -0.545 OA
ENDBRANCH   4   5
ENDBRANCH   2   3
ENDBRANCH   1   2
BRANCH   1   8
ATOM      8  C   UNL     1     -12.746  18.471  -7.710  1.00  0.00     0.000 C 
BRANCH   8   9
ATOM      9  C   UNL     1     -13.385  19.863  -7.554  1.00  0.00    -0.000 C 
BRANCH   9  10
ATOM     10  C   UNL     1     -12.417  20.974  -7.111  1.00  0.00    -0.003 C 
ATOM     11  C   UNL     1     -11.711  21.655  -8.284  1.00  0.00     0.004 C 
ENDBRANCH   9  10
ENDBRANCH   8   9
ENDBRANCH   1   8
TORSDOF 6
ENDMDL
MODEL 2
REMARK VINA RESULT:     1.957      3.267      5.579
REMARK INTER + INTRA:           2.237
REMARK INTER:                   2.448
REMARK INTRA:                  -0.211
REMARK UNBOUND:                -0.406
REMARK SMILES CCCCCCC=CC(=O)[O-]
REMARK SMILES IDX 5 1 6 2 7 3 8 4 9 5 10 6 11 7 4 8 3 9 2 10 1 11
REMARK H PARENT
REMARK Flexibility Score: inf
ROOT
ATOM      1  C   UNL     1     -13.019  17.832 -11.040  1.00  0.00     0.004 C 
ENDROOT
BRANCH   1   2
ATOM      2  C   UNL     1     -13.261  17.880  -9.526  1.00  0.00     0.027 C 
BRANCH   2   3
ATOM      3  C   UNL     1     -12.462  18.976  -8.881  1.00  0.00    -0.025 C 
ATOM      4  C   UNL     1     -13.047  19.931  -8.151  1.00  0.00     0.020 C 
BRANCH   4   5
ATOM      5  C   UNL     1     -12.283  21.005  -7.499  1.00  0.00     0.064 C 
ATOM      6  O   UNL     1     -12.542  21.366  -6.320  1.00  0.00    -0.545 OA
ATOM      7  O   UNL     1     -11.257  21.633  -8.195  1.00  0.00    -0.545 OA
ENDBRANCH   4   5
ENDBRANCH   2   3
ENDBRANCH   1   2
BRANCH   1   8
ATOM      8  C   UNL     1     -13.050  19.243 -11.646  1.00  0.00     0.000 C 
BRANCH   8   9
ATOM      9  C   UNL     1     -12.977  19.236 -13.184  1.00  0.00    -0.000 C 
BRANCH   9  10
ATOM     10  C   UNL     1     -11.666  19.787 -13.772  1.00  0.00    -0.003 C 
ATOM     11  C   UNL     1     -11.249  19.087 -15.065  1.00  0.00     0.004 C 
ENDBRANCH   9  10
ENDBRANCH   8   9
ENDBRANCH   1   8
TORSDOF 6
ENDMDL
MODEL 3
REMARK VINA RESULT:     3.119     15.916     17.443
REMARK INTER + INTRA:           3.806
REMARK INTER:                   4.299
REMARK INTRA:                  -0.492
REMARK UNBOUND:                -0.406
REMARK SMILES CCCCCCC=CC(=O)[O-]
REMARK SMILES IDX 5 1 6 2 7 3 8 4 9 5 10 6 11 7 4 8 3 9 2 10 1 11
REMARK H PARENT
REMARK Flexibility Score: inf
ROOT
ATOM      1  C   UNL     1     -18.830   7.476  -4.098  1.00  0.00     0.004 C 
ENDROOT
BRANCH   1   2
ATOM      2  C   UNL     1     -19.779   7.375  -2.898  1.00  0.00     0.027 C 
BRANCH   2   3
ATOM      3  C   UNL     1     -20.490   6.053  -2.875  1.00  0.00    -0.025 C 
ATOM      4  C   UNL     1     -20.958   5.491  -3.995  1.00  0.00     0.020 C 
BRANCH   4   5
ATOM      5  C   UNL     1     -21.645   4.191  -3.999  1.00  0.00     0.064 C 
ATOM      6  O   UNL     1     -21.922   3.597  -2.922  1.00  0.00    -0.545 OA
ATOM      7  O   UNL     1     -21.996   3.607  -5.210  1.00  0.00    -0.545 OA
ENDBRANCH   4   5
ENDBRANCH   2   3
ENDBRANCH   1   2
BRANCH   1   8
ATOM      8  C   UNL     1     -17.388   7.734  -3.638  1.00  0.00     0.000 C 
BRANCH   8   9
ATOM      9  C   UNL     1     -16.687   6.464  -3.122  1.00  0.00    -0.000 C 
BRANCH   9  10
ATOM     10  C   UNL     1     -16.933   5.201  -3.967  1.00  0.00    -0.003 C 
ATOM     11  C   UNL     1     -17.748   4.137  -3.231  1.00  0.00     0.004 C 
ENDBRANCH   9  10
ENDBRANCH   8   9
ENDBRANCH   1   8
TORSDOF 6
ENDMDL
MODEL 4
REMARK VINA RESULT:     3.475      0.928      1.480
REMARK INTER + INTRA:           4.287
REMARK INTER:                   4.025
REMARK INTRA:                   0.262
REMARK UNBOUND:                -0.406
REMARK SMILES CCCCCCC=CC(=O)[O-]
REMARK SMILES IDX 5 1 6 2 7 3 8 4 9 5 10 6 11 7 4 8 3 9 2 10 1 11
REMARK H PARENT
REMARK Flexibility Score: inf
ROOT
ATOM      1  C   UNL     1     -13.874  18.516 -10.015  1.00  0.00     0.004 C 
ENDROOT
BRANCH   1   2
ATOM      2  C   UNL     1     -13.031  19.504 -10.830  1.00  0.00     0.027 C 
BRANCH   2   3
ATOM      3  C   UNL     1     -12.971  19.105 -12.276  1.00  0.00    -0.025 C 
ATOM      4  C   UNL     1     -12.108  19.675 -13.124  1.00  0.00     0.020 C 
BRANCH   4   5
ATOM      5  C   UNL     1     -12.023  19.290 -14.541  1.00  0.00     0.064 C 
ATOM      6  O   UNL     1     -12.898  18.553 -15.070  1.00  0.00    -0.545 OA
ATOM      7  O   UNL     1     -10.960  19.747 -15.310  1.00  0.00    -0.545 OA
ENDBRANCH   4   5
ENDBRANCH   2   3
ENDBRANCH   1   2
BRANCH   1   8
ATOM      8  C   UNL     1     -13.221  18.228  -8.655  1.00  0.00     0.000 C 
BRANCH   8   9
ATOM      9  C   UNL     1     -12.150  19.267  -8.273  1.00  0.00    -0.000 C 
BRANCH   9  10
ATOM     10  C   UNL     1     -12.666  20.711  -8.145  1.00  0.00    -0.003 C 
ATOM     11  C   UNL     1     -12.233  21.388  -6.844  1.00  0.00     0.004 C 
ENDBRANCH   9  10
ENDBRANCH   8   9
ENDBRANCH   1   8
TORSDOF 6
ENDMDL
