MODEL 1
REMARK VINA RESULT:    -5.054      0.000      0.000
REMARK INTER + INTRA:          -7.996
REMARK INTER:                  -7.714
REMARK INTRA:                  -0.283
REMARK UNBOUND:                -0.283
REMARK SMILES CC1=CCC[C@@H](C)C(=O)C[C@@H](C(C)C)C(=O)C1
REMARK SMILES IDX 8 1 9 2 6 3 7 4 5 5 4 6 3 7 2 8 1 9 10 11 11 12 15 13 16 14
REMARK SMILES IDX 17 15 12 17 13 18 14 19
REMARK H PARENT
REMARK Flexibility Score: 70.00
ROOT
ATOM      1  C   UNL     1     -19.343 -40.162  -6.131  1.00  0.00     0.136 C 
ATOM      2  O   UNL     1     -19.324 -41.386  -6.135  1.00  0.00    -0.299 OA
ENDROOT
BRANCH   1   3
ATOM      3  C   UNL     1     -18.276 -39.386  -6.914  1.00  0.00     0.053 C 
ATOM      4  C   UNL     1     -18.463 -39.580  -8.432  1.00  0.00     0.016 C 
BRANCH   3   5
ATOM      5  C   UNL     1     -16.818 -39.772  -6.527  1.00  0.00     0.015 C 
BRANCH   5   6
ATOM      6  C   UNL     1     -16.416 -39.561  -5.049  1.00  0.00     0.028 C 
BRANCH   6   7
ATOM      7  C   UNL     1     -16.246 -38.102  -4.694  1.00  0.00    -0.028 C 
ATOM      8  C   UNL     1     -17.177 -37.339  -4.071  1.00  0.00    -0.070 CG0
ATOM      9  C   UNL     1     -16.870 -35.879  -3.859  1.00  0.00     0.039 C 
ATOM     10  G   UNL     1     -18.499 -37.895  -3.566  1.00  0.00     0.000 G0
ENDBRANCH   6   7
ENDBRANCH   5   6
ENDBRANCH   3   5
ENDBRANCH   1   3
BRANCH   1  11
ATOM     11  C   UNL     1     -20.444 -39.483  -5.345  1.00  0.00     0.087 C 
BRANCH  11  12
ATOM     12  C   UNL     1     -20.418 -37.928  -5.445  1.00  0.00     0.066 C 
BRANCH  12  13
ATOM     13  C   UNL     1     -19.749 -37.333  -4.211  1.00  0.00     0.140 C 
ATOM     14  O   UNL     1     -20.262 -36.362  -3.674  1.00  0.00    -0.299 OA
BRANCH  13  15
ATOM     15  C   UNL     1     -18.502 -37.908  -3.567  1.00  0.00     0.106 CG0
ATOM     16  G   UNL     1     -17.182 -37.329  -4.052  1.00  0.00     0.000 G0
ENDBRANCH  13  15
ENDBRANCH  12  13
BRANCH  12  17
ATOM     17  C   UNL     1     -21.821 -37.314  -5.743  1.00  0.00    -0.006 C 
ATOM     18  C   UNL     1     -22.820 -38.406  -6.160  1.00  0.00     0.008 C 
ATOM     19  C   UNL     1     -21.820 -36.188  -6.795  1.00  0.00     0.008 C 
ENDBRANCH  12  17
ENDBRANCH  11  12
ENDBRANCH   1  11
TORSDOF 1
ENDMDL
MODEL 2
REMARK VINA RESULT:    -4.889      1.936      3.311
REMARK INTER + INTRA:          -7.743
REMARK INTER:                  -7.380
REMARK INTRA:                  -0.364
REMARK UNBOUND:                -0.283
REMARK SMILES CC1=CCC[C@@H](C)C(=O)C[C@@H](C(C)C)C(=O)C1
REMARK SMILES IDX 8 1 9 2 6 3 7 4 5 5 4 6 3 7 2 8 1 9 10 11 11 12 15 13 16 14
REMARK SMILES IDX 17 15 12 17 13 18 14 19
REMARK H PARENT
REMARK Flexibility Score: 70.00
ROOT
ATOM      1  C   UNL     1     -16.359 -40.314  -5.764  1.00  0.00     0.136 C 
ATOM      2  O   UNL     1     -15.761 -41.144  -5.090  1.00  0.00    -0.299 OA
ENDROOT
BRANCH   1   3
ATOM      3  C   UNL     1     -15.646 -39.020  -6.177  1.00  0.00     0.053 C 
ATOM      4  C   UNL     1     -14.240 -39.323  -6.730  1.00  0.00     0.016 C 
BRANCH   3   5
ATOM      5  C   UNL     1     -15.526 -37.981  -5.022  1.00  0.00     0.015 C 
BRANCH   5   6
ATOM      6  C   UNL     1     -16.544 -38.111  -3.867  1.00  0.00     0.028 C 
BRANCH   6   7
ATOM      7  C   UNL     1     -17.600 -37.030  -3.895  1.00  0.00    -0.028 C 
ATOM      8  C   UNL     1     -18.879 -37.203  -4.309  1.00  0.00    -0.070 CG0
ATOM      9  C   UNL     1     -19.782 -35.997  -4.342  1.00  0.00     0.039 C 
ATOM     10  G   UNL     1     -19.441 -38.555  -4.720  1.00  0.00     0.000 G0
ENDBRANCH   6   7
ENDBRANCH   5   6
ENDBRANCH   3   5
ENDBRANCH   1   3
BRANCH   1  11
ATOM     11  C   UNL     1     -17.786 -40.629  -6.157  1.00  0.00     0.087 C 
BRANCH  11  12
ATOM     12  C   UNL     1     -18.454 -39.524  -7.028  1.00  0.00     0.066 C 
BRANCH  12  13
ATOM     13  C   UNL     1     -19.528 -38.798  -6.224  1.00  0.00     0.140 C 
ATOM     14  O   UNL     1     -20.540 -38.423  -6.797  1.00  0.00    -0.299 OA
BRANCH  13  15
ATOM     15  C   UNL     1     -19.443 -38.556  -4.729  1.00  0.00     0.106 CG0
ATOM     16  G   UNL     1     -18.892 -37.202  -4.310  1.00  0.00     0.000 G0
ENDBRANCH  13  15
ENDBRANCH  12  13
BRANCH  12  17
ATOM     17  C   UNL     1     -18.968 -40.060  -8.401  1.00  0.00    -0.006 C 
ATOM     18  C   UNL     1     -19.747 -41.372  -8.220  1.00  0.00     0.008 C 
ATOM     19  C   UNL     1     -17.871 -40.252  -9.466  1.00  0.00     0.008 C 
ENDBRANCH  12  17
ENDBRANCH  11  12
ENDBRANCH   1  11
TORSDOF 1
ENDMDL
MODEL 3
REMARK VINA RESULT:    -4.717      2.101      4.211
REMARK INTER + INTRA:          -7.482
REMARK INTER:                  -7.354
REMARK INTRA:                  -0.128
REMARK UNBOUND:                -0.283
REMARK SMILES CC1=CCC[C@@H](C)C(=O)C[C@@H](C(C)C)C(=O)C1
REMARK SMILES IDX 8 1 9 2 6 3 7 4 5 5 4 6 3 7 2 8 1 9 10 11 11 12 15 13 16 14
REMARK SMILES IDX 17 15 12 17 13 18 14 19
REMARK H PARENT
REMARK Flexibility Score: 70.00
ROOT
ATOM      1  C   UNL     1     -17.537 -39.590  -4.940  1.00  0.00     0.136 C 
ATOM      2  O   UNL     1     -16.594 -40.310  -4.639  1.00  0.00    -0.299 OA
ENDROOT
BRANCH   1   3
ATOM      3  C   UNL     1     -17.438 -38.077  -4.707  1.00  0.00     0.053 C 
ATOM      4  C   UNL     1     -16.003 -37.678  -4.309  1.00  0.00     0.016 C 
BRANCH   3   5
ATOM      5  C   UNL     1     -18.432 -37.548  -3.630  1.00  0.00     0.015 C 
BRANCH   5   6
ATOM      6  C   UNL     1     -19.302 -36.335  -4.030  1.00  0.00     0.028 C 
BRANCH   6   7
ATOM      7  C   UNL     1     -20.782 -36.612  -3.904  1.00  0.00    -0.028 C 
ATOM      8  C   UNL     1     -21.570 -37.092  -4.896  1.00  0.00    -0.070 CG0
ATOM      9  C   UNL     1     -23.045 -37.240  -4.621  1.00  0.00     0.039 C 
ATOM     10  G   UNL     1     -21.031 -37.502  -6.258  1.00  0.00     0.000 G0
ENDBRANCH   6   7
ENDBRANCH   5   6
ENDBRANCH   3   5
ENDBRANCH   1   3
BRANCH   1  11
ATOM     11  C   UNL     1     -18.758 -40.252  -5.541  1.00  0.00     0.087 C 
BRANCH  11  12
ATOM     12  C   UNL     1     -19.337 -39.497  -6.774  1.00  0.00     0.066 C 
BRANCH  12  13
ATOM     13  C   UNL     1     -20.735 -38.973  -6.460  1.00  0.00     0.140 C 
ATOM     14  O   UNL     1     -21.644 -39.775  -6.307  1.00  0.00    -0.299 OA
BRANCH  13  15
ATOM     15  C   UNL     1     -21.062 -37.504  -6.273  1.00  0.00     0.106 CG0
ATOM     16  G   UNL     1     -21.577 -37.113  -4.896  1.00  0.00     0.000 G0
ENDBRANCH  13  15
ENDBRANCH  12  13
BRANCH  12  17
ATOM     17  C   UNL     1     -19.274 -40.338  -8.087  1.00  0.00    -0.006 C 
ATOM     18  C   UNL     1     -19.063 -41.828  -7.774  1.00  0.00     0.008 C 
ATOM     19  C   UNL     1     -18.213 -39.868  -9.101  1.00  0.00     0.008 C 
ENDBRANCH  12  17
ENDBRANCH  11  12
ENDBRANCH   1  11
TORSDOF 1
ENDMDL
MODEL 4
REMARK VINA RESULT:    -4.649      1.800      3.684
REMARK INTER + INTRA:          -7.377
REMARK INTER:                  -7.370
REMARK INTRA:                  -0.007
REMARK UNBOUND:                -0.283
REMARK SMILES CC1=CCC[C@@H](C)C(=O)C[C@@H](C(C)C)C(=O)C1
REMARK SMILES IDX 8 1 9 2 6 3 7 4 5 5 4 6 3 7 2 8 1 9 10 11 11 12 15 13 16 14
REMARK SMILES IDX 17 15 12 17 13 18 14 19
REMARK H PARENT
REMARK Flexibility Score: 70.00
ROOT
ATOM      1  C   UNL     1     -18.574 -37.801  -3.883  1.00  0.00     0.136 C 
ATOM      2  O   UNL     1     -18.974 -38.676  -3.126  1.00  0.00    -0.299 OA
ENDROOT
BRANCH   1   3
ATOM      3  C   UNL     1     -17.303 -37.017  -3.529  1.00  0.00     0.053 C 
ATOM      4  C   UNL     1     -17.473 -35.522  -3.859  1.00  0.00     0.016 C 
BRANCH   3   5
ATOM      5  C   UNL     1     -16.024 -37.554  -4.238  1.00  0.00     0.015 C 
BRANCH   5   6
ATOM      6  C   UNL     1     -16.034 -39.045  -4.646  1.00  0.00     0.028 C 
BRANCH   6   7
ATOM      7  C   UNL     1     -15.868 -39.244  -6.135  1.00  0.00    -0.028 C 
ATOM      8  C   UNL     1     -16.756 -39.877  -6.938  1.00  0.00    -0.070 CG0
ATOM      9  C   UNL     1     -16.397 -40.053  -8.391  1.00  0.00     0.039 C 
ATOM     10  G   UNL     1     -18.097 -40.397  -6.443  1.00  0.00     0.000 G0
ENDBRANCH   6   7
ENDBRANCH   5   6
ENDBRANCH   3   5
ENDBRANCH   1   3
BRANCH   1  11
ATOM     11  C   UNL     1     -19.370 -37.551  -5.145  1.00  0.00     0.087 C 
BRANCH  11  12
ATOM     12  C   UNL     1     -20.126 -38.809  -5.667  1.00  0.00     0.066 C 
BRANCH  12  13
ATOM     13  C   UNL     1     -19.304 -39.506  -6.747  1.00  0.00     0.140 C 
ATOM     14  O   UNL     1     -19.585 -39.308  -7.920  1.00  0.00    -0.299 OA
BRANCH  13  15
ATOM     15  C   UNL     1     -18.113 -40.399  -6.455  1.00  0.00     0.106 CG0
ATOM     16  G   UNL     1     -16.766 -39.876  -6.929  1.00  0.00     0.000 G0
ENDBRANCH  13  15
ENDBRANCH  12  13
BRANCH  12  17
ATOM     17  C   UNL     1     -21.590 -38.498  -6.111  1.00  0.00    -0.006 C 
ATOM     18  C   UNL     1     -22.247 -37.485  -5.160  1.00  0.00     0.008 C 
ATOM     19  C   UNL     1     -22.496 -39.737  -6.251  1.00  0.00     0.008 C 
ENDBRANCH  12  17
ENDBRANCH  11  12
ENDBRANCH   1  11
TORSDOF 1
ENDMDL
MODEL 5
REMARK VINA RESULT:    -4.608      1.684      4.703
REMARK INTER + INTRA:          -7.314
REMARK INTER:                  -7.281
REMARK INTRA:                  -0.033
REMARK UNBOUND:                -0.283
REMARK SMILES CC1=CCC[C@@H](C)C(=O)C[C@@H](C(C)C)C(=O)C1
REMARK SMILES IDX 8 1 9 2 6 3 7 4 5 5 4 6 3 7 2 8 1 9 10 11 11 12 15 13 16 14
REMARK SMILES IDX 17 15 12 17 13 18 14 19
REMARK H PARENT
REMARK Flexibility Score: 70.00
ROOT
ATOM      1  C   UNL     1     -20.476 -36.393  -5.021  1.00  0.00     0.136 C 
ATOM      2  O   UNL     1     -20.566 -35.172  -5.010  1.00  0.00    -0.299 OA
ENDROOT
BRANCH   1   3
ATOM      3  C   UNL     1     -21.240 -37.197  -6.081  1.00  0.00     0.053 C 
ATOM      4  C   UNL     1     -22.293 -36.317  -6.782  1.00  0.00     0.016 C 
BRANCH   3   5
ATOM      5  C   UNL     1     -21.936 -38.470  -5.513  1.00  0.00     0.015 C 
BRANCH   5   6
ATOM      6  C   UNL     1     -21.530 -39.820  -6.144  1.00  0.00     0.028 C 
BRANCH   6   7
ATOM      7  C   UNL     1     -20.429 -39.677  -7.170  1.00  0.00    -0.028 C 
ATOM      8  C   UNL     1     -19.109 -39.861  -6.924  1.00  0.00    -0.070 CG0
ATOM      9  C   UNL     1     -18.137 -39.604  -8.047  1.00  0.00     0.039 C 
ATOM     10  G   UNL     1     -18.574 -40.329  -5.580  1.00  0.00     0.000 G0
ENDBRANCH   6   7
ENDBRANCH   5   6
ENDBRANCH   3   5
ENDBRANCH   1   3
BRANCH   1  11
ATOM     11  C   UNL     1     -19.594 -37.039  -3.975  1.00  0.00     0.087 C 
BRANCH  11  12
ATOM     12  C   UNL     1     -18.404 -37.848  -4.572  1.00  0.00     0.066 C 
BRANCH  12  13
ATOM     13  C   UNL     1     -18.660 -39.344  -4.428  1.00  0.00     0.140 C 
ATOM     14  O   UNL     1     -19.023 -39.778  -3.344  1.00  0.00    -0.299 OA
BRANCH  13  15
ATOM     15  C   UNL     1     -18.544 -40.334  -5.572  1.00  0.00     0.106 CG0
ATOM     16  G   UNL     1     -19.117 -39.873  -6.903  1.00  0.00     0.000 G0
ENDBRANCH  13  15
ENDBRANCH  12  13
BRANCH  12  17
ATOM     17  C   UNL     1     -17.020 -37.402  -4.005  1.00  0.00    -0.006 C 
ATOM     18  C   UNL     1     -16.913 -35.869  -3.963  1.00  0.00     0.008 C 
ATOM     19  C   UNL     1     -15.802 -37.984  -4.749  1.00  0.00     0.008 C 
ENDBRANCH  12  17
ENDBRANCH  11  12
ENDBRANCH   1  11
TORSDOF 1
ENDMDL
MODEL 6
REMARK VINA RESULT:    -4.590      1.688      3.749
REMARK INTER + INTRA:          -7.288
REMARK INTER:                  -7.180
REMARK INTRA:                  -0.108
REMARK UNBOUND:                -0.283
REMARK SMILES CC1=CCC[C@@H](C)C(=O)C[C@@H](C(C)C)C(=O)C1
REMARK SMILES IDX 8 1 9 2 6 3 7 4 5 5 4 6 3 7 2 8 1 9 10 11 11 12 15 13 16 14
REMARK SMILES IDX 17 15 12 17 13 18 14 19
REMARK H PARENT
REMARK Flexibility Score: 70.00
ROOT
ATOM      1  C   UNL     1     -21.627 -38.472  -6.101  1.00  0.00     0.136 C 
ATOM      2  O   UNL     1     -22.344 -39.449  -5.928  1.00  0.00    -0.299 OA
ENDROOT
BRANCH   1   3
ATOM      3  C   UNL     1     -22.127 -37.083  -5.684  1.00  0.00     0.053 C 
ATOM      4  C   UNL     1     -22.786 -36.359  -6.875  1.00  0.00     0.016 C 
BRANCH   3   5
ATOM      5  C   UNL     1     -21.011 -36.173  -5.090  1.00  0.00     0.015 C 
BRANCH   5   6
ATOM      6  C   UNL     1     -20.214 -36.747  -3.896  1.00  0.00     0.028 C 
BRANCH   6   7
ATOM      7  C   UNL     1     -18.768 -36.310  -3.895  1.00  0.00    -0.028 C 
ATOM      8  C   UNL     1     -17.703 -37.146  -3.956  1.00  0.00    -0.070 CG0
ATOM      9  C   UNL     1     -16.324 -36.544  -3.870  1.00  0.00     0.039 C 
ATOM     10  G   UNL     1     -17.840 -38.651  -4.126  1.00  0.00     0.000 G0
ENDBRANCH   6   7
ENDBRANCH   5   6
ENDBRANCH   3   5
ENDBRANCH   1   3
BRANCH   1  11
ATOM     11  C   UNL     1     -20.266 -38.706  -6.719  1.00  0.00     0.087 C 
BRANCH  11  12
ATOM     12  C   UNL     1     -19.414 -39.775  -5.973  1.00  0.00     0.066 C 
BRANCH  12  13
ATOM     13  C   UNL     1     -18.086 -39.173  -5.525  1.00  0.00     0.140 C 
ATOM     14  O   UNL     1     -17.191 -39.045  -6.348  1.00  0.00    -0.299 OA
BRANCH  13  15
ATOM     15  C   UNL     1     -17.821 -38.667  -4.120  1.00  0.00     0.106 CG0
ATOM     16  G   UNL     1     -17.705 -37.158  -3.973  1.00  0.00     0.000 G0
ENDBRANCH  13  15
ENDBRANCH  12  13
BRANCH  12  17
ATOM     17  C   UNL     1     -19.248 -41.097  -6.786  1.00  0.00    -0.006 C 
ATOM     18  C   UNL     1     -19.495 -40.854  -8.283  1.00  0.00     0.008 C 
ATOM     19  C   UNL     1     -20.129 -42.265  -6.301  1.00  0.00     0.008 C 
ENDBRANCH  12  17
ENDBRANCH  11  12
ENDBRANCH   1  11
TORSDOF 1
ENDMDL
MODEL 7
REMARK VINA RESULT:    -4.426      2.175      5.322
REMARK INTER + INTRA:          -7.037
REMARK INTER:                  -7.541
REMARK INTRA:                   0.504
REMARK UNBOUND:                -0.283
REMARK SMILES CC1=CCC[C@@H](C)C(=O)C[C@@H](C(C)C)C(=O)C1
REMARK SMILES IDX 8 1 9 2 6 3 7 4 5 5 4 6 3 7 2 8 1 9 10 11 11 12 15 13 16 14
REMARK SMILES IDX 17 15 12 17 13 18 14 19
REMARK H PARENT
REMARK Flexibility Score: 70.00
ROOT
ATOM      1  C   UNL     1     -20.217 -37.761  -4.988  1.00  0.00     0.136 C 
ATOM      2  O   UNL     1     -20.268 -36.832  -4.192  1.00  0.00    -0.299 OA
ENDROOT
BRANCH   1   3
ATOM      3  C   UNL     1     -21.184 -37.791  -6.178  1.00  0.00     0.053 C 
ATOM      4  C   UNL     1     -21.926 -36.448  -6.314  1.00  0.00     0.016 C 
BRANCH   3   5
ATOM      5  C   UNL     1     -22.228 -38.945  -6.102  1.00  0.00     0.015 C 
BRANCH   5   6
ATOM      6  C   UNL     1     -21.666 -40.376  -5.938  1.00  0.00     0.028 C 
BRANCH   6   7
ATOM      7  C   UNL     1     -21.238 -40.989  -7.250  1.00  0.00    -0.028 C 
ATOM      8  C   UNL     1     -19.958 -41.272  -7.595  1.00  0.00    -0.070 CG0
ATOM      9  C   UNL     1     -19.700 -41.815  -8.978  1.00  0.00     0.039 C 
ATOM     10  G   UNL     1     -18.784 -41.084  -6.648  1.00  0.00     0.000 G0
ENDBRANCH   6   7
ENDBRANCH   5   6
ENDBRANCH   3   5
ENDBRANCH   1   3
BRANCH   1  11
ATOM     11  C   UNL     1     -19.178 -38.834  -4.743  1.00  0.00     0.087 C 
BRANCH  11  12
ATOM     12  C   UNL     1     -17.936 -38.727  -5.677  1.00  0.00     0.066 C 
BRANCH  12  13
ATOM     13  C   UNL     1     -18.018 -39.773  -6.785  1.00  0.00     0.140 C 
ATOM     14  O   UNL     1     -17.411 -39.576  -7.827  1.00  0.00    -0.299 OA
BRANCH  13  15
ATOM     15  C   UNL     1     -18.772 -41.083  -6.653  1.00  0.00     0.106 CG0
ATOM     16  G   UNL     1     -19.957 -41.259  -7.590  1.00  0.00     0.000 G0
ENDBRANCH  13  15
ENDBRANCH  12  13
BRANCH  12  17
ATOM     17  C   UNL     1     -16.584 -38.760  -4.898  1.00  0.00    -0.006 C 
ATOM     18  C   UNL     1     -16.402 -37.483  -4.062  1.00  0.00     0.008 C 
ATOM     19  C   UNL     1     -15.339 -38.982  -5.779  1.00  0.00     0.008 C 
ENDBRANCH  12  17
ENDBRANCH  11  12
ENDBRANCH   1  11
TORSDOF 1
ENDMDL
MODEL 8
REMARK VINA RESULT:    -4.330      2.222      4.691
REMARK INTER + INTRA:          -6.891
REMARK INTER:                  -6.431
REMARK INTRA:                  -0.460
REMARK UNBOUND:                -0.283
REMARK SMILES CC1=CCC[C@@H](C)C(=O)C[C@@H](C(C)C)C(=O)C1
REMARK SMILES IDX 8 1 9 2 6 3 7 4 5 5 4 6 3 7 2 8 1 9 10 11 11 12 15 13 16 14
REMARK SMILES IDX 17 15 12 17 13 18 14 19
REMARK H PARENT
REMARK Flexibility Score: 70.00
ROOT
ATOM      1  C   UNL     1     -17.966 -40.495  -8.700  1.00  0.00     0.136 C 
ATOM      2  O   UNL     1     -17.627 -40.355  -9.868  1.00  0.00    -0.299 OA
ENDROOT
BRANCH   1   3
ATOM      3  C   UNL     1     -18.724 -41.761  -8.278  1.00  0.00     0.053 C 
ATOM      4  C   UNL     1     -18.302 -42.964  -9.145  1.00  0.00     0.016 C 
BRANCH   3   5
ATOM      5  C   UNL     1     -20.273 -41.607  -8.339  1.00  0.00     0.015 C 
BRANCH   5   6
ATOM      6  C   UNL     1     -20.983 -41.246  -7.014  1.00  0.00     0.028 C 
BRANCH   6   7
ATOM      7  C   UNL     1     -21.333 -39.779  -6.920  1.00  0.00    -0.028 C 
ATOM      8  C   UNL     1     -20.842 -38.921  -5.994  1.00  0.00    -0.070 CG0
ATOM      9  C   UNL     1     -21.355 -37.504  -5.999  1.00  0.00     0.039 C 
ATOM     10  G   UNL     1     -19.790 -39.319  -4.971  1.00  0.00     0.000 G0
ENDBRANCH   6   7
ENDBRANCH   5   6
ENDBRANCH   3   5
ENDBRANCH   1   3
BRANCH   1  11
ATOM     11  C   UNL     1     -17.601 -39.393  -7.730  1.00  0.00     0.087 C 
BRANCH  11  12
ATOM     12  C   UNL     1     -17.483 -39.872  -6.252  1.00  0.00     0.066 C 
BRANCH  12  13
ATOM     13  C   UNL     1     -18.340 -38.996  -5.345  1.00  0.00     0.140 C 
ATOM     14  O   UNL     1     -17.873 -37.947  -4.927  1.00  0.00    -0.299 OA
BRANCH  13  15
ATOM     15  C   UNL     1     -19.772 -39.323  -4.966  1.00  0.00     0.106 CG0
ATOM     16  G   UNL     1     -20.830 -38.937  -5.988  1.00  0.00     0.000 G0
ENDBRANCH  13  15
ENDBRANCH  12  13
BRANCH  12  17
ATOM     17  C   UNL     1     -16.003 -39.998  -5.770  1.00  0.00    -0.006 C 
ATOM     18  C   UNL     1     -15.037 -39.405  -6.808  1.00  0.00     0.008 C 
ATOM     19  C   UNL     1     -15.563 -41.431  -5.414  1.00  0.00     0.008 C 
ENDBRANCH  12  17
ENDBRANCH  11  12
ENDBRANCH   1  11
TORSDOF 1
ENDMDL
MODEL 9
REMARK VINA RESULT:    -4.318      1.707      3.850
REMARK INTER + INTRA:          -6.873
REMARK INTER:                  -6.828
REMARK INTRA:                  -0.045
REMARK UNBOUND:                -0.283
REMARK SMILES CC1=CCC[C@@H](C)C(=O)C[C@@H](C(C)C)C(=O)C1
REMARK SMILES IDX 8 1 9 2 6 3 7 4 5 5 4 6 3 7 2 8 1 9 10 11 11 12 15 13 16 14
REMARK SMILES IDX 17 15 12 17 13 18 14 19
REMARK H PARENT
REMARK Flexibility Score: 70.00
ROOT
ATOM      1  C   UNL     1     -21.178 -37.269  -6.091  1.00  0.00     0.136 C 
ATOM      2  O   UNL     1     -21.912 -36.516  -6.718  1.00  0.00    -0.299 OA
ENDROOT
BRANCH   1   3
ATOM      3  C   UNL     1     -20.976 -37.049  -4.586  1.00  0.00     0.053 C 
ATOM      4  C   UNL     1     -22.064 -36.116  -4.020  1.00  0.00     0.016 C 
BRANCH   3   5
ATOM      5  C   UNL     1     -19.574 -36.476  -4.224  1.00  0.00     0.015 C 
BRANCH   5   6
ATOM      6  C   UNL     1     -18.590 -37.444  -3.529  1.00  0.00     0.028 C 
BRANCH   6   7
ATOM      7  C   UNL     1     -17.249 -37.512  -4.223  1.00  0.00    -0.028 C 
ATOM      8  C   UNL     1     -16.764 -38.598  -4.871  1.00  0.00    -0.070 CG0
ATOM      9  C   UNL     1     -15.373 -38.518  -5.445  1.00  0.00     0.039 C 
ATOM     10  G   UNL     1     -17.563 -39.878  -5.056  1.00  0.00     0.000 G0
ENDBRANCH   6   7
ENDBRANCH   5   6
ENDBRANCH   3   5
ENDBRANCH   1   3
BRANCH   1  11
ATOM     11  C   UNL     1     -20.512 -38.392  -6.856  1.00  0.00     0.087 C 
BRANCH  11  12
ATOM     12  C   UNL     1     -20.064 -39.583  -5.956  1.00  0.00     0.066 C 
BRANCH  12  13
ATOM     13  C   UNL     1     -18.582 -39.874  -6.167  1.00  0.00     0.140 C 
ATOM     14  O   UNL     1     -18.178 -40.073  -7.304  1.00  0.00    -0.299 OA
BRANCH  13  15
ATOM     15  C   UNL     1     -17.556 -39.879  -5.050  1.00  0.00     0.106 CG0
ATOM     16  G   UNL     1     -16.767 -38.591  -4.873  1.00  0.00     0.000 G0
ENDBRANCH  13  15
ENDBRANCH  12  13
BRANCH  12  17
ATOM     17  C   UNL     1     -20.970 -40.843  -6.120  1.00  0.00    -0.006 C 
ATOM     18  C   UNL     1     -20.366 -42.051  -5.387  1.00  0.00     0.008 C 
ATOM     19  C   UNL     1     -21.278 -41.227  -7.580  1.00  0.00     0.008 C 
ENDBRANCH  12  17
ENDBRANCH  11  12
ENDBRANCH   1  11
TORSDOF 1
ENDMDL
