MODEL 1
REMARK VINA RESULT:    -5.581      0.000      0.000
REMARK INTER + INTRA:          -6.823
REMARK INTER:                  -6.560
REMARK INTRA:                  -0.264
REMARK UNBOUND:                -0.264
REMARK SMILES O=c1cc(-c2ccc(O)c(O)c2)oc2cc(O)cc(O)c12
REMARK SMILES IDX 4 1 3 2 2 3 1 4 21 5 19 6 18 7 16 8 15 9 14 10 13 11 5 12
REMARK SMILES IDX 6 13 7 14 8 15 12 16 10 17 9 18 11 20 20 22 17 24
REMARK H PARENT 9 19 11 21 20 23 17 25
REMARK Flexibility Score: inf
ROOT
ATOM      1  C   UNL     1      16.973  -6.077  27.399  1.00  0.00     0.138 A 
ATOM      2  C   UNL     1      15.931  -5.294  27.913  1.00  0.00     0.100 A 
ATOM      3  C   UNL     1      16.228  -4.120  28.608  1.00  0.00     0.197 A 
ATOM      4  O   UNL     1      15.270  -3.406  29.003  1.00  0.00    -0.289 OA
ATOM      5  C   UNL     1      17.577  -3.750  28.817  1.00  0.00     0.107 A 
ATOM      6  C   UNL     1      17.999  -2.597  29.547  1.00  0.00     0.134 A 
ATOM      7  C   UNL     1      19.359  -2.268  29.590  1.00  0.00     0.093 A 
ATOM      8  C   UNL     1      20.318  -3.082  28.979  1.00  0.00     0.123 A 
ATOM      9  C   UNL     1      19.921  -4.237  28.311  1.00  0.00     0.094 A 
ATOM     10  C   UNL     1      18.568  -4.574  28.222  1.00  0.00     0.146 A 
ATOM     11  O   UNL     1      18.230  -5.678  27.562  1.00  0.00    -0.456 OA
ENDROOT
BRANCH   1  12
ATOM     12  C   UNL     1      16.714  -7.334  26.652  1.00  0.00     0.021 A 
ATOM     13  C   UNL     1      17.084  -8.592  27.168  1.00  0.00     0.016 A 
ATOM     14  C   UNL     1      16.837  -9.758  26.437  1.00  0.00     0.051 A 
ATOM     15  C   UNL     1      16.226  -9.688  25.180  1.00  0.00     0.157 A 
ATOM     16  C   UNL     1      16.113  -7.273  25.382  1.00  0.00     0.062 A 
ATOM     17  C   UNL     1      15.865  -8.443  24.650  1.00  0.00     0.158 A 
BRANCH  15  18
ATOM     18  O   UNL     1      15.977 -10.848  24.450  1.00  0.00    -0.504 OA
ATOM     19  H   UNL     1      16.716 -11.508  24.236  1.00  0.00     0.293 HD
ENDBRANCH  15  18
BRANCH  17  20
ATOM     20  O   UNL     1      15.260  -8.377  23.396  1.00  0.00    -0.504 OA
ATOM     21  H   UNL     1      14.688  -7.586  23.124  1.00  0.00     0.293 HD
ENDBRANCH  17  20
ENDBRANCH   1  12
BRANCH   6  22
ATOM     22  O   UNL     1      17.133  -1.765  30.262  1.00  0.00    -0.507 OA
ATOM     23  H   UNL     1      16.556  -1.046  29.854  1.00  0.00     0.293 HD
ENDBRANCH   6  22
BRANCH   8  24
ATOM     24  O   UNL     1      21.671  -2.754  29.040  1.00  0.00    -0.508 OA
ATOM     25  H   UNL     1      22.056  -1.990  28.497  1.00  0.00     0.293 HD
ENDBRANCH   8  24
TORSDOF 5
ENDMDL
MODEL 2
REMARK VINA RESULT:    -5.240      1.517      7.309
REMARK INTER + INTRA:          -6.423
REMARK INTER:                  -6.160
REMARK INTRA:                  -0.263
REMARK UNBOUND:                -0.264
REMARK SMILES O=c1cc(-c2ccc(O)c(O)c2)oc2cc(O)cc(O)c12
REMARK SMILES IDX 4 1 3 2 2 3 1 4 21 5 19 6 18 7 16 8 15 9 14 10 13 11 5 12
REMARK SMILES IDX 6 13 7 14 8 15 12 16 10 17 9 18 11 20 20 22 17 24
REMARK H PARENT 9 19 11 21 20 23 17 25
REMARK Flexibility Score: inf
ROOT
ATOM      1  C   UNL     1      17.763  -6.695  27.713  1.00  0.00     0.138 A 
ATOM      2  C   UNL     1      18.119  -7.887  28.358  1.00  0.00     0.100 A 
ATOM      3  C   UNL     1      17.721  -9.110  27.816  1.00  0.00     0.197 A 
ATOM      4  O   UNL     1      18.108 -10.165  28.383  1.00  0.00    -0.289 OA
ATOM      5  C   UNL     1      16.935  -9.135  26.639  1.00  0.00     0.107 A 
ATOM      6  C   UNL     1      16.438 -10.321  26.020  1.00  0.00     0.134 A 
ATOM      7  C   UNL     1      15.769 -10.230  24.793  1.00  0.00     0.093 A 
ATOM      8  C   UNL     1      15.527  -8.990  24.194  1.00  0.00     0.123 A 
ATOM      9  C   UNL     1      15.962  -7.824  24.817  1.00  0.00     0.094 A 
ATOM     10  C   UNL     1      16.662  -7.884  26.025  1.00  0.00     0.146 A 
ATOM     11  O   UNL     1      17.072  -6.748  26.580  1.00  0.00    -0.456 OA
ENDROOT
BRANCH   1  12
ATOM     12  C   UNL     1      18.160  -5.367  28.247  1.00  0.00     0.021 A 
ATOM     13  C   UNL     1      17.212  -4.468  28.774  1.00  0.00     0.016 A 
ATOM     14  C   UNL     1      17.613  -3.219  29.259  1.00  0.00     0.051 A 
ATOM     15  C   UNL     1      18.961  -2.846  29.220  1.00  0.00     0.157 A 
ATOM     16  C   UNL     1      19.510  -4.976  28.199  1.00  0.00     0.062 A 
ATOM     17  C   UNL     1      19.912  -3.725  28.687  1.00  0.00     0.158 A 
BRANCH  15  18
ATOM     18  O   UNL     1      19.364  -1.603  29.704  1.00  0.00    -0.504 OA
ATOM     19  H   UNL     1      18.822  -1.104  30.401  1.00  0.00     0.293 HD
ENDBRANCH  15  18
BRANCH  17  20
ATOM     20  O   UNL     1      21.253  -3.348  28.645  1.00  0.00    -0.504 OA
ATOM     21  H   UNL     1      21.988  -3.968  28.963  1.00  0.00     0.293 HD
ENDBRANCH  17  20
ENDBRANCH   1  12
BRANCH   6  22
ATOM     22  O   UNL     1      16.551 -11.599  26.575  1.00  0.00    -0.507 OA
ATOM     23  H   UNL     1      17.145 -12.332  26.219  1.00  0.00     0.293 HD
ENDBRANCH   6  22
BRANCH   8  24
ATOM     24  O   UNL     1      14.847  -8.909  22.981  1.00  0.00    -0.508 OA
ATOM     25  H   UNL     1      13.942  -8.458  22.909  1.00  0.00     0.293 HD
ENDBRANCH   8  24
TORSDOF 5
ENDMDL
MODEL 3
REMARK VINA RESULT:    -5.131      9.049     12.263
REMARK INTER + INTRA:          -6.294
REMARK INTER:                  -6.000
REMARK INTRA:                  -0.294
REMARK UNBOUND:                -0.264
REMARK SMILES O=c1cc(-c2ccc(O)c(O)c2)oc2cc(O)cc(O)c12
REMARK SMILES IDX 4 1 3 2 2 3 1 4 21 5 19 6 18 7 16 8 15 9 14 10 13 11 5 12
REMARK SMILES IDX 6 13 7 14 8 15 12 16 10 17 9 18 11 20 20 22 17 24
REMARK H PARENT 9 19 11 21 20 23 17 25
REMARK Flexibility Score: inf
ROOT
ATOM      1  C   UNL     1      23.635   3.945  25.936  1.00  0.00     0.138 A 
ATOM      2  C   UNL     1      22.550   4.563  26.570  1.00  0.00     0.100 A 
ATOM      3  C   UNL     1      21.921   3.926  27.641  1.00  0.00     0.197 A 
ATOM      4  O   UNL     1      20.989   4.534  28.230  1.00  0.00    -0.289 OA
ATOM      5  C   UNL     1      22.364   2.648  28.056  1.00  0.00     0.107 A 
ATOM      6  C   UNL     1      21.774   1.886  29.109  1.00  0.00     0.134 A 
ATOM      7  C   UNL     1      22.370   0.684  29.509  1.00  0.00     0.093 A 
ATOM      8  C   UNL     1      23.501   0.187  28.854  1.00  0.00     0.123 A 
ATOM      9  C   UNL     1      24.052   0.897  27.791  1.00  0.00     0.094 A 
ATOM     10  C   UNL     1      23.501   2.116  27.391  1.00  0.00     0.146 A 
ATOM     11  O   UNL     1      24.067   2.769  26.381  1.00  0.00    -0.456 OA
ENDROOT
BRANCH   1  12
ATOM     12  C   UNL     1      24.340   4.578  24.792  1.00  0.00     0.021 A 
ATOM     13  C   UNL     1      24.641   5.954  24.779  1.00  0.00     0.016 A 
ATOM     14  C   UNL     1      25.295   6.526  23.684  1.00  0.00     0.051 A 
ATOM     15  C   UNL     1      25.652   5.738  22.583  1.00  0.00     0.157 A 
ATOM     16  C   UNL     1      24.690   3.797  23.675  1.00  0.00     0.062 A 
ATOM     17  C   UNL     1      25.346   4.371  22.578  1.00  0.00     0.158 A 
BRANCH  15  18
ATOM     18  O   UNL     1      26.305   6.304  21.491  1.00  0.00    -0.504 OA
ATOM     19  H   UNL     1      25.850   6.393  20.589  1.00  0.00     0.293 HD
ENDBRANCH  15  18
BRANCH  17  20
ATOM     20  O   UNL     1      25.699   3.590  21.479  1.00  0.00    -0.504 OA
ATOM     21  H   UNL     1      25.836   3.996  20.561  1.00  0.00     0.293 HD
ENDBRANCH  17  20
ENDBRANCH   1  12
BRANCH   6  22
ATOM     22  O   UNL     1      20.597   2.250  29.772  1.00  0.00    -0.507 OA
ATOM     23  H   UNL     1      19.803   2.692  29.335  1.00  0.00     0.293 HD
ENDBRANCH   6  22
BRANCH   8  24
ATOM     24  O   UNL     1      24.078  -1.017  29.250  1.00  0.00    -0.508 OA
ATOM     25  H   UNL     1      24.866  -1.417  28.752  1.00  0.00     0.293 HD
ENDBRANCH   8  24
TORSDOF 5
ENDMDL
MODEL 4
REMARK VINA RESULT:    -4.970      7.902     10.512
REMARK INTER + INTRA:          -6.105
REMARK INTER:                  -5.813
REMARK INTRA:                  -0.292
REMARK UNBOUND:                -0.264
REMARK SMILES O=c1cc(-c2ccc(O)c(O)c2)oc2cc(O)cc(O)c12
REMARK SMILES IDX 4 1 3 2 2 3 1 4 21 5 19 6 18 7 16 8 15 9 14 10 13 11 5 12
REMARK SMILES IDX 6 13 7 14 8 15 12 16 10 17 9 18 11 20 20 22 17 24
REMARK H PARENT 9 19 11 21 20 23 17 25
REMARK Flexibility Score: inf
ROOT
ATOM      1  C   UNL     1      22.664   2.014  27.704  1.00  0.00     0.138 A 
ATOM      2  C   UNL     1      21.702   3.016  27.896  1.00  0.00     0.100 A 
ATOM      3  C   UNL     1      21.696   4.134  27.061  1.00  0.00     0.197 A 
ATOM      4  O   UNL     1      20.783   4.987  27.218  1.00  0.00    -0.289 OA
ATOM      5  C   UNL     1      22.679   4.264  26.052  1.00  0.00     0.107 A 
ATOM      6  C   UNL     1      22.794   5.380  25.169  1.00  0.00     0.134 A 
ATOM      7  C   UNL     1      23.735   5.345  24.132  1.00  0.00     0.093 A 
ATOM      8  C   UNL     1      24.603   4.260  23.983  1.00  0.00     0.123 A 
ATOM      9  C   UNL     1      24.534   3.190  24.872  1.00  0.00     0.094 A 
ATOM     10  C   UNL     1      23.583   3.181  25.896  1.00  0.00     0.146 A 
ATOM     11  O   UNL     1      23.541   2.133  26.713  1.00  0.00    -0.456 OA
ENDROOT
BRANCH   1  12
ATOM     12  C   UNL     1      22.716   0.803  28.563  1.00  0.00     0.021 A 
ATOM     13  C   UNL     1      23.830  -0.058  28.561  1.00  0.00     0.016 A 
ATOM     14  C   UNL     1      23.847  -1.197  29.372  1.00  0.00     0.051 A 
ATOM     15  C   UNL     1      22.752  -1.498  30.190  1.00  0.00     0.157 A 
ATOM     16  C   UNL     1      21.615   0.484  29.378  1.00  0.00     0.062 A 
ATOM     17  C   UNL     1      21.632  -0.658  30.192  1.00  0.00     0.158 A 
BRANCH  15  18
ATOM     18  O   UNL     1      22.767  -2.632  31.000  1.00  0.00    -0.504 OA
ATOM     19  H   UNL     1      21.911  -3.115  31.250  1.00  0.00     0.293 HD
ENDBRANCH  15  18
BRANCH  17  20
ATOM     20  O   UNL     1      20.542  -0.962  31.004  1.00  0.00    -0.504 OA
ATOM     21  H   UNL     1      19.754  -0.332  31.094  1.00  0.00     0.293 HD
ENDBRANCH  17  20
ENDBRANCH   1  12
BRANCH   6  22
ATOM     22  O   UNL     1      22.034   6.548  25.283  1.00  0.00    -0.507 OA
ATOM     23  H   UNL     1      22.402   7.484  25.218  1.00  0.00     0.293 HD
ENDBRANCH   6  22
BRANCH   8  24
ATOM     24  O   UNL     1      25.546   4.241  22.958  1.00  0.00    -0.508 OA
ATOM     25  H   UNL     1      25.295   3.981  22.011  1.00  0.00     0.293 HD
ENDBRANCH   8  24
TORSDOF 5
ENDMDL
MODEL 5
REMARK VINA RESULT:    -4.888      8.301     11.337
REMARK INTER + INTRA:          -6.009
REMARK INTER:                  -5.698
REMARK INTRA:                  -0.311
REMARK UNBOUND:                -0.264
REMARK SMILES O=c1cc(-c2ccc(O)c(O)c2)oc2cc(O)cc(O)c12
REMARK SMILES IDX 4 1 3 2 2 3 1 4 21 5 19 6 18 7 16 8 15 9 14 10 13 11 5 12
REMARK SMILES IDX 6 13 7 14 8 15 12 16 10 17 9 18 11 20 20 22 17 24
REMARK H PARENT 9 19 11 21 20 23 17 25
REMARK Flexibility Score: inf
ROOT
ATOM      1  C   UNL     1      23.082   2.775  27.105  1.00  0.00     0.138 A 
ATOM      2  C   UNL     1      24.260   3.403  26.676  1.00  0.00     0.100 A 
ATOM      3  C   UNL     1      24.181   4.565  25.906  1.00  0.00     0.197 A 
ATOM      4  O   UNL     1      25.255   5.140  25.588  1.00  0.00    -0.289 OA
ATOM      5  C   UNL     1      22.916   5.080  25.538  1.00  0.00     0.107 A 
ATOM      6  C   UNL     1      22.715   6.234  24.722  1.00  0.00     0.134 A 
ATOM      7  C   UNL     1      21.416   6.718  24.520  1.00  0.00     0.093 A 
ATOM      8  C   UNL     1      20.308   6.055  25.056  1.00  0.00     0.123 A 
ATOM      9  C   UNL     1      20.491   4.899  25.809  1.00  0.00     0.094 A 
ATOM     10  C   UNL     1      21.776   4.410  26.057  1.00  0.00     0.146 A 
ATOM     11  O   UNL     1      21.907   3.311  26.793  1.00  0.00    -0.456 OA
ENDROOT
BRANCH   1  12
ATOM     12  C   UNL     1      23.109   1.538  27.926  1.00  0.00     0.021 A 
ATOM     13  C   UNL     1      24.206   0.655  27.899  1.00  0.00     0.016 A 
ATOM     14  C   UNL     1      24.199  -0.508  28.674  1.00  0.00     0.051 A 
ATOM     15  C   UNL     1      23.096  -0.814  29.481  1.00  0.00     0.157 A 
ATOM     16  C   UNL     1      21.999   1.215  28.729  1.00  0.00     0.062 A 
ATOM     17  C   UNL     1      21.993   0.049  29.506  1.00  0.00     0.158 A 
BRANCH  15  18
ATOM     18  O   UNL     1      23.086  -1.971  30.255  1.00  0.00    -0.504 OA
ATOM     19  H   UNL     1      23.947  -2.410  30.563  1.00  0.00     0.293 HD
ENDBRANCH  15  18
BRANCH  17  20
ATOM     20  O   UNL     1      20.895  -0.260  30.307  1.00  0.00    -0.504 OA
ATOM     21  H   UNL     1      20.341   0.464  30.749  1.00  0.00     0.293 HD
ENDBRANCH  17  20
ENDBRANCH   1  12
BRANCH   6  22
ATOM     22  O   UNL     1      23.745   6.919  24.071  1.00  0.00    -0.507 OA
ATOM     23  H   UNL     1      24.708   6.624  24.047  1.00  0.00     0.293 HD
ENDBRANCH   6  22
BRANCH   8  24
ATOM     24  O   UNL     1      19.019   6.537  24.837  1.00  0.00    -0.508 OA
ATOM     25  H   UNL     1      18.512   6.328  23.984  1.00  0.00     0.293 HD
ENDBRANCH   8  24
TORSDOF 5
ENDMDL
MODEL 6
REMARK VINA RESULT:    -4.885      1.205      2.776
REMARK INTER + INTRA:          -6.005
REMARK INTER:                  -5.735
REMARK INTRA:                  -0.270
REMARK UNBOUND:                -0.264
REMARK SMILES O=c1cc(-c2ccc(O)c(O)c2)oc2cc(O)cc(O)c12
REMARK SMILES IDX 4 1 3 2 2 3 1 4 21 5 19 6 18 7 16 8 15 9 14 10 13 11 5 12
REMARK SMILES IDX 6 13 7 14 8 15 12 16 10 17 9 18 11 20 20 22 17 24
REMARK H PARENT 9 19 11 21 20 23 17 25
REMARK Flexibility Score: inf
ROOT
ATOM      1  C   UNL     1      17.178  -6.087  27.460  1.00  0.00     0.138 A 
ATOM      2  C   UNL     1      18.508  -5.703  27.681  1.00  0.00     0.100 A 
ATOM      3  C   UNL     1      18.779  -4.527  28.383  1.00  0.00     0.197 A 
ATOM      4  O   UNL     1      19.981  -4.241  28.620  1.00  0.00    -0.289 OA
ATOM      5  C   UNL     1      17.710  -3.717  28.836  1.00  0.00     0.107 A 
ATOM      6  C   UNL     1      17.867  -2.477  29.526  1.00  0.00     0.134 A 
ATOM      7  C   UNL     1      16.738  -1.819  30.028  1.00  0.00     0.093 A 
ATOM      8  C   UNL     1      15.453  -2.327  29.814  1.00  0.00     0.123 A 
ATOM      9  C   UNL     1      15.287  -3.508  29.096  1.00  0.00     0.094 A 
ATOM     10  C   UNL     1      16.396  -4.205  28.611  1.00  0.00     0.146 A 
ATOM     11  O   UNL     1      16.194  -5.337  27.944  1.00  0.00    -0.456 OA
ENDROOT
BRANCH   1  12
ATOM     12  C   UNL     1      16.834  -7.328  26.719  1.00  0.00     0.021 A 
ATOM     13  C   UNL     1      17.126  -8.604  27.238  1.00  0.00     0.016 A 
ATOM     14  C   UNL     1      16.801  -9.755  26.514  1.00  0.00     0.051 A 
ATOM     15  C   UNL     1      16.187  -9.651  25.260  1.00  0.00     0.157 A 
ATOM     16  C   UNL     1      16.230  -7.233  25.452  1.00  0.00     0.062 A 
ATOM     17  C   UNL     1      15.903  -8.388  24.727  1.00  0.00     0.158 A 
BRANCH  15  18
ATOM     18  O   UNL     1      15.860 -10.796  24.537  1.00  0.00    -0.504 OA
ATOM     19  H   UNL     1      16.387 -11.656  24.640  1.00  0.00     0.293 HD
ENDBRANCH  15  18
BRANCH  17  20
ATOM     20  O   UNL     1      15.296  -8.287  23.477  1.00  0.00    -0.504 OA
ATOM     21  H   UNL     1      14.427  -7.782  23.348  1.00  0.00     0.293 HD
ENDBRANCH  17  20
ENDBRANCH   1  12
BRANCH   6  22
ATOM     22  O   UNL     1      19.098  -1.841  29.719  1.00  0.00    -0.507 OA
ATOM     23  H   UNL     1      19.482  -1.133  29.113  1.00  0.00     0.293 HD
ENDBRANCH   6  22
BRANCH   8  24
ATOM     24  O   UNL     1      14.334  -1.658  30.305  1.00  0.00    -0.508 OA
ATOM     25  H   UNL     1      13.422  -2.098  30.332  1.00  0.00     0.293 HD
ENDBRANCH   8  24
TORSDOF 5
ENDMDL
MODEL 7
REMARK VINA RESULT:    -4.814      7.393     10.586
REMARK INTER + INTRA:          -5.921
REMARK INTER:                  -5.612
REMARK INTRA:                  -0.309
REMARK UNBOUND:                -0.264
REMARK SMILES O=c1cc(-c2ccc(O)c(O)c2)oc2cc(O)cc(O)c12
REMARK SMILES IDX 4 1 3 2 2 3 1 4 21 5 19 6 18 7 16 8 15 9 14 10 13 11 5 12
REMARK SMILES IDX 6 13 7 14 8 15 12 16 10 17 9 18 11 20 20 22 17 24
REMARK H PARENT 9 19 11 21 20 23 17 25
REMARK Flexibility Score: inf
ROOT
ATOM      1  C   UNL     1      23.442   1.515  27.923  1.00  0.00     0.138 A 
ATOM      2  C   UNL     1      24.787   1.905  27.854  1.00  0.00     0.100 A 
ATOM      3  C   UNL     1      25.144   3.016  27.088  1.00  0.00     0.197 A 
ATOM      4  O   UNL     1      26.349   3.379  27.094  1.00  0.00    -0.289 OA
ATOM      5  C   UNL     1      24.152   3.718  26.362  1.00  0.00     0.107 A 
ATOM      6  C   UNL     1      24.406   4.839  25.516  1.00  0.00     0.134 A 
ATOM      7  C   UNL     1      23.330   5.526  24.940  1.00  0.00     0.093 A 
ATOM      8  C   UNL     1      22.014   5.095  25.132  1.00  0.00     0.123 A 
ATOM      9  C   UNL     1      21.761   3.971  25.912  1.00  0.00     0.094 A 
ATOM     10  C   UNL     1      22.810   3.285  26.528  1.00  0.00     0.146 A 
ATOM     11  O   UNL     1      22.523   2.224  27.277  1.00  0.00    -0.456 OA
ENDROOT
BRANCH   1  12
ATOM     12  C   UNL     1      23.008   0.341  28.723  1.00  0.00     0.021 A 
ATOM     13  C   UNL     1      23.875  -0.737  28.986  1.00  0.00     0.016 A 
ATOM     14  C   UNL     1      23.435  -1.834  29.733  1.00  0.00     0.051 A 
ATOM     15  C   UNL     1      22.124  -1.877  30.222  1.00  0.00     0.157 A 
ATOM     16  C   UNL     1      21.688   0.282  29.206  1.00  0.00     0.062 A 
ATOM     17  C   UNL     1      21.248  -0.818  29.955  1.00  0.00     0.158 A 
BRANCH  15  18
ATOM     18  O   UNL     1      21.683  -2.968  30.967  1.00  0.00    -0.504 OA
ATOM     19  H   UNL     1      21.768  -3.916  30.619  1.00  0.00     0.293 HD
ENDBRANCH  15  18
BRANCH  17  20
ATOM     20  O   UNL     1      19.942  -0.865  30.439  1.00  0.00    -0.504 OA
ATOM     21  H   UNL     1      19.693  -1.433  31.240  1.00  0.00     0.293 HD
ENDBRANCH  17  20
ENDBRANCH   1  12
BRANCH   6  22
ATOM     22  O   UNL     1      25.686   5.299  25.191  1.00  0.00    -0.507 OA
ATOM     23  H   UNL     1      25.885   6.176  24.736  1.00  0.00     0.293 HD
ENDBRANCH   6  22
BRANCH   8  24
ATOM     24  O   UNL     1      20.951   5.776  24.542  1.00  0.00    -0.508 OA
ATOM     25  H   UNL     1      21.062   6.279  23.669  1.00  0.00     0.293 HD
ENDBRANCH   8  24
TORSDOF 5
ENDMDL
MODEL 8
REMARK VINA RESULT:    -4.800      4.194      7.501
REMARK INTER + INTRA:          -5.906
REMARK INTER:                  -5.613
REMARK INTRA:                  -0.293
REMARK UNBOUND:                -0.264
REMARK SMILES O=c1cc(-c2ccc(O)c(O)c2)oc2cc(O)cc(O)c12
REMARK SMILES IDX 4 1 3 2 2 3 1 4 21 5 19 6 18 7 16 8 15 9 14 10 13 11 5 12
REMARK SMILES IDX 6 13 7 14 8 15 12 16 10 17 9 18 11 20 20 22 17 24
REMARK H PARENT 9 19 11 21 20 23 17 25
REMARK Flexibility Score: inf
ROOT
ATOM      1  C   UNL     1      14.863 -10.466  22.452  1.00  0.00     0.138 A 
ATOM      2  C   UNL     1      14.471 -11.539  23.264  1.00  0.00     0.100 A 
ATOM      3  C   UNL     1      14.659 -11.465  24.644  1.00  0.00     0.197 A 
ATOM      4  O   UNL     1      14.241 -12.417  25.353  1.00  0.00    -0.289 OA
ATOM      5  C   UNL     1      15.275 -10.322  25.209  1.00  0.00     0.107 A 
ATOM      6  C   UNL     1      15.555 -10.154  26.599  1.00  0.00     0.134 A 
ATOM      7  C   UNL     1      16.061  -8.931  27.057  1.00  0.00     0.093 A 
ATOM      8  C   UNL     1      16.352  -7.893  26.168  1.00  0.00     0.123 A 
ATOM      9  C   UNL     1      16.132  -8.066  24.805  1.00  0.00     0.094 A 
ATOM     10  C   UNL     1      15.596  -9.262  24.320  1.00  0.00     0.146 A 
ATOM     11  O   UNL     1      15.387  -9.382  23.013  1.00  0.00    -0.456 OA
ENDROOT
BRANCH   1  12
ATOM     12  C   UNL     1      14.686 -10.493  20.977  1.00  0.00     0.021 A 
ATOM     13  C   UNL     1      15.056 -11.613  20.208  1.00  0.00     0.016 A 
ATOM     14  C   UNL     1      14.888 -11.607  18.820  1.00  0.00     0.051 A 
ATOM     15  C   UNL     1      14.355 -10.483  18.178  1.00  0.00     0.157 A 
ATOM     16  C   UNL     1      14.164  -9.364  20.321  1.00  0.00     0.062 A 
ATOM     17  C   UNL     1      13.995  -9.358  18.930  1.00  0.00     0.158 A 
BRANCH  15  18
ATOM     18  O   UNL     1      14.185 -10.474  16.795  1.00  0.00    -0.504 OA
ATOM     19  H   UNL     1      14.003 -11.326  16.278  1.00  0.00     0.293 HD
ENDBRANCH  15  18
BRANCH  17  20
ATOM     20  O   UNL     1      13.468  -8.239  18.287  1.00  0.00    -0.504 OA
ATOM     21  H   UNL     1      12.556  -8.259  17.849  1.00  0.00     0.293 HD
ENDBRANCH  17  20
ENDBRANCH   1  12
BRANCH   6  22
ATOM     22  O   UNL     1      15.381 -11.156  27.558  1.00  0.00    -0.507 OA
ATOM     23  H   UNL     1      16.019 -11.921  27.715  1.00  0.00     0.293 HD
ENDBRANCH   6  22
BRANCH   8  24
ATOM     24  O   UNL     1      16.869  -6.685  26.632  1.00  0.00    -0.508 OA
ATOM     25  H   UNL     1      16.539  -6.262  27.492  1.00  0.00     0.293 HD
ENDBRANCH   8  24
TORSDOF 5
ENDMDL
MODEL 9
REMARK VINA RESULT:    -4.726      6.104     10.200
REMARK INTER + INTRA:          -5.819
REMARK INTER:                  -5.532
REMARK INTRA:                  -0.287
REMARK UNBOUND:                -0.264
REMARK SMILES O=c1cc(-c2ccc(O)c(O)c2)oc2cc(O)cc(O)c12
REMARK SMILES IDX 4 1 3 2 2 3 1 4 21 5 19 6 18 7 16 8 15 9 14 10 13 11 5 12
REMARK SMILES IDX 6 13 7 14 8 15 12 16 10 17 9 18 11 20 20 22 17 24
REMARK H PARENT 9 19 11 21 20 23 17 25
REMARK Flexibility Score: inf
ROOT
ATOM      1  C   UNL     1      23.091   1.195  28.872  1.00  0.00     0.138 A 
ATOM      2  C   UNL     1      23.096   1.638  30.201  1.00  0.00     0.100 A 
ATOM      3  C   UNL     1      22.507   0.851  31.193  1.00  0.00     0.197 A 
ATOM      4  O   UNL     1      22.581   1.245  32.386  1.00  0.00    -0.289 OA
ATOM      5  C   UNL     1      21.883  -0.370  30.842  1.00  0.00     0.107 A 
ATOM      6  C   UNL     1      21.216  -1.234  31.762  1.00  0.00     0.134 A 
ATOM      7  C   UNL     1      20.736  -2.473  31.321  1.00  0.00     0.093 A 
ATOM      8  C   UNL     1      20.847  -2.853  29.980  1.00  0.00     0.123 A 
ATOM      9  C   UNL     1      21.449  -1.994  29.065  1.00  0.00     0.094 A 
ATOM     10  C   UNL     1      21.968  -0.766  29.481  1.00  0.00     0.146 A 
ATOM     11  O   UNL     1      22.548   0.019  28.578  1.00  0.00    -0.456 OA
ENDROOT
BRANCH   1  12
ATOM     12  C   UNL     1      23.703   1.993  27.778  1.00  0.00     0.021 A 
ATOM     13  C   UNL     1      25.003   2.522  27.887  1.00  0.00     0.016 A 
ATOM     14  C   UNL     1      25.550   3.279  26.846  1.00  0.00     0.051 A 
ATOM     15  C   UNL     1      24.807   3.525  25.686  1.00  0.00     0.157 A 
ATOM     16  C   UNL     1      22.959   2.257  26.614  1.00  0.00     0.062 A 
ATOM     17  C   UNL     1      23.508   3.016  25.570  1.00  0.00     0.158 A 
BRANCH  15  18
ATOM     18  O   UNL     1      25.349   4.277  24.646  1.00  0.00    -0.504 OA
ATOM     19  H   UNL     1      25.605   5.250  24.774  1.00  0.00     0.293 HD
ENDBRANCH  15  18
BRANCH  17  20
ATOM     20  O   UNL     1      22.769   3.266  24.416  1.00  0.00    -0.504 OA
ATOM     21  H   UNL     1      22.135   2.576  24.032  1.00  0.00     0.293 HD
ENDBRANCH  17  20
ENDBRANCH   1  12
BRANCH   6  22
ATOM     22  O   UNL     1      20.977  -0.914  33.103  1.00  0.00    -0.507 OA
ATOM     23  H   UNL     1      20.169  -1.205  33.630  1.00  0.00     0.293 HD
ENDBRANCH   6  22
BRANCH   8  24
ATOM     24  O   UNL     1      20.353  -4.082  29.548  1.00  0.00    -0.508 OA
ATOM     25  H   UNL     1      19.673  -4.601  30.090  1.00  0.00     0.293 HD
ENDBRANCH   8  24
TORSDOF 5
ENDMDL
