MODEL 1
REMARK VINA RESULT:    -5.729      0.000      0.000
REMARK INTER + INTRA:          -8.563
REMARK INTER:                  -7.738
REMARK INTRA:                  -0.824
REMARK UNBOUND:                -0.824
REMARK SMILES CC(=O)CCC=C(C)CCC=C(C)C
REMARK SMILES IDX 7 1 6 2 8 3 9 4 10 5 11 6 13 7 12 8 14 9 5 10 4 11 2 12 3 13
REMARK SMILES IDX 1 14
REMARK H PARENT
REMARK Flexibility Score: inf
ROOT
ATOM      1  C   UNL     1     -24.806  20.177 -33.514  1.00  0.00    -0.077 C 
ATOM      2  C   UNL     1     -26.097  20.316 -33.132  1.00  0.00    -0.028 C 
ATOM      3  C   UNL     1     -24.423  19.933 -34.956  1.00  0.00     0.039 C 
ENDROOT
BRANCH   1   4
ATOM      4  C   UNL     1     -23.718  20.258 -32.465  1.00  0.00     0.034 C 
BRANCH   4   5
ATOM      5  C   UNL     1     -24.184  19.631 -31.147  1.00  0.00     0.032 C 
BRANCH   5   6
ATOM      6  C   UNL     1     -23.951  18.140 -31.151  1.00  0.00    -0.028 C 
ATOM      7  C   UNL     1     -24.530  15.758 -30.809  1.00  0.00     0.039 C 
ATOM      8  C   UNL     1     -24.879  17.224 -30.791  1.00  0.00    -0.080 C 
ATOM      9  C   UNL     1     -26.286  17.614 -30.410  1.00  0.00     0.039 C 
ENDBRANCH   5   6
ENDBRANCH   4   5
ENDBRANCH   1   4
BRANCH   2  10
ATOM     10  C   UNL     1     -27.274  20.296 -34.074  1.00  0.00     0.035 C 
BRANCH  10  11
ATOM     11  C   UNL     1     -28.562  20.683 -33.342  1.00  0.00     0.079 C 
BRANCH  11  12
ATOM     12  C   UNL     1     -29.443  19.482 -33.139  1.00  0.00     0.130 C 
ATOM     13  O   UNL     1     -29.060  18.560 -32.433  1.00  0.00    -0.300 OA
ATOM     14  C   UNL     1     -30.776  19.393 -33.817  1.00  0.00     0.087 C 
ENDBRANCH  11  12
ENDBRANCH  10  11
ENDBRANCH   2  10
TORSDOF 6
ENDMDL
MODEL 2
REMARK VINA RESULT:    -5.571      2.075      5.083
REMARK INTER + INTRA:          -8.349
REMARK INTER:                  -7.632
REMARK INTRA:                  -0.717
REMARK UNBOUND:                -0.824
REMARK SMILES CC(=O)CCC=C(C)CCC=C(C)C
REMARK SMILES IDX 7 1 6 2 8 3 9 4 10 5 11 6 13 7 12 8 14 9 5 10 4 11 2 12 3 13
REMARK SMILES IDX 1 14
REMARK H PARENT
REMARK Flexibility Score: inf
ROOT
ATOM      1  C   UNL     1     -26.609  19.116 -32.483  1.00  0.00    -0.077 C 
ATOM      2  C   UNL     1     -25.837  18.502 -31.558  1.00  0.00    -0.028 C 
ATOM      3  C   UNL     1     -28.068  18.766 -32.666  1.00  0.00     0.039 C 
ENDROOT
BRANCH   1   4
ATOM      4  C   UNL     1     -25.990  20.178 -33.367  1.00  0.00     0.034 C 
BRANCH   4   5
ATOM      5  C   UNL     1     -24.493  20.327 -33.072  1.00  0.00     0.032 C 
BRANCH   5   6
ATOM      6  C   UNL     1     -24.170  21.738 -32.645  1.00  0.00    -0.028 C 
ATOM      7  C   UNL     1     -23.413  23.517 -31.100  1.00  0.00     0.039 C 
ATOM      8  C   UNL     1     -23.676  22.071 -31.430  1.00  0.00    -0.080 C 
ATOM      9  C   UNL     1     -23.330  21.032 -30.393  1.00  0.00     0.039 C 
ENDBRANCH   5   6
ENDBRANCH   4   5
ENDBRANCH   1   4
BRANCH   2  10
ATOM     10  C   UNL     1     -26.332  17.458 -30.589  1.00  0.00     0.035 C 
BRANCH  10  11
ATOM     11  C   UNL     1     -25.303  16.334 -30.429  1.00  0.00     0.079 C 
BRANCH  11  12
ATOM     12  C   UNL     1     -25.986  15.005 -30.267  1.00  0.00     0.130 C 
ATOM     13  O   UNL     1     -27.206  14.941 -30.303  1.00  0.00    -0.300 OA
ATOM     14  C   UNL     1     -25.183  13.760 -30.036  1.00  0.00     0.087 C 
ENDBRANCH  11  12
ENDBRANCH  10  11
ENDBRANCH   2  10
TORSDOF 6
ENDMDL
MODEL 3
REMARK VINA RESULT:    -5.552      1.741      4.921
REMARK INTER + INTRA:          -8.324
REMARK INTER:                  -7.519
REMARK INTRA:                  -0.805
REMARK UNBOUND:                -0.824
REMARK SMILES CC(=O)CCC=C(C)CCC=C(C)C
REMARK SMILES IDX 7 1 6 2 8 3 9 4 10 5 11 6 13 7 12 8 14 9 5 10 4 11 2 12 3 13
REMARK SMILES IDX 1 14
REMARK H PARENT
REMARK Flexibility Score: inf
ROOT
ATOM      1  C   UNL     1     -24.350  19.876 -31.947  1.00  0.00    -0.077 C 
ATOM      2  C   UNL     1     -25.047  18.730 -31.763  1.00  0.00    -0.028 C 
ATOM      3  C   UNL     1     -23.527  20.496 -30.842  1.00  0.00     0.039 C 
ENDROOT
BRANCH   1   4
ATOM      4  C   UNL     1     -24.408  20.559 -33.297  1.00  0.00     0.034 C 
BRANCH   4   5
ATOM      5  C   UNL     1     -25.650  20.118 -34.079  1.00  0.00     0.032 C 
BRANCH   5   6
ATOM      6  C   UNL     1     -26.844  20.963 -33.707  1.00  0.00    -0.028 C 
ATOM      7  C   UNL     1     -29.177  21.399 -33.008  1.00  0.00     0.039 C 
ATOM      8  C   UNL     1     -28.044  20.462 -33.334  1.00  0.00    -0.080 C 
ATOM      9  C   UNL     1     -28.283  18.980 -33.184  1.00  0.00     0.039 C 
ENDBRANCH   5   6
ENDBRANCH   4   5
ENDBRANCH   1   4
BRANCH   2  10
ATOM     10  C   UNL     1     -25.048  17.927 -30.487  1.00  0.00     0.035 C 
BRANCH  10  11
ATOM     11  C   UNL     1     -26.307  17.061 -30.392  1.00  0.00     0.079 C 
BRANCH  11  12
ATOM     12  C   UNL     1     -25.947  15.603 -30.316  1.00  0.00     0.130 C 
ATOM     13  O   UNL     1     -26.828  14.766 -30.177  1.00  0.00    -0.300 OA
ATOM     14  C   UNL     1     -24.514  15.169 -30.381  1.00  0.00     0.087 C 
ENDBRANCH  11  12
ENDBRANCH  10  11
ENDBRANCH   2  10
TORSDOF 6
ENDMDL
MODEL 4
REMARK VINA RESULT:    -5.434      3.919      6.273
REMARK INTER + INTRA:          -8.164
REMARK INTER:                  -7.676
REMARK INTRA:                  -0.487
REMARK UNBOUND:                -0.824
REMARK SMILES CC(=O)CCC=C(C)CCC=C(C)C
REMARK SMILES IDX 7 1 6 2 8 3 9 4 10 5 11 6 13 7 12 8 14 9 5 10 4 11 2 12 3 13
REMARK SMILES IDX 1 14
REMARK H PARENT
REMARK Flexibility Score: inf
ROOT
ATOM      1  C   UNL     1     -25.480  15.341 -30.493  1.00  0.00    -0.077 C 
ATOM      2  C   UNL     1     -26.226  16.464 -30.379  1.00  0.00    -0.028 C 
ATOM      3  C   UNL     1     -23.969  15.382 -30.482  1.00  0.00     0.039 C 
ENDROOT
BRANCH   1   4
ATOM      4  C   UNL     1     -26.181  14.008 -30.646  1.00  0.00     0.034 C 
BRANCH   4   5
ATOM      5  C   UNL     1     -27.313  13.866 -29.623  1.00  0.00     0.032 C 
BRANCH   5   6
ATOM      6  C   UNL     1     -28.411  12.982 -30.159  1.00  0.00    -0.028 C 
ATOM      7  C   UNL     1     -30.394  11.506 -30.030  1.00  0.00     0.039 C 
ATOM      8  C   UNL     1     -29.357  12.392 -29.391  1.00  0.00    -0.080 C 
ATOM      9  C   UNL     1     -29.443  12.628 -27.904  1.00  0.00     0.039 C 
ENDBRANCH   5   6
ENDBRANCH   4   5
ENDBRANCH   1   4
BRANCH   2  10
ATOM     10  C   UNL     1     -25.662  17.848 -30.183  1.00  0.00     0.035 C 
BRANCH  10  11
ATOM     11  C   UNL     1     -25.346  18.502 -31.531  1.00  0.00     0.079 C 
BRANCH  11  12
ATOM     12  C   UNL     1     -23.944  19.046 -31.546  1.00  0.00     0.130 C 
ATOM     13  O   UNL     1     -23.134  18.613 -32.352  1.00  0.00    -0.300 OA
ATOM     14  C   UNL     1     -23.525  20.096 -30.562  1.00  0.00     0.087 C 
ENDBRANCH  11  12
ENDBRANCH  10  11
ENDBRANCH   2  10
TORSDOF 6
ENDMDL
MODEL 5
REMARK VINA RESULT:    -5.417      3.462      5.789
REMARK INTER + INTRA:          -8.141
REMARK INTER:                  -7.794
REMARK INTRA:                  -0.348
REMARK UNBOUND:                -0.824
REMARK SMILES CC(=O)CCC=C(C)CCC=C(C)C
REMARK SMILES IDX 7 1 6 2 8 3 9 4 10 5 11 6 13 7 12 8 14 9 5 10 4 11 2 12 3 13
REMARK SMILES IDX 1 14
REMARK H PARENT
REMARK Flexibility Score: inf
ROOT
ATOM      1  C   UNL     1     -24.489  16.468 -30.908  1.00  0.00    -0.077 C 
ATOM      2  C   UNL     1     -25.471  15.706 -30.372  1.00  0.00    -0.028 C 
ATOM      3  C   UNL     1     -23.127  15.901 -31.234  1.00  0.00     0.039 C 
ENDROOT
BRANCH   1   4
ATOM      4  C   UNL     1     -24.763  17.932 -31.177  1.00  0.00     0.034 C 
BRANCH   4   5
ATOM      5  C   UNL     1     -23.664  18.540 -32.055  1.00  0.00     0.032 C 
BRANCH   5   6
ATOM      6  C   UNL     1     -23.901  20.014 -32.266  1.00  0.00    -0.028 C 
ATOM      7  C   UNL     1     -23.898  22.416 -31.667  1.00  0.00     0.039 C 
ATOM      8  C   UNL     1     -23.593  20.972 -31.362  1.00  0.00    -0.080 C 
ATOM      9  C   UNL     1     -22.903  20.653 -30.059  1.00  0.00     0.039 C 
ENDBRANCH   5   6
ENDBRANCH   4   5
ENDBRANCH   1   4
BRANCH   2  10
ATOM     10  C   UNL     1     -25.348  14.230 -30.090  1.00  0.00     0.035 C 
BRANCH  10  11
ATOM     11  C   UNL     1     -26.679  13.516 -30.342  1.00  0.00     0.079 C 
BRANCH  11  12
ATOM     12  C   UNL     1     -26.666  12.817 -31.673  1.00  0.00     0.130 C 
ATOM     13  O   UNL     1     -26.281  13.414 -32.668  1.00  0.00    -0.300 OA
ATOM     14  C   UNL     1     -27.147  11.403 -31.795  1.00  0.00     0.087 C 
ENDBRANCH  11  12
ENDBRANCH  10  11
ENDBRANCH   2  10
TORSDOF 6
ENDMDL
MODEL 6
REMARK VINA RESULT:    -5.401      2.940      4.787
REMARK INTER + INTRA:          -8.120
REMARK INTER:                  -7.522
REMARK INTRA:                  -0.597
REMARK UNBOUND:                -0.824
REMARK SMILES CC(=O)CCC=C(C)CCC=C(C)C
REMARK SMILES IDX 7 1 6 2 8 3 9 4 10 5 11 6 13 7 12 8 14 9 5 10 4 11 2 12 3 13
REMARK SMILES IDX 1 14
REMARK H PARENT
REMARK Flexibility Score: inf
ROOT
ATOM      1  C   UNL     1     -24.333  20.364 -32.084  1.00  0.00    -0.077 C 
ATOM      2  C   UNL     1     -24.979  20.879 -33.156  1.00  0.00    -0.028 C 
ATOM      3  C   UNL     1     -24.423  18.899 -31.726  1.00  0.00     0.039 C 
ENDROOT
BRANCH   1   4
ATOM      4  C   UNL     1     -23.504  21.286 -31.216  1.00  0.00     0.034 C 
BRANCH   4   5
ATOM      5  C   UNL     1     -23.897  22.750 -31.444  1.00  0.00     0.032 C 
BRANCH   5   6
ATOM      6  C   UNL     1     -22.783  23.675 -31.020  1.00  0.00    -0.028 C 
ATOM      7  C   UNL     1     -21.423  25.742 -31.054  1.00  0.00     0.039 C 
ATOM      8  C   UNL     1     -22.584  24.912 -31.533  1.00  0.00    -0.080 C 
ATOM      9  C   UNL     1     -23.521  25.519 -32.548  1.00  0.00     0.039 C 
ENDBRANCH   5   6
ENDBRANCH   4   5
ENDBRANCH   1   4
BRANCH   2  10
ATOM     10  C   UNL     1     -25.805  20.071 -34.124  1.00  0.00     0.035 C 
BRANCH  10  11
ATOM     11  C   UNL     1     -27.262  20.544 -34.122  1.00  0.00     0.079 C 
BRANCH  11  12
ATOM     12  C   UNL     1     -28.140  19.560 -33.399  1.00  0.00     0.130 C 
ATOM     13  O   UNL     1     -27.794  18.392 -33.304  1.00  0.00    -0.300 OA
ATOM     14  C   UNL     1     -29.451  19.996 -32.816  1.00  0.00     0.087 C 
ENDBRANCH  11  12
ENDBRANCH  10  11
ENDBRANCH   2  10
TORSDOF 6
ENDMDL
MODEL 7
REMARK VINA RESULT:    -5.282      3.086      5.848
REMARK INTER + INTRA:          -7.958
REMARK INTER:                  -7.482
REMARK INTRA:                  -0.476
REMARK UNBOUND:                -0.824
REMARK SMILES CC(=O)CCC=C(C)CCC=C(C)C
REMARK SMILES IDX 7 1 6 2 8 3 9 4 10 5 11 6 13 7 12 8 14 9 5 10 4 11 2 12 3 13
REMARK SMILES IDX 1 14
REMARK H PARENT
REMARK Flexibility Score: inf
ROOT
ATOM      1  C   UNL     1     -25.374  15.902 -30.379  1.00  0.00    -0.077 C 
ATOM      2  C   UNL     1     -26.426  15.094 -30.115  1.00  0.00    -0.028 C 
ATOM      3  C   UNL     1     -23.970  15.363 -30.524  1.00  0.00     0.039 C 
ENDROOT
BRANCH   1   4
ATOM      4  C   UNL     1     -25.611  17.390 -30.522  1.00  0.00     0.034 C 
BRANCH   4   5
ATOM      5  C   UNL     1     -24.554  18.026 -31.433  1.00  0.00     0.032 C 
BRANCH   5   6
ATOM      6  C   UNL     1     -24.027  19.305 -30.830  1.00  0.00    -0.028 C 
ATOM      7  C   UNL     1     -23.362  21.689 -30.805  1.00  0.00     0.039 C 
ATOM      8  C   UNL     1     -23.927  20.477 -31.499  1.00  0.00    -0.080 C 
ATOM      9  C   UNL     1     -24.408  20.632 -32.920  1.00  0.00     0.039 C 
ENDBRANCH   5   6
ENDBRANCH   4   5
ENDBRANCH   1   4
BRANCH   2  10
ATOM     10  C   UNL     1     -26.340  13.594 -29.986  1.00  0.00     0.035 C 
BRANCH  10  11
ATOM     11  C   UNL     1     -27.584  12.926 -30.579  1.00  0.00     0.079 C 
BRANCH  11  12
ATOM     12  C   UNL     1     -28.804  13.249 -29.761  1.00  0.00     0.130 C 
ATOM     13  O   UNL     1     -29.731  13.863 -30.269  1.00  0.00    -0.300 OA
ATOM     14  C   UNL     1     -28.882  12.846 -28.319  1.00  0.00     0.087 C 
ENDBRANCH  11  12
ENDBRANCH  10  11
ENDBRANCH   2  10
TORSDOF 6
ENDMDL
MODEL 8
REMARK VINA RESULT:    -5.257      2.879      5.045
REMARK INTER + INTRA:          -7.925
REMARK INTER:                  -7.341
REMARK INTRA:                  -0.584
REMARK UNBOUND:                -0.824
REMARK SMILES CC(=O)CCC=C(C)CCC=C(C)C
REMARK SMILES IDX 7 1 6 2 8 3 9 4 10 5 11 6 13 7 12 8 14 9 5 10 4 11 2 12 3 13
REMARK SMILES IDX 1 14
REMARK H PARENT
REMARK Flexibility Score: inf
ROOT
ATOM      1  C   UNL     1     -25.108  17.026 -30.728  1.00  0.00    -0.077 C 
ATOM      2  C   UNL     1     -24.095  17.875 -31.020  1.00  0.00    -0.028 C 
ATOM      3  C   UNL     1     -26.510  17.519 -30.456  1.00  0.00     0.039 C 
ENDROOT
BRANCH   1   4
ATOM      4  C   UNL     1     -24.822  15.541 -30.662  1.00  0.00     0.034 C 
BRANCH   4   5
ATOM      5  C   UNL     1     -26.001  14.786 -30.037  1.00  0.00     0.032 C 
BRANCH   5   6
ATOM      6  C   UNL     1     -26.312  13.535 -30.821  1.00  0.00    -0.028 C 
ATOM      7  C   UNL     1     -27.627  11.543 -31.476  1.00  0.00     0.039 C 
ATOM      8  C   UNL     1     -27.430  12.791 -30.655  1.00  0.00    -0.080 C 
ATOM      9  C   UNL     1     -28.525  13.191 -29.698  1.00  0.00     0.039 C 
ENDBRANCH   5   6
ENDBRANCH   4   5
ENDBRANCH   1   4
BRANCH   2  10
ATOM     10  C   UNL     1     -24.246  19.369 -31.156  1.00  0.00     0.035 C 
BRANCH  10  11
ATOM     11  C   UNL     1     -23.447  19.888 -32.354  1.00  0.00     0.079 C 
BRANCH  11  12
ATOM     12  C   UNL     1     -24.317  19.980 -33.577  1.00  0.00     0.130 C 
ATOM     13  O   UNL     1     -23.820  19.857 -34.687  1.00  0.00    -0.300 OA
ATOM     14  C   UNL     1     -25.786  20.247 -33.446  1.00  0.00     0.087 C 
ENDBRANCH  11  12
ENDBRANCH  10  11
ENDBRANCH   2  10
TORSDOF 6
ENDMDL
MODEL 9
REMARK VINA RESULT:    -5.178      3.601      5.680
REMARK INTER + INTRA:          -7.818
REMARK INTER:                  -7.332
REMARK INTRA:                  -0.486
REMARK UNBOUND:                -0.824
REMARK SMILES CC(=O)CCC=C(C)CCC=C(C)C
REMARK SMILES IDX 7 1 6 2 8 3 9 4 10 5 11 6 13 7 12 8 14 9 5 10 4 11 2 12 3 13
REMARK SMILES IDX 1 14
REMARK H PARENT
REMARK Flexibility Score: inf
ROOT
ATOM      1  C   UNL     1     -24.827  16.500 -30.759  1.00  0.00    -0.077 C 
ATOM      2  C   UNL     1     -24.927  17.845 -30.860  1.00  0.00    -0.028 C 
ATOM      3  C   UNL     1     -23.560  15.764 -31.130  1.00  0.00     0.039 C 
ENDROOT
BRANCH   1   4
ATOM      4  C   UNL     1     -26.023  15.710 -30.271  1.00  0.00     0.034 C 
BRANCH   4   5
ATOM      5  C   UNL     1     -25.671  14.226 -30.118  1.00  0.00     0.032 C 
BRANCH   5   6
ATOM      6  C   UNL     1     -26.920  13.391 -29.988  1.00  0.00    -0.028 C 
ATOM      7  C   UNL     1     -28.685  11.827 -30.739  1.00  0.00     0.039 C 
ATOM      8  C   UNL     1     -27.413  12.600 -30.969  1.00  0.00    -0.080 C 
ATOM      9  C   UNL     1     -26.703  12.423 -32.288  1.00  0.00     0.039 C 
ENDBRANCH   5   6
ENDBRANCH   4   5
ENDBRANCH   1   4
BRANCH   2  10
ATOM     10  C   UNL     1     -23.806  18.755 -31.293  1.00  0.00     0.035 C 
BRANCH  10  11
ATOM     11  C   UNL     1     -23.722  19.985 -30.384  1.00  0.00     0.079 C 
BRANCH  11  12
ATOM     12  C   UNL     1     -23.568  21.241 -31.197  1.00  0.00     0.130 C 
ATOM     13  O   UNL     1     -22.870  22.152 -30.778  1.00  0.00    -0.300 OA
ATOM     14  C   UNL     1     -24.283  21.393 -32.505  1.00  0.00     0.087 C 
ENDBRANCH  11  12
ENDBRANCH  10  11
ENDBRANCH   2  10
TORSDOF 6
ENDMDL
