MODEL 1
REMARK VINA RESULT:    -7.208      0.000      0.000
REMARK INTER + INTRA:          -8.740
REMARK INTER:                  -8.472
REMARK INTRA:                  -0.268
REMARK UNBOUND:                -0.268
REMARK SMILES O=c1cc(-c2ccc(O)c(O)c2)oc2cc(O)cc(O)c12
REMARK SMILES IDX 4 1 3 2 2 3 1 4 21 5 19 6 18 7 16 8 15 9 14 10 13 11 5 12
REMARK SMILES IDX 6 13 7 14 8 15 12 16 10 17 9 18 11 20 20 22 17 24
REMARK H PARENT 9 19 11 21 20 23 17 25
REMARK Flexibility Score: inf
ROOT
ATOM      1  C   UNL     1      18.235  24.268  42.002  1.00  0.00     0.138 A 
ATOM      2  C   UNL     1      16.996  23.851  42.509  1.00  0.00     0.100 A 
ATOM      3  C   UNL     1      16.446  24.505  43.612  1.00  0.00     0.197 A 
ATOM      4  O   UNL     1      15.305  24.150  44.005  1.00  0.00    -0.289 OA
ATOM      5  C   UNL     1      17.156  25.562  44.229  1.00  0.00     0.107 A 
ATOM      6  C   UNL     1      16.712  26.275  45.384  1.00  0.00     0.134 A 
ATOM      7  C   UNL     1      17.444  27.379  45.836  1.00  0.00     0.093 A 
ATOM      8  C   UNL     1      18.634  27.760  45.216  1.00  0.00     0.123 A 
ATOM      9  C   UNL     1      19.106  27.037  44.119  1.00  0.00     0.094 A 
ATOM     10  C   UNL     1      18.380  25.952  43.621  1.00  0.00     0.146 A 
ATOM     11  O   UNL     1      18.856  25.298  42.567  1.00  0.00    -0.456 OA
ENDROOT
BRANCH   1  12
ATOM     12  C   UNL     1      18.866  23.606  40.832  1.00  0.00     0.021 A 
ATOM     13  C   UNL     1      18.412  23.834  39.522  1.00  0.00     0.016 A 
ATOM     14  C   UNL     1      19.019  23.190  38.441  1.00  0.00     0.051 A 
ATOM     15  C   UNL     1      20.080  22.302  38.641  1.00  0.00     0.157 A 
ATOM     16  C   UNL     1      19.923  22.703  41.035  1.00  0.00     0.062 A 
ATOM     17  C   UNL     1      20.537  22.053  39.957  1.00  0.00     0.158 A 
BRANCH  15  18
ATOM     18  O   UNL     1      20.643  21.693  37.518  1.00  0.00    -0.504 OA
ATOM     19  H   UNL     1      21.023  22.200  36.732  1.00  0.00     0.293 HD
ENDBRANCH  15  18
BRANCH  17  20
ATOM     20  O   UNL     1      21.587  21.176  40.236  1.00  0.00    -0.504 OA
ATOM     21  H   UNL     1      22.533  21.471  40.433  1.00  0.00     0.293 HD
ENDBRANCH  17  20
ENDBRANCH   1  12
BRANCH   6  22
ATOM     22  O   UNL     1      15.583  25.926  46.130  1.00  0.00    -0.507 OA
ATOM     23  H   UNL     1      15.352  24.990  46.423  1.00  0.00     0.293 HD
ENDBRANCH   6  22
BRANCH   8  24
ATOM     24  O   UNL     1      19.343  28.855  45.703  1.00  0.00    -0.508 OA
ATOM     25  H   UNL     1      19.790  28.835  46.612  1.00  0.00     0.293 HD
ENDBRANCH   8  24
TORSDOF 5
ENDMDL
MODEL 2
REMARK VINA RESULT:    -7.036      2.073      7.401
REMARK INTER + INTRA:          -8.538
REMARK INTER:                  -8.273
REMARK INTRA:                  -0.265
REMARK UNBOUND:                -0.268
REMARK SMILES O=c1cc(-c2ccc(O)c(O)c2)oc2cc(O)cc(O)c12
REMARK SMILES IDX 4 1 3 2 2 3 1 4 21 5 19 6 18 7 16 8 15 9 14 10 13 11 5 12
REMARK SMILES IDX 6 13 7 14 8 15 12 16 10 17 9 18 11 20 20 22 17 24
REMARK H PARENT 9 19 11 21 20 23 17 25
REMARK Flexibility Score: inf
ROOT
ATOM      1  C   UNL     1      18.905  25.347  40.842  1.00  0.00     0.138 A 
ATOM      2  C   UNL     1      18.696  26.259  39.798  1.00  0.00     0.100 A 
ATOM      3  C   UNL     1      18.940  25.869  38.481  1.00  0.00     0.197 A 
ATOM      4  O   UNL     1      18.684  26.689  37.561  1.00  0.00    -0.289 OA
ATOM      5  C   UNL     1      19.425  24.567  38.211  1.00  0.00     0.107 A 
ATOM      6  C   UNL     1      19.748  24.074  36.911  1.00  0.00     0.134 A 
ATOM      7  C   UNL     1      20.109  22.730  36.755  1.00  0.00     0.093 A 
ATOM      8  C   UNL     1      20.219  21.879  37.854  1.00  0.00     0.123 A 
ATOM      9  C   UNL     1      19.958  22.365  39.136  1.00  0.00     0.094 A 
ATOM     10  C   UNL     1      19.561  23.692  39.322  1.00  0.00     0.146 A 
ATOM     11  O   UNL     1      19.309  24.113  40.557  1.00  0.00    -0.456 OA
ENDROOT
BRANCH   1  12
ATOM     12  C   UNL     1      18.662  25.710  42.261  1.00  0.00     0.021 A 
ATOM     13  C   UNL     1      17.621  25.128  43.004  1.00  0.00     0.016 A 
ATOM     14  C   UNL     1      17.410  25.496  44.335  1.00  0.00     0.051 A 
ATOM     15  C   UNL     1      18.222  26.454  44.949  1.00  0.00     0.157 A 
ATOM     16  C   UNL     1      19.469  26.683  42.874  1.00  0.00     0.062 A 
ATOM     17  C   UNL     1      19.265  27.058  44.208  1.00  0.00     0.158 A 
BRANCH  15  18
ATOM     18  O   UNL     1      17.959  26.776  46.282  1.00  0.00    -0.504 OA
ATOM     19  H   UNL     1      18.131  27.684  46.689  1.00  0.00     0.293 HD
ENDBRANCH  15  18
BRANCH  17  20
ATOM     20  O   UNL     1      20.113  28.026  44.751  1.00  0.00    -0.504 OA
ATOM     21  H   UNL     1      20.666  28.665  44.199  1.00  0.00     0.293 HD
ENDBRANCH  17  20
ENDBRANCH   1  12
BRANCH   6  22
ATOM     22  O   UNL     1      19.754  24.860  35.756  1.00  0.00    -0.507 OA
ATOM     23  H   UNL     1      20.472  24.841  35.050  1.00  0.00     0.293 HD
ENDBRANCH   6  22
BRANCH   8  24
ATOM     24  O   UNL     1      20.596  20.552  37.662  1.00  0.00    -0.508 OA
ATOM     25  H   UNL     1      20.909  20.216  36.758  1.00  0.00     0.293 HD
ENDBRANCH   8  24
TORSDOF 5
ENDMDL
MODEL 3
REMARK VINA RESULT:    -6.772      1.496      3.038
REMARK INTER + INTRA:          -8.228
REMARK INTER:                  -7.960
REMARK INTRA:                  -0.267
REMARK UNBOUND:                -0.268
REMARK SMILES O=c1cc(-c2ccc(O)c(O)c2)oc2cc(O)cc(O)c12
REMARK SMILES IDX 4 1 3 2 2 3 1 4 21 5 19 6 18 7 16 8 15 9 14 10 13 11 5 12
REMARK SMILES IDX 6 13 7 14 8 15 12 16 10 17 9 18 11 20 20 22 17 24
REMARK H PARENT 9 19 11 21 20 23 17 25
REMARK Flexibility Score: inf
ROOT
ATOM      1  C   UNL     1      18.849  25.110  40.927  1.00  0.00     0.138 A 
ATOM      2  C   UNL     1      19.958  25.960  41.042  1.00  0.00     0.100 A 
ATOM      3  C   UNL     1      20.111  26.745  42.185  1.00  0.00     0.197 A 
ATOM      4  O   UNL     1      21.147  27.451  42.287  1.00  0.00    -0.289 OA
ATOM      5  C   UNL     1      19.130  26.701  43.205  1.00  0.00     0.107 A 
ATOM      6  C   UNL     1      19.161  27.487  44.396  1.00  0.00     0.134 A 
ATOM      7  C   UNL     1      18.196  27.273  45.388  1.00  0.00     0.093 A 
ATOM      8  C   UNL     1      17.169  26.347  45.208  1.00  0.00     0.123 A 
ATOM      9  C   UNL     1      17.098  25.611  44.024  1.00  0.00     0.094 A 
ATOM     10  C   UNL     1      18.066  25.776  43.030  1.00  0.00     0.146 A 
ATOM     11  O   UNL     1      17.971  25.047  41.924  1.00  0.00    -0.456 OA
ENDROOT
BRANCH   1  12
ATOM     12  C   UNL     1      18.637  24.255  39.732  1.00  0.00     0.021 A 
ATOM     13  C   UNL     1      17.446  24.309  38.987  1.00  0.00     0.016 A 
ATOM     14  C   UNL     1      17.271  23.485  37.873  1.00  0.00     0.051 A 
ATOM     15  C   UNL     1      18.269  22.587  37.483  1.00  0.00     0.157 A 
ATOM     16  C   UNL     1      19.634  23.343  39.348  1.00  0.00     0.062 A 
ATOM     17  C   UNL     1      19.467  22.513  38.232  1.00  0.00     0.158 A 
BRANCH  15  18
ATOM     18  O   UNL     1      18.031  21.794  36.359  1.00  0.00    -0.504 OA
ATOM     19  H   UNL     1      17.583  22.127  35.518  1.00  0.00     0.293 HD
ENDBRANCH  15  18
BRANCH  17  20
ATOM     20  O   UNL     1      20.506  21.639  37.908  1.00  0.00    -0.504 OA
ATOM     21  H   UNL     1      21.202  21.826  37.200  1.00  0.00     0.293 HD
ENDBRANCH  17  20
ENDBRANCH   1  12
BRANCH   6  22
ATOM     22  O   UNL     1      20.093  28.499  44.641  1.00  0.00    -0.507 OA
ATOM     23  H   UNL     1      20.810  28.791  43.995  1.00  0.00     0.293 HD
ENDBRANCH   6  22
BRANCH   8  24
ATOM     24  O   UNL     1      16.218  26.171  46.211  1.00  0.00    -0.508 OA
ATOM     25  H   UNL     1      16.327  26.596  47.124  1.00  0.00     0.293 HD
ENDBRANCH   8  24
TORSDOF 5
ENDMDL
MODEL 4
REMARK VINA RESULT:    -6.654      1.723      7.040
REMARK INTER + INTRA:          -8.089
REMARK INTER:                  -7.824
REMARK INTRA:                  -0.266
REMARK UNBOUND:                -0.268
REMARK SMILES O=c1cc(-c2ccc(O)c(O)c2)oc2cc(O)cc(O)c12
REMARK SMILES IDX 4 1 3 2 2 3 1 4 21 5 19 6 18 7 16 8 15 9 14 10 13 11 5 12
REMARK SMILES IDX 6 13 7 14 8 15 12 16 10 17 9 18 11 20 20 22 17 24
REMARK H PARENT 9 19 11 21 20 23 17 25
REMARK Flexibility Score: inf
ROOT
ATOM      1  C   UNL     1      17.323  25.399  42.551  1.00  0.00     0.138 A 
ATOM      2  C   UNL     1      16.471  25.662  41.469  1.00  0.00     0.100 A 
ATOM      3  C   UNL     1      16.747  25.102  40.221  1.00  0.00     0.197 A 
ATOM      4  O   UNL     1      15.932  25.305  39.285  1.00  0.00    -0.289 OA
ATOM      5  C   UNL     1      17.900  24.297  40.050  1.00  0.00     0.107 A 
ATOM      6  C   UNL     1      18.302  23.707  38.815  1.00  0.00     0.134 A 
ATOM      7  C   UNL     1      19.398  22.835  38.793  1.00  0.00     0.093 A 
ATOM      8  C   UNL     1      20.141  22.580  39.945  1.00  0.00     0.123 A 
ATOM      9  C   UNL     1      19.788  23.194  41.148  1.00  0.00     0.094 A 
ATOM     10  C   UNL     1      18.679  24.042  41.210  1.00  0.00     0.146 A 
ATOM     11  O   UNL     1      18.368  24.596  42.377  1.00  0.00    -0.456 OA
ENDROOT
BRANCH   1  12
ATOM     12  C   UNL     1      17.076  25.970  43.899  1.00  0.00     0.021 A 
ATOM     13  C   UNL     1      16.152  25.395  44.788  1.00  0.00     0.016 A 
ATOM     14  C   UNL     1      15.934  25.960  46.046  1.00  0.00     0.051 A 
ATOM     15  C   UNL     1      16.621  27.111  46.442  1.00  0.00     0.157 A 
ATOM     16  C   UNL     1      17.757  27.135  44.292  1.00  0.00     0.062 A 
ATOM     17  C   UNL     1      17.544  27.709  45.552  1.00  0.00     0.158 A 
BRANCH  15  18
ATOM     18  O   UNL     1      16.358  27.624  47.713  1.00  0.00    -0.504 OA
ATOM     19  H   UNL     1      16.794  28.454  48.089  1.00  0.00     0.293 HD
ENDBRANCH  15  18
BRANCH  17  20
ATOM     20  O   UNL     1      18.264  28.862  45.874  1.00  0.00    -0.504 OA
ATOM     21  H   UNL     1      17.939  29.569  46.517  1.00  0.00     0.293 HD
ENDBRANCH  17  20
ENDBRANCH   1  12
BRANCH   6  22
ATOM     22  O   UNL     1      17.683  23.962  37.588  1.00  0.00    -0.507 OA
ATOM     23  H   UNL     1      17.090  23.312  37.096  1.00  0.00     0.293 HD
ENDBRANCH   6  22
BRANCH   8  24
ATOM     24  O   UNL     1      21.234  21.719  39.882  1.00  0.00    -0.508 OA
ATOM     25  H   UNL     1      21.575  21.360  38.998  1.00  0.00     0.293 HD
ENDBRANCH   8  24
TORSDOF 5
ENDMDL
MODEL 5
REMARK VINA RESULT:    -6.620      1.807      7.260
REMARK INTER + INTRA:          -8.049
REMARK INTER:                  -7.786
REMARK INTRA:                  -0.263
REMARK UNBOUND:                -0.268
REMARK SMILES O=c1cc(-c2ccc(O)c(O)c2)oc2cc(O)cc(O)c12
REMARK SMILES IDX 4 1 3 2 2 3 1 4 21 5 19 6 18 7 16 8 15 9 14 10 13 11 5 12
REMARK SMILES IDX 6 13 7 14 8 15 12 16 10 17 9 18 11 20 20 22 17 24
REMARK H PARENT 9 19 11 21 20 23 17 25
REMARK Flexibility Score: inf
ROOT
ATOM      1  C   UNL     1      19.016  24.745  41.112  1.00  0.00     0.138 A 
ATOM      2  C   UNL     1      19.639  23.495  41.240  1.00  0.00     0.100 A 
ATOM      3  C   UNL     1      20.026  22.796  40.096  1.00  0.00     0.197 A 
ATOM      4  O   UNL     1      20.638  21.707  40.243  1.00  0.00    -0.289 OA
ATOM      5  C   UNL     1      19.759  23.339  38.816  1.00  0.00     0.107 A 
ATOM      6  C   UNL     1      20.071  22.697  37.580  1.00  0.00     0.134 A 
ATOM      7  C   UNL     1      19.865  23.383  36.376  1.00  0.00     0.093 A 
ATOM      8  C   UNL     1      19.303  24.659  36.359  1.00  0.00     0.123 A 
ATOM      9  C   UNL     1      18.944  25.275  37.559  1.00  0.00     0.094 A 
ATOM     10  C   UNL     1      19.169  24.631  38.779  1.00  0.00     0.146 A 
ATOM     11  O   UNL     1      18.826  25.256  39.900  1.00  0.00    -0.456 OA
ENDROOT
BRANCH   1  12
ATOM     12  C   UNL     1      18.584  25.529  42.296  1.00  0.00     0.021 A 
ATOM     13  C   UNL     1      17.271  25.452  42.794  1.00  0.00     0.016 A 
ATOM     14  C   UNL     1      16.890  26.209  43.904  1.00  0.00     0.051 A 
ATOM     15  C   UNL     1      17.800  27.064  44.533  1.00  0.00     0.157 A 
ATOM     16  C   UNL     1      19.494  26.398  42.920  1.00  0.00     0.062 A 
ATOM     17  C   UNL     1      19.120  27.161  44.034  1.00  0.00     0.158 A 
BRANCH  15  18
ATOM     18  O   UNL     1      17.355  27.791  45.639  1.00  0.00    -0.504 OA
ATOM     19  H   UNL     1      17.300  28.799  45.667  1.00  0.00     0.293 HD
ENDBRANCH  15  18
BRANCH  17  20
ATOM     20  O   UNL     1      20.083  27.996  44.606  1.00  0.00    -0.504 OA
ATOM     21  H   UNL     1      20.843  28.417  44.091  1.00  0.00     0.293 HD
ENDBRANCH  17  20
ENDBRANCH   1  12
BRANCH   6  22
ATOM     22  O   UNL     1      20.557  21.391  37.478  1.00  0.00    -0.507 OA
ATOM     23  H   UNL     1      21.494  21.144  37.202  1.00  0.00     0.293 HD
ENDBRANCH   6  22
BRANCH   8  24
ATOM     24  O   UNL     1      19.099  25.304  35.142  1.00  0.00    -0.508 OA
ATOM     25  H   UNL     1      18.206  25.720  34.906  1.00  0.00     0.293 HD
ENDBRANCH   8  24
TORSDOF 5
ENDMDL
MODEL 6
REMARK VINA RESULT:    -6.575      2.078      7.101
REMARK INTER + INTRA:          -7.996
REMARK INTER:                  -7.726
REMARK INTRA:                  -0.269
REMARK UNBOUND:                -0.268
REMARK SMILES O=c1cc(-c2ccc(O)c(O)c2)oc2cc(O)cc(O)c12
REMARK SMILES IDX 4 1 3 2 2 3 1 4 21 5 19 6 18 7 16 8 15 9 14 10 13 11 5 12
REMARK SMILES IDX 6 13 7 14 8 15 12 16 10 17 9 18 11 20 20 22 17 24
REMARK H PARENT 9 19 11 21 20 23 17 25
REMARK Flexibility Score: inf
ROOT
ATOM      1  C   UNL     1      18.527  25.158  40.790  1.00  0.00     0.138 A 
ATOM      2  C   UNL     1      17.272  25.293  40.180  1.00  0.00     0.100 A 
ATOM      3  C   UNL     1      16.944  24.487  39.090  1.00  0.00     0.197 A 
ATOM      4  O   UNL     1      15.788  24.587  38.603  1.00  0.00    -0.289 OA
ATOM      5  C   UNL     1      17.891  23.561  38.590  1.00  0.00     0.107 A 
ATOM      6  C   UNL     1      17.681  22.716  37.459  1.00  0.00     0.134 A 
ATOM      7  C   UNL     1      18.647  21.757  37.127  1.00  0.00     0.093 A 
ATOM      8  C   UNL     1      19.838  21.653  37.845  1.00  0.00     0.123 A 
ATOM      9  C   UNL     1      20.076  22.511  38.920  1.00  0.00     0.094 A 
ATOM     10  C   UNL     1      19.118  23.455  39.298  1.00  0.00     0.146 A 
ATOM     11  O   UNL     1      19.377  24.244  40.335  1.00  0.00    -0.456 OA
ENDROOT
BRANCH   1  12
ATOM     12  C   UNL     1      18.928  25.992  41.952  1.00  0.00     0.021 A 
ATOM     13  C   UNL     1      20.133  26.715  41.961  1.00  0.00     0.016 A 
ATOM     14  C   UNL     1      20.489  27.483  43.072  1.00  0.00     0.051 A 
ATOM     15  C   UNL     1      19.660  27.541  44.197  1.00  0.00     0.157 A 
ATOM     16  C   UNL     1      18.102  26.039  43.088  1.00  0.00     0.062 A 
ATOM     17  C   UNL     1      18.450  26.807  44.206  1.00  0.00     0.158 A 
BRANCH  15  18
ATOM     18  O   UNL     1      20.073  28.329  45.272  1.00  0.00    -0.504 OA
ATOM     19  H   UNL     1      19.636  29.201  45.534  1.00  0.00     0.293 HD
ENDBRANCH  15  18
BRANCH  17  20
ATOM     20  O   UNL     1      17.574  26.811  45.293  1.00  0.00    -0.504 OA
ATOM     21  H   UNL     1      17.819  26.483  46.217  1.00  0.00     0.293 HD
ENDBRANCH  17  20
ENDBRANCH   1  12
BRANCH   6  22
ATOM     22  O   UNL     1      16.566  22.793  36.621  1.00  0.00    -0.507 OA
ATOM     23  H   UNL     1      15.714  23.285  36.840  1.00  0.00     0.293 HD
ENDBRANCH   6  22
BRANCH   8  24
ATOM     24  O   UNL     1      20.781  20.697  37.477  1.00  0.00    -0.508 OA
ATOM     25  H   UNL     1      21.215  20.089  38.162  1.00  0.00     0.293 HD
ENDBRANCH   8  24
TORSDOF 5
ENDMDL
MODEL 7
REMARK VINA RESULT:    -6.540      1.294      1.895
REMARK INTER + INTRA:          -7.955
REMARK INTER:                  -7.685
REMARK INTRA:                  -0.270
REMARK UNBOUND:                -0.268
REMARK SMILES O=c1cc(-c2ccc(O)c(O)c2)oc2cc(O)cc(O)c12
REMARK SMILES IDX 4 1 3 2 2 3 1 4 21 5 19 6 18 7 16 8 15 9 14 10 13 11 5 12
REMARK SMILES IDX 6 13 7 14 8 15 12 16 10 17 9 18 11 20 20 22 17 24
REMARK H PARENT 9 19 11 21 20 23 17 25
REMARK Flexibility Score: inf
ROOT
ATOM      1  C   UNL     1      18.180  24.057  42.366  1.00  0.00     0.138 A 
ATOM      2  C   UNL     1      17.530  23.160  43.226  1.00  0.00     0.100 A 
ATOM      3  C   UNL     1      17.072  23.603  44.467  1.00  0.00     0.197 A 
ATOM      4  O   UNL     1      16.439  22.793  45.191  1.00  0.00    -0.289 OA
ATOM      5  C   UNL     1      17.292  24.946  44.860  1.00  0.00     0.107 A 
ATOM      6  C   UNL     1      16.905  25.498  46.118  1.00  0.00     0.134 A 
ATOM      7  C   UNL     1      17.072  26.869  46.350  1.00  0.00     0.093 A 
ATOM      8  C   UNL     1      17.666  27.695  45.396  1.00  0.00     0.123 A 
ATOM      9  C   UNL     1      18.097  27.155  44.183  1.00  0.00     0.094 A 
ATOM     10  C   UNL     1      17.913  25.797  43.908  1.00  0.00     0.146 A 
ATOM     11  O   UNL     1      18.325  25.325  42.736  1.00  0.00    -0.456 OA
ENDROOT
BRANCH   1  12
ATOM     12  C   UNL     1      18.688  23.638  41.035  1.00  0.00     0.021 A 
ATOM     13  C   UNL     1      19.847  22.854  40.901  1.00  0.00     0.016 A 
ATOM     14  C   UNL     1      20.307  22.482  39.636  1.00  0.00     0.051 A 
ATOM     15  C   UNL     1      19.633  22.889  38.481  1.00  0.00     0.157 A 
ATOM     16  C   UNL     1      18.018  24.058  39.874  1.00  0.00     0.062 A 
ATOM     17  C   UNL     1      18.472  23.690  38.601  1.00  0.00     0.158 A 
BRANCH  15  18
ATOM     18  O   UNL     1      20.144  22.482  37.248  1.00  0.00    -0.504 OA
ATOM     19  H   UNL     1      20.075  21.540  36.891  1.00  0.00     0.293 HD
ENDBRANCH  15  18
BRANCH  17  20
ATOM     20  O   UNL     1      17.748  24.139  37.495  1.00  0.00    -0.504 OA
ATOM     21  H   UNL     1      18.167  24.571  36.683  1.00  0.00     0.293 HD
ENDBRANCH  17  20
ENDBRANCH   1  12
BRANCH   6  22
ATOM     22  O   UNL     1      16.381  24.746  47.174  1.00  0.00    -0.507 OA
ATOM     23  H   UNL     1      16.080  23.787  47.104  1.00  0.00     0.293 HD
ENDBRANCH   6  22
BRANCH   8  24
ATOM     24  O   UNL     1      17.829  29.051  45.667  1.00  0.00    -0.508 OA
ATOM     25  H   UNL     1      18.746  29.483  45.676  1.00  0.00     0.293 HD
ENDBRANCH   8  24
TORSDOF 5
ENDMDL
MODEL 8
REMARK VINA RESULT:    -6.492      4.191      6.905
REMARK INTER + INTRA:          -7.899
REMARK INTER:                  -7.624
REMARK INTRA:                  -0.275
REMARK UNBOUND:                -0.268
REMARK SMILES O=c1cc(-c2ccc(O)c(O)c2)oc2cc(O)cc(O)c12
REMARK SMILES IDX 4 1 3 2 2 3 1 4 21 5 19 6 18 7 16 8 15 9 14 10 13 11 5 12
REMARK SMILES IDX 6 13 7 14 8 15 12 16 10 17 9 18 11 20 20 22 17 24
REMARK H PARENT 9 19 11 21 20 23 17 25
REMARK Flexibility Score: inf
ROOT
ATOM      1  C   UNL     1      16.128  24.405  44.823  1.00  0.00     0.138 A 
ATOM      2  C   UNL     1      14.797  24.333  44.389  1.00  0.00     0.100 A 
ATOM      3  C   UNL     1      14.236  23.092  44.085  1.00  0.00     0.197 A 
ATOM      4  O   UNL     1      13.021  23.053  43.758  1.00  0.00    -0.289 OA
ATOM      5  C   UNL     1      15.022  21.920  44.189  1.00  0.00     0.107 A 
ATOM      6  C   UNL     1      14.568  20.606  43.867  1.00  0.00     0.134 A 
ATOM      7  C   UNL     1      15.400  19.508  44.120  1.00  0.00     0.093 A 
ATOM      8  C   UNL     1      16.689  19.680  44.624  1.00  0.00     0.123 A 
ATOM      9  C   UNL     1      17.163  20.965  44.892  1.00  0.00     0.094 A 
ATOM     10  C   UNL     1      16.345  22.079  44.684  1.00  0.00     0.146 A 
ATOM     11  O   UNL     1      16.828  23.284  44.964  1.00  0.00    -0.456 OA
ENDROOT
BRANCH   1  12
ATOM     12  C   UNL     1      16.775  25.699  45.157  1.00  0.00     0.021 A 
ATOM     13  C   UNL     1      16.301  26.514  46.200  1.00  0.00     0.016 A 
ATOM     14  C   UNL     1      16.923  27.731  46.486  1.00  0.00     0.051 A 
ATOM     15  C   UNL     1      18.020  28.166  45.736  1.00  0.00     0.157 A 
ATOM     16  C   UNL     1      17.869  26.144  44.395  1.00  0.00     0.062 A 
ATOM     17  C   UNL     1      18.499  27.363  44.675  1.00  0.00     0.158 A 
BRANCH  15  18
ATOM     18  O   UNL     1      18.597  29.392  46.075  1.00  0.00    -0.504 OA
ATOM     19  H   UNL     1      18.281  30.282  45.719  1.00  0.00     0.293 HD
ENDBRANCH  15  18
BRANCH  17  20
ATOM     20  O   UNL     1      19.585  27.733  43.880  1.00  0.00    -0.504 OA
ATOM     21  H   UNL     1      19.598  27.662  42.872  1.00  0.00     0.293 HD
ENDBRANCH  17  20
ENDBRANCH   1  12
BRANCH   6  22
ATOM     22  O   UNL     1      13.331  20.328  43.280  1.00  0.00    -0.507 OA
ATOM     23  H   UNL     1      12.522  19.984  43.773  1.00  0.00     0.293 HD
ENDBRANCH   6  22
BRANCH   8  24
ATOM     24  O   UNL     1      17.494  18.566  44.849  1.00  0.00    -0.508 OA
ATOM     25  H   UNL     1      17.811  17.978  44.087  1.00  0.00     0.293 HD
ENDBRANCH   8  24
TORSDOF 5
ENDMDL
MODEL 9
REMARK VINA RESULT:    -6.375      4.079      7.194
REMARK INTER + INTRA:          -7.761
REMARK INTER:                  -7.487
REMARK INTRA:                  -0.274
REMARK UNBOUND:                -0.268
REMARK SMILES O=c1cc(-c2ccc(O)c(O)c2)oc2cc(O)cc(O)c12
REMARK SMILES IDX 4 1 3 2 2 3 1 4 21 5 19 6 18 7 16 8 15 9 14 10 13 11 5 12
REMARK SMILES IDX 6 13 7 14 8 15 12 16 10 17 9 18 11 20 20 22 17 24
REMARK H PARENT 9 19 11 21 20 23 17 25
REMARK Flexibility Score: inf
ROOT
ATOM      1  C   UNL     1      16.939  23.666  45.686  1.00  0.00     0.138 A 
ATOM      2  C   UNL     1      16.632  22.975  44.505  1.00  0.00     0.100 A 
ATOM      3  C   UNL     1      16.424  21.596  44.546  1.00  0.00     0.197 A 
ATOM      4  O   UNL     1      16.089  21.013  43.482  1.00  0.00    -0.289 OA
ATOM      5  C   UNL     1      16.553  20.901  45.773  1.00  0.00     0.107 A 
ATOM      6  C   UNL     1      16.403  19.490  45.927  1.00  0.00     0.134 A 
ATOM      7  C   UNL     1      16.439  18.929  47.209  1.00  0.00     0.093 A 
ATOM      8  C   UNL     1      16.680  19.717  48.335  1.00  0.00     0.123 A 
ATOM      9  C   UNL     1      16.881  21.090  48.190  1.00  0.00     0.094 A 
ATOM     10  C   UNL     1      16.817  21.685  46.927  1.00  0.00     0.146 A 
ATOM     11  O   UNL     1      17.000  22.998  46.833  1.00  0.00    -0.456 OA
ENDROOT
BRANCH   1  12
ATOM     12  C   UNL     1      17.171  25.132  45.698  1.00  0.00     0.021 A 
ATOM     13  C   UNL     1      16.515  25.976  46.611  1.00  0.00     0.016 A 
ATOM     14  C   UNL     1      16.746  27.353  46.593  1.00  0.00     0.051 A 
ATOM     15  C   UNL     1      17.624  27.919  45.664  1.00  0.00     0.157 A 
ATOM     16  C   UNL     1      18.043  25.703  44.756  1.00  0.00     0.062 A 
ATOM     17  C   UNL     1      18.281  27.083  44.731  1.00  0.00     0.158 A 
BRANCH  15  18
ATOM     18  O   UNL     1      17.812  29.302  45.701  1.00  0.00    -0.504 OA
ATOM     19  H   UNL     1      17.783  29.898  44.886  1.00  0.00     0.293 HD
ENDBRANCH  15  18
BRANCH  17  20
ATOM     20  O   UNL     1      19.167  27.575  43.770  1.00  0.00    -0.504 OA
ATOM     21  H   UNL     1      20.147  27.332  43.729  1.00  0.00     0.293 HD
ENDBRANCH  17  20
ENDBRANCH   1  12
BRANCH   6  22
ATOM     22  O   UNL     1      16.244  18.600  44.861  1.00  0.00    -0.507 OA
ATOM     23  H   UNL     1      15.357  18.273  44.511  1.00  0.00     0.293 HD
ENDBRANCH   6  22
BRANCH   8  24
ATOM     24  O   UNL     1      16.724  19.122  49.593  1.00  0.00    -0.508 OA
ATOM     25  H   UNL     1      17.507  18.546  49.881  1.00  0.00     0.293 HD
ENDBRANCH   8  24
TORSDOF 5
ENDMDL
