MODEL 1
REMARK VINA RESULT:     0.000      0.000      0.000
REMARK INTER + INTRA:          -1.840
REMARK INTER:                   0.000
REMARK INTRA:                  -1.840
REMARK UNBOUND:                -1.840
REMARK SMILES CCCCCCCCCCCC=O
REMARK SMILES IDX 7 1 6 2 5 3 4 4 3 5 2 6 1 7 8 8 9 9 10 10 11 11 12 12 13 13
REMARK H PARENT
REMARK Flexibility Score: inf
ROOT
ATOM      1  C   UNL     1     117.852 111.211 113.005  1.00  0.00     0.000 C 
ENDROOT
BRANCH   1   2
ATOM      2  C   UNL     1     116.908 111.078 114.211  1.00  0.00     0.000 C 
BRANCH   2   3
ATOM      3  C   UNL     1     116.636 112.426 114.902  1.00  0.00    -0.000 C 
BRANCH   3   4
ATOM      4  C   UNL     1     117.699 113.485 114.569  1.00  0.00    -0.000 C 
BRANCH   4   5
ATOM      5  C   UNL     1     118.547 113.874 115.789  1.00  0.00    -0.000 C 
BRANCH   5   6
ATOM      6  C   UNL     1     119.995 114.167 115.379  1.00  0.00    -0.003 C 
ATOM      7  C   UNL     1     120.206 113.925 113.887  1.00  0.00     0.004 C 
ENDBRANCH   5   6
ENDBRANCH   4   5
ENDBRANCH   3   4
ENDBRANCH   2   3
ENDBRANCH   1   2
BRANCH   1   8
ATOM      8  C   UNL     1     119.118 110.353 113.148  1.00  0.00     0.000 C 
BRANCH   8   9
ATOM      9  C   UNL     1     119.260 109.818 114.578  1.00  0.00     0.000 C 
BRANCH   9  10
ATOM     10  C   UNL     1     120.480 110.435 115.279  1.00  0.00     0.008 C 
BRANCH  10  11
ATOM     11  C   UNL     1     120.220 110.702 116.767  1.00  0.00     0.072 C 
BRANCH  11  12
ATOM     12  C   UNL     1     118.879 110.197 117.213  1.00  0.00     0.224 C 
ATOM     13  O   UNL     1     118.111 110.944 117.798  1.00  0.00    -0.303 OA
ENDBRANCH  11  12
ENDBRANCH  10  11
ENDBRANCH   9  10
ENDBRANCH   8   9
ENDBRANCH   1   8
TORSDOF 10
ENDMDL
MODEL 2
REMARK VINA RESULT:     0.000      7.216      9.025
REMARK INTER + INTRA:          -1.840
REMARK INTER:                   0.000
REMARK INTRA:                  -1.840
REMARK UNBOUND:                -1.840
REMARK SMILES CCCCCCCCCCCC=O
REMARK SMILES IDX 7 1 6 2 5 3 4 4 3 5 2 6 1 7 8 8 9 9 10 10 11 11 12 12 13 13
REMARK H PARENT
REMARK Flexibility Score: inf
ROOT
ATOM      1  C   UNL     1     115.426 118.479 116.608  1.00  0.00     0.000 C 
ENDROOT
BRANCH   1   2
ATOM      2  C   UNL     1     116.824 117.860 116.762  1.00  0.00     0.000 C 
BRANCH   2   3
ATOM      3  C   UNL     1     117.621 118.478 117.925  1.00  0.00    -0.000 C 
BRANCH   3   4
ATOM      4  C   UNL     1     117.081 119.854 118.345  1.00  0.00    -0.000 C 
BRANCH   4   5
ATOM      5  C   UNL     1     118.066 120.992 118.040  1.00  0.00    -0.000 C 
BRANCH   5   6
ATOM      6  C   UNL     1     117.321 122.265 117.621  1.00  0.00    -0.003 C 
ATOM      7  C   UNL     1     115.814 122.030 117.570  1.00  0.00     0.004 C 
ENDBRANCH   5   6
ENDBRANCH   4   5
ENDBRANCH   3   4
ENDBRANCH   2   3
ENDBRANCH   1   2
BRANCH   1   8
ATOM      8  C   UNL     1     115.208 119.109 115.224  1.00  0.00     0.000 C 
BRANCH   8   9
ATOM      9  C   UNL     1     116.529 119.207 114.451  1.00  0.00     0.000 C 
BRANCH   9  10
ATOM     10  C   UNL     1     116.930 120.674 114.231  1.00  0.00     0.008 C 
BRANCH  10  11
ATOM     11  C   UNL     1     118.446 120.882 114.340  1.00  0.00     0.072 C 
BRANCH  11  12
ATOM     12  C   UNL     1     119.190 119.589 114.515  1.00  0.00     0.224 C 
ATOM     13  O   UNL     1     119.985 119.464 115.432  1.00  0.00    -0.303 OA
ENDBRANCH  11  12
ENDBRANCH  10  11
ENDBRANCH   9  10
ENDBRANCH   8   9
ENDBRANCH   1   8
TORSDOF 10
ENDMDL
MODEL 3
REMARK VINA RESULT:     0.001      9.527     11.236
REMARK INTER + INTRA:          -1.839
REMARK INTER:                   0.000
REMARK INTRA:                  -1.839
REMARK UNBOUND:                -1.840
REMARK SMILES CCCCCCCCCCCC=O
REMARK SMILES IDX 7 1 6 2 5 3 4 4 3 5 2 6 1 7 8 8 9 9 10 10 11 11 12 12 13 13
REMARK H PARENT
REMARK Flexibility Score: inf
ROOT
ATOM      1  C   UNL     1     118.619 119.214 119.811  1.00  0.00     0.000 C 
ENDROOT
BRANCH   1   2
ATOM      2  C   UNL     1     118.034 120.629 119.932  1.00  0.00     0.000 C 
BRANCH   2   3
ATOM      3  C   UNL     1     116.689 120.652 120.680  1.00  0.00    -0.000 C 
BRANCH   3   4
ATOM      4  C   UNL     1     116.448 119.376 121.501  1.00  0.00    -0.000 C 
BRANCH   4   5
ATOM      5  C   UNL     1     116.408 119.645 123.013  1.00  0.00    -0.000 C 
BRANCH   5   6
ATOM      6  C   UNL     1     117.021 118.476 123.794  1.00  0.00    -0.003 C 
ATOM      7  C   UNL     1     117.543 117.396 122.851  1.00  0.00     0.004 C 
ENDBRANCH   5   6
ENDBRANCH   4   5
ENDBRANCH   3   4
ENDBRANCH   2   3
ENDBRANCH   1   2
BRANCH   1   8
ATOM      8  C   UNL     1     120.017 119.096 120.438  1.00  0.00     0.000 C 
BRANCH   8   9
ATOM      9  C   UNL     1     120.319 120.302 121.336  1.00  0.00     0.000 C 
BRANCH   9  10
ATOM     10  C   UNL     1     120.365 119.888 122.815  1.00  0.00     0.008 C 
BRANCH  10  11
ATOM     11  C   UNL     1     119.803 120.977 123.738  1.00  0.00     0.072 C 
BRANCH  11  12
ATOM     12  C   UNL     1     119.403 122.214 122.987  1.00  0.00     0.224 C 
ATOM     13  O   UNL     1     118.286 122.683 123.137  1.00  0.00    -0.303 OA
ENDBRANCH  11  12
ENDBRANCH  10  11
ENDBRANCH   9  10
ENDBRANCH   8   9
ENDBRANCH   1   8
TORSDOF 10
ENDMDL
MODEL 4
REMARK VINA RESULT:     0.001      8.631     10.080
REMARK INTER + INTRA:          -1.839
REMARK INTER:                   0.000
REMARK INTRA:                  -1.839
REMARK UNBOUND:                -1.840
REMARK SMILES CCCCCCCCCCCC=O
REMARK SMILES IDX 7 1 6 2 5 3 4 4 3 5 2 6 1 7 8 8 9 9 10 10 11 11 12 12 13 13
REMARK H PARENT
REMARK Flexibility Score: inf
ROOT
ATOM      1  C   UNL     1     113.685 117.191 123.284  1.00  0.00     0.000 C 
ENDROOT
BRANCH   1   2
ATOM      2  C   UNL     1     114.070 116.086 122.288  1.00  0.00     0.000 C 
BRANCH   2   3
ATOM      3  C   UNL     1     114.835 116.629 121.067  1.00  0.00    -0.000 C 
BRANCH   3   4
ATOM      4  C   UNL     1     115.467 118.004 121.331  1.00  0.00    -0.000 C 
BRANCH   4   5
ATOM      5  C   UNL     1     117.001 117.955 121.352  1.00  0.00    -0.000 C 
BRANCH   5   6
ATOM      6  C   UNL     1     117.568 118.942 122.379  1.00  0.00    -0.003 C 
ATOM      7  C   UNL     1     116.450 119.646 123.143  1.00  0.00     0.004 C 
ENDBRANCH   5   6
ENDBRANCH   4   5
ENDBRANCH   3   4
ENDBRANCH   2   3
ENDBRANCH   1   2
BRANCH   1   8
ATOM      8  C   UNL     1     114.262 116.949 124.687  1.00  0.00     0.000 C 
BRANCH   8   9
ATOM      9  C   UNL     1     115.305 115.825 124.665  1.00  0.00     0.000 C 
BRANCH   9  10
ATOM     10  C   UNL     1     116.706 116.368 124.985  1.00  0.00     0.008 C 
BRANCH  10  11
ATOM     11  C   UNL     1     117.799 115.666 124.169  1.00  0.00     0.072 C 
BRANCH  11  12
ATOM     12  C   UNL     1     117.257 114.540 123.336  1.00  0.00     0.224 C 
ATOM     13  O   UNL     1     117.495 114.499 122.139  1.00  0.00    -0.303 OA
ENDBRANCH  11  12
ENDBRANCH  10  11
ENDBRANCH   9  10
ENDBRANCH   8   9
ENDBRANCH   1   8
TORSDOF 10
ENDMDL
MODEL 5
REMARK VINA RESULT:     0.001      8.056      9.731
REMARK INTER + INTRA:          -1.838
REMARK INTER:                   0.000
REMARK INTRA:                  -1.838
REMARK UNBOUND:                -1.840
REMARK SMILES CCCCCCCCCCCC=O
REMARK SMILES IDX 7 1 6 2 5 3 4 4 3 5 2 6 1 7 8 8 9 9 10 10 11 11 12 12 13 13
REMARK H PARENT
REMARK Flexibility Score: inf
ROOT
ATOM      1  C   UNL     1     114.009 113.457 123.201  1.00  0.00     0.000 C 
ENDROOT
BRANCH   1   2
ATOM      2  C   UNL     1     114.425 112.534 124.357  1.00  0.00     0.000 C 
BRANCH   2   3
ATOM      3  C   UNL     1     115.349 111.390 123.900  1.00  0.00    -0.000 C 
BRANCH   3   4
ATOM      4  C   UNL     1     116.093 111.719 122.596  1.00  0.00    -0.000 C 
BRANCH   4   5
ATOM      5  C   UNL     1     117.598 111.935 122.814  1.00  0.00    -0.000 C 
BRANCH   5   6
ATOM      6  C   UNL     1     118.139 113.015 121.871  1.00  0.00    -0.003 C 
ATOM      7  C   UNL     1     117.022 113.620 121.025  1.00  0.00     0.004 C 
ENDBRANCH   5   6
ENDBRANCH   4   5
ENDBRANCH   3   4
ENDBRANCH   2   3
ENDBRANCH   1   2
BRANCH   1   8
ATOM      8  C   UNL     1     114.423 114.918 123.434  1.00  0.00     0.000 C 
BRANCH   8   9
ATOM      9  C   UNL     1     115.326 115.043 124.667  1.00  0.00     0.000 C 
BRANCH   9  10
ATOM     10  C   UNL     1     116.729 115.532 124.274  1.00  0.00     0.008 C 
BRANCH  10  11
ATOM     11  C   UNL     1     117.829 114.863 125.109  1.00  0.00     0.072 C 
BRANCH  11  12
ATOM     12  C   UNL     1     117.272 113.985 126.192  1.00  0.00     0.224 C 
ATOM     13  O   UNL     1     117.628 112.820 126.274  1.00  0.00    -0.303 OA
ENDBRANCH  11  12
ENDBRANCH  10  11
ENDBRANCH   9  10
ENDBRANCH   8   9
ENDBRANCH   1   8
TORSDOF 10
ENDMDL
MODEL 6
REMARK VINA RESULT:     0.005      4.591      6.791
REMARK INTER + INTRA:          -1.833
REMARK INTER:                   0.000
REMARK INTRA:                  -1.833
REMARK UNBOUND:                -1.840
REMARK SMILES CCCCCCCCCCCC=O
REMARK SMILES IDX 7 1 6 2 5 3 4 4 3 5 2 6 1 7 8 8 9 9 10 10 11 11 12 12 13 13
REMARK H PARENT
REMARK Flexibility Score: inf
ROOT
ATOM      1  C   UNL     1     113.268 113.995 113.739  1.00  0.00     0.000 C 
ENDROOT
BRANCH   1   2
ATOM      2  C   UNL     1     112.739 113.061 112.640  1.00  0.00     0.000 C 
BRANCH   2   3
ATOM      3  C   UNL     1     113.801 112.059 112.153  1.00  0.00    -0.000 C 
BRANCH   3   4
ATOM      4  C   UNL     1     114.917 111.833 113.185  1.00  0.00    -0.000 C 
BRANCH   4   5
ATOM      5  C   UNL     1     114.854 110.440 113.827  1.00  0.00    -0.000 C 
BRANCH   5   6
ATOM      6  C   UNL     1     115.242 110.501 115.310  1.00  0.00    -0.003 C 
ATOM      7  C   UNL     1     115.615 111.922 115.723  1.00  0.00     0.004 C 
ENDBRANCH   5   6
ENDBRANCH   4   5
ENDBRANCH   3   4
ENDBRANCH   2   3
ENDBRANCH   1   2
BRANCH   1   8
ATOM      8  C   UNL     1     112.468 113.883 115.046  1.00  0.00     0.000 C 
BRANCH   8   9
ATOM      9  C   UNL     1     111.458 112.732 114.974  1.00  0.00     0.000 C 
BRANCH   9  10
ATOM     10  C   UNL     1     111.751 111.674 116.049  1.00  0.00     0.008 C 
BRANCH  10  11
ATOM     11  C   UNL     1     111.538 110.246 115.530  1.00  0.00     0.072 C 
BRANCH  11  12
ATOM     12  C   UNL     1     110.920 110.221 114.162  1.00  0.00     0.224 C 
ATOM     13  O   UNL     1     111.450 109.581 113.267  1.00  0.00    -0.303 OA
ENDBRANCH  11  12
ENDBRANCH  10  11
ENDBRANCH   9  10
ENDBRANCH   8   9
ENDBRANCH   1   8
TORSDOF 10
ENDMDL
MODEL 7
REMARK VINA RESULT:     0.005     12.459     14.073
REMARK INTER + INTRA:          -1.832
REMARK INTER:                   0.000
REMARK INTRA:                  -1.832
REMARK UNBOUND:                -1.840
REMARK SMILES CCCCCCCCCCCC=O
REMARK SMILES IDX 7 1 6 2 5 3 4 4 3 5 2 6 1 7 8 8 9 9 10 10 11 11 12 12 13 13
REMARK H PARENT
REMARK Flexibility Score: inf
ROOT
ATOM      1  C   UNL     1     116.518 118.788 127.615  1.00  0.00     0.000 C 
ENDROOT
BRANCH   1   2
ATOM      2  C   UNL     1     117.329 117.791 128.457  1.00  0.00     0.000 C 
BRANCH   2   3
ATOM      3  C   UNL     1     118.391 118.480 129.332  1.00  0.00    -0.000 C 
BRANCH   3   4
ATOM      4  C   UNL     1     118.757 119.882 128.821  1.00  0.00    -0.000 C 
BRANCH   4   5
ATOM      5  C   UNL     1     120.178 119.948 128.241  1.00  0.00    -0.000 C 
BRANCH   5   6
ATOM      6  C   UNL     1     120.227 120.863 127.012  1.00  0.00    -0.003 C 
ATOM      7  C   UNL     1     118.868 121.507 126.750  1.00  0.00     0.004 C 
ENDBRANCH   5   6
ENDBRANCH   4   5
ENDBRANCH   3   4
ENDBRANCH   2   3
ENDBRANCH   1   2
BRANCH   1   8
ATOM      8  C   UNL     1     116.645 118.528 126.106  1.00  0.00     0.000 C 
BRANCH   8   9
ATOM      9  C   UNL     1     117.707 117.459 125.821  1.00  0.00     0.000 C 
BRANCH   9  10
ATOM     10  C   UNL     1     118.856 118.035 124.980  1.00  0.00     0.008 C 
BRANCH  10  11
ATOM     11  C   UNL     1     120.224 117.506 125.429  1.00  0.00     0.072 C 
BRANCH  11  12
ATOM     12  C   UNL     1     120.107 116.412 126.451  1.00  0.00     0.224 C 
ATOM     13  O   UNL     1     120.733 116.487 127.497  1.00  0.00    -0.303 OA
ENDBRANCH  11  12
ENDBRANCH  10  11
ENDBRANCH   9  10
ENDBRANCH   8   9
ENDBRANCH   1   8
TORSDOF 10
ENDMDL
MODEL 8
REMARK VINA RESULT:     0.013      7.385      8.982
REMARK INTER + INTRA:          -1.819
REMARK INTER:                   0.000
REMARK INTRA:                  -1.819
REMARK UNBOUND:                -1.840
REMARK SMILES CCCCCCCCCCCC=O
REMARK SMILES IDX 7 1 6 2 5 3 4 4 3 5 2 6 1 7 8 8 9 9 10 10 11 11 12 12 13 13
REMARK H PARENT
REMARK Flexibility Score: inf
ROOT
ATOM      1  C   UNL     1     113.635 115.905 120.463  1.00  0.00     0.000 C 
ENDROOT
BRANCH   1   2
ATOM      2  C   UNL     1     114.536 115.879 121.708  1.00  0.00     0.000 C 
BRANCH   2   3
ATOM      3  C   UNL     1     115.914 115.252 121.429  1.00  0.00    -0.000 C 
BRANCH   3   4
ATOM      4  C   UNL     1     116.213 114.053 122.342  1.00  0.00    -0.000 C 
BRANCH   4   5
ATOM      5  C   UNL     1     116.272 112.725 121.572  1.00  0.00    -0.000 C 
BRANCH   5   6
ATOM      6  C   UNL     1     116.150 112.961 120.062  1.00  0.00    -0.003 C 
ATOM      7  C   UNL     1     115.199 111.953 119.422  1.00  0.00     0.004 C 
ENDBRANCH   5   6
ENDBRANCH   4   5
ENDBRANCH   3   4
ENDBRANCH   2   3
ENDBRANCH   1   2
BRANCH   1   8
ATOM      8  C   UNL     1     112.777 114.638 120.327  1.00  0.00     0.000 C 
BRANCH   8   9
ATOM      9  C   UNL     1     112.239 114.191 121.691  1.00  0.00     0.000 C 
BRANCH   9  10
ATOM     10  C   UNL     1     112.525 112.702 121.934  1.00  0.00     0.008 C 
BRANCH  10  11
ATOM     11  C   UNL     1     112.996 112.429 123.369  1.00  0.00     0.072 C 
BRANCH  11  12
ATOM     12  C   UNL     1     112.875 113.639 124.250  1.00  0.00     0.224 C 
ATOM     13  O   UNL     1     113.816 113.978 124.950  1.00  0.00    -0.303 OA
ENDBRANCH  11  12
ENDBRANCH  10  11
ENDBRANCH   9  10
ENDBRANCH   8   9
ENDBRANCH   1   8
TORSDOF 10
ENDMDL
MODEL 9
REMARK VINA RESULT:     0.014      4.999      6.874
REMARK INTER + INTRA:          -1.818
REMARK INTER:                   0.000
REMARK INTRA:                  -1.818
REMARK UNBOUND:                -1.840
REMARK SMILES CCCCCCCCCCCC=O
REMARK SMILES IDX 7 1 6 2 5 3 4 4 3 5 2 6 1 7 8 8 9 9 10 10 11 11 12 12 13 13
REMARK H PARENT
REMARK Flexibility Score: inf
ROOT
ATOM      1  C   UNL     1     120.062 112.841 120.116  1.00  0.00     0.000 C 
ENDROOT
BRANCH   1   2
ATOM      2  C   UNL     1     119.402 113.608 118.959  1.00  0.00     0.000 C 
BRANCH   2   3
ATOM      3  C   UNL     1     120.428 114.163 117.955  1.00  0.00    -0.000 C 
BRANCH   3   4
ATOM      4  C   UNL     1     120.317 115.686 117.778  1.00  0.00    -0.000 C 
BRANCH   4   5
ATOM      5  C   UNL     1     121.547 116.434 118.316  1.00  0.00    -0.000 C 
BRANCH   5   6
ATOM      6  C   UNL     1     122.634 115.450 118.765  1.00  0.00    -0.003 C 
ATOM      7  C   UNL     1     123.242 115.872 120.099  1.00  0.00     0.004 C 
ENDBRANCH   5   6
ENDBRANCH   4   5
ENDBRANCH   3   4
ENDBRANCH   2   3
ENDBRANCH   1   2
BRANCH   1   8
ATOM      8  C   UNL     1     120.420 113.751 121.301  1.00  0.00     0.000 C 
BRANCH   8   9
ATOM      9  C   UNL     1     119.300 114.761 121.574  1.00  0.00     0.000 C 
BRANCH   9  10
ATOM     10  C   UNL     1     119.859 116.189 121.672  1.00  0.00     0.008 C 
BRANCH  10  11
ATOM     11  C   UNL     1     118.980 117.206 120.933  1.00  0.00     0.072 C 
BRANCH  11  12
ATOM     12  C   UNL     1     117.685 116.609 120.464  1.00  0.00     0.224 C 
ATOM     13  O   UNL     1     117.317 116.782 119.313  1.00  0.00    -0.303 OA
ENDBRANCH  11  12
ENDBRANCH  10  11
ENDBRANCH   9  10
ENDBRANCH   8   9
ENDBRANCH   1   8
TORSDOF 10
ENDMDL
