MODEL 1
REMARK VINA RESULT:    -6.252      0.000      0.000
REMARK INTER + INTRA:          -7.996
REMARK INTER:                  -7.714
REMARK INTRA:                  -0.282
REMARK UNBOUND:                -0.282
REMARK SMILES O=c1c(O)c(-c2cc(O)c(O)c(O)c2)oc2cc(O)cc(O)c12
REMARK SMILES IDX 5 1 3 2 2 3 1 4 23 5 21 6 20 7 18 8 17 9 16 10 15 11 6 12
REMARK SMILES IDX 7 13 8 14 14 15 10 16 12 17 9 18 11 20 13 22 4 24 22 26
REMARK SMILES IDX 19 28
REMARK H PARENT 9 19 11 21 13 23 4 25 22 27 19 29
REMARK Flexibility Score: inf
ROOT
ATOM      1  C   UNL     1      -3.437  37.429  18.899  1.00  0.00     0.180 A 
ATOM      2  C   UNL     1      -4.684  37.620  18.274  1.00  0.00     0.208 A 
ATOM      3  C   UNL     1      -5.756  38.111  19.034  1.00  0.00     0.238 A 
ATOM      4  O   UNL     1      -6.881  38.275  18.487  1.00  0.00    -0.285 OA
ATOM      5  C   UNL     1      -5.561  38.422  20.395  1.00  0.00     0.111 A 
ATOM      6  C   UNL     1      -6.588  38.925  21.230  1.00  0.00     0.134 A 
ATOM      7  C   UNL     1      -6.311  39.219  22.573  1.00  0.00     0.093 A 
ATOM      8  C   UNL     1      -5.028  39.021  23.097  1.00  0.00     0.123 A 
ATOM      9  C   UNL     1      -4.013  38.524  22.278  1.00  0.00     0.094 A 
ATOM     10  C   UNL     1      -4.269  38.223  20.937  1.00  0.00     0.146 A 
ATOM     11  O   UNL     1      -3.285  37.748  20.182  1.00  0.00    -0.452 OA
ENDROOT
BRANCH   1  12
ATOM     12  C   UNL     1      -2.263  36.897  18.170  1.00  0.00     0.029 A 
ATOM     13  C   UNL     1      -2.200  35.552  17.767  1.00  0.00     0.062 A 
ATOM     14  C   UNL     1      -1.071  35.061  17.098  1.00  0.00     0.162 A 
ATOM     15  C   UNL     1      -1.165  37.735  17.924  1.00  0.00     0.062 A 
ATOM     16  C   UNL     1       0.014  35.914  16.835  1.00  0.00     0.200 A 
ATOM     17  C   UNL     1      -0.035  37.254  17.256  1.00  0.00     0.162 A 
BRANCH  14  18
ATOM     18  O   UNL     1      -1.023  33.726  16.697  1.00  0.00    -0.504 OA
ATOM     19  H   UNL     1      -1.348  33.433  15.783  1.00  0.00     0.293 HD
ENDBRANCH  14  18
BRANCH  16  20
ATOM     20  O   UNL     1       1.145  35.442  16.166  1.00  0.00    -0.502 OA
ATOM     21  H   UNL     1       2.085  35.638  16.491  1.00  0.00     0.293 HD
ENDBRANCH  16  20
BRANCH  17  22
ATOM     22  O   UNL     1       1.030  38.124  17.018  1.00  0.00    -0.504 OA
ATOM     23  H   UNL     1       1.135  38.619  16.141  1.00  0.00     0.293 HD
ENDBRANCH  17  22
ENDBRANCH   1  12
BRANCH   2  24
ATOM     24  O   UNL     1      -4.839  37.351  16.911  1.00  0.00    -0.502 OA
ATOM     25  H   UNL     1      -5.412  36.589  16.570  1.00  0.00     0.293 HD
ENDBRANCH   2  24
BRANCH   6  26
ATOM     26  O   UNL     1      -7.876  39.135  20.736  1.00  0.00    -0.507 OA
ATOM     27  H   UNL     1      -8.600  39.564  21.300  1.00  0.00     0.293 HD
ENDBRANCH   6  26
BRANCH   8  28
ATOM     28  O   UNL     1      -4.753  39.313  24.430  1.00  0.00    -0.508 OA
ATOM     29  H   UNL     1      -5.364  39.905  24.980  1.00  0.00     0.293 HD
ENDBRANCH   8  28
TORSDOF 7
ENDMDL
MODEL 2
REMARK VINA RESULT:    -6.155     11.027     15.689
REMARK INTER + INTRA:          -7.876
REMARK INTER:                  -7.614
REMARK INTRA:                  -0.263
REMARK UNBOUND:                -0.282
REMARK SMILES O=c1c(O)c(-c2cc(O)c(O)c(O)c2)oc2cc(O)cc(O)c12
REMARK SMILES IDX 5 1 3 2 2 3 1 4 23 5 21 6 20 7 18 8 17 9 16 10 15 11 6 12
REMARK SMILES IDX 7 13 8 14 14 15 10 16 12 17 9 18 11 20 13 22 4 24 22 26
REMARK SMILES IDX 19 28
REMARK H PARENT 9 19 11 21 13 23 4 25 22 27 19 29
REMARK Flexibility Score: inf
ROOT
ATOM      1  C   UNL     1      -4.219  36.954  33.878  1.00  0.00     0.180 A 
ATOM      2  C   UNL     1      -3.506  37.825  34.724  1.00  0.00     0.208 A 
ATOM      3  C   UNL     1      -2.710  38.828  34.150  1.00  0.00     0.238 A 
ATOM      4  O   UNL     1      -2.058  39.607  34.898  1.00  0.00    -0.285 OA
ATOM      5  C   UNL     1      -2.655  38.957  32.747  1.00  0.00     0.111 A 
ATOM      6  C   UNL     1      -1.880  39.942  32.089  1.00  0.00     0.134 A 
ATOM      7  C   UNL     1      -1.887  40.011  30.688  1.00  0.00     0.093 A 
ATOM      8  C   UNL     1      -2.652  39.115  29.933  1.00  0.00     0.123 A 
ATOM      9  C   UNL     1      -3.416  38.141  30.578  1.00  0.00     0.094 A 
ATOM     10  C   UNL     1      -3.423  38.054  31.973  1.00  0.00     0.146 A 
ATOM     11  O   UNL     1      -4.155  37.115  32.559  1.00  0.00    -0.452 OA
ENDROOT
BRANCH   1  12
ATOM     12  C   UNL     1      -5.065  35.860  34.407  1.00  0.00     0.029 A 
ATOM     13  C   UNL     1      -4.694  34.513  34.260  1.00  0.00     0.062 A 
ATOM     14  C   UNL     1      -5.520  33.490  34.748  1.00  0.00     0.162 A 
ATOM     15  C   UNL     1      -6.291  36.168  35.016  1.00  0.00     0.062 A 
ATOM     16  C   UNL     1      -6.734  33.809  35.377  1.00  0.00     0.200 A 
ATOM     17  C   UNL     1      -7.120  35.154  35.505  1.00  0.00     0.162 A 
BRANCH  14  18
ATOM     18  O   UNL     1      -5.138  32.156  34.603  1.00  0.00    -0.504 OA
ATOM     19  H   UNL     1      -4.431  31.875  33.933  1.00  0.00     0.293 HD
ENDBRANCH  14  18
BRANCH  16  20
ATOM     20  O   UNL     1      -7.566  32.803  35.871  1.00  0.00    -0.502 OA
ATOM     21  H   UNL     1      -7.833  32.001  35.313  1.00  0.00     0.293 HD
ENDBRANCH  16  20
BRANCH  17  22
ATOM     22  O   UNL     1      -8.324  35.504  36.117  1.00  0.00    -0.504 OA
ATOM     23  H   UNL     1      -8.355  36.019  36.989  1.00  0.00     0.293 HD
ENDBRANCH  17  22
ENDBRANCH   1  12
BRANCH   2  24
ATOM     24  O   UNL     1      -3.616  37.708  36.112  1.00  0.00    -0.502 OA
ATOM     25  H   UNL     1      -3.262  38.414  36.746  1.00  0.00     0.293 HD
ENDBRANCH   2  24
BRANCH   6  26
ATOM     26  O   UNL     1      -1.109  40.851  32.814  1.00  0.00    -0.507 OA
ATOM     27  H   UNL     1      -0.096  40.805  32.821  1.00  0.00     0.293 HD
ENDBRANCH   6  26
BRANCH   8  28
ATOM     28  O   UNL     1      -2.658  39.184  28.542  1.00  0.00    -0.508 OA
ATOM     29  H   UNL     1      -1.826  38.988  27.998  1.00  0.00     0.293 HD
ENDBRANCH   8  28
TORSDOF 7
ENDMDL
MODEL 3
REMARK VINA RESULT:    -5.992      1.695      7.149
REMARK INTER + INTRA:          -7.675
REMARK INTER:                  -7.792
REMARK INTRA:                   0.117
REMARK UNBOUND:                -0.282
REMARK SMILES O=c1c(O)c(-c2cc(O)c(O)c(O)c2)oc2cc(O)cc(O)c12
REMARK SMILES IDX 5 1 3 2 2 3 1 4 23 5 21 6 20 7 18 8 17 9 16 10 15 11 6 12
REMARK SMILES IDX 7 13 8 14 14 15 10 16 12 17 9 18 11 20 13 22 4 24 22 26
REMARK SMILES IDX 19 28
REMARK H PARENT 9 19 11 21 13 23 4 25 22 27 19 29
REMARK Flexibility Score: inf
ROOT
ATOM      1  C   UNL     1      -3.532  38.447  19.661  1.00  0.00     0.180 A 
ATOM      2  C   UNL     1      -2.617  39.499  19.458  1.00  0.00     0.208 A 
ATOM      3  C   UNL     1      -1.481  39.266  18.669  1.00  0.00     0.238 A 
ATOM      4  O   UNL     1      -0.648  40.196  18.489  1.00  0.00    -0.285 OA
ATOM      5  C   UNL     1      -1.288  37.999  18.080  1.00  0.00     0.111 A 
ATOM      6  C   UNL     1      -0.172  37.683  17.269  1.00  0.00     0.134 A 
ATOM      7  C   UNL     1      -0.057  36.401  16.711  1.00  0.00     0.093 A 
ATOM      8  C   UNL     1      -1.036  35.429  16.950  1.00  0.00     0.123 A 
ATOM      9  C   UNL     1      -2.137  35.736  17.751  1.00  0.00     0.094 A 
ATOM     10  C   UNL     1      -2.270  37.007  18.317  1.00  0.00     0.146 A 
ATOM     11  O   UNL     1      -3.326  37.270  19.078  1.00  0.00    -0.452 OA
ENDROOT
BRANCH   1  12
ATOM     12  C   UNL     1      -4.744  38.609  20.496  1.00  0.00     0.029 A 
ATOM     13  C   UNL     1      -5.172  37.594  21.368  1.00  0.00     0.062 A 
ATOM     14  C   UNL     1      -6.336  37.756  22.133  1.00  0.00     0.162 A 
ATOM     15  C   UNL     1      -5.516  39.774  20.374  1.00  0.00     0.062 A 
ATOM     16  C   UNL     1      -7.090  38.936  22.021  1.00  0.00     0.200 A 
ATOM     17  C   UNL     1      -6.677  39.944  21.134  1.00  0.00     0.162 A 
BRANCH  14  18
ATOM     18  O   UNL     1      -6.747  36.744  23.001  1.00  0.00    -0.504 OA
ATOM     19  H   UNL     1      -6.134  35.976  23.251  1.00  0.00     0.293 HD
ENDBRANCH  14  18
BRANCH  16  20
ATOM     20  O   UNL     1      -8.248  39.115  22.779  1.00  0.00    -0.502 OA
ATOM     21  H   UNL     1      -8.218  39.320  23.771  1.00  0.00     0.293 HD
ENDBRANCH  16  20
BRANCH  17  22
ATOM     22  O   UNL     1      -7.409  41.124  20.994  1.00  0.00    -0.504 OA
ATOM     23  H   UNL     1      -8.245  41.307  21.536  1.00  0.00     0.293 HD
ENDBRANCH  17  22
ENDBRANCH   1  12
BRANCH   2  24
ATOM     24  O   UNL     1      -2.856  40.759  20.011  1.00  0.00    -0.502 OA
ATOM     25  H   UNL     1      -3.724  40.991  20.479  1.00  0.00     0.293 HD
ENDBRANCH   2  24
BRANCH   6  26
ATOM     26  O   UNL     1       0.820  38.631  17.012  1.00  0.00    -0.507 OA
ATOM     27  H   UNL     1       1.115  38.852  16.068  1.00  0.00     0.293 HD
ENDBRANCH   6  26
BRANCH   8  28
ATOM     28  O   UNL     1      -0.922  34.157  16.397  1.00  0.00    -0.508 OA
ATOM     29  H   UNL     1      -1.652  33.463  16.509  1.00  0.00     0.293 HD
ENDBRANCH   8  28
TORSDOF 7
ENDMDL
MODEL 4
REMARK VINA RESULT:    -5.908      0.999      2.111
REMARK INTER + INTRA:          -7.572
REMARK INTER:                  -7.300
REMARK INTRA:                  -0.271
REMARK UNBOUND:                -0.282
REMARK SMILES O=c1c(O)c(-c2cc(O)c(O)c(O)c2)oc2cc(O)cc(O)c12
REMARK SMILES IDX 5 1 3 2 2 3 1 4 23 5 21 6 20 7 18 8 17 9 16 10 15 11 6 12
REMARK SMILES IDX 7 13 8 14 14 15 10 16 12 17 9 18 11 20 13 22 4 24 22 26
REMARK SMILES IDX 19 28
REMARK H PARENT 9 19 11 21 13 23 4 25 22 27 19 29
REMARK Flexibility Score: inf
ROOT
ATOM      1  C   UNL     1      -3.848  38.179  19.686  1.00  0.00     0.180 A 
ATOM      2  C   UNL     1      -5.142  38.323  19.149  1.00  0.00     0.208 A 
ATOM      3  C   UNL     1      -6.184  38.733  19.994  1.00  0.00     0.238 A 
ATOM      4  O   UNL     1      -7.350  38.855  19.526  1.00  0.00    -0.285 OA
ATOM      5  C   UNL     1      -5.915  39.011  21.349  1.00  0.00     0.111 A 
ATOM      6  C   UNL     1      -6.909  39.432  22.266  1.00  0.00     0.134 A 
ATOM      7  C   UNL     1      -6.559  39.698  23.598  1.00  0.00     0.093 A 
ATOM      8  C   UNL     1      -5.236  39.551  24.031  1.00  0.00     0.123 A 
ATOM      9  C   UNL     1      -4.254  39.135  23.131  1.00  0.00     0.094 A 
ATOM     10  C   UNL     1      -4.582  38.864  21.799  1.00  0.00     0.146 A 
ATOM     11  O   UNL     1      -3.628  38.465  20.966  1.00  0.00    -0.452 OA
ENDROOT
BRANCH   1  12
ATOM     12  C   UNL     1      -2.699  37.734  18.864  1.00  0.00     0.029 A 
ATOM     13  C   UNL     1      -1.703  38.636  18.451  1.00  0.00     0.062 A 
ATOM     14  C   UNL     1      -0.635  38.200  17.654  1.00  0.00     0.162 A 
ATOM     15  C   UNL     1      -2.630  36.399  18.439  1.00  0.00     0.062 A 
ATOM     16  C   UNL     1      -0.563  36.856  17.252  1.00  0.00     0.200 A 
ATOM     17  C   UNL     1      -1.568  35.956  17.645  1.00  0.00     0.162 A 
BRANCH  14  18
ATOM     18  O   UNL     1       0.351  39.102  17.255  1.00  0.00    -0.504 OA
ATOM     19  H   UNL     1       0.596  39.226  16.279  1.00  0.00     0.293 HD
ENDBRANCH  14  18
BRANCH  16  20
ATOM     20  O   UNL     1       0.496  36.405  16.461  1.00  0.00    -0.502 OA
ATOM     21  H   UNL     1       0.654  35.420  16.283  1.00  0.00     0.293 HD
ENDBRANCH  16  20
BRANCH  17  22
ATOM     22  O   UNL     1      -1.529  34.617  17.255  1.00  0.00    -0.504 OA
ATOM     23  H   UNL     1      -1.712  33.861  17.906  1.00  0.00     0.293 HD
ENDBRANCH  17  22
ENDBRANCH   1  12
BRANCH   2  24
ATOM     24  O   UNL     1      -5.372  38.090  17.791  1.00  0.00    -0.502 OA
ATOM     25  H   UNL     1      -6.116  37.486  17.463  1.00  0.00     0.293 HD
ENDBRANCH   2  24
BRANCH   6  26
ATOM     26  O   UNL     1      -8.236  39.588  21.864  1.00  0.00    -0.507 OA
ATOM     27  H   UNL     1      -8.569  39.239  20.973  1.00  0.00     0.293 HD
ENDBRANCH   6  26
BRANCH   8  28
ATOM     28  O   UNL     1      -4.889  39.815  25.353  1.00  0.00    -0.508 OA
ATOM     29  H   UNL     1      -5.561  39.728  26.105  1.00  0.00     0.293 HD
ENDBRANCH   8  28
TORSDOF 7
ENDMDL
MODEL 5
REMARK VINA RESULT:    -5.880      2.075      4.015
REMARK INTER + INTRA:          -7.537
REMARK INTER:                  -7.174
REMARK INTRA:                  -0.363
REMARK UNBOUND:                -0.282
REMARK SMILES O=c1c(O)c(-c2cc(O)c(O)c(O)c2)oc2cc(O)cc(O)c12
REMARK SMILES IDX 5 1 3 2 2 3 1 4 23 5 21 6 20 7 18 8 17 9 16 10 15 11 6 12
REMARK SMILES IDX 7 13 8 14 14 15 10 16 12 17 9 18 11 20 13 22 4 24 22 26
REMARK SMILES IDX 19 28
REMARK H PARENT 9 19 11 21 13 23 4 25 22 27 19 29
REMARK Flexibility Score: inf
ROOT
ATOM      1  C   UNL     1      -2.550  39.264  20.506  1.00  0.00     0.180 A 
ATOM      2  C   UNL     1      -2.057  39.387  21.819  1.00  0.00     0.208 A 
ATOM      3  C   UNL     1      -2.969  39.565  22.871  1.00  0.00     0.238 A 
ATOM      4  O   UNL     1      -2.539  39.689  24.051  1.00  0.00    -0.285 OA
ATOM      5  C   UNL     1      -4.351  39.595  22.598  1.00  0.00     0.111 A 
ATOM      6  C   UNL     1      -5.335  39.767  23.601  1.00  0.00     0.134 A 
ATOM      7  C   UNL     1      -6.694  39.777  23.248  1.00  0.00     0.093 A 
ATOM      8  C   UNL     1      -7.086  39.618  21.914  1.00  0.00     0.123 A 
ATOM      9  C   UNL     1      -6.118  39.450  20.922  1.00  0.00     0.094 A 
ATOM     10  C   UNL     1      -4.760  39.439  21.252  1.00  0.00     0.146 A 
ATOM     11  O   UNL     1      -3.861  39.281  20.287  1.00  0.00    -0.452 OA
ENDROOT
BRANCH   1  12
ATOM     12  C   UNL     1      -1.651  39.092  19.341  1.00  0.00     0.029 A 
ATOM     13  C   UNL     1      -1.198  40.195  18.598  1.00  0.00     0.062 A 
ATOM     14  C   UNL     1      -0.366  40.011  17.485  1.00  0.00     0.162 A 
ATOM     15  C   UNL     1      -1.289  37.799  18.933  1.00  0.00     0.062 A 
ATOM     16  C   UNL     1       0.010  38.714  17.098  1.00  0.00     0.200 A 
ATOM     17  C   UNL     1      -0.459  37.607  17.824  1.00  0.00     0.162 A 
BRANCH  14  18
ATOM     18  O   UNL     1       0.083  41.115  16.759  1.00  0.00    -0.504 OA
ATOM     19  H   UNL     1       0.220  42.018  17.196  1.00  0.00     0.293 HD
ENDBRANCH  14  18
BRANCH  16  20
ATOM     20  O   UNL     1       0.841  38.513  15.994  1.00  0.00    -0.502 OA
ATOM     21  H   UNL     1       1.549  39.184  15.723  1.00  0.00     0.293 HD
ENDBRANCH  16  20
BRANCH  17  22
ATOM     22  O   UNL     1      -0.111  36.306  17.460  1.00  0.00    -0.504 OA
ATOM     23  H   UNL     1       0.594  35.776  17.960  1.00  0.00     0.293 HD
ENDBRANCH  17  22
ENDBRANCH   1  12
BRANCH   2  24
ATOM     24  O   UNL     1      -0.685  39.304  22.070  1.00  0.00    -0.502 OA
ATOM     25  H   UNL     1      -0.313  38.949  22.942  1.00  0.00     0.293 HD
ENDBRANCH   2  24
BRANCH   6  26
ATOM     26  O   UNL     1      -4.976  39.927  24.940  1.00  0.00    -0.507 OA
ATOM     27  H   UNL     1      -4.785  40.840  25.336  1.00  0.00     0.293 HD
ENDBRANCH   6  26
BRANCH   8  28
ATOM     28  O   UNL     1      -8.433  39.628  21.565  1.00  0.00    -0.508 OA
ATOM     29  H   UNL     1      -8.908  40.484  21.305  1.00  0.00     0.293 HD
ENDBRANCH   8  28
TORSDOF 7
ENDMDL
MODEL 6
REMARK VINA RESULT:    -5.722      1.719      2.579
REMARK INTER + INTRA:          -7.342
REMARK INTER:                  -7.525
REMARK INTRA:                   0.182
REMARK UNBOUND:                -0.282
REMARK SMILES O=c1c(O)c(-c2cc(O)c(O)c(O)c2)oc2cc(O)cc(O)c12
REMARK SMILES IDX 5 1 3 2 2 3 1 4 23 5 21 6 20 7 18 8 17 9 16 10 15 11 6 12
REMARK SMILES IDX 7 13 8 14 14 15 10 16 12 17 9 18 11 20 13 22 4 24 22 26
REMARK SMILES IDX 19 28
REMARK H PARENT 9 19 11 21 13 23 4 25 22 27 19 29
REMARK Flexibility Score: inf
ROOT
ATOM      1  C   UNL     1      -2.780  37.872  19.057  1.00  0.00     0.180 A 
ATOM      2  C   UNL     1      -2.956  39.266  18.957  1.00  0.00     0.208 A 
ATOM      3  C   UNL     1      -3.977  39.876  19.701  1.00  0.00     0.238 A 
ATOM      4  O   UNL     1      -4.151  41.122  19.611  1.00  0.00    -0.285 OA
ATOM      5  C   UNL     1      -4.789  39.091  20.545  1.00  0.00     0.111 A 
ATOM      6  C   UNL     1      -5.837  39.629  21.330  1.00  0.00     0.134 A 
ATOM      7  C   UNL     1      -6.594  38.782  22.153  1.00  0.00     0.093 A 
ATOM      8  C   UNL     1      -6.325  37.409  22.205  1.00  0.00     0.123 A 
ATOM      9  C   UNL     1      -5.293  36.875  21.431  1.00  0.00     0.094 A 
ATOM     10  C   UNL     1      -4.527  37.702  20.604  1.00  0.00     0.146 A 
ATOM     11  O   UNL     1      -3.555  37.166  19.875  1.00  0.00    -0.452 OA
ENDROOT
BRANCH   1  12
ATOM     12  C   UNL     1      -1.737  37.153  18.291  1.00  0.00     0.029 A 
ATOM     13  C   UNL     1      -0.491  37.743  18.020  1.00  0.00     0.062 A 
ATOM     14  C   UNL     1       0.475  37.056  17.273  1.00  0.00     0.162 A 
ATOM     15  C   UNL     1      -2.015  35.879  17.773  1.00  0.00     0.062 A 
ATOM     16  C   UNL     1       0.196  35.771  16.778  1.00  0.00     0.200 A 
ATOM     17  C   UNL     1      -1.057  35.186  17.028  1.00  0.00     0.162 A 
BRANCH  14  18
ATOM     18  O   UNL     1       1.711  37.649  17.016  1.00  0.00    -0.504 OA
ATOM     19  H   UNL     1       2.366  37.249  16.354  1.00  0.00     0.293 HD
ENDBRANCH  14  18
BRANCH  16  20
ATOM     20  O   UNL     1       1.148  35.071  16.035  1.00  0.00    -0.502 OA
ATOM     21  H   UNL     1       1.701  35.515  15.311  1.00  0.00     0.293 HD
ENDBRANCH  16  20
BRANCH  17  22
ATOM     22  O   UNL     1      -1.369  33.915  16.543  1.00  0.00    -0.504 OA
ATOM     23  H   UNL     1      -2.285  33.689  16.175  1.00  0.00     0.293 HD
ENDBRANCH  17  22
ENDBRANCH   1  12
BRANCH   2  24
ATOM     24  O   UNL     1      -2.105  40.028  18.152  1.00  0.00    -0.502 OA
ATOM     25  H   UNL     1      -1.276  39.641  17.719  1.00  0.00     0.293 HD
ENDBRANCH   2  24
BRANCH   6  26
ATOM     26  O   UNL     1      -6.129  40.993  21.301  1.00  0.00    -0.507 OA
ATOM     27  H   UNL     1      -5.422  41.686  21.086  1.00  0.00     0.293 HD
ENDBRANCH   6  26
BRANCH   8  28
ATOM     28  O   UNL     1      -7.077  36.569  23.021  1.00  0.00    -0.508 OA
ATOM     29  H   UNL     1      -7.642  35.822  22.636  1.00  0.00     0.293 HD
ENDBRANCH   8  28
TORSDOF 7
ENDMDL
MODEL 7
REMARK VINA RESULT:    -5.608     10.957     14.329
REMARK INTER + INTRA:          -7.201
REMARK INTER:                  -6.853
REMARK INTRA:                  -0.348
REMARK UNBOUND:                -0.282
REMARK SMILES O=c1c(O)c(-c2cc(O)c(O)c(O)c2)oc2cc(O)cc(O)c12
REMARK SMILES IDX 5 1 3 2 2 3 1 4 23 5 21 6 20 7 18 8 17 9 16 10 15 11 6 12
REMARK SMILES IDX 7 13 8 14 14 15 10 16 12 17 9 18 11 20 13 22 4 24 22 26
REMARK SMILES IDX 19 28
REMARK H PARENT 9 19 11 21 13 23 4 25 22 27 19 29
REMARK Flexibility Score: inf
ROOT
ATOM      1  C   UNL     1      -3.508  38.333  32.098  1.00  0.00     0.180 A 
ATOM      2  C   UNL     1      -4.180  38.812  30.956  1.00  0.00     0.208 A 
ATOM      3  C   UNL     1      -3.465  39.571  30.017  1.00  0.00     0.238 A 
ATOM      4  O   UNL     1      -4.059  40.014  28.996  1.00  0.00    -0.285 OA
ATOM      5  C   UNL     1      -2.093  39.821  30.223  1.00  0.00     0.111 A 
ATOM      6  C   UNL     1      -1.300  40.575  29.323  1.00  0.00     0.134 A 
ATOM      7  C   UNL     1       0.063  40.771  29.595  1.00  0.00     0.093 A 
ATOM      8  C   UNL     1       0.646  40.231  30.746  1.00  0.00     0.123 A 
ATOM      9  C   UNL     1      -0.133  39.489  31.636  1.00  0.00     0.094 A 
ATOM     10  C   UNL     1      -1.492  39.282  31.385  1.00  0.00     0.146 A 
ATOM     11  O   UNL     1      -2.209  38.576  32.251  1.00  0.00    -0.452 OA
ENDROOT
BRANCH   1  12
ATOM     12  C   UNL     1      -4.197  37.541  33.142  1.00  0.00     0.029 A 
ATOM     13  C   UNL     1      -4.980  38.160  34.132  1.00  0.00     0.062 A 
ATOM     14  C   UNL     1      -5.606  37.396  35.126  1.00  0.00     0.162 A 
ATOM     15  C   UNL     1      -4.021  36.150  33.182  1.00  0.00     0.062 A 
ATOM     16  C   UNL     1      -5.442  36.001  35.145  1.00  0.00     0.200 A 
ATOM     17  C   UNL     1      -4.643  35.380  34.170  1.00  0.00     0.162 A 
BRANCH  14  18
ATOM     18  O   UNL     1      -6.386  38.020  36.099  1.00  0.00    -0.504 OA
ATOM     19  H   UNL     1      -7.382  37.851  36.171  1.00  0.00     0.293 HD
ENDBRANCH  14  18
BRANCH  16  20
ATOM     20  O   UNL     1      -6.062  35.224  36.125  1.00  0.00    -0.502 OA
ATOM     21  H   UNL     1      -5.713  35.174  37.075  1.00  0.00     0.293 HD
ENDBRANCH  16  20
BRANCH  17  22
ATOM     22  O   UNL     1      -4.454  33.997  34.166  1.00  0.00    -0.504 OA
ATOM     23  H   UNL     1      -4.405  33.458  35.022  1.00  0.00     0.293 HD
ENDBRANCH  17  22
ENDBRANCH   1  12
BRANCH   2  24
ATOM     24  O   UNL     1      -5.528  38.507  30.751  1.00  0.00    -0.502 OA
ATOM     25  H   UNL     1      -6.065  38.908  29.991  1.00  0.00     0.293 HD
ENDBRANCH   2  24
BRANCH   6  26
ATOM     26  O   UNL     1      -1.852  41.125  28.167  1.00  0.00    -0.507 OA
ATOM     27  H   UNL     1      -2.746  40.815  27.802  1.00  0.00     0.293 HD
ENDBRANCH   6  26
BRANCH   8  28
ATOM     28  O   UNL     1       1.998  40.427  31.015  1.00  0.00    -0.508 OA
ATOM     29  H   UNL     1       2.312  40.824  31.892  1.00  0.00     0.293 HD
ENDBRANCH   8  28
TORSDOF 7
ENDMDL
MODEL 8
REMARK VINA RESULT:    -5.581     10.809     14.058
REMARK INTER + INTRA:          -7.168
REMARK INTER:                  -6.835
REMARK INTRA:                  -0.333
REMARK UNBOUND:                -0.282
REMARK SMILES O=c1c(O)c(-c2cc(O)c(O)c(O)c2)oc2cc(O)cc(O)c12
REMARK SMILES IDX 5 1 3 2 2 3 1 4 23 5 21 6 20 7 18 8 17 9 16 10 15 11 6 12
REMARK SMILES IDX 7 13 8 14 14 15 10 16 12 17 9 18 11 20 13 22 4 24 22 26
REMARK SMILES IDX 19 28
REMARK H PARENT 9 19 11 21 13 23 4 25 22 27 19 29
REMARK Flexibility Score: inf
ROOT
ATOM      1  C   UNL     1      -3.365  38.374  32.666  1.00  0.00     0.180 A 
ATOM      2  C   UNL     1      -4.180  39.137  33.524  1.00  0.00     0.208 A 
ATOM      3  C   UNL     1      -5.067  38.474  34.385  1.00  0.00     0.238 A 
ATOM      4  O   UNL     1      -5.810  39.148  35.150  1.00  0.00    -0.285 OA
ATOM      5  C   UNL     1      -5.110  37.065  34.391  1.00  0.00     0.111 A 
ATOM      6  C   UNL     1      -5.972  36.320  35.231  1.00  0.00     0.134 A 
ATOM      7  C   UNL     1      -5.948  34.917  35.184  1.00  0.00     0.093 A 
ATOM      8  C   UNL     1      -5.080  34.247  34.315  1.00  0.00     0.123 A 
ATOM      9  C   UNL     1      -4.229  34.979  33.484  1.00  0.00     0.094 A 
ATOM     10  C   UNL     1      -4.238  36.376  33.514  1.00  0.00     0.146 A 
ATOM     11  O   UNL     1      -3.421  37.046  32.710  1.00  0.00    -0.452 OA
ENDROOT
BRANCH   1  12
ATOM     12  C   UNL     1      -2.417  39.000  31.716  1.00  0.00     0.029 A 
ATOM     13  C   UNL     1      -1.159  39.464  32.137  1.00  0.00     0.062 A 
ATOM     14  C   UNL     1      -0.284  40.075  31.228  1.00  0.00     0.162 A 
ATOM     15  C   UNL     1      -2.802  39.190  30.381  1.00  0.00     0.062 A 
ATOM     16  C   UNL     1      -0.669  40.240  29.888  1.00  0.00     0.200 A 
ATOM     17  C   UNL     1      -1.936  39.798  29.467  1.00  0.00     0.162 A 
BRANCH  14  18
ATOM     18  O   UNL     1       0.965  40.525  31.656  1.00  0.00    -0.504 OA
ATOM     19  H   UNL     1       1.165  40.686  32.636  1.00  0.00     0.293 HD
ENDBRANCH  14  18
BRANCH  16  20
ATOM     20  O   UNL     1       0.191  40.843  28.968  1.00  0.00    -0.502 OA
ATOM     21  H   UNL     1       1.198  40.750  29.030  1.00  0.00     0.293 HD
ENDBRANCH  16  20
BRANCH  17  22
ATOM     22  O   UNL     1      -2.351  39.954  28.144  1.00  0.00    -0.504 OA
ATOM     23  H   UNL     1      -1.704  39.900  27.366  1.00  0.00     0.293 HD
ENDBRANCH  17  22
ENDBRANCH   1  12
BRANCH   2  24
ATOM     24  O   UNL     1      -4.083  40.531  33.534  1.00  0.00    -0.502 OA
ATOM     25  H   UNL     1      -4.550  41.113  32.850  1.00  0.00     0.293 HD
ENDBRANCH   2  24
BRANCH   6  26
ATOM     26  O   UNL     1      -6.848  36.959  36.109  1.00  0.00    -0.507 OA
ATOM     27  H   UNL     1      -6.940  37.968  36.131  1.00  0.00     0.293 HD
ENDBRANCH   6  26
BRANCH   8  28
ATOM     28  O   UNL     1      -5.056  32.856  34.268  1.00  0.00    -0.508 OA
ATOM     29  H   UNL     1      -4.188  32.338  34.332  1.00  0.00     0.293 HD
ENDBRANCH   8  28
TORSDOF 7
ENDMDL
MODEL 9
REMARK VINA RESULT:    -5.500      1.904      7.224
REMARK INTER + INTRA:          -7.068
REMARK INTER:                  -6.702
REMARK INTRA:                  -0.367
REMARK UNBOUND:                -0.282
REMARK SMILES O=c1c(O)c(-c2cc(O)c(O)c(O)c2)oc2cc(O)cc(O)c12
REMARK SMILES IDX 5 1 3 2 2 3 1 4 23 5 21 6 20 7 18 8 17 9 16 10 15 11 6 12
REMARK SMILES IDX 7 13 8 14 14 15 10 16 12 17 9 18 11 20 13 22 4 24 22 26
REMARK SMILES IDX 19 28
REMARK H PARENT 9 19 11 21 13 23 4 25 22 27 19 29
REMARK Flexibility Score: inf
ROOT
ATOM      1  C   UNL     1      -3.022  38.917  19.723  1.00  0.00     0.180 A 
ATOM      2  C   UNL     1      -2.985  37.544  19.409  1.00  0.00     0.208 A 
ATOM      3  C   UNL     1      -2.124  37.105  18.392  1.00  0.00     0.238 A 
ATOM      4  O   UNL     1      -2.090  35.879  18.094  1.00  0.00    -0.285 OA
ATOM      5  C   UNL     1      -1.302  38.035  17.723  1.00  0.00     0.111 A 
ATOM      6  C   UNL     1      -0.405  37.673  16.690  1.00  0.00     0.134 A 
ATOM      7  C   UNL     1       0.386  38.658  16.079  1.00  0.00     0.093 A 
ATOM      8  C   UNL     1       0.297  39.996  16.481  1.00  0.00     0.123 A 
ATOM      9  C   UNL     1      -0.588  40.357  17.498  1.00  0.00     0.094 A 
ATOM     10  C   UNL     1      -1.386  39.391  18.119  1.00  0.00     0.146 A 
ATOM     11  O   UNL     1      -2.222  39.764  19.081  1.00  0.00    -0.452 OA
ENDROOT
BRANCH   1  12
ATOM     12  C   UNL     1      -3.917  39.461  20.770  1.00  0.00     0.029 A 
ATOM     13  C   UNL     1      -5.244  39.824  20.481  1.00  0.00     0.062 A 
ATOM     14  C   UNL     1      -6.069  40.359  21.479  1.00  0.00     0.162 A 
ATOM     15  C   UNL     1      -3.418  39.673  22.063  1.00  0.00     0.062 A 
ATOM     16  C   UNL     1      -5.567  40.547  22.778  1.00  0.00     0.200 A 
ATOM     17  C   UNL     1      -4.234  40.205  23.066  1.00  0.00     0.162 A 
BRANCH  14  18
ATOM     18  O   UNL     1      -7.386  40.710  21.183  1.00  0.00    -0.504 OA
ATOM     19  H   UNL     1      -8.047  40.957  21.910  1.00  0.00     0.293 HD
ENDBRANCH  14  18
BRANCH  16  20
ATOM     20  O   UNL     1      -6.376  41.074  23.785  1.00  0.00    -0.502 OA
ATOM     21  H   UNL     1      -7.362  40.852  23.857  1.00  0.00     0.293 HD
ENDBRANCH  16  20
BRANCH  17  22
ATOM     22  O   UNL     1      -3.703  40.387  24.343  1.00  0.00    -0.504 OA
ATOM     23  H   UNL     1      -2.716  40.552  24.497  1.00  0.00     0.293 HD
ENDBRANCH  17  22
ENDBRANCH   1  12
BRANCH   2  24
ATOM     24  O   UNL     1      -3.772  36.636  20.120  1.00  0.00    -0.502 OA
ATOM     25  H   UNL     1      -3.396  36.054  20.859  1.00  0.00     0.293 HD
ENDBRANCH   2  24
BRANCH   6  26
ATOM     26  O   UNL     1      -0.292  36.348  16.268  1.00  0.00    -0.507 OA
ATOM     27  H   UNL     1      -0.209  36.106  15.287  1.00  0.00     0.293 HD
ENDBRANCH   6  26
BRANCH   8  28
ATOM     28  O   UNL     1       1.082  40.973  15.875  1.00  0.00    -0.508 OA
ATOM     29  H   UNL     1       1.707  40.751  15.110  1.00  0.00     0.293 HD
ENDBRANCH   8  28
TORSDOF 7
ENDMDL
