MODEL 1
REMARK VINA RESULT:    -3.587      0.000      0.000
REMARK INTER + INTRA:          -4.501
REMARK INTER:                  -4.321
REMARK INTRA:                  -0.180
REMARK UNBOUND:                -0.180
REMARK SMILES OCC(O)CO
REMARK SMILES IDX 3 1 5 2 6 3 2 5 1 6 4 8
REMARK H PARENT 6 4 1 7 4 9
REMARK Flexibility Score: inf
ROOT
ATOM      1  C   UNL     1       5.170  40.642  64.318  1.00  0.00     0.165 C 
ENDROOT
BRANCH   1   2
ATOM      2  C   UNL     1       6.650  40.610  63.912  1.00  0.00     0.190 C 
BRANCH   2   3
ATOM      3  O   UNL     1       6.927  39.456  63.164  1.00  0.00    -0.394 OA
ATOM      4  H   UNL     1       7.912  39.336  63.181  1.00  0.00     0.210 HD
ENDBRANCH   2   3
ENDBRANCH   1   2
BRANCH   1   5
ATOM      5  C   UNL     1       4.938  39.885  65.636  1.00  0.00     0.190 C 
BRANCH   5   6
ATOM      6  O   UNL     1       4.943  38.496  65.432  1.00  0.00    -0.394 OA
ATOM      7  H   UNL     1       5.468  38.100  66.176  1.00  0.00     0.210 HD
ENDBRANCH   5   6
ENDBRANCH   1   5
BRANCH   1   8
ATOM      8  O   UNL     1       4.392  40.084  63.292  1.00  0.00    -0.388 OA
ATOM      9  H   UNL     1       3.580  39.706  63.721  1.00  0.00     0.211 HD
ENDBRANCH   1   8
TORSDOF 5
ENDMDL
MODEL 2
REMARK VINA RESULT:    -3.540     16.097     16.802
REMARK INTER + INTRA:          -4.444
REMARK INTER:                  -4.441
REMARK INTRA:                  -0.003
REMARK UNBOUND:                -0.180
REMARK SMILES OCC(O)CO
REMARK SMILES IDX 3 1 5 2 6 3 2 5 1 6 4 8
REMARK H PARENT 6 4 1 7 4 9
REMARK Flexibility Score: inf
ROOT
ATOM      1  C   UNL     1      15.600  29.408  72.928  1.00  0.00     0.165 C 
ENDROOT
BRANCH   1   2
ATOM      2  C   UNL     1      16.255  30.559  73.703  1.00  0.00     0.190 C 
BRANCH   2   3
ATOM      3  O   UNL     1      17.600  30.698  73.332  1.00  0.00    -0.394 OA
ATOM      4  H   UNL     1      17.609  30.883  72.357  1.00  0.00     0.210 HD
ENDBRANCH   2   3
ENDBRANCH   1   2
BRANCH   1   5
ATOM      5  C   UNL     1      14.135  29.728  72.588  1.00  0.00     0.190 C 
BRANCH   5   6
ATOM      6  O   UNL     1      13.942  29.813  71.201  1.00  0.00    -0.394 OA
ATOM      7  H   UNL     1      14.148  30.750  70.941  1.00  0.00     0.210 HD
ENDBRANCH   5   6
ENDBRANCH   1   5
BRANCH   1   8
ATOM      8  O   UNL     1      15.679  28.230  73.687  1.00  0.00    -0.388 OA
ATOM      9  H   UNL     1      16.627  27.937  73.664  1.00  0.00     0.211 HD
ENDBRANCH   1   8
TORSDOF 5
ENDMDL
MODEL 3
REMARK VINA RESULT:    -3.540     16.104     16.643
REMARK INTER + INTRA:          -4.444
REMARK INTER:                  -4.439
REMARK INTRA:                  -0.004
REMARK UNBOUND:                -0.180
REMARK SMILES OCC(O)CO
REMARK SMILES IDX 3 1 5 2 6 3 2 5 1 6 4 8
REMARK H PARENT 6 4 1 7 4 9
REMARK Flexibility Score: inf
ROOT
ATOM      1  C   UNL     1      18.085  33.545  73.771  1.00  0.00     0.165 C 
ENDROOT
BRANCH   1   2
ATOM      2  C   UNL     1      17.058  34.148  72.803  1.00  0.00     0.190 C 
BRANCH   2   3
ATOM      3  O   UNL     1      17.325  35.509  72.591  1.00  0.00    -0.394 OA
ATOM      4  H   UNL     1      16.457  35.939  72.377  1.00  0.00     0.210 HD
ENDBRANCH   2   3
ENDBRANCH   1   2
BRANCH   1   5
ATOM      5  C   UNL     1      18.124  32.012  73.656  1.00  0.00     0.190 C 
BRANCH   5   6
ATOM      6  O   UNL     1      16.830  31.472  73.623  1.00  0.00    -0.394 OA
ATOM      7  H   UNL     1      16.204  32.235  73.510  1.00  0.00     0.210 HD
ENDBRANCH   5   6
ENDBRANCH   1   5
BRANCH   1   8
ATOM      8  O   UNL     1      17.769  33.927  75.084  1.00  0.00    -0.388 OA
ATOM      9  H   UNL     1      17.407  33.122  75.538  1.00  0.00     0.211 HD
ENDBRANCH   1   8
TORSDOF 5
ENDMDL
MODEL 4
REMARK VINA RESULT:    -3.439     16.242     16.853
REMARK INTER + INTRA:          -4.323
REMARK INTER:                  -4.321
REMARK INTRA:                  -0.002
REMARK UNBOUND:                -0.180
REMARK SMILES OCC(O)CO
REMARK SMILES IDX 3 1 5 2 6 3 2 5 1 6 4 8
REMARK H PARENT 6 4 1 7 4 9
REMARK Flexibility Score: inf
ROOT
ATOM      1  C   UNL     1      17.233  33.162  74.008  1.00  0.00     0.165 C 
ENDROOT
BRANCH   1   2
ATOM      2  C   UNL     1      18.125  31.936  73.775  1.00  0.00     0.190 C 
BRANCH   2   3
ATOM      3  O   UNL     1      17.354  30.841  73.359  1.00  0.00    -0.394 OA
ATOM      4  H   UNL     1      16.421  31.026  73.642  1.00  0.00     0.210 HD
ENDBRANCH   2   3
ENDBRANCH   1   2
BRANCH   1   5
ATOM      5  C   UNL     1      17.109  34.012  72.733  1.00  0.00     0.190 C 
BRANCH   5   6
ATOM      6  O   UNL     1      17.738  35.257  72.888  1.00  0.00    -0.394 OA
ATOM      7  H   UNL     1      17.140  35.933  72.473  1.00  0.00     0.210 HD
ENDBRANCH   5   6
ENDBRANCH   1   5
BRANCH   1   8
ATOM      8  O   UNL     1      17.762  33.932  75.056  1.00  0.00    -0.388 OA
ATOM      9  H   UNL     1      17.177  34.728  75.151  1.00  0.00     0.211 HD
ENDBRANCH   1   8
TORSDOF 5
ENDMDL
MODEL 5
REMARK VINA RESULT:    -3.404      1.441      2.614
REMARK INTER + INTRA:          -4.280
REMARK INTER:                  -4.278
REMARK INTRA:                  -0.003
REMARK UNBOUND:                -0.180
REMARK SMILES OCC(O)CO
REMARK SMILES IDX 3 1 5 2 6 3 2 5 1 6 4 8
REMARK H PARENT 6 4 1 7 4 9
REMARK Flexibility Score: inf
ROOT
ATOM      1  C   UNL     1       5.164  40.401  64.200  1.00  0.00     0.165 C 
ENDROOT
BRANCH   1   2
ATOM      2  C   UNL     1       5.025  40.138  65.705  1.00  0.00     0.190 C 
BRANCH   2   3
ATOM      3  O   UNL     1       6.199  40.503  66.378  1.00  0.00    -0.394 OA
ATOM      4  H   UNL     1       5.927  40.806  67.283  1.00  0.00     0.210 HD
ENDBRANCH   2   3
ENDBRANCH   1   2
BRANCH   1   5
ATOM      5  C   UNL     1       3.905  41.077  63.634  1.00  0.00     0.190 C 
BRANCH   5   6
ATOM      6  O   UNL     1       3.432  40.401  62.499  1.00  0.00    -0.394 OA
ATOM      7  H   UNL     1       4.096  39.691  62.292  1.00  0.00     0.210 HD
ENDBRANCH   5   6
ENDBRANCH   1   5
BRANCH   1   8
ATOM      8  O   UNL     1       5.408  39.189  63.535  1.00  0.00    -0.388 OA
ATOM      9  H   UNL     1       4.609  39.003  62.976  1.00  0.00     0.211 HD
ENDBRANCH   1   8
TORSDOF 5
ENDMDL
MODEL 6
REMARK VINA RESULT:    -3.374      1.080      2.534
REMARK INTER + INTRA:          -4.244
REMARK INTER:                  -4.214
REMARK INTRA:                  -0.030
REMARK UNBOUND:                -0.180
REMARK SMILES OCC(O)CO
REMARK SMILES IDX 3 1 5 2 6 3 2 5 1 6 4 8
REMARK H PARENT 6 4 1 7 4 9
REMARK Flexibility Score: inf
ROOT
ATOM      1  C   UNL     1       5.131  40.005  64.096  1.00  0.00     0.165 C 
ENDROOT
BRANCH   1   2
ATOM      2  C   UNL     1       4.798  40.081  65.592  1.00  0.00     0.190 C 
BRANCH   2   3
ATOM      3  O   UNL     1       5.916  40.513  66.321  1.00  0.00    -0.394 OA
ATOM      4  H   UNL     1       6.688  39.975  66.005  1.00  0.00     0.210 HD
ENDBRANCH   2   3
ENDBRANCH   1   2
BRANCH   1   5
ATOM      5  C   UNL     1       6.516  40.604  63.802  1.00  0.00     0.190 C 
BRANCH   5   6
ATOM      6  O   UNL     1       7.312  39.709  63.072  1.00  0.00    -0.394 OA
ATOM      7  H   UNL     1       6.853  38.828  63.101  1.00  0.00     0.210 HD
ENDBRANCH   5   6
ENDBRANCH   1   5
BRANCH   1   8
ATOM      8  O   UNL     1       4.142  40.680  63.363  1.00  0.00    -0.388 OA
ATOM      9  H   UNL     1       3.518  39.989  63.018  1.00  0.00     0.211 HD
ENDBRANCH   1   8
TORSDOF 5
ENDMDL
MODEL 7
REMARK VINA RESULT:    -3.366     16.647     17.296
REMARK INTER + INTRA:          -4.234
REMARK INTER:                  -4.017
REMARK INTRA:                  -0.217
REMARK UNBOUND:                -0.180
REMARK SMILES OCC(O)CO
REMARK SMILES IDX 3 1 5 2 6 3 2 5 1 6 4 8
REMARK H PARENT 6 4 1 7 4 9
REMARK Flexibility Score: inf
ROOT
ATOM      1  C   UNL     1      15.362  29.359  73.090  1.00  0.00     0.165 C 
ENDROOT
BRANCH   1   2
ATOM      2  C   UNL     1      15.662  30.708  73.758  1.00  0.00     0.190 C 
BRANCH   2   3
ATOM      3  O   UNL     1      17.015  31.041  73.603  1.00  0.00    -0.394 OA
ATOM      4  H   UNL     1      17.526  30.192  73.662  1.00  0.00     0.210 HD
ENDBRANCH   2   3
ENDBRANCH   1   2
BRANCH   1   5
ATOM      5  C   UNL     1      16.649  28.694  72.575  1.00  0.00     0.190 C 
BRANCH   5   6
ATOM      6  O   UNL     1      17.329  28.035  73.611  1.00  0.00    -0.394 OA
ATOM      7  H   UNL     1      18.251  27.860  73.282  1.00  0.00     0.210 HD
ENDBRANCH   5   6
ENDBRANCH   1   5
BRANCH   1   8
ATOM      8  O   UNL     1      14.458  29.552  72.033  1.00  0.00    -0.388 OA
ATOM      9  H   UNL     1      13.720  28.901  72.165  1.00  0.00     0.211 HD
ENDBRANCH   1   8
TORSDOF 5
ENDMDL
MODEL 8
REMARK VINA RESULT:    -3.344      1.122      2.027
REMARK INTER + INTRA:          -4.208
REMARK INTER:                  -4.124
REMARK INTRA:                  -0.085
REMARK UNBOUND:                -0.180
REMARK SMILES OCC(O)CO
REMARK SMILES IDX 3 1 5 2 6 3 2 5 1 6 4 8
REMARK H PARENT 6 4 1 7 4 9
REMARK Flexibility Score: inf
ROOT
ATOM      1  C   UNL     1       5.551  40.183  64.767  1.00  0.00     0.165 C 
ENDROOT
BRANCH   1   2
ATOM      2  C   UNL     1       6.729  40.664  63.909  1.00  0.00     0.190 C 
BRANCH   2   3
ATOM      3  O   UNL     1       7.173  39.636  63.065  1.00  0.00    -0.394 OA
ATOM      4  H   UNL     1       7.292  40.037  62.165  1.00  0.00     0.210 HD
ENDBRANCH   2   3
ENDBRANCH   1   2
BRANCH   1   5
ATOM      5  C   UNL     1       4.226  40.802  64.291  1.00  0.00     0.190 C 
BRANCH   5   6
ATOM      6  O   UNL     1       3.929  40.416  62.975  1.00  0.00    -0.394 OA
ATOM      7  H   UNL     1       4.686  40.723  62.410  1.00  0.00     0.210 HD
ENDBRANCH   5   6
ENDBRANCH   1   5
BRANCH   1   8
ATOM      8  O   UNL     1       5.787  40.511  66.111  1.00  0.00    -0.388 OA
ATOM      9  H   UNL     1       5.012  40.171  66.630  1.00  0.00     0.211 HD
ENDBRANCH   1   8
TORSDOF 5
ENDMDL
MODEL 9
REMARK VINA RESULT:    -3.235      0.951      2.710
REMARK INTER + INTRA:          -4.077
REMARK INTER:                  -3.873
REMARK INTRA:                  -0.204
REMARK UNBOUND:                -0.180
REMARK SMILES OCC(O)CO
REMARK SMILES IDX 3 1 5 2 6 3 2 5 1 6 4 8
REMARK H PARENT 6 4 1 7 4 9
REMARK Flexibility Score: inf
ROOT
ATOM      1  C   UNL     1       5.041  39.970  65.564  1.00  0.00     0.165 C 
ENDROOT
BRANCH   1   2
ATOM      2  C   UNL     1       3.681  40.639  65.321  1.00  0.00     0.190 C 
BRANCH   2   3
ATOM      3  O   UNL     1       3.433  40.760  63.947  1.00  0.00    -0.394 OA
ATOM      4  H   UNL     1       4.307  40.654  63.489  1.00  0.00     0.210 HD
ENDBRANCH   2   3
ENDBRANCH   1   2
BRANCH   1   5
ATOM      5  C   UNL     1       6.099  40.484  64.574  1.00  0.00     0.190 C 
BRANCH   5   6
ATOM      6  O   UNL     1       6.259  39.599  63.497  1.00  0.00    -0.394 OA
ATOM      7  H   UNL     1       5.435  39.044  63.458  1.00  0.00     0.210 HD
ENDBRANCH   5   6
ENDBRANCH   1   5
BRANCH   1   8
ATOM      8  O   UNL     1       4.902  38.578  65.451  1.00  0.00    -0.388 OA
ATOM      9  H   UNL     1       4.053  38.336  65.906  1.00  0.00     0.211 HD
ENDBRANCH   1   8
TORSDOF 5
ENDMDL
