MODEL 1
REMARK VINA RESULT:    -5.810      0.000      0.000
REMARK INTER + INTRA:          -6.152
REMARK INTER:                  -7.168
REMARK INTRA:                   1.017
REMARK UNBOUND:                 1.017
REMARK SMILES C=C1[C@@H]2CC[C@H]3[C@@H]2C(C)(C)CCC[C@@]13C
REMARK SMILES IDX 14 1 6 2 7 3 3 4 2 5 1 6 4 7 5 8 15 9 8 10 9 11 10 12 11 13
REMARK SMILES IDX 13 15 12 16
REMARK H PARENT
REMARK Flexibility Score: 80.00
ROOT
ATOM      1  C   UNL     1     110.469 111.922 110.316  1.00  0.00    -0.008 C 
ATOM      2  C   UNL     1     111.962 112.369 110.069  1.00  0.00     0.003 C 
ATOM      3  C   UNL     1     112.622 111.159 109.371  1.00  0.00     0.006 C 
ATOM      4  C   UNL     1     112.169 110.163 110.431  1.00  0.00     0.019 C 
ATOM      5  C   UNL     1     110.694 110.438 110.502  1.00  0.00    -0.068 C 
ATOM      6  C   UNL     1     109.761 109.522 110.792  1.00  0.00     0.009 C 
ATOM      7  C   UNL     1     112.799 110.785 111.699  1.00  0.00     0.008 C 
ATOM      8  C   UNL     1     112.749 112.306 111.407  1.00  0.00     0.005 C 
ATOM      9  C   UNL     1     109.830 112.525 111.597  1.00  0.00     0.016 C 
ENDROOT
BRANCH   3  10
ATOM     10  C   UNL     1     112.321 110.843 107.856  1.00  0.00    -0.032 C 
ATOM     11  C   UNL     1     113.120 111.847 106.980  1.00  0.00     0.011 C 
ATOM     12  C   UNL     1     112.866 109.433 107.521  1.00  0.00     0.011 C 
BRANCH  10  13
ATOM     13  C   UNL     1     110.822 110.862 107.447  1.00  0.00     0.007 CG0
ATOM     14  G   UNL     1     110.106 112.185 107.723  1.00  0.00     0.000 G0
ENDBRANCH  10  13
ENDBRANCH   3  10
BRANCH   1  15
ATOM     15  C   UNL     1     109.512 112.248 109.132  1.00  0.00     0.011 C 
BRANCH  15  16
ATOM     16  C   UNL     1     110.099 112.176 107.724  1.00  0.00     0.001 CG0
ATOM     17  G   UNL     1     110.828 110.861 107.447  1.00  0.00     0.000 G0
ENDBRANCH  15  16
ENDBRANCH   1  15
TORSDOF 0
ENDMDL
MODEL 2
REMARK VINA RESULT:    -5.795      3.649      4.921
REMARK INTER + INTRA:          -6.133
REMARK INTER:                  -7.156
REMARK INTRA:                   1.022
REMARK UNBOUND:                 1.017
REMARK SMILES C=C1[C@@H]2CC[C@H]3[C@@H]2C(C)(C)CCC[C@@]13C
REMARK SMILES IDX 14 1 6 2 7 3 3 4 2 5 1 6 4 7 5 8 15 9 8 10 9 11 10 12 11 13
REMARK SMILES IDX 13 15 12 16
REMARK H PARENT
REMARK Flexibility Score: 80.00
ROOT
ATOM      1  C   UNL     1     110.505 111.891 115.237  1.00  0.00    -0.008 C 
ATOM      2  C   UNL     1     112.019 112.290 115.040  1.00  0.00     0.003 C 
ATOM      3  C   UNL     1     112.651 111.079 114.317  1.00  0.00     0.006 C 
ATOM      4  C   UNL     1     112.136 110.066 115.331  1.00  0.00     0.019 C 
ATOM      5  C   UNL     1     110.671 110.394 115.377  1.00  0.00    -0.068 C 
ATOM      6  C   UNL     1     109.698 109.504 115.614  1.00  0.00     0.009 C 
ATOM      7  C   UNL     1     112.757 110.623 116.634  1.00  0.00     0.008 C 
ATOM      8  C   UNL     1     112.770 112.153 116.393  1.00  0.00     0.005 C 
ATOM      9  C   UNL     1     109.858 112.475 116.521  1.00  0.00     0.016 C 
ENDROOT
BRANCH   3  10
ATOM     10  C   UNL     1     112.378 110.825 112.785  1.00  0.00    -0.032 C 
ATOM     11  C   UNL     1     113.229 111.831 111.964  1.00  0.00     0.011 C 
ATOM     12  C   UNL     1     112.884 109.410 112.415  1.00  0.00     0.011 C 
BRANCH  10  13
ATOM     13  C   UNL     1     110.890 110.908 112.343  1.00  0.00     0.007 CG0
ATOM     14  G   UNL     1     110.212 112.244 112.644  1.00  0.00     0.000 G0
ENDBRANCH  10  13
ENDBRANCH   3  10
BRANCH   1  15
ATOM     15  C   UNL     1     109.591 112.291 114.042  1.00  0.00     0.011 C 
BRANCH  15  16
ATOM     16  C   UNL     1     110.208 112.241 112.646  1.00  0.00     0.001 CG0
ATOM     17  G   UNL     1     110.893 110.908 112.342  1.00  0.00     0.000 G0
ENDBRANCH  15  16
ENDBRANCH   1  15
TORSDOF 0
ENDMDL
MODEL 3
REMARK VINA RESULT:    -5.784      1.033      3.205
REMARK INTER + INTRA:          -6.119
REMARK INTER:                  -7.130
REMARK INTRA:                   1.010
REMARK UNBOUND:                 1.017
REMARK SMILES C=C1[C@@H]2CC[C@H]3[C@@H]2C(C)(C)CCC[C@@]13C
REMARK SMILES IDX 14 1 6 2 7 3 3 4 2 5 1 6 4 7 5 8 15 9 8 10 9 11 10 12 11 13
REMARK SMILES IDX 13 15 12 16
REMARK H PARENT
REMARK Flexibility Score: 80.00
ROOT
ATOM      1  C   UNL     1     111.826 110.245 110.327  1.00  0.00    -0.008 C 
ATOM      2  C   UNL     1     110.325 109.826 110.081  1.00  0.00     0.003 C 
ATOM      3  C   UNL     1     109.682 111.055 109.400  1.00  0.00     0.006 C 
ATOM      4  C   UNL     1     110.156 112.031 110.469  1.00  0.00     0.019 C 
ATOM      5  C   UNL     1     111.627 111.730 110.530  1.00  0.00    -0.068 C 
ATOM      6  C   UNL     1     112.576 112.627 110.827  1.00  0.00     0.009 C 
ATOM      7  C   UNL     1     109.521 111.404 111.732  1.00  0.00     0.008 C 
ATOM      8  C   UNL     1     109.544 109.887 111.423  1.00  0.00     0.005 C 
ATOM      9  C   UNL     1     112.459 109.616 111.597  1.00  0.00     0.016 C 
ENDROOT
BRANCH   3  10
ATOM     10  C   UNL     1     109.981 111.384 107.887  1.00  0.00    -0.032 C 
ATOM     11  C   UNL     1     109.161 110.404 107.003  1.00  0.00     0.011 C 
ATOM     12  C   UNL     1     109.461 112.807 107.571  1.00  0.00     0.011 C 
BRANCH  10  13
ATOM     13  C   UNL     1     111.478 111.343 107.471  1.00  0.00     0.007 CG0
ATOM     14  G   UNL     1     112.175 110.008 107.738  1.00  0.00     0.000 G0
ENDBRANCH  10  13
ENDBRANCH   3  10
BRANCH   1  15
ATOM     15  C   UNL     1     112.772 109.917 109.134  1.00  0.00     0.011 C 
BRANCH  15  16
ATOM     16  C   UNL     1     112.180 110.013 107.730  1.00  0.00     0.001 CG0
ATOM     17  G   UNL     1     111.478 111.345 107.466  1.00  0.00     0.000 G0
ENDBRANCH  15  16
ENDBRANCH   1  15
TORSDOF 0
ENDMDL
MODEL 4
REMARK VINA RESULT:    -5.761      3.596      5.704
REMARK INTER + INTRA:          -6.091
REMARK INTER:                  -7.119
REMARK INTRA:                   1.028
REMARK UNBOUND:                 1.017
REMARK SMILES C=C1[C@@H]2CC[C@H]3[C@@H]2C(C)(C)CCC[C@@]13C
REMARK SMILES IDX 14 1 6 2 7 3 3 4 2 5 1 6 4 7 5 8 15 9 8 10 9 11 10 12 11 13
REMARK SMILES IDX 13 15 12 16
REMARK H PARENT
REMARK Flexibility Score: 80.00
ROOT
ATOM      1  C   UNL     1     111.859 110.314 115.069  1.00  0.00    -0.008 C 
ATOM      2  C   UNL     1     110.352 109.895 114.867  1.00  0.00     0.003 C 
ATOM      3  C   UNL     1     109.717 111.078 114.102  1.00  0.00     0.006 C 
ATOM      4  C   UNL     1     110.210 112.125 115.091  1.00  0.00     0.019 C 
ATOM      5  C   UNL     1     111.678 111.813 115.164  1.00  0.00    -0.068 C 
ATOM      6  C   UNL     1     112.640 112.719 115.386  1.00  0.00     0.009 C 
ATOM      7  C   UNL     1     109.580 111.601 116.403  1.00  0.00     0.008 C 
ATOM      8  C   UNL     1     109.583 110.064 116.207  1.00  0.00     0.005 C 
ATOM      9  C   UNL     1     112.497 109.775 116.378  1.00  0.00     0.016 C 
ENDROOT
BRANCH   3  10
ATOM     10  C   UNL     1     110.007 111.290 112.566  1.00  0.00    -0.032 C 
ATOM     11  C   UNL     1     109.176 110.251 111.765  1.00  0.00     0.011 C 
ATOM     12  C   UNL     1     109.490 112.688 112.148  1.00  0.00     0.011 C 
BRANCH  10  13
ATOM     13  C   UNL     1     111.500 111.211 112.144  1.00  0.00     0.007 CG0
ATOM     14  G   UNL     1     112.189 109.891 112.491  1.00  0.00     0.000 G0
ENDBRANCH  10  13
ENDBRANCH   3  10
BRANCH   1  15
ATOM     15  C   UNL     1     112.792 109.888 113.897  1.00  0.00     0.011 C 
BRANCH  15  16
ATOM     16  C   UNL     1     112.191 109.894 112.493  1.00  0.00     0.001 CG0
ATOM     17  G   UNL     1     111.505 111.214 112.142  1.00  0.00     0.000 G0
ENDBRANCH  15  16
ENDBRANCH   1  15
TORSDOF 0
ENDMDL
MODEL 5
REMARK VINA RESULT:    -5.575      2.751      4.765
REMARK INTER + INTRA:          -5.862
REMARK INTER:                  -6.902
REMARK INTRA:                   1.040
REMARK UNBOUND:                 1.017
REMARK SMILES C=C1[C@@H]2CC[C@H]3[C@@H]2C(C)(C)CCC[C@@]13C
REMARK SMILES IDX 14 1 6 2 7 3 3 4 2 5 1 6 4 7 5 8 15 9 8 10 9 11 10 12 11 13
REMARK SMILES IDX 13 15 12 16
REMARK H PARENT
REMARK Flexibility Score: 80.00
ROOT
ATOM      1  C   UNL     1     110.202 110.644 111.068  1.00  0.00    -0.008 C 
ATOM      2  C   UNL     1     111.530 109.835 111.335  1.00  0.00     0.003 C 
ATOM      3  C   UNL     1     112.390 110.774 112.211  1.00  0.00     0.006 C 
ATOM      4  C   UNL     1     112.260 111.957 111.262  1.00  0.00     0.019 C 
ATOM      5  C   UNL     1     110.772 112.045 111.080  1.00  0.00    -0.068 C 
ATOM      6  C   UNL     1     110.097 113.181 110.857  1.00  0.00     0.009 C 
ATOM      7  C   UNL     1     112.831 111.346 109.961  1.00  0.00     0.008 C 
ATOM      8  C   UNL     1     112.415 109.857 110.058  1.00  0.00     0.005 C 
ATOM      9  C   UNL     1     109.547 110.351 109.691  1.00  0.00     0.016 C 
ENDROOT
BRANCH   3  10
ATOM     10  C   UNL     1     112.050 110.985 113.737  1.00  0.00    -0.032 C 
ATOM     11  C   UNL     1     112.509 109.724 114.518  1.00  0.00     0.011 C 
ATOM     12  C   UNL     1     112.887 112.170 114.277  1.00  0.00     0.011 C 
BRANCH  10  13
ATOM     13  C   UNL     1     110.561 111.293 114.059  1.00  0.00     0.007 CG0
ATOM     14  G   UNL     1     109.576 110.219 113.598  1.00  0.00     0.000 G0
ENDBRANCH  10  13
ENDBRANCH   3  10
BRANCH   1  15
ATOM     15  C   UNL     1     109.105 110.425 112.151  1.00  0.00     0.011 C 
BRANCH  15  16
ATOM     16  C   UNL     1     109.578 110.222 113.589  1.00  0.00     0.001 CG0
ATOM     17  G   UNL     1     110.555 111.301 114.055  1.00  0.00     0.000 G0
ENDBRANCH  15  16
ENDBRANCH   1  15
TORSDOF 0
ENDMDL
MODEL 6
REMARK VINA RESULT:    -5.567      2.836      5.042
REMARK INTER + INTRA:          -5.852
REMARK INTER:                  -6.874
REMARK INTRA:                   1.022
REMARK UNBOUND:                 1.017
REMARK SMILES C=C1[C@@H]2CC[C@H]3[C@@H]2C(C)(C)CCC[C@@]13C
REMARK SMILES IDX 14 1 6 2 7 3 3 4 2 5 1 6 4 7 5 8 15 9 8 10 9 11 10 12 11 13
REMARK SMILES IDX 13 15 12 16
REMARK H PARENT
REMARK Flexibility Score: 80.00
ROOT
ATOM      1  C   UNL     1     112.101 111.643 111.068  1.00  0.00    -0.008 C 
ATOM      2  C   UNL     1     110.799 112.471 111.396  1.00  0.00     0.003 C 
ATOM      3  C   UNL     1     109.942 111.525 112.266  1.00  0.00     0.006 C 
ATOM      4  C   UNL     1     110.020 110.369 111.277  1.00  0.00     0.019 C 
ATOM      5  C   UNL     1     111.501 110.254 111.052  1.00  0.00    -0.068 C 
ATOM      6  C   UNL     1     112.143 109.112 110.777  1.00  0.00     0.009 C 
ATOM      7  C   UNL     1     109.428 111.033 110.011  1.00  0.00     0.008 C 
ATOM      8  C   UNL     1     109.880 112.509 110.143  1.00  0.00     0.005 C 
ATOM      9  C   UNL     1     112.726 111.965 109.684  1.00  0.00     0.016 C 
ENDROOT
BRANCH   3  10
ATOM     10  C   UNL     1     110.317 111.259 113.774  1.00  0.00    -0.032 C 
ATOM     11  C   UNL     1     109.892 112.498 114.609  1.00  0.00     0.011 C 
ATOM     12  C   UNL     1     109.481 110.065 114.295  1.00  0.00     0.011 C 
BRANCH  10  13
ATOM     13  C   UNL     1     111.810 110.924 114.049  1.00  0.00     0.007 CG0
ATOM     14  G   UNL     1     112.796 112.001 113.593  1.00  0.00     0.000 G0
ENDBRANCH  10  13
ENDBRANCH   3  10
BRANCH   1  15
ATOM     15  C   UNL     1     113.231 111.804 112.127  1.00  0.00     0.011 C 
BRANCH  15  16
ATOM     16  C   UNL     1     112.800 111.983 113.582  1.00  0.00     0.001 CG0
ATOM     17  G   UNL     1     111.799 110.925 114.044  1.00  0.00     0.000 G0
ENDBRANCH  15  16
ENDBRANCH   1  15
TORSDOF 0
ENDMDL
MODEL 7
REMARK VINA RESULT:    -5.495      6.610      8.868
REMARK INTER + INTRA:          -5.763
REMARK INTER:                  -6.810
REMARK INTRA:                   1.046
REMARK UNBOUND:                 1.017
REMARK SMILES C=C1[C@@H]2CC[C@H]3[C@@H]2C(C)(C)CCC[C@@]13C
REMARK SMILES IDX 14 1 6 2 7 3 3 4 2 5 1 6 4 7 5 8 15 9 8 10 9 11 10 12 11 13
REMARK SMILES IDX 13 15 12 16
REMARK H PARENT
REMARK Flexibility Score: 80.00
ROOT
ATOM      1  C   UNL     1     112.085 111.640 116.017  1.00  0.00    -0.008 C 
ATOM      2  C   UNL     1     110.783 112.479 116.318  1.00  0.00     0.003 C 
ATOM      3  C   UNL     1     109.903 111.540 117.174  1.00  0.00     0.006 C 
ATOM      4  C   UNL     1     109.991 110.382 116.190  1.00  0.00     0.019 C 
ATOM      5  C   UNL     1     111.475 110.256 115.993  1.00  0.00    -0.068 C 
ATOM      6  C   UNL     1     112.115 109.108 115.733  1.00  0.00     0.009 C 
ATOM      7  C   UNL     1     109.429 111.046 114.912  1.00  0.00     0.008 C 
ATOM      8  C   UNL     1     109.889 112.519 115.049  1.00  0.00     0.005 C 
ATOM      9  C   UNL     1     112.738 111.954 114.644  1.00  0.00     0.016 C 
ENDROOT
BRANCH   3  10
ATOM     10  C   UNL     1     110.249 111.276 118.690  1.00  0.00    -0.032 C 
ATOM     11  C   UNL     1     109.841 112.530 119.510  1.00  0.00     0.011 C 
ATOM     12  C   UNL     1     109.375 110.106 119.206  1.00  0.00     0.011 C 
BRANCH  10  13
ATOM     13  C   UNL     1     111.728 110.907 118.990  1.00  0.00     0.007 CG0
ATOM     14  G   UNL     1     112.747 111.958 118.548  1.00  0.00     0.000 G0
ENDBRANCH  10  13
ENDBRANCH   3  10
BRANCH   1  15
ATOM     15  C   UNL     1     113.196 111.796 117.097  1.00  0.00     0.011 C 
BRANCH  15  16
ATOM     16  C   UNL     1     112.740 111.960 118.545  1.00  0.00     0.001 CG0
ATOM     17  G   UNL     1     111.726 110.900 118.976  1.00  0.00     0.000 G0
ENDBRANCH  15  16
ENDBRANCH   1  15
TORSDOF 0
ENDMDL
MODEL 8
REMARK VINA RESULT:    -5.485      1.604      4.170
REMARK INTER + INTRA:          -5.750
REMARK INTER:                  -6.773
REMARK INTRA:                   1.022
REMARK UNBOUND:                 1.017
REMARK SMILES C=C1[C@@H]2CC[C@H]3[C@@H]2C(C)(C)CCC[C@@]13C
REMARK SMILES IDX 14 1 6 2 7 3 3 4 2 5 1 6 4 7 5 8 15 9 8 10 9 11 10 12 11 13
REMARK SMILES IDX 13 15 12 16
REMARK H PARENT
REMARK Flexibility Score: 80.00
ROOT
ATOM      1  C   UNL     1     110.243 110.652 106.379  1.00  0.00    -0.008 C 
ATOM      2  C   UNL     1     111.578 109.874 106.701  1.00  0.00     0.003 C 
ATOM      3  C   UNL     1     112.409 110.859 107.552  1.00  0.00     0.006 C 
ATOM      4  C   UNL     1     112.279 112.002 106.554  1.00  0.00     0.019 C 
ATOM      5  C   UNL     1     110.792 112.060 106.344  1.00  0.00    -0.068 C 
ATOM      6  C   UNL     1     110.105 113.176 106.065  1.00  0.00     0.009 C 
ATOM      7  C   UNL     1     112.880 111.348 105.288  1.00  0.00     0.008 C 
ATOM      8  C   UNL     1     112.484 109.858 105.439  1.00  0.00     0.005 C 
ATOM      9  C   UNL     1     109.616 110.293 105.005  1.00  0.00     0.016 C 
ENDROOT
BRANCH   3  10
ATOM     10  C   UNL     1     112.040 111.126 109.062  1.00  0.00    -0.032 C 
ATOM     11  C   UNL     1     112.515 109.910 109.903  1.00  0.00     0.011 C 
ATOM     12  C   UNL     1     112.841 112.352 109.564  1.00  0.00     0.011 C 
BRANCH  10  13
ATOM     13  C   UNL     1     110.540 111.413 109.349  1.00  0.00     0.007 CG0
ATOM     14  G   UNL     1     109.585 110.303 108.908  1.00  0.00     0.000 G0
ENDBRANCH  10  13
ENDBRANCH   3  10
BRANCH   1  15
ATOM     15  C   UNL     1     109.131 110.460 107.452  1.00  0.00     0.011 C 
BRANCH  15  16
ATOM     16  C   UNL     1     109.583 110.308 108.903  1.00  0.00     0.001 CG0
ATOM     17  G   UNL     1     110.544 111.411 109.348  1.00  0.00     0.000 G0
ENDBRANCH  15  16
ENDBRANCH   1  15
TORSDOF 0
ENDMDL
MODEL 9
REMARK VINA RESULT:    -5.443      6.721      8.857
REMARK INTER + INTRA:          -5.699
REMARK INTER:                  -6.697
REMARK INTRA:                   0.998
REMARK UNBOUND:                 1.017
REMARK SMILES C=C1[C@@H]2CC[C@H]3[C@@H]2C(C)(C)CCC[C@@]13C
REMARK SMILES IDX 14 1 6 2 7 3 3 4 2 5 1 6 4 7 5 8 15 9 8 10 9 11 10 12 11 13
REMARK SMILES IDX 13 15 12 16
REMARK H PARENT
REMARK Flexibility Score: 80.00
ROOT
ATOM      1  C   UNL     1     110.258 110.715 116.172  1.00  0.00    -0.008 C 
ATOM      2  C   UNL     1     111.573 109.922 116.530  1.00  0.00     0.003 C 
ATOM      3  C   UNL     1     112.414 110.915 117.364  1.00  0.00     0.006 C 
ATOM      4  C   UNL     1     112.317 112.031 116.332  1.00  0.00     0.019 C 
ATOM      5  C   UNL     1     110.835 112.112 116.104  1.00  0.00    -0.068 C 
ATOM      6  C   UNL     1     110.173 113.232 115.786  1.00  0.00     0.009 C 
ATOM      7  C   UNL     1     112.920 111.330 115.093  1.00  0.00     0.008 C 
ATOM      8  C   UNL     1     112.493 109.852 115.280  1.00  0.00     0.005 C 
ATOM      9  C   UNL     1     109.639 110.331 114.801  1.00  0.00     0.016 C 
ENDROOT
BRANCH   3  10
ATOM     10  C   UNL     1     112.034 111.231 118.861  1.00  0.00    -0.032 C 
ATOM     11  C   UNL     1     112.496 110.040 119.744  1.00  0.00     0.011 C 
ATOM     12  C   UNL     1     112.836 112.469 119.331  1.00  0.00     0.011 C 
BRANCH  10  13
ATOM     13  C   UNL     1     110.532 111.533 119.126  1.00  0.00     0.007 CG0
ATOM     14  G   UNL     1     109.575 110.426 118.684  1.00  0.00     0.000 G0
ENDBRANCH  10  13
ENDBRANCH   3  10
BRANCH   1  15
ATOM     15  C   UNL     1     109.131 110.575 117.237  1.00  0.00     0.011 C 
BRANCH  15  16
ATOM     16  C   UNL     1     109.564 110.438 118.695  1.00  0.00     0.001 CG0
ATOM     17  G   UNL     1     110.537 111.533 119.135  1.00  0.00     0.000 G0
ENDBRANCH  15  16
ENDBRANCH   1  15
TORSDOF 0
ENDMDL
