MODEL 1
REMARK VINA RESULT:    -3.955      0.000      0.000
REMARK INTER + INTRA:          -5.268
REMARK INTER:                  -5.111
REMARK INTRA:                  -0.157
REMARK UNBOUND:                -0.157
REMARK SMILES CCCCCCC(=O)[O-]
REMARK SMILES IDX 5 1 6 2 7 3 8 4 9 5 4 6 3 7 2 8 1 9
REMARK H PARENT
REMARK Flexibility Score: inf
ROOT
ATOM      1  C   UNL     1      36.752 106.879 261.676  1.00  0.00     0.006 C 
ENDROOT
BRANCH   1   2
ATOM      2  C   UNL     1      36.852 106.387 263.126  1.00  0.00     0.053 C 
BRANCH   2   3
ATOM      3  C   UNL     1      35.502 106.225 263.755  1.00  0.00     0.041 C 
ATOM      4  O   UNL     1      34.941 107.206 264.312  1.00  0.00    -0.550 OA
ATOM      5  O   UNL     1      34.875 104.986 263.751  1.00  0.00    -0.550 OA
ENDBRANCH   2   3
ENDBRANCH   1   2
BRANCH   1   6
ATOM      6  C   UNL     1      36.810 105.720 260.666  1.00  0.00     0.000 C 
BRANCH   6   7
ATOM      7  C   UNL     1      37.774 105.994 259.497  1.00  0.00    -0.000 C 
BRANCH   7   8
ATOM      8  C   UNL     1      37.101 106.124 258.119  1.00  0.00    -0.003 C 
ATOM      9  C   UNL     1      36.062 107.244 258.063  1.00  0.00     0.004 C 
ENDBRANCH   7   8
ENDBRANCH   6   7
ENDBRANCH   1   6
TORSDOF 5
ENDMDL
MODEL 2
REMARK VINA RESULT:    -3.890      1.323      1.943
REMARK INTER + INTRA:          -5.185
REMARK INTER:                  -5.122
REMARK INTRA:                  -0.063
REMARK UNBOUND:                -0.157
REMARK SMILES CCCCCCC(=O)[O-]
REMARK SMILES IDX 5 1 6 2 7 3 8 4 9 5 4 6 3 7 2 8 1 9
REMARK H PARENT
REMARK Flexibility Score: inf
ROOT
ATOM      1  C   UNL     1      36.383 106.132 263.337  1.00  0.00     0.006 C 
ENDROOT
BRANCH   1   2
ATOM      2  C   UNL     1      35.237 106.944 263.955  1.00  0.00     0.053 C 
BRANCH   2   3
ATOM      3  C   UNL     1      35.354 107.029 265.446  1.00  0.00     0.041 C 
ATOM      4  O   UNL     1      35.753 108.093 265.990  1.00  0.00    -0.550 OA
ATOM      5  O   UNL     1      35.049 105.926 266.233  1.00  0.00    -0.550 OA
ENDBRANCH   2   3
ENDBRANCH   1   2
BRANCH   1   6
ATOM      6  C   UNL     1      36.843 106.712 261.989  1.00  0.00     0.000 C 
BRANCH   6   7
ATOM      7  C   UNL     1      36.770 105.687 260.841  1.00  0.00    -0.000 C 
BRANCH   7   8
ATOM      8  C   UNL     1      37.846 105.855 259.753  1.00  0.00    -0.003 C 
ATOM      9  C   UNL     1      37.261 105.980 258.346  1.00  0.00     0.004 C 
ENDBRANCH   7   8
ENDBRANCH   6   7
ENDBRANCH   1   6
TORSDOF 5
ENDMDL
MODEL 3
REMARK VINA RESULT:    -3.846      2.796      5.262
REMARK INTER + INTRA:          -5.127
REMARK INTER:                  -4.977
REMARK INTRA:                  -0.150
REMARK UNBOUND:                -0.157
REMARK SMILES CCCCCCC(=O)[O-]
REMARK SMILES IDX 5 1 6 2 7 3 8 4 9 5 4 6 3 7 2 8 1 9
REMARK H PARENT
REMARK Flexibility Score: inf
ROOT
ATOM      1  C   UNL     1      36.742 106.543 262.711  1.00  0.00     0.006 C 
ENDROOT
BRANCH   1   2
ATOM      2  C   UNL     1      36.480 105.809 261.389  1.00  0.00     0.053 C 
BRANCH   2   3
ATOM      3  C   UNL     1      37.282 106.386 260.262  1.00  0.00     0.041 C 
ATOM      4  O   UNL     1      36.744 107.174 259.441  1.00  0.00    -0.550 OA
ATOM      5  O   UNL     1      38.615 106.030 260.103  1.00  0.00    -0.550 OA
ENDBRANCH   2   3
ENDBRANCH   1   2
BRANCH   1   6
ATOM      6  C   UNL     1      35.459 106.713 263.543  1.00  0.00     0.000 C 
BRANCH   6   7
ATOM      7  C   UNL     1      34.993 105.399 264.198  1.00  0.00    -0.000 C 
BRANCH   7   8
ATOM      8  C   UNL     1      35.089 105.370 265.733  1.00  0.00    -0.003 C 
ATOM      9  C   UNL     1      35.144 106.765 266.356  1.00  0.00     0.004 C 
ENDBRANCH   7   8
ENDBRANCH   6   7
ENDBRANCH   1   6
TORSDOF 5
ENDMDL
MODEL 4
REMARK VINA RESULT:    -3.725      1.922      2.899
REMARK INTER + INTRA:          -4.970
REMARK INTER:                  -4.889
REMARK INTRA:                  -0.081
REMARK UNBOUND:                -0.157
REMARK SMILES CCCCCCC(=O)[O-]
REMARK SMILES IDX 5 1 6 2 7 3 8 4 9 5 4 6 3 7 2 8 1 9
REMARK H PARENT
REMARK Flexibility Score: inf
ROOT
ATOM      1  C   UNL     1      35.201 106.652 264.091  1.00  0.00     0.006 C 
ENDROOT
BRANCH   1   2
ATOM      2  C   UNL     1      35.139 106.079 265.513  1.00  0.00     0.053 C 
BRANCH   2   3
ATOM      3  C   UNL     1      35.167 107.159 266.552  1.00  0.00     0.041 C 
ATOM      4  O   UNL     1      35.298 108.364 266.209  1.00  0.00    -0.550 OA
ATOM      5  O   UNL     1      35.076 106.832 267.898  1.00  0.00    -0.550 OA
ENDBRANCH   2   3
ENDBRANCH   1   2
BRANCH   1   6
ATOM      6  C   UNL     1      35.964 105.728 263.127  1.00  0.00     0.000 C 
BRANCH   6   7
ATOM      7  C   UNL     1      36.740 106.503 262.045  1.00  0.00    -0.000 C 
BRANCH   7   8
ATOM      8  C   UNL     1      36.808 105.807 260.673  1.00  0.00    -0.003 C 
ATOM      9  C   UNL     1      36.793 106.790 259.502  1.00  0.00     0.004 C 
ENDBRANCH   7   8
ENDBRANCH   6   7
ENDBRANCH   1   6
TORSDOF 5
ENDMDL
MODEL 5
REMARK VINA RESULT:    -3.723      1.818      2.835
REMARK INTER + INTRA:          -4.968
REMARK INTER:                  -4.940
REMARK INTRA:                  -0.028
REMARK UNBOUND:                -0.157
REMARK SMILES CCCCCCC(=O)[O-]
REMARK SMILES IDX 5 1 6 2 7 3 8 4 9 5 4 6 3 7 2 8 1 9
REMARK H PARENT
REMARK Flexibility Score: inf
ROOT
ATOM      1  C   UNL     1      36.029 105.502 263.869  1.00  0.00     0.006 C 
ENDROOT
BRANCH   1   2
ATOM      2  C   UNL     1      34.875 105.537 264.880  1.00  0.00     0.053 C 
BRANCH   2   3
ATOM      3  C   UNL     1      35.248 106.276 266.128  1.00  0.00     0.041 C 
ATOM      4  O   UNL     1      35.247 105.684 267.240  1.00  0.00    -0.550 OA
ATOM      5  O   UNL     1      35.572 107.626 266.069  1.00  0.00    -0.550 OA
ENDBRANCH   2   3
ENDBRANCH   1   2
BRANCH   1   6
ATOM      6  C   UNL     1      36.031 106.735 262.949  1.00  0.00     0.000 C 
BRANCH   6   7
ATOM      7  C   UNL     1      37.135 106.679 261.876  1.00  0.00    -0.000 C 
BRANCH   7   8
ATOM      8  C   UNL     1      36.764 105.892 260.606  1.00  0.00    -0.003 C 
ATOM      9  C   UNL     1      37.931 105.749 259.629  1.00  0.00     0.004 C 
ENDBRANCH   7   8
ENDBRANCH   6   7
ENDBRANCH   1   6
TORSDOF 5
ENDMDL
MODEL 6
REMARK VINA RESULT:    -3.719      3.158      5.748
REMARK INTER + INTRA:          -4.963
REMARK INTER:                  -4.814
REMARK INTRA:                  -0.149
REMARK UNBOUND:                -0.157
REMARK SMILES CCCCCCC(=O)[O-]
REMARK SMILES IDX 5 1 6 2 7 3 8 4 9 5 4 6 3 7 2 8 1 9
REMARK H PARENT
REMARK Flexibility Score: inf
ROOT
ATOM      1  C   UNL     1      36.102 105.763 263.750  1.00  0.00     0.006 C 
ENDROOT
BRANCH   1   2
ATOM      2  C   UNL     1      36.353 106.836 262.682  1.00  0.00     0.053 C 
BRANCH   2   3
ATOM      3  C   UNL     1      37.783 106.859 262.238  1.00  0.00     0.041 C 
ATOM      4  O   UNL     1      38.685 107.251 263.026  1.00  0.00    -0.550 OA
ATOM      5  O   UNL     1      38.118 106.474 260.947  1.00  0.00    -0.550 OA
ENDBRANCH   2   3
ENDBRANCH   1   2
BRANCH   1   6
ATOM      6  C   UNL     1      35.051 106.206 264.782  1.00  0.00     0.000 C 
BRANCH   6   7
ATOM      7  C   UNL     1      35.066 105.345 266.059  1.00  0.00    -0.000 C 
BRANCH   7   8
ATOM      8  C   UNL     1      34.875 106.127 267.370  1.00  0.00    -0.003 C 
ATOM      9  C   UNL     1      35.174 107.619 267.227  1.00  0.00     0.004 C 
ENDBRANCH   7   8
ENDBRANCH   6   7
ENDBRANCH   1   6
TORSDOF 5
ENDMDL
MODEL 7
REMARK VINA RESULT:    -3.532      3.272      4.824
REMARK INTER + INTRA:          -4.721
REMARK INTER:                  -4.570
REMARK INTRA:                  -0.151
REMARK UNBOUND:                -0.157
REMARK SMILES CCCCCCC(=O)[O-]
REMARK SMILES IDX 5 1 6 2 7 3 8 4 9 5 4 6 3 7 2 8 1 9
REMARK H PARENT
REMARK Flexibility Score: inf
ROOT
ATOM      1  C   UNL     1      34.875 105.933 266.593  1.00  0.00     0.006 C 
ENDROOT
BRANCH   1   2
ATOM      2  C   UNL     1      35.218 107.429 266.585  1.00  0.00     0.053 C 
BRANCH   2   3
ATOM      3  C   UNL     1      35.145 108.026 267.957  1.00  0.00     0.041 C 
ATOM      4  O   UNL     1      34.906 109.254 268.101  1.00  0.00    -0.550 OA
ATOM      5  O   UNL     1      35.366 107.233 269.075  1.00  0.00    -0.550 OA
ENDBRANCH   2   3
ENDBRANCH   1   2
BRANCH   1   6
ATOM      6  C   UNL     1      34.967 105.310 265.190  1.00  0.00     0.000 C 
BRANCH   6   7
ATOM      7  C   UNL     1      35.362 106.332 264.107  1.00  0.00    -0.000 C 
BRANCH   7   8
ATOM      8  C   UNL     1      36.262 105.776 262.989  1.00  0.00    -0.003 C 
ATOM      9  C   UNL     1      36.730 106.850 262.007  1.00  0.00     0.004 C 
ENDBRANCH   7   8
ENDBRANCH   6   7
ENDBRANCH   1   6
TORSDOF 5
ENDMDL
MODEL 8
REMARK VINA RESULT:    -3.322      3.331      6.480
REMARK INTER + INTRA:          -4.450
REMARK INTER:                  -4.231
REMARK INTRA:                  -0.219
REMARK UNBOUND:                -0.157
REMARK SMILES CCCCCCC(=O)[O-]
REMARK SMILES IDX 5 1 6 2 7 3 8 4 9 5 4 6 3 7 2 8 1 9
REMARK H PARENT
REMARK Flexibility Score: inf
ROOT
ATOM      1  C   UNL     1      35.639 105.013 265.673  1.00  0.00     0.006 C 
ENDROOT
BRANCH   1   2
ATOM      2  C   UNL     1      36.188 105.961 264.598  1.00  0.00     0.053 C 
BRANCH   2   3
ATOM      3  C   UNL     1      35.793 105.530 263.219  1.00  0.00     0.041 C 
ATOM      4  O   UNL     1      34.930 104.627 263.061  1.00  0.00    -0.550 OA
ATOM      5  O   UNL     1      36.398 106.105 262.109  1.00  0.00    -0.550 OA
ENDBRANCH   2   3
ENDBRANCH   1   2
BRANCH   1   6
ATOM      6  C   UNL     1      34.875 105.768 266.775  1.00  0.00     0.000 C 
BRANCH   6   7
ATOM      7  C   UNL     1      35.199 107.274 266.802  1.00  0.00    -0.000 C 
BRANCH   7   8
ATOM      8  C   UNL     1      35.151 107.921 268.198  1.00  0.00    -0.003 C 
ATOM      9  C   UNL     1      35.263 106.905 269.334  1.00  0.00     0.004 C 
ENDBRANCH   7   8
ENDBRANCH   6   7
ENDBRANCH   1   6
TORSDOF 5
ENDMDL
MODEL 9
REMARK VINA RESULT:    -2.653      1.682      2.790
REMARK INTER + INTRA:          -3.586
REMARK INTER:                  -3.256
REMARK INTRA:                  -0.330
REMARK UNBOUND:                -0.157
REMARK SMILES CCCCCCC(=O)[O-]
REMARK SMILES IDX 5 1 6 2 7 3 8 4 9 5 4 6 3 7 2 8 1 9
REMARK H PARENT
REMARK Flexibility Score: inf
ROOT
ATOM      1  C   UNL     1      36.361 104.879 261.276  1.00  0.00     0.006 C 
ENDROOT
BRANCH   1   2
ATOM      2  C   UNL     1      35.254 104.763 262.333  1.00  0.00     0.053 C 
BRANCH   2   3
ATOM      3  C   UNL     1      35.576 105.552 263.566  1.00  0.00     0.041 C 
ATOM      4  O   UNL     1      36.376 105.090 264.422  1.00  0.00    -0.550 OA
ATOM      5  O   UNL     1      34.971 106.783 263.783  1.00  0.00    -0.550 OA
ENDBRANCH   2   3
ENDBRANCH   1   2
BRANCH   1   6
ATOM      6  C   UNL     1      36.678 106.343 260.928  1.00  0.00     0.000 C 
BRANCH   6   7
ATOM      7  C   UNL     1      38.148 106.555 260.519  1.00  0.00    -0.000 C 
BRANCH   7   8
ATOM      8  C   UNL     1      39.164 106.439 261.669  1.00  0.00    -0.003 C 
ATOM      9  C   UNL     1      38.806 107.308 262.875  1.00  0.00     0.004 C 
ENDBRANCH   7   8
ENDBRANCH   6   7
ENDBRANCH   1   6
TORSDOF 5
ENDMDL
