MODEL 1
REMARK VINA RESULT:    -4.340      0.000      0.000
REMARK INTER + INTRA:          -4.847
REMARK INTER:                  -4.847
REMARK INTRA:                   0.000
REMARK UNBOUND:                 0.000
REMARK SMILES Oc1cc(O)c2c(ccc3ccc(O)c(O)c32)c1
REMARK SMILES IDX 9 1 8 2 7 3 18 4 2 5 3 6 4 7 6 8 17 9 10 10 11 11 12 12
REMARK SMILES IDX 13 13 15 14 16 15 1 17 5 19 14 21
REMARK H PARENT 16 16 1 18 5 20 14 22
REMARK Flexibility Score: inf
ROOT
ATOM      1  C   UNL     1     114.523 129.752 109.645  1.00  0.00     0.009 A 
ATOM      2  C   UNL     1     113.875 128.664 109.078  1.00  0.00     0.009 A 
ATOM      3  C   UNL     1     114.600 127.690 108.383  1.00  0.00    -0.010 A 
ATOM      4  C   UNL     1     113.930 126.563 107.884  1.00  0.00     0.055 A 
ATOM      5  C   UNL     1     114.643 125.517 107.304  1.00  0.00     0.119 A 
ATOM      6  C   UNL     1     116.037 125.564 107.274  1.00  0.00     0.093 A 
ATOM      7  C   UNL     1     116.728 126.672 107.786  1.00  0.00     0.127 A 
ATOM      8  C   UNL     1     116.009 127.820 108.226  1.00  0.00     0.035 A 
ATOM      9  C   UNL     1     116.631 129.052 108.614  1.00  0.00     0.039 A 
ATOM     10  C   UNL     1     115.887 129.962 109.417  1.00  0.00    -0.014 A 
ATOM     11  C   UNL     1     116.503 131.103 109.948  1.00  0.00     0.013 A 
ATOM     12  C   UNL     1     117.831 131.387 109.651  1.00  0.00     0.051 A 
ATOM     13  C   UNL     1     118.538 130.594 108.748  1.00  0.00     0.158 A 
ATOM     14  C   UNL     1     117.911 129.475 108.152  1.00  0.00     0.166 A 
ENDROOT
BRANCH  14  15
ATOM     15  O   UNL     1     118.485 128.863 107.035  1.00  0.00    -0.504 OA
ATOM     16  H   UNL     1     117.984 128.669 106.180  1.00  0.00     0.293 HD
ENDBRANCH  14  15
BRANCH   5  17
ATOM     17  O   UNL     1     113.958 124.416 106.796  1.00  0.00    -0.508 OA
ATOM     18  H   UNL     1     114.363 123.823 106.081  1.00  0.00     0.293 HD
ENDBRANCH   5  17
BRANCH   7  19
ATOM     19  O   UNL     1     118.110 126.577 107.941  1.00  0.00    -0.507 OA
ATOM     20  H   UNL     1     118.741 127.280 107.573  1.00  0.00     0.293 HD
ENDBRANCH   7  19
BRANCH  13  21
ATOM     21  O   UNL     1     119.856 130.952 108.460  1.00  0.00    -0.504 OA
ATOM     22  H   UNL     1     120.604 130.919 109.139  1.00  0.00     0.293 HD
ENDBRANCH  13  21
TORSDOF 4
ENDMDL
MODEL 2
REMARK VINA RESULT:    -4.302     10.422     13.830
REMARK INTER + INTRA:          -4.805
REMARK INTER:                  -4.805
REMARK INTRA:                   0.000
REMARK UNBOUND:                 0.000
REMARK SMILES Oc1cc(O)c2c(ccc3ccc(O)c(O)c32)c1
REMARK SMILES IDX 9 1 8 2 7 3 18 4 2 5 3 6 4 7 6 8 17 9 10 10 11 11 12 12
REMARK SMILES IDX 13 13 15 14 16 15 1 17 5 19 14 21
REMARK H PARENT 16 16 1 18 5 20 14 22
REMARK Flexibility Score: inf
ROOT
ATOM      1  C   UNL     1     127.919 135.125 109.118  1.00  0.00     0.009 A 
ATOM      2  C   UNL     1     129.289 134.999 109.299  1.00  0.00     0.009 A 
ATOM      3  C   UNL     1     129.964 133.864 108.837  1.00  0.00    -0.010 A 
ATOM      4  C   UNL     1     131.359 133.796 108.966  1.00  0.00     0.055 A 
ATOM      5  C   UNL     1     132.070 132.741 108.400  1.00  0.00     0.119 A 
ATOM      6  C   UNL     1     131.395 131.778 107.648  1.00  0.00     0.093 A 
ATOM      7  C   UNL     1     130.004 131.839 107.488  1.00  0.00     0.127 A 
ATOM      8  C   UNL     1     129.245 132.812 108.200  1.00  0.00     0.035 A 
ATOM      9  C   UNL     1     127.813 132.848 108.223  1.00  0.00     0.039 A 
ATOM     10  C   UNL     1     127.173 134.065 108.593  1.00  0.00    -0.014 A 
ATOM     11  C   UNL     1     125.783 134.195 108.481  1.00  0.00     0.013 A 
ATOM     12  C   UNL     1     125.008 133.120 108.059  1.00  0.00     0.051 A 
ATOM     13  C   UNL     1     125.592 131.874 107.833  1.00  0.00     0.158 A 
ATOM     14  C   UNL     1     126.986 131.709 108.005  1.00  0.00     0.166 A 
ENDROOT
BRANCH  14  15
ATOM     15  O   UNL     1     127.534 130.426 108.085  1.00  0.00    -0.504 OA
ATOM     16  H   UNL     1     127.826 129.888 107.281  1.00  0.00     0.293 HD
ENDBRANCH  14  15
BRANCH   5  17
ATOM     17  O   UNL     1     133.452 132.680 108.558  1.00  0.00    -0.508 OA
ATOM     18  H   UNL     1     133.926 131.805 108.751  1.00  0.00     0.293 HD
ENDBRANCH   5  17
BRANCH   7  19
ATOM     19  O   UNL     1     129.407 130.996 106.551  1.00  0.00    -0.507 OA
ATOM     20  H   UNL     1     129.547 129.992 106.566  1.00  0.00     0.293 HD
ENDBRANCH   7  19
BRANCH  13  21
ATOM     21  O   UNL     1     124.758 130.824 107.449  1.00  0.00    -0.504 OA
ATOM     22  H   UNL     1     123.839 130.959 107.047  1.00  0.00     0.293 HD
ENDBRANCH  13  21
TORSDOF 4
ENDMDL
MODEL 3
REMARK VINA RESULT:    -4.300      7.642      9.833
REMARK INTER + INTRA:          -4.803
REMARK INTER:                  -4.803
REMARK INTRA:                   0.000
REMARK UNBOUND:                 0.000
REMARK SMILES Oc1cc(O)c2c(ccc3ccc(O)c(O)c32)c1
REMARK SMILES IDX 9 1 8 2 7 3 18 4 2 5 3 6 4 7 6 8 17 9 10 10 11 11 12 12
REMARK SMILES IDX 13 13 15 14 16 15 1 17 5 19 14 21
REMARK H PARENT 16 16 1 18 5 20 14 22
REMARK Flexibility Score: inf
ROOT
ATOM      1  C   UNL     1     122.521 126.169 108.164  1.00  0.00     0.009 A 
ATOM      2  C   UNL     1     123.826 126.526 107.854  1.00  0.00     0.009 A 
ATOM      3  C   UNL     1     124.691 125.603 107.258  1.00  0.00    -0.010 A 
ATOM      4  C   UNL     1     125.981 126.012 106.888  1.00  0.00     0.055 A 
ATOM      5  C   UNL     1     126.816 125.154 106.176  1.00  0.00     0.119 A 
ATOM      6  C   UNL     1     126.345 123.903 105.778  1.00  0.00     0.093 A 
ATOM      7  C   UNL     1     125.052 123.482 106.120  1.00  0.00     0.127 A 
ATOM      8  C   UNL     1     124.250 124.275 106.989  1.00  0.00     0.035 A 
ATOM      9  C   UNL     1     122.986 123.853 107.517  1.00  0.00     0.039 A 
ATOM     10  C   UNL     1     122.093 124.846 108.010  1.00  0.00    -0.014 A 
ATOM     11  C   UNL     1     120.790 124.500 108.391  1.00  0.00     0.013 A 
ATOM     12  C   UNL     1     120.374 123.174 108.343  1.00  0.00     0.051 A 
ATOM     13  C   UNL     1     121.273 122.163 108.006  1.00  0.00     0.158 A 
ATOM     14  C   UNL     1     122.610 122.489 107.682  1.00  0.00     0.166 A 
ENDROOT
BRANCH  14  15
ATOM     15  O   UNL     1     123.586 121.489 107.646  1.00  0.00    -0.504 OA
ATOM     16  H   UNL     1     123.531 120.630 108.174  1.00  0.00     0.293 HD
ENDBRANCH  14  15
BRANCH   5  17
ATOM     17  O   UNL     1     128.101 125.572 105.836  1.00  0.00    -0.508 OA
ATOM     18  H   UNL     1     128.268 126.186 105.048  1.00  0.00     0.293 HD
ENDBRANCH   5  17
BRANCH   7  19
ATOM     19  O   UNL     1     124.547 122.333 105.513  1.00  0.00    -0.507 OA
ATOM     20  H   UNL     1     124.575 122.201 104.508  1.00  0.00     0.293 HD
ENDBRANCH   7  19
BRANCH  13  21
ATOM     21  O   UNL     1     120.806 120.848 108.014  1.00  0.00    -0.504 OA
ATOM     22  H   UNL     1     120.847 120.236 107.209  1.00  0.00     0.293 HD
ENDBRANCH  13  21
TORSDOF 4
ENDMDL
MODEL 4
REMARK VINA RESULT:    -4.298      8.889     10.794
REMARK INTER + INTRA:          -4.800
REMARK INTER:                  -4.800
REMARK INTRA:                   0.000
REMARK UNBOUND:                 0.000
REMARK SMILES Oc1cc(O)c2c(ccc3ccc(O)c(O)c32)c1
REMARK SMILES IDX 9 1 8 2 7 3 18 4 2 5 3 6 4 7 6 8 17 9 10 10 11 11 12 12
REMARK SMILES IDX 13 13 15 14 16 15 1 17 5 19 14 21
REMARK H PARENT 16 16 1 18 5 20 14 22
REMARK Flexibility Score: inf
ROOT
ATOM      1  C   UNL     1     122.836 122.396 108.141  1.00  0.00     0.009 A 
ATOM      2  C   UNL     1     122.458 123.695 107.832  1.00  0.00     0.009 A 
ATOM      3  C   UNL     1     123.370 124.580 107.249  1.00  0.00    -0.010 A 
ATOM      4  C   UNL     1     122.940 125.863 106.879  1.00  0.00     0.055 A 
ATOM      5  C   UNL     1     123.788 126.718 106.180  1.00  0.00     0.119 A 
ATOM      6  C   UNL     1     125.053 126.272 105.792  1.00  0.00     0.093 A 
ATOM      7  C   UNL     1     125.494 124.986 106.133  1.00  0.00     0.127 A 
ATOM      8  C   UNL     1     124.708 124.165 106.991  1.00  0.00     0.035 A 
ATOM      9  C   UNL     1     125.149 122.907 107.518  1.00  0.00     0.039 A 
ATOM     10  C   UNL     1     124.168 121.993 107.998  1.00  0.00    -0.014 A 
ATOM     11  C   UNL     1     124.536 120.696 108.377  1.00  0.00     0.013 A 
ATOM     12  C   UNL     1     125.869 120.305 108.341  1.00  0.00     0.051 A 
ATOM     13  C   UNL     1     126.866 121.225 108.018  1.00  0.00     0.158 A 
ATOM     14  C   UNL     1     126.518 122.557 107.696  1.00  0.00     0.166 A 
ENDROOT
BRANCH  14  15
ATOM     15  O   UNL     1     127.499 123.551 107.674  1.00  0.00    -0.504 OA
ATOM     16  H   UNL     1     127.305 124.536 107.785  1.00  0.00     0.293 HD
ENDBRANCH  14  15
BRANCH   5  17
ATOM     17  O   UNL     1     123.350 127.996 105.841  1.00  0.00    -0.508 OA
ATOM     18  H   UNL     1     123.017 128.646 106.543  1.00  0.00     0.293 HD
ENDBRANCH   5  17
BRANCH   7  19
ATOM     19  O   UNL     1     126.659 124.506 105.536  1.00  0.00    -0.507 OA
ATOM     20  H   UNL     1     126.771 124.474 104.528  1.00  0.00     0.293 HD
ENDBRANCH   7  19
BRANCH  13  21
ATOM     21  O   UNL     1     128.190 120.783 108.037  1.00  0.00    -0.504 OA
ATOM     22  H   UNL     1     128.829 120.969 108.798  1.00  0.00     0.293 HD
ENDBRANCH  13  21
TORSDOF 4
ENDMDL
MODEL 5
REMARK VINA RESULT:    -4.294      8.702     10.124
REMARK INTER + INTRA:          -4.796
REMARK INTER:                  -4.796
REMARK INTRA:                   0.000
REMARK UNBOUND:                 0.000
REMARK SMILES Oc1cc(O)c2c(ccc3ccc(O)c(O)c32)c1
REMARK SMILES IDX 9 1 8 2 7 3 18 4 2 5 3 6 4 7 6 8 17 9 10 10 11 11 12 12
REMARK SMILES IDX 13 13 15 14 16 15 1 17 5 19 14 21
REMARK H PARENT 16 16 1 18 5 20 14 22
REMARK Flexibility Score: inf
ROOT
ATOM      1  C   UNL     1     126.614 122.849 108.144  1.00  0.00     0.009 A 
ATOM      2  C   UNL     1     125.315 122.462 107.844  1.00  0.00     0.009 A 
ATOM      3  C   UNL     1     124.424 123.366 107.258  1.00  0.00    -0.010 A 
ATOM      4  C   UNL     1     123.141 122.928 106.897  1.00  0.00     0.055 A 
ATOM      5  C   UNL     1     122.279 123.767 106.195  1.00  0.00     0.119 A 
ATOM      6  C   UNL     1     122.718 125.031 105.797  1.00  0.00     0.093 A 
ATOM      7  C   UNL     1     124.003 125.481 106.130  1.00  0.00     0.127 A 
ATOM      8  C   UNL     1     124.831 124.705 106.990  1.00  0.00     0.035 A 
ATOM      9  C   UNL     1     126.089 125.155 107.508  1.00  0.00     0.039 A 
ATOM     10  C   UNL     1     127.010 124.182 107.991  1.00  0.00    -0.014 A 
ATOM     11  C   UNL     1     128.307 124.558 108.362  1.00  0.00     0.013 A 
ATOM     12  C   UNL     1     128.691 125.893 108.315  1.00  0.00     0.051 A 
ATOM     13  C   UNL     1     127.765 126.884 107.990  1.00  0.00     0.158 A 
ATOM     14  C   UNL     1     126.434 126.527 107.676  1.00  0.00     0.166 A 
ENDROOT
BRANCH  14  15
ATOM     15  O   UNL     1     125.434 127.503 107.651  1.00  0.00    -0.504 OA
ATOM     16  H   UNL     1     124.817 127.696 108.427  1.00  0.00     0.293 HD
ENDBRANCH  14  15
BRANCH   5  17
ATOM     17  O   UNL     1     121.002 123.320 105.864  1.00  0.00    -0.508 OA
ATOM     18  H   UNL     1     120.543 122.589 106.394  1.00  0.00     0.293 HD
ENDBRANCH   5  17
BRANCH   7  19
ATOM     19  O   UNL     1     124.475 126.644 105.522  1.00  0.00    -0.507 OA
ATOM     20  H   UNL     1     124.721 126.674 104.539  1.00  0.00     0.293 HD
ENDBRANCH   7  19
BRANCH  13  21
ATOM     21  O   UNL     1     128.200 128.210 107.998  1.00  0.00    -0.504 OA
ATOM     22  H   UNL     1     129.024 128.530 107.505  1.00  0.00     0.293 HD
ENDBRANCH  13  21
TORSDOF 4
ENDMDL
MODEL 6
REMARK VINA RESULT:    -4.290      7.411      9.025
REMARK INTER + INTRA:          -4.791
REMARK INTER:                  -4.791
REMARK INTRA:                   0.000
REMARK UNBOUND:                 0.000
REMARK SMILES Oc1cc(O)c2c(ccc3ccc(O)c(O)c32)c1
REMARK SMILES IDX 9 1 8 2 7 3 18 4 2 5 3 6 4 7 6 8 17 9 10 10 11 11 12 12
REMARK SMILES IDX 13 13 15 14 16 15 1 17 5 19 14 21
REMARK H PARENT 16 16 1 18 5 20 14 22
REMARK Flexibility Score: inf
ROOT
ATOM      1  C   UNL     1     126.147 126.630 108.155  1.00  0.00     0.009 A 
ATOM      2  C   UNL     1     126.536 125.334 107.847  1.00  0.00     0.009 A 
ATOM      3  C   UNL     1     125.633 124.443 107.260  1.00  0.00    -0.010 A 
ATOM      4  C   UNL     1     126.073 123.163 106.892  1.00  0.00     0.055 A 
ATOM      5  C   UNL     1     125.233 122.302 106.188  1.00  0.00     0.119 A 
ATOM      6  C   UNL     1     123.967 122.739 105.797  1.00  0.00     0.093 A 
ATOM      7  C   UNL     1     123.515 124.022 106.137  1.00  0.00     0.127 A 
ATOM      8  C   UNL     1     124.292 124.848 106.998  1.00  0.00     0.035 A 
ATOM      9  C   UNL     1     123.841 126.103 107.524  1.00  0.00     0.039 A 
ATOM     10  C   UNL     1     124.813 127.023 108.007  1.00  0.00    -0.014 A 
ATOM     11  C   UNL     1     124.435 128.318 108.386  1.00  0.00     0.013 A 
ATOM     12  C   UNL     1     123.099 128.699 108.345  1.00  0.00     0.051 A 
ATOM     13  C   UNL     1     122.109 127.772 108.018  1.00  0.00     0.158 A 
ATOM     14  C   UNL     1     122.468 126.443 107.697  1.00  0.00     0.166 A 
ENDROOT
BRANCH  14  15
ATOM     15  O   UNL     1     121.494 125.441 107.671  1.00  0.00    -0.504 OA
ATOM     16  H   UNL     1     120.578 125.537 108.085  1.00  0.00     0.293 HD
ENDBRANCH  14  15
BRANCH   5  17
ATOM     17  O   UNL     1     125.682 121.028 105.851  1.00  0.00    -0.508 OA
ATOM     18  H   UNL     1     126.003 120.809 104.915  1.00  0.00     0.293 HD
ENDBRANCH   5  17
BRANCH   7  19
ATOM     19  O   UNL     1     122.349 124.494 105.535  1.00  0.00    -0.507 OA
ATOM     20  H   UNL     1     122.102 124.253 104.582  1.00  0.00     0.293 HD
ENDBRANCH   7  19
BRANCH  13  21
ATOM     21  O   UNL     1     120.782 128.204 108.033  1.00  0.00    -0.504 OA
ATOM     22  H   UNL     1     120.415 128.902 107.398  1.00  0.00     0.293 HD
ENDBRANCH  13  21
TORSDOF 4
ENDMDL
MODEL 7
REMARK VINA RESULT:    -4.287     10.766     13.300
REMARK INTER + INTRA:          -4.788
REMARK INTER:                  -4.788
REMARK INTRA:                   0.000
REMARK UNBOUND:                 0.000
REMARK SMILES Oc1cc(O)c2c(ccc3ccc(O)c(O)c32)c1
REMARK SMILES IDX 9 1 8 2 7 3 18 4 2 5 3 6 4 7 6 8 17 9 10 10 11 11 12 12
REMARK SMILES IDX 13 13 15 14 16 15 1 17 5 19 14 21
REMARK H PARENT 16 16 1 18 5 20 14 22
REMARK Flexibility Score: inf
ROOT
ATOM      1  C   UNL     1     129.608 134.457 109.816  1.00  0.00     0.009 A 
ATOM      2  C   UNL     1     128.536 135.123 109.237  1.00  0.00     0.009 A 
ATOM      3  C   UNL     1     127.606 134.427 108.458  1.00  0.00    -0.010 A 
ATOM      4  C   UNL     1     126.492 135.110 107.947  1.00  0.00     0.055 A 
ATOM      5  C   UNL     1     125.485 134.418 107.280  1.00  0.00     0.119 A 
ATOM      6  C   UNL     1     125.556 133.028 107.172  1.00  0.00     0.093 A 
ATOM      7  C   UNL     1     126.650 132.324 107.694  1.00  0.00     0.127 A 
ATOM      8  C   UNL     1     127.766 133.030 108.227  1.00  0.00     0.035 A 
ATOM      9  C   UNL     1     128.988 132.404 108.635  1.00  0.00     0.039 A 
ATOM     10  C   UNL     1     129.849 133.112 109.521  1.00  0.00    -0.014 A 
ATOM     11  C   UNL     1     130.974 132.481 110.068  1.00  0.00     0.013 A 
ATOM     12  C   UNL     1     131.292 131.176 109.709  1.00  0.00     0.051 A 
ATOM     13  C   UNL     1     130.551 130.512 108.732  1.00  0.00     0.158 A 
ATOM     14  C   UNL     1     129.451 131.158 108.122  1.00  0.00     0.166 A 
ENDROOT
BRANCH  14  15
ATOM     15  O   UNL     1     128.899 130.641 106.947  1.00  0.00    -0.504 OA
ATOM     16  H   UNL     1     129.440 130.407 106.127  1.00  0.00     0.293 HD
ENDBRANCH  14  15
BRANCH   5  17
ATOM     17  O   UNL     1     124.398 135.117 106.761  1.00  0.00    -0.508 OA
ATOM     18  H   UNL     1     124.486 136.076 106.445  1.00  0.00     0.293 HD
ENDBRANCH   5  17
BRANCH   7  19
ATOM     19  O   UNL     1     126.569 130.933 107.766  1.00  0.00    -0.507 OA
ATOM     20  H   UNL     1     125.809 130.465 108.247  1.00  0.00     0.293 HD
ENDBRANCH   7  19
BRANCH  13  21
ATOM     21  O   UNL     1     130.943 129.218 108.386  1.00  0.00    -0.504 OA
ATOM     22  H   UNL     1     131.763 129.013 107.831  1.00  0.00     0.293 HD
ENDBRANCH  13  21
TORSDOF 4
ENDMDL
MODEL 8
REMARK VINA RESULT:    -4.260      1.675      4.707
REMARK INTER + INTRA:          -4.758
REMARK INTER:                  -4.758
REMARK INTRA:                   0.000
REMARK UNBOUND:                 0.000
REMARK SMILES Oc1cc(O)c2c(ccc3ccc(O)c(O)c32)c1
REMARK SMILES IDX 9 1 8 2 7 3 18 4 2 5 3 6 4 7 6 8 17 9 10 10 11 11 12 12
REMARK SMILES IDX 13 13 15 14 16 15 1 17 5 19 14 21
REMARK H PARENT 16 16 1 18 5 20 14 22
REMARK Flexibility Score: inf
ROOT
ATOM      1  C   UNL     1     113.875 127.714 109.036  1.00  0.00     0.009 A 
ATOM      2  C   UNL     1     113.941 129.086 109.232  1.00  0.00     0.009 A 
ATOM      3  C   UNL     1     115.068 129.807 108.825  1.00  0.00    -0.010 A 
ATOM      4  C   UNL     1     115.078 131.203 108.967  1.00  0.00     0.055 A 
ATOM      5  C   UNL     1     116.129 131.958 108.452  1.00  0.00     0.119 A 
ATOM      6  C   UNL     1     117.148 131.327 107.738  1.00  0.00     0.093 A 
ATOM      7  C   UNL     1     117.147 129.935 107.566  1.00  0.00     0.127 A 
ATOM      8  C   UNL     1     116.174 129.134 108.229  1.00  0.00     0.035 A 
ATOM      9  C   UNL     1     116.191 127.701 108.240  1.00  0.00     0.039 A 
ATOM     10  C   UNL     1     114.985 127.013 108.553  1.00  0.00    -0.014 A 
ATOM     11  C   UNL     1     114.912 125.620 108.425  1.00  0.00     0.013 A 
ATOM     12  C   UNL     1     116.033 124.890 108.045  1.00  0.00     0.051 A 
ATOM     13  C   UNL     1     117.264 125.523 107.877  1.00  0.00     0.158 A 
ATOM     14  C   UNL     1     117.369 126.920 108.066  1.00  0.00     0.166 A 
ENDROOT
BRANCH  14  15
ATOM     15  O   UNL     1     118.626 127.515 108.206  1.00  0.00    -0.504 OA
ATOM     16  H   UNL     1     119.455 127.017 108.494  1.00  0.00     0.293 HD
ENDBRANCH  14  15
BRANCH   5  17
ATOM     17  O   UNL     1     116.130 133.340 108.622  1.00  0.00    -0.508 OA
ATOM     18  H   UNL     1     116.428 133.965 107.882  1.00  0.00     0.293 HD
ENDBRANCH   5  17
BRANCH   7  19
ATOM     19  O   UNL     1     118.051 129.379 106.661  1.00  0.00    -0.507 OA
ATOM     20  H   UNL     1     118.593 129.952 106.024  1.00  0.00     0.293 HD
ENDBRANCH   7  19
BRANCH  13  21
ATOM     21  O   UNL     1     118.361 124.731 107.534  1.00  0.00    -0.504 OA
ATOM     22  H   UNL     1     118.527 124.384 106.598  1.00  0.00     0.293 HD
ENDBRANCH  13  21
TORSDOF 4
ENDMDL
MODEL 9
REMARK VINA RESULT:    -3.976      8.817     11.184
REMARK INTER + INTRA:          -4.441
REMARK INTER:                  -4.441
REMARK INTRA:                   0.000
REMARK UNBOUND:                 0.000
REMARK SMILES Oc1cc(O)c2c(ccc3ccc(O)c(O)c32)c1
REMARK SMILES IDX 9 1 8 2 7 3 18 4 2 5 3 6 4 7 6 8 17 9 10 10 11 11 12 12
REMARK SMILES IDX 13 13 15 14 16 15 1 17 5 19 14 21
REMARK H PARENT 16 16 1 18 5 20 14 22
REMARK Flexibility Score: inf
ROOT
ATOM      1  C   UNL     1     123.394 126.137 106.872  1.00  0.00     0.009 A 
ATOM      2  C   UNL     1     123.967 127.114 107.674  1.00  0.00     0.009 A 
ATOM      3  C   UNL     1     125.312 127.027 108.045  1.00  0.00    -0.010 A 
ATOM      4  C   UNL     1     125.885 128.066 108.794  1.00  0.00     0.055 A 
ATOM      5  C   UNL     1     127.251 128.070 109.066  1.00  0.00     0.119 A 
ATOM      6  C   UNL     1     128.064 127.065 108.540  1.00  0.00     0.093 A 
ATOM      7  C   UNL     1     127.514 126.029 107.772  1.00  0.00     0.127 A 
ATOM      8  C   UNL     1     126.102 125.917 107.628  1.00  0.00     0.035 A 
ATOM      9  C   UNL     1     125.447 124.809 106.998  1.00  0.00     0.039 A 
ATOM     10  C   UNL     1     124.112 124.985 106.536  1.00  0.00    -0.014 A 
ATOM     11  C   UNL     1     123.488 123.985 105.779  1.00  0.00     0.013 A 
ATOM     12  C   UNL     1     124.146 122.788 105.518  1.00  0.00     0.051 A 
ATOM     13  C   UNL     1     125.394 122.530 106.084  1.00  0.00     0.158 A 
ATOM     14  C   UNL     1     126.010 123.504 106.904  1.00  0.00     0.166 A 
ENDROOT
BRANCH  14  15
ATOM     15  O   UNL     1     127.093 123.153 107.715  1.00  0.00    -0.504 OA
ATOM     16  H   UNL     1     127.325 123.622 108.578  1.00  0.00     0.293 HD
ENDBRANCH  14  15
BRANCH   5  17
ATOM     17  O   UNL     1     127.797 129.099 109.829  1.00  0.00    -0.508 OA
ATOM     18  H   UNL     1     127.854 129.038 110.839  1.00  0.00     0.293 HD
ENDBRANCH   5  17
BRANCH   7  19
ATOM     19  O   UNL     1     128.383 125.183 107.082  1.00  0.00    -0.507 OA
ATOM     20  H   UNL     1     128.582 125.307 106.096  1.00  0.00     0.293 HD
ENDBRANCH   7  19
BRANCH  13  21
ATOM     21  O   UNL     1     125.987 121.295 105.817  1.00  0.00    -0.504 OA
ATOM     22  H   UNL     1     126.962 121.094 105.998  1.00  0.00     0.293 HD
ENDBRANCH  13  21
TORSDOF 4
ENDMDL
