MODEL 1
REMARK VINA RESULT:    -5.583      0.000      0.000
REMARK INTER + INTRA:          -6.652
REMARK INTER:                  -6.562
REMARK INTRA:                  -0.090
REMARK UNBOUND:                -0.090
REMARK SMILES O=C([O-])C=Cc1ccc(O)c(O)c1
REMARK SMILES IDX 6 1 13 2 7 3 11 4 8 5 9 6 5 7 4 8 2 9 1 10 3 11 12 12 10 14
REMARK H PARENT 12 13 10 15
REMARK Flexibility Score: inf
ROOT
ATOM      1  C   UNL     1      11.696  10.277  13.327  1.00  0.00    -0.022 A 
ATOM      2  C   UNL     1      10.813   9.348  13.904  1.00  0.00     0.058 A 
ATOM      3  C   UNL     1      11.667  11.611  13.759  1.00  0.00     0.012 A 
ATOM      4  C   UNL     1       9.878   9.757  14.863  1.00  0.00     0.157 A 
ATOM      5  C   UNL     1      10.735  12.023  14.714  1.00  0.00     0.051 A 
ATOM      6  C   UNL     1       9.835  11.102  15.268  1.00  0.00     0.157 A 
ENDROOT
BRANCH   1   7
ATOM      7  C   UNL     1      12.723   9.854  12.353  1.00  0.00     0.010 C 
ATOM      8  C   UNL     1      13.976   9.486  12.657  1.00  0.00     0.025 C 
BRANCH   8   9
ATOM      9  C   UNL     1      14.494   9.253  14.018  1.00  0.00     0.064 C 
ATOM     10  O   UNL     1      14.551  10.214  14.828  1.00  0.00    -0.545 OA
ATOM     11  O   UNL     1      14.985   8.012  14.406  1.00  0.00    -0.545 OA
ENDBRANCH   8   9
ENDBRANCH   1   7
BRANCH   4  12
ATOM     12  O   UNL     1       9.007   8.812  15.404  1.00  0.00    -0.504 OA
ATOM     13  H   UNL     1       8.590   8.928  16.320  1.00  0.00     0.293 HD
ENDBRANCH   4  12
BRANCH   6  14
ATOM     14  O   UNL     1       8.904  11.516  16.219  1.00  0.00    -0.504 OA
ATOM     15  H   UNL     1       9.136  12.209  16.922  1.00  0.00     0.293 HD
ENDBRANCH   6  14
TORSDOF 4
ENDMDL
MODEL 2
REMARK VINA RESULT:    -5.556      1.169      2.138
REMARK INTER + INTRA:          -6.620
REMARK INTER:                  -6.325
REMARK INTRA:                  -0.295
REMARK UNBOUND:                -0.090
REMARK SMILES O=C([O-])C=Cc1ccc(O)c(O)c1
REMARK SMILES IDX 6 1 13 2 7 3 11 4 8 5 9 6 5 7 4 8 2 9 1 10 3 11 12 12 10 14
REMARK H PARENT 12 13 10 15
REMARK Flexibility Score: inf
ROOT
ATOM      1  C   UNL     1      11.166  10.675  13.134  1.00  0.00    -0.022 A 
ATOM      2  C   UNL     1      10.720  11.216  14.352  1.00  0.00     0.058 A 
ATOM      3  C   UNL     1      10.438   9.637  12.537  1.00  0.00     0.012 A 
ATOM      4  C   UNL     1       9.590  10.691  14.991  1.00  0.00     0.157 A 
ATOM      5  C   UNL     1       9.311   9.110  13.171  1.00  0.00     0.051 A 
ATOM      6  C   UNL     1       8.883   9.629  14.401  1.00  0.00     0.157 A 
ENDROOT
BRANCH   1   7
ATOM      7  C   UNL     1      12.324  11.250  12.420  1.00  0.00     0.010 C 
ATOM      8  C   UNL     1      13.608  10.927  12.635  1.00  0.00     0.025 C 
BRANCH   8   9
ATOM      9  C   UNL     1      14.080   9.812  13.477  1.00  0.00     0.064 C 
ATOM     10  O   UNL     1      14.137   8.653  12.990  1.00  0.00    -0.545 OA
ATOM     11  O   UNL     1      14.398   9.998  14.817  1.00  0.00    -0.545 OA
ENDBRANCH   8   9
ENDBRANCH   1   7
BRANCH   4  12
ATOM     12  O   UNL     1       9.184  11.241  16.206  1.00  0.00    -0.504 OA
ATOM     13  H   UNL     1       9.603  10.966  17.087  1.00  0.00     0.293 HD
ENDBRANCH   4  12
BRANCH   6  14
ATOM     14  O   UNL     1       7.760   9.100  15.034  1.00  0.00    -0.504 OA
ATOM     15  H   UNL     1       7.770   8.172  15.443  1.00  0.00     0.293 HD
ENDBRANCH   6  14
TORSDOF 4
ENDMDL
MODEL 3
REMARK VINA RESULT:    -5.553      2.174      2.541
REMARK INTER + INTRA:          -6.617
REMARK INTER:                  -6.329
REMARK INTRA:                  -0.288
REMARK UNBOUND:                -0.090
REMARK SMILES O=C([O-])C=Cc1ccc(O)c(O)c1
REMARK SMILES IDX 6 1 13 2 7 3 11 4 8 5 9 6 5 7 4 8 2 9 1 10 3 11 12 12 10 14
REMARK H PARENT 12 13 10 15
REMARK Flexibility Score: inf
ROOT
ATOM      1  C   UNL     1      12.053  10.157  13.847  1.00  0.00    -0.022 A 
ATOM      2  C   UNL     1      11.044   9.271  14.264  1.00  0.00     0.058 A 
ATOM      3  C   UNL     1      11.978  11.506  14.222  1.00  0.00     0.012 A 
ATOM      4  C   UNL     1       9.949   9.738  15.002  1.00  0.00     0.157 A 
ATOM      5  C   UNL     1      10.887  11.975  14.957  1.00  0.00     0.051 A 
ATOM      6  C   UNL     1       9.867  11.097  15.347  1.00  0.00     0.157 A 
ENDROOT
BRANCH   1   7
ATOM      7  C   UNL     1      13.240   9.674  13.114  1.00  0.00     0.010 C 
ATOM      8  C   UNL     1      13.325   9.526  11.784  1.00  0.00     0.025 C 
BRANCH   8   9
ATOM      9  C   UNL     1      12.326   9.995  10.805  1.00  0.00     0.064 C 
ATOM     10  O   UNL     1      11.548   9.162  10.272  1.00  0.00    -0.545 OA
ATOM     11  O   UNL     1      12.270  11.325  10.405  1.00  0.00    -0.545 OA
ENDBRANCH   8   9
ENDBRANCH   1   7
BRANCH   4  12
ATOM     12  O   UNL     1       8.958   8.835  15.386  1.00  0.00    -0.504 OA
ATOM     13  H   UNL     1       8.729   8.670  16.359  1.00  0.00     0.293 HD
ENDBRANCH   4  12
BRANCH   6  14
ATOM     14  O   UNL     1       8.777  11.568  16.077  1.00  0.00    -0.504 OA
ATOM     15  H   UNL     1       8.045  10.945  16.398  1.00  0.00     0.293 HD
ENDBRANCH   6  14
TORSDOF 4
ENDMDL
MODEL 4
REMARK VINA RESULT:    -5.453      1.255      1.969
REMARK INTER + INTRA:          -6.500
REMARK INTER:                  -6.244
REMARK INTRA:                  -0.256
REMARK UNBOUND:                -0.090
REMARK SMILES O=C([O-])C=Cc1ccc(O)c(O)c1
REMARK SMILES IDX 6 1 13 2 7 3 11 4 8 5 9 6 5 7 4 8 2 9 1 10 3 11 12 12 10 14
REMARK H PARENT 12 13 10 15
REMARK Flexibility Score: inf
ROOT
ATOM      1  C   UNL     1      11.892  10.389  13.396  1.00  0.00    -0.022 A 
ATOM      2  C   UNL     1      11.723  10.466  14.790  1.00  0.00     0.058 A 
ATOM      3  C   UNL     1      10.851   9.881  12.607  1.00  0.00     0.012 A 
ATOM      4  C   UNL     1      10.550   9.992  15.391  1.00  0.00     0.157 A 
ATOM      5  C   UNL     1       9.680   9.406  13.202  1.00  0.00     0.051 A 
ATOM      6  C   UNL     1       9.524   9.455  14.594  1.00  0.00     0.157 A 
ENDROOT
BRANCH   1   7
ATOM      7  C   UNL     1      13.099  10.932  12.741  1.00  0.00     0.010 C 
ATOM      8  C   UNL     1      14.297  10.329  12.699  1.00  0.00     0.025 C 
BRANCH   8   9
ATOM      9  C   UNL     1      14.575   8.946  13.127  1.00  0.00     0.064 C 
ATOM     10  O   UNL     1      14.580   8.025  12.269  1.00  0.00    -0.545 OA
ATOM     11  O   UNL     1      14.762   8.623  14.466  1.00  0.00    -0.545 OA
ENDBRANCH   8   9
ENDBRANCH   1   7
BRANCH   4  12
ATOM     12  O   UNL     1      10.422  10.069  16.777  1.00  0.00    -0.504 OA
ATOM     13  H   UNL     1       9.740  10.673  17.221  1.00  0.00     0.293 HD
ENDBRANCH   4  12
BRANCH   6  14
ATOM     14  O   UNL     1       8.356   8.978  15.186  1.00  0.00    -0.504 OA
ATOM     15  H   UNL     1       8.333   8.089  15.672  1.00  0.00     0.293 HD
ENDBRANCH   6  14
TORSDOF 4
ENDMDL
MODEL 5
REMARK VINA RESULT:    -5.444      1.433      4.727
REMARK INTER + INTRA:          -6.489
REMARK INTER:                  -6.329
REMARK INTRA:                  -0.159
REMARK UNBOUND:                -0.090
REMARK SMILES O=C([O-])C=Cc1ccc(O)c(O)c1
REMARK SMILES IDX 6 1 13 2 7 3 11 4 8 5 9 6 5 7 4 8 2 9 1 10 3 11 12 12 10 14
REMARK H PARENT 12 13 10 15
REMARK Flexibility Score: inf
ROOT
ATOM      1  C   UNL     1      11.588  11.579  14.500  1.00  0.00    -0.022 A 
ATOM      2  C   UNL     1      12.545  10.947  15.314  1.00  0.00     0.058 A 
ATOM      3  C   UNL     1      11.788  11.622  13.113  1.00  0.00     0.012 A 
ATOM      4  C   UNL     1      13.711  10.411  14.754  1.00  0.00     0.157 A 
ATOM      5  C   UNL     1      12.950  11.090  12.551  1.00  0.00     0.051 A 
ATOM      6  C   UNL     1      13.918  10.486  13.366  1.00  0.00     0.157 A 
ENDROOT
BRANCH   1   7
ATOM      7  C   UNL     1      10.328  12.103  15.066  1.00  0.00     0.010 C 
ATOM      8  C   UNL     1       9.277  11.359  15.441  1.00  0.00     0.025 C 
BRANCH   8   9
ATOM      9  C   UNL     1       9.260   9.887  15.536  1.00  0.00     0.064 C 
ATOM     10  O   UNL     1       9.754   9.330  16.550  1.00  0.00    -0.545 OA
ATOM     11  O   UNL     1       8.774   9.098  14.500  1.00  0.00    -0.545 OA
ENDBRANCH   8   9
ENDBRANCH   1   7
BRANCH   4  12
ATOM     12  O   UNL     1      14.647   9.806  15.591  1.00  0.00    -0.504 OA
ATOM     13  H   UNL     1      15.160  10.329  16.291  1.00  0.00     0.293 HD
ENDBRANCH   4  12
BRANCH   6  14
ATOM     14  O   UNL     1      15.079   9.959  12.803  1.00  0.00    -0.504 OA
ATOM     15  H   UNL     1      15.989  10.368  12.984  1.00  0.00     0.293 HD
ENDBRANCH   6  14
TORSDOF 4
ENDMDL
MODEL 6
REMARK VINA RESULT:    -5.442      2.380      3.006
REMARK INTER + INTRA:          -6.487
REMARK INTER:                  -6.265
REMARK INTRA:                  -0.222
REMARK UNBOUND:                -0.090
REMARK SMILES O=C([O-])C=Cc1ccc(O)c(O)c1
REMARK SMILES IDX 6 1 13 2 7 3 11 4 8 5 9 6 5 7 4 8 2 9 1 10 3 11 12 12 10 14
REMARK H PARENT 12 13 10 15
REMARK Flexibility Score: inf
ROOT
ATOM      1  C   UNL     1      11.258   9.743  13.569  1.00  0.00    -0.022 A 
ATOM      2  C   UNL     1      10.936  10.186  14.864  1.00  0.00     0.058 A 
ATOM      3  C   UNL     1      10.227   9.358  12.701  1.00  0.00     0.012 A 
ATOM      4  C   UNL     1       9.606  10.194  15.302  1.00  0.00     0.157 A 
ATOM      5  C   UNL     1       8.900   9.363  13.135  1.00  0.00     0.051 A 
ATOM      6  C   UNL     1       8.582   9.776  14.435  1.00  0.00     0.157 A 
ENDROOT
BRANCH   1   7
ATOM      7  C   UNL     1      12.648   9.778  13.072  1.00  0.00     0.010 C 
ATOM      8  C   UNL     1      13.139  10.670  12.199  1.00  0.00     0.025 C 
BRANCH   8   9
ATOM      9  C   UNL     1      12.441  11.882  11.730  1.00  0.00     0.064 C 
ATOM     10  O   UNL     1      12.379  12.888  12.482  1.00  0.00    -0.545 OA
ATOM     11  O   UNL     1      11.788  11.914  10.503  1.00  0.00    -0.545 OA
ENDBRANCH   8   9
ENDBRANCH   1   7
BRANCH   4  12
ATOM     12  O   UNL     1       9.324  10.624  16.598  1.00  0.00    -0.504 OA
ATOM     13  H   UNL     1       8.383  10.852  16.896  1.00  0.00     0.293 HD
ENDBRANCH   4  12
BRANCH   6  14
ATOM     14  O   UNL     1       7.257   9.778  14.868  1.00  0.00    -0.504 OA
ATOM     15  H   UNL     1       6.717   8.922  14.925  1.00  0.00     0.293 HD
ENDBRANCH   6  14
TORSDOF 4
ENDMDL
MODEL 7
REMARK VINA RESULT:    -5.397      2.128      2.894
REMARK INTER + INTRA:          -6.434
REMARK INTER:                  -6.143
REMARK INTRA:                  -0.291
REMARK UNBOUND:                -0.090
REMARK SMILES O=C([O-])C=Cc1ccc(O)c(O)c1
REMARK SMILES IDX 6 1 13 2 7 3 11 4 8 5 9 6 5 7 4 8 2 9 1 10 3 11 12 12 10 14
REMARK H PARENT 12 13 10 15
REMARK Flexibility Score: inf
ROOT
ATOM      1  C   UNL     1      11.838  11.190  12.737  1.00  0.00    -0.022 A 
ATOM      2  C   UNL     1      12.221  11.977  13.838  1.00  0.00     0.058 A 
ATOM      3  C   UNL     1      11.031  10.063  12.948  1.00  0.00     0.012 A 
ATOM      4  C   UNL     1      11.844  11.613  15.137  1.00  0.00     0.157 A 
ATOM      5  C   UNL     1      10.654   9.696  14.242  1.00  0.00     0.051 A 
ATOM      6  C   UNL     1      11.061  10.465  15.341  1.00  0.00     0.157 A 
ENDROOT
BRANCH   1   7
ATOM      7  C   UNL     1      12.181  11.586  11.357  1.00  0.00     0.010 C 
ATOM      8  C   UNL     1      13.286  11.215  10.694  1.00  0.00     0.025 C 
BRANCH   8   9
ATOM      9  C   UNL     1      14.255  10.199  11.146  1.00  0.00     0.064 C 
ATOM     10  O   UNL     1      14.080   8.995  10.826  1.00  0.00    -0.545 OA
ATOM     11  O   UNL     1      15.320  10.530  11.977  1.00  0.00    -0.545 OA
ENDBRANCH   8   9
ENDBRANCH   1   7
BRANCH   4  12
ATOM     12  O   UNL     1      12.254  12.408  16.207  1.00  0.00    -0.504 OA
ATOM     13  H   UNL     1      12.680  13.316  16.069  1.00  0.00     0.293 HD
ENDBRANCH   4  12
BRANCH   6  14
ATOM     14  O   UNL     1      10.687  10.095  16.632  1.00  0.00    -0.504 OA
ATOM     15  H   UNL     1       9.727   9.863  16.860  1.00  0.00     0.293 HD
ENDBRANCH   6  14
TORSDOF 4
ENDMDL
MODEL 8
REMARK VINA RESULT:    -5.070      1.693      4.764
REMARK INTER + INTRA:          -6.049
REMARK INTER:                  -5.760
REMARK INTRA:                  -0.289
REMARK UNBOUND:                -0.090
REMARK SMILES O=C([O-])C=Cc1ccc(O)c(O)c1
REMARK SMILES IDX 6 1 13 2 7 3 11 4 8 5 9 6 5 7 4 8 2 9 1 10 3 11 12 12 10 14
REMARK H PARENT 12 13 10 15
REMARK Flexibility Score: inf
ROOT
ATOM      1  C   UNL     1      11.760  11.046  14.074  1.00  0.00    -0.022 A 
ATOM      2  C   UNL     1      11.607  10.602  12.749  1.00  0.00     0.058 A 
ATOM      3  C   UNL     1      12.952  10.766  14.757  1.00  0.00     0.012 A 
ATOM      4  C   UNL     1      12.610   9.843  12.133  1.00  0.00     0.157 A 
ATOM      5  C   UNL     1      13.954  10.009  14.147  1.00  0.00     0.051 A 
ATOM      6  C   UNL     1      13.788   9.541  12.837  1.00  0.00     0.157 A 
ENDROOT
BRANCH   1   7
ATOM      7  C   UNL     1      10.736  11.891  14.721  1.00  0.00     0.010 C 
ATOM      8  C   UNL     1       9.664  11.439  15.389  1.00  0.00     0.025 C 
BRANCH   8   9
ATOM      9  C   UNL     1       9.418  10.033  15.760  1.00  0.00     0.064 C 
ATOM     10  O   UNL     1       8.664   9.329  15.040  1.00  0.00    -0.545 OA
ATOM     11  O   UNL     1       9.942   9.487  16.926  1.00  0.00    -0.545 OA
ENDBRANCH   8   9
ENDBRANCH   1   7
BRANCH   4  12
ATOM     12  O   UNL     1      12.419   9.406  10.823  1.00  0.00    -0.504 OA
ATOM     13  H   UNL     1      12.839   8.552  10.475  1.00  0.00     0.293 HD
ENDBRANCH   4  12
BRANCH   6  14
ATOM     14  O   UNL     1      14.789   8.783  12.231  1.00  0.00    -0.504 OA
ATOM     15  H   UNL     1      15.272   9.108  11.401  1.00  0.00     0.293 HD
ENDBRANCH   6  14
TORSDOF 4
ENDMDL
MODEL 9
REMARK VINA RESULT:    -4.947      2.518      3.646
REMARK INTER + INTRA:          -5.905
REMARK INTER:                  -5.620
REMARK INTRA:                  -0.285
REMARK UNBOUND:                -0.090
REMARK SMILES O=C([O-])C=Cc1ccc(O)c(O)c1
REMARK SMILES IDX 6 1 13 2 7 3 11 4 8 5 9 6 5 7 4 8 2 9 1 10 3 11 12 12 10 14
REMARK H PARENT 12 13 10 15
REMARK Flexibility Score: inf
ROOT
ATOM      1  C   UNL     1      13.303   9.868  12.357  1.00  0.00    -0.022 A 
ATOM      2  C   UNL     1      14.097   9.610  13.487  1.00  0.00     0.058 A 
ATOM      3  C   UNL     1      12.203  10.728  12.473  1.00  0.00     0.012 A 
ATOM      4  C   UNL     1      13.765  10.163  14.730  1.00  0.00     0.157 A 
ATOM      5  C   UNL     1      11.867  11.281  13.712  1.00  0.00     0.051 A 
ATOM      6  C   UNL     1      12.642  10.999  14.845  1.00  0.00     0.157 A 
ENDROOT
BRANCH   1   7
ATOM      7  C   UNL     1      13.668   9.336  11.028  1.00  0.00     0.010 C 
ATOM      8  C   UNL     1      14.435   9.963  10.124  1.00  0.00     0.025 C 
BRANCH   8   9
ATOM      9  C   UNL     1      15.204  11.199  10.364  1.00  0.00     0.064 C 
ATOM     10  O   UNL     1      16.330  11.126  10.919  1.00  0.00    -0.545 OA
ATOM     11  O   UNL     1      14.682  12.450  10.056  1.00  0.00    -0.545 OA
ENDBRANCH   8   9
ENDBRANCH   1   7
BRANCH   4  12
ATOM     12  O   UNL     1      14.565   9.874  15.835  1.00  0.00    -0.504 OA
ATOM     13  H   UNL     1      14.822   8.924  16.078  1.00  0.00     0.293 HD
ENDBRANCH   4  12
BRANCH   6  14
ATOM     14  O   UNL     1      12.303  11.549  16.080  1.00  0.00    -0.504 OA
ATOM     15  H   UNL     1      12.991  12.022  16.657  1.00  0.00     0.293 HD
ENDBRANCH   6  14
TORSDOF 4
ENDMDL
