MODEL 1
REMARK VINA RESULT:    -4.638      0.000      0.000
REMARK INTER + INTRA:          -7.393
REMARK INTER:                  -6.807
REMARK INTRA:                  -0.586
REMARK UNBOUND:                -0.586
REMARK SMILES O=C([O-])CCCCCCCC(=O)[O-]
REMARK SMILES IDX 7 1 6 2 5 3 4 4 2 5 1 6 3 7 8 8 9 9 10 10 11 11 12 12 13 13
REMARK H PARENT
REMARK Flexibility Score: inf
ROOT
ATOM      1  C   UNL     1      19.706  -2.367  -4.651  1.00  0.00     0.000 C 
ENDROOT
BRANCH   1   2
ATOM      2  C   UNL     1      18.590  -2.685  -3.645  1.00  0.00     0.000 C 
BRANCH   2   3
ATOM      3  C   UNL     1      18.284  -1.507  -2.708  1.00  0.00     0.006 C 
BRANCH   3   4
ATOM      4  C   UNL     1      16.780  -1.241  -2.565  1.00  0.00     0.053 C 
BRANCH   4   5
ATOM      5  C   UNL     1      16.241  -0.604  -3.807  1.00  0.00     0.041 C 
ATOM      6  O   UNL     1      15.064  -0.843  -4.182  1.00  0.00    -0.550 OA
ATOM      7  O   UNL     1      17.022   0.295  -4.522  1.00  0.00    -0.550 OA
ENDBRANCH   4   5
ENDBRANCH   3   4
ENDBRANCH   2   3
ENDBRANCH   1   2
BRANCH   1   8
ATOM      8  C   UNL     1      19.231  -2.607  -6.091  1.00  0.00     0.000 C 
BRANCH   8   9
ATOM      9  C   UNL     1      19.010  -1.280  -6.826  1.00  0.00     0.006 C 
BRANCH   9  10
ATOM     10  C   UNL     1      19.879  -0.169  -6.230  1.00  0.00     0.053 C 
BRANCH  10  11
ATOM     11  C   UNL     1      21.046   0.117  -7.122  1.00  0.00     0.041 C 
ATOM     12  O   UNL     1      21.991   0.843  -6.715  1.00  0.00    -0.550 OA
ATOM     13  O   UNL     1      21.068  -0.377  -8.420  1.00  0.00    -0.550 OA
ENDBRANCH  10  11
ENDBRANCH   9  10
ENDBRANCH   8   9
ENDBRANCH   1   8
TORSDOF 8
ENDMDL
MODEL 2
REMARK VINA RESULT:    -4.606      1.944      2.542
REMARK INTER + INTRA:          -7.347
REMARK INTER:                  -6.597
REMARK INTRA:                  -0.750
REMARK UNBOUND:                -0.586
REMARK SMILES O=C([O-])CCCCCCCC(=O)[O-]
REMARK SMILES IDX 7 1 6 2 5 3 4 4 2 5 1 6 3 7 8 8 9 9 10 10 11 11 12 12 13 13
REMARK H PARENT
REMARK Flexibility Score: inf
ROOT
ATOM      1  C   UNL     1      19.310  -2.845  -5.640  1.00  0.00     0.000 C 
ENDROOT
BRANCH   1   2
ATOM      2  C   UNL     1      19.944  -2.046  -4.492  1.00  0.00     0.000 C 
BRANCH   2   3
ATOM      3  C   UNL     1      18.925  -1.652  -3.412  1.00  0.00     0.006 C 
BRANCH   3   4
ATOM      4  C   UNL     1      17.506  -2.139  -3.733  1.00  0.00     0.053 C 
BRANCH   4   5
ATOM      5  C   UNL     1      16.490  -1.235  -3.109  1.00  0.00     0.041 C 
ATOM      6  O   UNL     1      16.487  -1.049  -1.864  1.00  0.00    -0.550 OA
ATOM      7  O   UNL     1      15.577  -0.560  -3.908  1.00  0.00    -0.550 OA
ENDBRANCH   4   5
ENDBRANCH   3   4
ENDBRANCH   2   3
ENDBRANCH   1   2
BRANCH   1   8
ATOM      8  C   UNL     1      19.190  -1.985  -6.905  1.00  0.00     0.000 C 
BRANCH   8   9
ATOM      9  C   UNL     1      19.969  -0.672  -6.756  1.00  0.00     0.006 C 
BRANCH   9  10
ATOM     10  C   UNL     1      19.145   0.515  -7.260  1.00  0.00     0.053 C 
BRANCH  10  11
ATOM     11  C   UNL     1      17.940   0.721  -6.397  1.00  0.00     0.041 C 
ATOM     12  O   UNL     1      16.785   0.572  -6.875  1.00  0.00    -0.550 OA
ATOM     13  O   UNL     1      18.091   1.125  -5.076  1.00  0.00    -0.550 OA
ENDBRANCH  10  11
ENDBRANCH   9  10
ENDBRANCH   8   9
ENDBRANCH   1   8
TORSDOF 8
ENDMDL
MODEL 3
REMARK VINA RESULT:    -4.515      2.493      4.328
REMARK INTER + INTRA:          -7.213
REMARK INTER:                  -6.462
REMARK INTRA:                  -0.751
REMARK UNBOUND:                -0.586
REMARK SMILES O=C([O-])CCCCCCCC(=O)[O-]
REMARK SMILES IDX 7 1 6 2 5 3 4 4 2 5 1 6 3 7 8 8 9 9 10 10 11 11 12 12 13 13
REMARK H PARENT
REMARK Flexibility Score: inf
ROOT
ATOM      1  C   UNL     1      19.375  -0.579  -6.924  1.00  0.00     0.000 C 
ENDROOT
BRANCH   1   2
ATOM      2  C   UNL     1      20.660  -0.121  -6.219  1.00  0.00     0.000 C 
BRANCH   2   3
ATOM      3  C   UNL     1      20.793  -0.697  -4.800  1.00  0.00     0.006 C 
BRANCH   3   4
ATOM      4  C   UNL     1      19.564  -0.409  -3.928  1.00  0.00     0.053 C 
BRANCH   4   5
ATOM      5  C   UNL     1      19.007  -1.681  -3.372  1.00  0.00     0.041 C 
ATOM      6  O   UNL     1      19.228  -2.776  -3.952  1.00  0.00    -0.550 OA
ATOM      7  O   UNL     1      18.287  -1.664  -2.185  1.00  0.00    -0.550 OA
ENDBRANCH   4   5
ENDBRANCH   3   4
ENDBRANCH   2   3
ENDBRANCH   1   2
BRANCH   1   8
ATOM      8  C   UNL     1      18.472   0.618  -7.250  1.00  0.00     0.000 C 
BRANCH   8   9
ATOM      9  C   UNL     1      16.994   0.209  -7.253  1.00  0.00     0.006 C 
BRANCH   9  10
ATOM     10  C   UNL     1      16.693  -0.771  -6.116  1.00  0.00     0.053 C 
BRANCH  10  11
ATOM     11  C   UNL     1      15.904  -0.095  -5.039  1.00  0.00     0.041 C 
ATOM     12  O   UNL     1      15.533   1.099  -5.179  1.00  0.00    -0.550 OA
ATOM     13  O   UNL     1      15.622  -0.770  -3.857  1.00  0.00    -0.550 OA
ENDBRANCH  10  11
ENDBRANCH   9  10
ENDBRANCH   8   9
ENDBRANCH   1   8
TORSDOF 8
ENDMDL
MODEL 4
REMARK VINA RESULT:    -4.505      2.285      4.428
REMARK INTER + INTRA:          -7.198
REMARK INTER:                  -6.561
REMARK INTRA:                  -0.637
REMARK UNBOUND:                -0.586
REMARK SMILES O=C([O-])CCCCCCCC(=O)[O-]
REMARK SMILES IDX 7 1 6 2 5 3 4 4 2 5 1 6 3 7 8 8 9 9 10 10 11 11 12 12 13 13
REMARK H PARENT
REMARK Flexibility Score: inf
ROOT
ATOM      1  C   UNL     1      19.157  -1.821  -6.166  1.00  0.00     0.000 C 
ENDROOT
BRANCH   1   2
ATOM      2  C   UNL     1      19.980  -0.754  -6.904  1.00  0.00     0.000 C 
BRANCH   2   3
ATOM      3  C   UNL     1      19.215   0.567  -7.077  1.00  0.00     0.006 C 
BRANCH   3   4
ATOM      4  C   UNL     1      18.282   0.869  -5.897  1.00  0.00     0.053 C 
BRANCH   4   5
ATOM      5  C   UNL     1      16.852   0.829  -6.338  1.00  0.00     0.041 C 
ATOM      6  O   UNL     1      16.569   0.762  -7.563  1.00  0.00    -0.550 OA
ATOM      7  O   UNL     1      15.834   0.814  -5.394  1.00  0.00    -0.550 OA
ENDBRANCH   4   5
ENDBRANCH   3   4
ENDBRANCH   2   3
ENDBRANCH   1   2
BRANCH   1   8
ATOM      8  C   UNL     1      19.880  -2.290  -4.897  1.00  0.00     0.000 C 
BRANCH   8   9
ATOM      9  C   UNL     1      18.889  -2.870  -3.880  1.00  0.00     0.006 C 
BRANCH   9  10
ATOM     10  C   UNL     1      17.554  -2.122  -3.927  1.00  0.00     0.053 C 
BRANCH  10  11
ATOM     11  C   UNL     1      17.349  -1.336  -2.671  1.00  0.00     0.041 C 
ATOM     12  O   UNL     1      18.299  -1.180  -1.859  1.00  0.00    -0.550 OA
ATOM     13  O   UNL     1      16.095  -0.818  -2.371  1.00  0.00    -0.550 OA
ENDBRANCH  10  11
ENDBRANCH   9  10
ENDBRANCH   8   9
ENDBRANCH   1   8
TORSDOF 8
ENDMDL
MODEL 5
REMARK VINA RESULT:    -4.482      9.976     11.395
REMARK INTER + INTRA:          -7.165
REMARK INTER:                  -6.403
REMARK INTRA:                  -0.761
REMARK UNBOUND:                -0.586
REMARK SMILES O=C([O-])CCCCCCCC(=O)[O-]
REMARK SMILES IDX 7 1 6 2 5 3 4 4 2 5 1 6 3 7 8 8 9 9 10 10 11 11 12 12 13 13
REMARK H PARENT
REMARK Flexibility Score: inf
ROOT
ATOM      1  C   UNL     1      26.299  -4.523  -5.167  1.00  0.00     0.000 C 
ENDROOT
BRANCH   1   2
ATOM      2  C   UNL     1      27.123  -3.228  -5.098  1.00  0.00     0.000 C 
BRANCH   2   3
ATOM      3  C   UNL     1      28.469  -3.344  -5.829  1.00  0.00     0.006 C 
BRANCH   3   4
ATOM      4  C   UNL     1      29.660  -2.964  -4.939  1.00  0.00     0.053 C 
BRANCH   4   5
ATOM      5  C   UNL     1      29.971  -4.071  -3.982  1.00  0.00     0.041 C 
ATOM      6  O   UNL     1      30.049  -3.838  -2.747  1.00  0.00    -0.550 OA
ATOM      7  O   UNL     1      30.124  -5.370  -4.448  1.00  0.00    -0.550 OA
ENDBRANCH   4   5
ENDBRANCH   3   4
ENDBRANCH   2   3
ENDBRANCH   1   2
BRANCH   1   8
ATOM      8  C   UNL     1      26.596  -5.426  -3.962  1.00  0.00     0.000 C 
BRANCH   8   9
ATOM      9  C   UNL     1      27.015  -6.830  -4.416  1.00  0.00     0.006 C 
BRANCH   9  10
ATOM     10  C   UNL     1      27.024  -6.934  -5.943  1.00  0.00     0.053 C 
BRANCH  10  11
ATOM     11  C   UNL     1      28.167  -7.784  -6.403  1.00  0.00     0.041 C 
ATOM     12  O   UNL     1      28.330  -8.016  -7.630  1.00  0.00    -0.550 OA
ATOM     13  O   UNL     1      29.023  -8.361  -5.473  1.00  0.00    -0.550 OA
ENDBRANCH  10  11
ENDBRANCH   9  10
ENDBRANCH   8   9
ENDBRANCH   1   8
TORSDOF 8
ENDMDL
MODEL 6
REMARK VINA RESULT:    -4.462      9.557     10.984
REMARK INTER + INTRA:          -7.134
REMARK INTER:                  -6.522
REMARK INTRA:                  -0.613
REMARK UNBOUND:                -0.586
REMARK SMILES O=C([O-])CCCCCCCC(=O)[O-]
REMARK SMILES IDX 7 1 6 2 5 3 4 4 2 5 1 6 3 7 8 8 9 9 10 10 11 11 12 12 13 13
REMARK H PARENT
REMARK Flexibility Score: inf
ROOT
ATOM      1  C   UNL     1      26.373  -4.935  -4.423  1.00  0.00     0.000 C 
ENDROOT
BRANCH   1   2
ATOM      2  C   UNL     1      26.998  -4.026  -3.354  1.00  0.00     0.000 C 
BRANCH   2   3
ATOM      3  C   UNL     1      27.474  -2.681  -3.926  1.00  0.00     0.006 C 
BRANCH   3   4
ATOM      4  C   UNL     1      27.510  -2.672  -5.460  1.00  0.00     0.053 C 
BRANCH   4   5
ATOM      5  C   UNL     1      28.923  -2.729  -5.949  1.00  0.00     0.041 C 
ATOM      6  O   UNL     1      29.814  -3.276  -5.249  1.00  0.00    -0.550 OA
ATOM      7  O   UNL     1      29.246  -2.223  -7.202  1.00  0.00    -0.550 OA
ENDBRANCH   4   5
ENDBRANCH   3   4
ENDBRANCH   2   3
ENDBRANCH   1   2
BRANCH   1   8
ATOM      8  C   UNL     1      26.440  -6.407  -3.998  1.00  0.00     0.000 C 
BRANCH   8   9
ATOM      9  C   UNL     1      27.886  -6.916  -3.994  1.00  0.00     0.006 C 
BRANCH   9  10
ATOM     10  C   UNL     1      28.570  -6.633  -5.335  1.00  0.00     0.053 C 
BRANCH  10  11
ATOM     11  C   UNL     1      28.503  -7.837  -6.221  1.00  0.00     0.041 C 
ATOM     12  O   UNL     1      29.121  -8.889  -5.910  1.00  0.00    -0.550 OA
ATOM     13  O   UNL     1      27.797  -7.782  -7.417  1.00  0.00    -0.550 OA
ENDBRANCH  10  11
ENDBRANCH   9  10
ENDBRANCH   8   9
ENDBRANCH   1   8
TORSDOF 8
ENDMDL
MODEL 7
REMARK VINA RESULT:    -4.450      0.880      4.988
REMARK INTER + INTRA:          -7.117
REMARK INTER:                  -6.490
REMARK INTRA:                  -0.627
REMARK UNBOUND:                -0.586
REMARK SMILES O=C([O-])CCCCCCCC(=O)[O-]
REMARK SMILES IDX 7 1 6 2 5 3 4 4 2 5 1 6 3 7 8 8 9 9 10 10 11 11 12 12 13 13
REMARK H PARENT
REMARK Flexibility Score: inf
ROOT
ATOM      1  C   UNL     1      19.627  -2.620  -4.826  1.00  0.00     0.000 C 
ENDROOT
BRANCH   1   2
ATOM      2  C   UNL     1      18.894  -2.115  -6.078  1.00  0.00     0.000 C 
BRANCH   2   3
ATOM      3  C   UNL     1      19.717  -1.089  -6.872  1.00  0.00     0.006 C 
BRANCH   3   4
ATOM      4  C   UNL     1      19.779   0.280  -6.181  1.00  0.00     0.053 C 
BRANCH   4   5
ATOM      5  C   UNL     1      21.178   0.582  -5.745  1.00  0.00     0.041 C 
ATOM      6  O   UNL     1      21.522   0.399  -4.548  1.00  0.00    -0.550 OA
ATOM      7  O   UNL     1      22.116   1.018  -6.672  1.00  0.00    -0.550 OA
ENDBRANCH   4   5
ENDBRANCH   3   4
ENDBRANCH   2   3
ENDBRANCH   1   2
BRANCH   1   8
ATOM      8  C   UNL     1      18.670  -2.716  -3.631  1.00  0.00     0.000 C 
BRANCH   8   9
ATOM      9  C   UNL     1      18.267  -1.322  -3.134  1.00  0.00     0.006 C 
BRANCH   9  10
ATOM     10  C   UNL     1      16.760  -1.244  -2.880  1.00  0.00     0.053 C 
BRANCH  10  11
ATOM     11  C   UNL     1      16.078  -0.512  -3.993  1.00  0.00     0.041 C 
ATOM     12  O   UNL     1      14.869  -0.745  -4.258  1.00  0.00    -0.550 OA
ATOM     13  O   UNL     1      16.791   0.392  -4.771  1.00  0.00    -0.550 OA
ENDBRANCH  10  11
ENDBRANCH   9  10
ENDBRANCH   8   9
ENDBRANCH   1   8
TORSDOF 8
ENDMDL
MODEL 8
REMARK VINA RESULT:    -4.443      2.180      3.112
REMARK INTER + INTRA:          -7.107
REMARK INTER:                  -6.563
REMARK INTRA:                  -0.544
REMARK UNBOUND:                -0.586
REMARK SMILES O=C([O-])CCCCCCCC(=O)[O-]
REMARK SMILES IDX 7 1 6 2 5 3 4 4 2 5 1 6 3 7 8 8 9 9 10 10 11 11 12 12 13 13
REMARK H PARENT
REMARK Flexibility Score: inf
ROOT
ATOM      1  C   UNL     1      16.902   0.051  -6.658  1.00  0.00     0.000 C 
ENDROOT
BRANCH   1   2
ATOM      2  C   UNL     1      15.890   0.709  -5.708  1.00  0.00     0.000 C 
BRANCH   2   3
ATOM      3  C   UNL     1      15.569  -0.168  -4.488  1.00  0.00     0.006 C 
BRANCH   3   4
ATOM      4  C   UNL     1      16.657  -1.213  -4.209  1.00  0.00     0.053 C 
BRANCH   4   5
ATOM      5  C   UNL     1      16.955  -1.280  -2.744  1.00  0.00     0.041 C 
ATOM      6  O   UNL     1      16.109  -0.871  -1.906  1.00  0.00    -0.550 OA
ATOM      7  O   UNL     1      18.146  -1.840  -2.302  1.00  0.00    -0.550 OA
ENDBRANCH   4   5
ENDBRANCH   3   4
ENDBRANCH   2   3
ENDBRANCH   1   2
BRANCH   1   8
ATOM      8  C   UNL     1      18.109   0.969  -6.895  1.00  0.00     0.000 C 
BRANCH   8   9
ATOM      9  C   UNL     1      19.373   0.152  -7.192  1.00  0.00     0.006 C 
BRANCH   9  10
ATOM     10  C   UNL     1      19.266  -1.257  -6.604  1.00  0.00     0.053 C 
BRANCH  10  11
ATOM     11  C   UNL     1      20.090  -1.370  -5.360  1.00  0.00     0.041 C 
ATOM     12  O   UNL     1      20.832  -0.417  -5.003  1.00  0.00    -0.550 OA
ATOM     13  O   UNL     1      20.077  -2.546  -4.620  1.00  0.00    -0.550 OA
ENDBRANCH  10  11
ENDBRANCH   9  10
ENDBRANCH   8   9
ENDBRANCH   1   8
TORSDOF 8
ENDMDL
MODEL 9
REMARK VINA RESULT:    -4.407      2.365      3.986
REMARK INTER + INTRA:          -7.054
REMARK INTER:                  -6.600
REMARK INTRA:                  -0.454
REMARK UNBOUND:                -0.586
REMARK SMILES O=C([O-])CCCCCCCC(=O)[O-]
REMARK SMILES IDX 7 1 6 2 5 3 4 4 2 5 1 6 3 7 8 8 9 9 10 10 11 11 12 12 13 13
REMARK H PARENT
REMARK Flexibility Score: inf
ROOT
ATOM      1  C   UNL     1      16.444  -1.214  -4.343  1.00  0.00     0.000 C 
ENDROOT
BRANCH   1   2
ATOM      2  C   UNL     1      15.459  -0.062  -4.593  1.00  0.00     0.000 C 
BRANCH   2   3
ATOM      3  C   UNL     1      16.066   1.060  -5.449  1.00  0.00     0.006 C 
BRANCH   3   4
ATOM      4  C   UNL     1      17.569   0.869  -5.694  1.00  0.00     0.053 C 
BRANCH   4   5
ATOM      5  C   UNL     1      17.851   0.758  -7.159  1.00  0.00     0.041 C 
ATOM      6  O   UNL     1      19.027   0.569  -7.566  1.00  0.00    -0.550 OA
ATOM      7  O   UNL     1      16.807   0.812  -8.073  1.00  0.00    -0.550 OA
ENDBRANCH   4   5
ENDBRANCH   3   4
ENDBRANCH   2   3
ENDBRANCH   1   2
BRANCH   1   8
ATOM      8  C   UNL     1      16.970  -1.183  -2.902  1.00  0.00     0.000 C 
BRANCH   8   9
ATOM      9  C   UNL     1      18.382  -1.775  -2.817  1.00  0.00     0.006 C 
BRANCH   9  10
ATOM     10  C   UNL     1      18.605  -2.822  -3.912  1.00  0.00     0.053 C 
BRANCH  10  11
ATOM     11  C   UNL     1      19.452  -2.259  -5.010  1.00  0.00     0.041 C 
ATOM     12  O   UNL     1      20.324  -1.388  -4.755  1.00  0.00    -0.550 OA
ATOM     13  O   UNL     1      19.244  -2.661  -6.324  1.00  0.00    -0.550 OA
ENDBRANCH  10  11
ENDBRANCH   9  10
ENDBRANCH   8   9
ENDBRANCH   1   8
TORSDOF 8
ENDMDL
