MODEL 1
REMARK VINA RESULT:    -6.510      0.000      0.000
REMARK INTER + INTRA:          -7.958
REMARK INTER:                  -7.843
REMARK INTRA:                  -0.116
REMARK UNBOUND:                -0.116
REMARK SMILES Oc1cc(O)c2cc(O)c(-c3ccc(O)c(O)c3)[o+]c2c1.[Cl-]
REMARK SMILES IDX 10 1 19 2 20 3 21 4 2 5 3 6 4 7 6 8 7 9 8 10 11 11 12 12
REMARK SMILES IDX 13 13 14 14 18 15 16 16 15 17 17 19 9 21 1 23 5 25
REMARK H PARENT 15 18 17 20 9 22 1 24 5 26
REMARK Flexibility Score: inf
ROOT
ATOM      1  C   UNL     1      27.376  -2.263  35.493  1.00  0.00     0.402 A 
ATOM      2  O   UNL     1      26.694  -1.637  34.539  1.00  0.00    -0.202 OA
ATOM      3  C   UNL     1      25.709  -0.781  34.789  1.00  0.00     0.368 A 
ATOM      4  C   UNL     1      25.047  -0.173  33.718  1.00  0.00     0.162 A 
ATOM      5  C   UNL     1      24.006   0.726  33.951  1.00  0.00     0.128 A 
ATOM      6  C   UNL     1      23.622   1.022  35.264  1.00  0.00     0.093 A 
ATOM      7  C   UNL     1      24.269   0.427  36.354  1.00  0.00     0.136 A 
ATOM      8  C   UNL     1      25.329  -0.487  36.121  1.00  0.00     0.125 A 
ATOM      9  C   UNL     1      26.042  -1.121  37.151  1.00  0.00     0.078 A 
ATOM     10  C   UNL     1      27.079  -2.006  36.844  1.00  0.00     0.223 A 
ENDROOT
BRANCH   1  11
ATOM     11  C   UNL     1      28.447  -3.203  35.087  1.00  0.00     0.087 A 
ATOM     12  C   UNL     1      28.121  -4.325  34.309  1.00  0.00     0.022 A 
ATOM     13  C   UNL     1      29.111  -5.236  33.931  1.00  0.00     0.051 A 
ATOM     14  C   UNL     1      30.436  -5.048  34.336  1.00  0.00     0.157 A 
ATOM     15  C   UNL     1      29.776  -3.027  35.510  1.00  0.00     0.068 A 
ATOM     16  C   UNL     1      30.772  -3.942  35.133  1.00  0.00     0.158 A 
BRANCH  14  17
ATOM     17  O   UNL     1      31.403  -5.972  33.941  1.00  0.00    -0.504 OA
ATOM     18  H   UNL     1      31.161  -6.842  33.481  1.00  0.00     0.293 HD
ENDBRANCH  14  17
BRANCH  16  19
ATOM     19  O   UNL     1      32.088  -3.756  35.552  1.00  0.00    -0.504 OA
ATOM     20  H   UNL     1      32.307  -3.277  36.417  1.00  0.00     0.293 HD
ENDBRANCH  16  19
ENDBRANCH   1  11
BRANCH  10  21
ATOM     21  O   UNL     1      27.821  -2.598  37.867  1.00  0.00    -0.500 OA
ATOM     22  H   UNL     1      28.130  -3.562  37.811  1.00  0.00     0.294 HD
ENDBRANCH  10  21
BRANCH   5  23
ATOM     23  O   UNL     1      23.359   1.322  32.871  1.00  0.00    -0.507 OA
ATOM     24  H   UNL     1      23.788   1.367  31.954  1.00  0.00     0.293 HD
ENDBRANCH   5  23
BRANCH   7  25
ATOM     25  O   UNL     1      23.824   0.773  37.633  1.00  0.00    -0.507 OA
ATOM     26  H   UNL     1      22.967   0.437  38.049  1.00  0.00     0.293 HD
ENDBRANCH   7  25
TORSDOF 6
ENDMDL
MODEL 2
REMARK VINA RESULT:    -6.002      1.454      6.961
REMARK INTER + INTRA:          -7.345
REMARK INTER:                  -7.049
REMARK INTRA:                  -0.296
REMARK UNBOUND:                -0.116
REMARK SMILES Oc1cc(O)c2cc(O)c(-c3ccc(O)c(O)c3)[o+]c2c1.[Cl-]
REMARK SMILES IDX 10 1 19 2 20 3 21 4 2 5 3 6 4 7 6 8 7 9 8 10 11 11 12 12
REMARK SMILES IDX 13 13 14 14 18 15 16 16 15 17 17 19 9 21 1 23 5 25
REMARK H PARENT 15 18 17 20 9 22 1 24 5 26
REMARK Flexibility Score: inf
ROOT
ATOM      1  C   UNL     1      26.880  -2.015  35.204  1.00  0.00     0.402 A 
ATOM      2  O   UNL     1      27.090  -3.251  34.759  1.00  0.00    -0.202 OA
ATOM      3  C   UNL     1      28.276  -3.849  34.799  1.00  0.00     0.368 A 
ATOM      4  C   UNL     1      28.399  -5.150  34.304  1.00  0.00     0.162 A 
ATOM      5  C   UNL     1      29.633  -5.801  34.329  1.00  0.00     0.128 A 
ATOM      6  C   UNL     1      30.755  -5.147  34.852  1.00  0.00     0.093 A 
ATOM      7  C   UNL     1      30.658  -3.844  35.354  1.00  0.00     0.136 A 
ATOM      8  C   UNL     1      29.405  -3.179  35.332  1.00  0.00     0.125 A 
ATOM      9  C   UNL     1      29.210  -1.879  35.825  1.00  0.00     0.078 A 
ATOM     10  C   UNL     1      27.944  -1.291  35.774  1.00  0.00     0.223 A 
ENDROOT
BRANCH   1  11
ATOM     11  C   UNL     1      25.514  -1.454  35.096  1.00  0.00     0.087 A 
ATOM     12  C   UNL     1      25.072  -0.946  33.865  1.00  0.00     0.022 A 
ATOM     13  C   UNL     1      23.794  -0.393  33.744  1.00  0.00     0.051 A 
ATOM     14  C   UNL     1      22.945  -0.327  34.853  1.00  0.00     0.157 A 
ATOM     15  C   UNL     1      24.667  -1.367  36.215  1.00  0.00     0.068 A 
ATOM     16  C   UNL     1      23.383  -0.811  36.096  1.00  0.00     0.158 A 
BRANCH  14  17
ATOM     17  O   UNL     1      21.675   0.228  34.702  1.00  0.00    -0.504 OA
ATOM     18  H   UNL     1      20.840  -0.344  34.652  1.00  0.00     0.293 HD
ENDBRANCH  14  17
BRANCH  16  19
ATOM     19  O   UNL     1      22.548  -0.735  37.210  1.00  0.00    -0.504 OA
ATOM     20  H   UNL     1      21.694  -0.190  37.197  1.00  0.00     0.293 HD
ENDBRANCH  16  19
ENDBRANCH   1  11
BRANCH  10  21
ATOM     21  O   UNL     1      27.740  -0.018  36.308  1.00  0.00    -0.500 OA
ATOM     22  H   UNL     1      26.959   0.182  36.922  1.00  0.00     0.294 HD
ENDBRANCH  10  21
BRANCH   5  23
ATOM     23  O   UNL     1      29.735  -7.098  33.831  1.00  0.00    -0.507 OA
ATOM     24  H   UNL     1      29.894  -7.277  32.847  1.00  0.00     0.293 HD
ENDBRANCH   5  23
BRANCH   7  25
ATOM     25  O   UNL     1      31.825  -3.259  35.857  1.00  0.00    -0.507 OA
ATOM     26  H   UNL     1      32.015  -3.120  36.839  1.00  0.00     0.293 HD
ENDBRANCH   7  25
TORSDOF 6
ENDMDL
MODEL 3
REMARK VINA RESULT:    -5.893      1.957      3.185
REMARK INTER + INTRA:          -7.214
REMARK INTER:                  -6.935
REMARK INTRA:                  -0.279
REMARK UNBOUND:                -0.116
REMARK SMILES Oc1cc(O)c2cc(O)c(-c3ccc(O)c(O)c3)[o+]c2c1.[Cl-]
REMARK SMILES IDX 10 1 19 2 20 3 21 4 2 5 3 6 4 7 6 8 7 9 8 10 11 11 12 12
REMARK SMILES IDX 13 13 14 14 18 15 16 16 15 17 17 19 9 21 1 23 5 25
REMARK H PARENT 15 18 17 20 9 22 1 24 5 26
REMARK Flexibility Score: inf
ROOT
ATOM      1  C   UNL     1      25.303  -1.131  34.700  1.00  0.00     0.402 A 
ATOM      2  O   UNL     1      25.358  -0.272  33.687  1.00  0.00    -0.202 OA
ATOM      3  C   UNL     1      24.345   0.519  33.346  1.00  0.00     0.368 A 
ATOM      4  C   UNL     1      24.496   1.388  32.263  1.00  0.00     0.162 A 
ATOM      5  C   UNL     1      23.448   2.227  31.880  1.00  0.00     0.128 A 
ATOM      6  C   UNL     1      22.239   2.197  32.584  1.00  0.00     0.093 A 
ATOM      7  C   UNL     1      22.063   1.335  33.674  1.00  0.00     0.136 A 
ATOM      8  C   UNL     1      23.126   0.482  34.067  1.00  0.00     0.125 A 
ATOM      9  C   UNL     1      23.045  -0.404  35.153  1.00  0.00     0.078 A 
ATOM     10  C   UNL     1      24.137  -1.210  35.484  1.00  0.00     0.223 A 
ENDROOT
BRANCH   1  11
ATOM     11  C   UNL     1      26.496  -1.966  34.975  1.00  0.00     0.087 A 
ATOM     12  C   UNL     1      27.325  -1.647  36.062  1.00  0.00     0.022 A 
ATOM     13  C   UNL     1      28.467  -2.407  36.329  1.00  0.00     0.051 A 
ATOM     14  C   UNL     1      28.805  -3.487  35.507  1.00  0.00     0.157 A 
ATOM     15  C   UNL     1      26.849  -3.038  34.138  1.00  0.00     0.068 A 
ATOM     16  C   UNL     1      27.996  -3.803  34.403  1.00  0.00     0.158 A 
BRANCH  14  17
ATOM     17  O   UNL     1      29.948  -4.229  35.799  1.00  0.00    -0.504 OA
ATOM     18  H   UNL     1      30.139  -4.581  36.730  1.00  0.00     0.293 HD
ENDBRANCH  14  17
BRANCH  16  19
ATOM     19  O   UNL     1      28.335  -4.868  33.571  1.00  0.00    -0.504 OA
ATOM     20  H   UNL     1      27.816  -5.067  32.724  1.00  0.00     0.293 HD
ENDBRANCH  16  19
ENDBRANCH   1  11
BRANCH  10  21
ATOM     21  O   UNL     1      24.074  -2.054  36.593  1.00  0.00    -0.500 OA
ATOM     22  H   UNL     1      23.352  -1.955  37.298  1.00  0.00     0.294 HD
ENDBRANCH  10  21
BRANCH   5  23
ATOM     23  O   UNL     1      23.617   3.087  30.797  1.00  0.00    -0.507 OA
ATOM     24  H   UNL     1      23.876   2.742  29.881  1.00  0.00     0.293 HD
ENDBRANCH   5  23
BRANCH   7  25
ATOM     25  O   UNL     1      20.825   1.363  34.323  1.00  0.00    -0.507 OA
ATOM     26  H   UNL     1      20.375   2.204  34.656  1.00  0.00     0.293 HD
ENDBRANCH   7  25
TORSDOF 6
ENDMDL
MODEL 4
REMARK VINA RESULT:    -5.659      3.925      6.627
REMARK INTER + INTRA:          -6.933
REMARK INTER:                  -6.599
REMARK INTRA:                  -0.334
REMARK UNBOUND:                -0.116
REMARK SMILES Oc1cc(O)c2cc(O)c(-c3ccc(O)c(O)c3)[o+]c2c1.[Cl-]
REMARK SMILES IDX 10 1 19 2 20 3 21 4 2 5 3 6 4 7 6 8 7 9 8 10 11 11 12 12
REMARK SMILES IDX 13 13 14 14 18 15 16 16 15 17 17 19 9 21 1 23 5 25
REMARK H PARENT 15 18 17 20 9 22 1 24 5 26
REMARK Flexibility Score: inf
ROOT
ATOM      1  C   UNL     1      22.449   1.226  34.860  1.00  0.00     0.402 A 
ATOM      2  O   UNL     1      22.508   1.685  36.107  1.00  0.00    -0.202 OA
ATOM      3  C   UNL     1      21.672   2.599  36.589  1.00  0.00     0.368 A 
ATOM      4  C   UNL     1      21.816   3.022  37.913  1.00  0.00     0.162 A 
ATOM      5  C   UNL     1      20.955   3.983  38.444  1.00  0.00     0.128 A 
ATOM      6  C   UNL     1      19.942   4.528  37.647  1.00  0.00     0.093 A 
ATOM      7  C   UNL     1      19.777   4.121  36.317  1.00  0.00     0.136 A 
ATOM      8  C   UNL     1      20.649   3.142  35.774  1.00  0.00     0.125 A 
ATOM      9  C   UNL     1      20.551   2.665  34.457  1.00  0.00     0.078 A 
ATOM     10  C   UNL     1      21.444   1.695  33.993  1.00  0.00     0.223 A 
ENDROOT
BRANCH   1  11
ATOM     11  C   UNL     1      23.444   0.214  34.438  1.00  0.00     0.087 A 
ATOM     12  C   UNL     1      24.571   0.618  33.706  1.00  0.00     0.022 A 
ATOM     13  C   UNL     1      25.513  -0.322  33.279  1.00  0.00     0.051 A 
ATOM     14  C   UNL     1      25.336  -1.679  33.564  1.00  0.00     0.157 A 
ATOM     15  C   UNL     1      23.257  -1.154  34.705  1.00  0.00     0.068 A 
ATOM     16  C   UNL     1      24.201  -2.100  34.277  1.00  0.00     0.158 A 
BRANCH  14  17
ATOM     17  O   UNL     1      26.293  -2.594  33.128  1.00  0.00    -0.504 OA
ATOM     18  H   UNL     1      27.057  -2.326  32.519  1.00  0.00     0.293 HD
ENDBRANCH  14  17
BRANCH  16  19
ATOM     19  O   UNL     1      24.010  -3.453  34.552  1.00  0.00    -0.504 OA
ATOM     20  H   UNL     1      24.290  -3.860  35.437  1.00  0.00     0.293 HD
ENDBRANCH  16  19
ENDBRANCH   1  11
BRANCH  10  21
ATOM     21  O   UNL     1      21.316   1.184  32.702  1.00  0.00    -0.500 OA
ATOM     22  H   UNL     1      20.464   1.302  32.165  1.00  0.00     0.294 HD
ENDBRANCH  10  21
BRANCH   5  23
ATOM     23  O   UNL     1      21.114   4.391  39.766  1.00  0.00    -0.507 OA
ATOM     24  H   UNL     1      20.544   4.009  40.511  1.00  0.00     0.293 HD
ENDBRANCH   5  23
BRANCH   7  25
ATOM     25  O   UNL     1      18.744   4.714  35.585  1.00  0.00    -0.507 OA
ATOM     26  H   UNL     1      18.804   4.958  34.607  1.00  0.00     0.293 HD
ENDBRANCH   7  25
TORSDOF 6
ENDMDL
MODEL 5
REMARK VINA RESULT:    -5.520      4.685      8.257
REMARK INTER + INTRA:          -6.765
REMARK INTER:                  -6.436
REMARK INTRA:                  -0.329
REMARK UNBOUND:                -0.116
REMARK SMILES Oc1cc(O)c2cc(O)c(-c3ccc(O)c(O)c3)[o+]c2c1.[Cl-]
REMARK SMILES IDX 10 1 19 2 20 3 21 4 2 5 3 6 4 7 6 8 7 9 8 10 11 11 12 12
REMARK SMILES IDX 13 13 14 14 18 15 16 16 15 17 17 19 9 21 1 23 5 25
REMARK H PARENT 15 18 17 20 9 22 1 24 5 26
REMARK Flexibility Score: inf
ROOT
ATOM      1  C   UNL     1      23.793   2.495  38.299  1.00  0.00     0.402 A 
ATOM      2  O   UNL     1      24.228   1.301  37.908  1.00  0.00    -0.202 OA
ATOM      3  C   UNL     1      23.733   0.653  36.858  1.00  0.00     0.368 A 
ATOM      4  C   UNL     1      24.253  -0.601  36.527  1.00  0.00     0.162 A 
ATOM      5  C   UNL     1      23.751  -1.307  35.433  1.00  0.00     0.128 A 
ATOM      6  C   UNL     1      22.719  -0.756  34.663  1.00  0.00     0.093 A 
ATOM      7  C   UNL     1      22.180   0.498  34.975  1.00  0.00     0.136 A 
ATOM      8  C   UNL     1      22.690   1.219  36.085  1.00  0.00     0.125 A 
ATOM      9  C   UNL     1      22.222   2.487  36.465  1.00  0.00     0.078 A 
ATOM     10  C   UNL     1      22.777   3.140  37.569  1.00  0.00     0.223 A 
ENDROOT
BRANCH   1  11
ATOM     11  C   UNL     1      24.419   3.112  39.491  1.00  0.00     0.087 A 
ATOM     12  C   UNL     1      25.702   3.671  39.385  1.00  0.00     0.022 A 
ATOM     13  C   UNL     1      26.321   4.240  40.502  1.00  0.00     0.051 A 
ATOM     14  C   UNL     1      25.675   4.247  41.742  1.00  0.00     0.157 A 
ATOM     15  C   UNL     1      23.780   3.101  40.743  1.00  0.00     0.068 A 
ATOM     16  C   UNL     1      24.400   3.671  41.866  1.00  0.00     0.158 A 
BRANCH  14  17
ATOM     17  O   UNL     1      26.315   4.824  42.837  1.00  0.00    -0.504 OA
ATOM     18  H   UNL     1      26.431   4.331  43.715  1.00  0.00     0.293 HD
ENDBRANCH  14  17
BRANCH  16  19
ATOM     19  O   UNL     1      23.755   3.661  43.102  1.00  0.00    -0.504 OA
ATOM     20  H   UNL     1      24.180   3.239  43.919  1.00  0.00     0.293 HD
ENDBRANCH  16  19
ENDBRANCH   1  11
BRANCH  10  21
ATOM     21  O   UNL     1      22.346   4.420  37.916  1.00  0.00    -0.500 OA
ATOM     22  H   UNL     1      21.454   4.785  37.602  1.00  0.00     0.294 HD
ENDBRANCH  10  21
BRANCH   5  23
ATOM     23  O   UNL     1      24.283  -2.555  35.117  1.00  0.00    -0.507 OA
ATOM     24  H   UNL     1      24.314  -3.305  35.797  1.00  0.00     0.293 HD
ENDBRANCH   5  23
BRANCH   7  25
ATOM     25  O   UNL     1      21.150   0.977  34.160  1.00  0.00    -0.507 OA
ATOM     26  H   UNL     1      20.477   1.675  34.443  1.00  0.00     0.293 HD
ENDBRANCH   7  25
TORSDOF 6
ENDMDL
MODEL 6
REMARK VINA RESULT:    -5.509      4.991      8.279
REMARK INTER + INTRA:          -6.752
REMARK INTER:                  -6.413
REMARK INTRA:                  -0.340
REMARK UNBOUND:                -0.116
REMARK SMILES Oc1cc(O)c2cc(O)c(-c3ccc(O)c(O)c3)[o+]c2c1.[Cl-]
REMARK SMILES IDX 10 1 19 2 20 3 21 4 2 5 3 6 4 7 6 8 7 9 8 10 11 11 12 12
REMARK SMILES IDX 13 13 14 14 18 15 16 16 15 17 17 19 9 21 1 23 5 25
REMARK H PARENT 15 18 17 20 9 22 1 24 5 26
REMARK Flexibility Score: inf
ROOT
ATOM      1  C   UNL     1      22.849   2.498  38.333  1.00  0.00     0.402 A 
ATOM      2  O   UNL     1      23.178   2.220  39.591  1.00  0.00    -0.202 OA
ATOM      3  C   UNL     1      22.883   3.015  40.615  1.00  0.00     0.368 A 
ATOM      4  C   UNL     1      23.275   2.640  41.902  1.00  0.00     0.162 A 
ATOM      5  C   UNL     1      22.983   3.456  42.995  1.00  0.00     0.128 A 
ATOM      6  C   UNL     1      22.293   4.659  42.802  1.00  0.00     0.093 A 
ATOM      7  C   UNL     1      21.890   5.058  41.521  1.00  0.00     0.136 A 
ATOM      8  C   UNL     1      22.184   4.229  40.408  1.00  0.00     0.125 A 
ATOM      9  C   UNL     1      21.808   4.541  39.091  1.00  0.00     0.078 A 
ATOM     10  C   UNL     1      22.128   3.672  38.045  1.00  0.00     0.223 A 
ENDROOT
BRANCH   1  11
ATOM     11  C   UNL     1      23.242   1.536  37.278  1.00  0.00     0.087 A 
ATOM     12  C   UNL     1      24.405   1.773  36.528  1.00  0.00     0.022 A 
ATOM     13  C   UNL     1      24.786   0.891  35.513  1.00  0.00     0.051 A 
ATOM     14  C   UNL     1      24.004  -0.231  35.223  1.00  0.00     0.157 A 
ATOM     15  C   UNL     1      22.447   0.419  36.970  1.00  0.00     0.068 A 
ATOM     16  C   UNL     1      22.826  -0.468  35.950  1.00  0.00     0.158 A 
BRANCH  14  17
ATOM     17  O   UNL     1      24.409  -1.096  34.206  1.00  0.00    -0.504 OA
ATOM     18  H   UNL     1      25.310  -1.559  34.221  1.00  0.00     0.293 HD
ENDBRANCH  14  17
BRANCH  16  19
ATOM     19  O   UNL     1      22.033  -1.577  35.656  1.00  0.00    -0.504 OA
ATOM     20  H   UNL     1      22.237  -2.491  36.040  1.00  0.00     0.293 HD
ENDBRANCH  16  19
ENDBRANCH   1  11
BRANCH  10  21
ATOM     21  O   UNL     1      21.711   3.957  36.745  1.00  0.00    -0.500 OA
ATOM     22  H   UNL     1      20.967   3.435  36.298  1.00  0.00     0.294 HD
ENDBRANCH  10  21
BRANCH   5  23
ATOM     23  O   UNL     1      23.381   3.065  44.272  1.00  0.00    -0.507 OA
ATOM     24  H   UNL     1      22.705   2.855  44.997  1.00  0.00     0.293 HD
ENDBRANCH   5  23
BRANCH   7  25
ATOM     25  O   UNL     1      21.209   6.274  41.411  1.00  0.00    -0.507 OA
ATOM     26  H   UNL     1      20.203   6.363  41.373  1.00  0.00     0.293 HD
ENDBRANCH   7  25
TORSDOF 6
ENDMDL
MODEL 7
REMARK VINA RESULT:    -5.433      3.908      7.848
REMARK INTER + INTRA:          -6.660
REMARK INTER:                  -6.371
REMARK INTRA:                  -0.289
REMARK UNBOUND:                -0.116
REMARK SMILES Oc1cc(O)c2cc(O)c(-c3ccc(O)c(O)c3)[o+]c2c1.[Cl-]
REMARK SMILES IDX 10 1 19 2 20 3 21 4 2 5 3 6 4 7 6 8 7 9 8 10 11 11 12 12
REMARK SMILES IDX 13 13 14 14 18 15 16 16 15 17 17 19 9 21 1 23 5 25
REMARK H PARENT 15 18 17 20 9 22 1 24 5 26
REMARK Flexibility Score: inf
ROOT
ATOM      1  C   UNL     1      25.314   1.912  38.110  1.00  0.00     0.402 A 
ATOM      2  O   UNL     1      24.226   1.323  37.624  1.00  0.00    -0.202 OA
ATOM      3  C   UNL     1      24.267   0.333  36.738  1.00  0.00     0.368 A 
ATOM      4  C   UNL     1      23.068  -0.222  36.282  1.00  0.00     0.162 A 
ATOM      5  C   UNL     1      23.080  -1.259  35.349  1.00  0.00     0.128 A 
ATOM      6  C   UNL     1      24.300  -1.748  34.866  1.00  0.00     0.093 A 
ATOM      7  C   UNL     1      25.515  -1.209  35.308  1.00  0.00     0.136 A 
ATOM      8  C   UNL     1      25.507  -0.156  36.258  1.00  0.00     0.125 A 
ATOM      9  C   UNL     1      26.674   0.437  36.766  1.00  0.00     0.078 A 
ATOM     10  C   UNL     1      26.587   1.468  37.705  1.00  0.00     0.223 A 
ENDROOT
BRANCH   1  11
ATOM     11  C   UNL     1      25.138   3.012  39.086  1.00  0.00     0.087 A 
ATOM     12  C   UNL     1      24.783   4.291  38.627  1.00  0.00     0.022 A 
ATOM     13  C   UNL     1      24.631   5.349  39.527  1.00  0.00     0.051 A 
ATOM     14  C   UNL     1      24.846   5.150  40.894  1.00  0.00     0.157 A 
ATOM     15  C   UNL     1      25.373   2.820  40.459  1.00  0.00     0.068 A 
ATOM     16  C   UNL     1      25.223   3.882  41.364  1.00  0.00     0.158 A 
BRANCH  14  17
ATOM     17  O   UNL     1      24.684   6.224  41.769  1.00  0.00    -0.504 OA
ATOM     18  H   UNL     1      24.203   7.073  41.497  1.00  0.00     0.293 HD
ENDBRANCH  14  17
BRANCH  16  19
ATOM     19  O   UNL     1      25.452   3.680  42.724  1.00  0.00    -0.504 OA
ATOM     20  H   UNL     1      24.851   4.088  43.430  1.00  0.00     0.293 HD
ENDBRANCH  16  19
ENDBRANCH   1  11
BRANCH  10  21
ATOM     21  O   UNL     1      27.746   2.022  38.247  1.00  0.00    -0.500 OA
ATOM     22  H   UNL     1      28.249   2.767  37.780  1.00  0.00     0.294 HD
ENDBRANCH  10  21
BRANCH   5  23
ATOM     23  O   UNL     1      21.875  -1.800  34.906  1.00  0.00    -0.507 OA
ATOM     24  H   UNL     1      21.820  -2.349  34.057  1.00  0.00     0.293 HD
ENDBRANCH   5  23
BRANCH   7  25
ATOM     25  O   UNL     1      26.690  -1.750  34.776  1.00  0.00    -0.507 OA
ATOM     26  H   UNL     1      27.365  -1.227  34.237  1.00  0.00     0.293 HD
ENDBRANCH   7  25
TORSDOF 6
ENDMDL
MODEL 8
REMARK VINA RESULT:    -5.307      5.573      9.059
REMARK INTER + INTRA:          -6.509
REMARK INTER:                  -6.247
REMARK INTRA:                  -0.262
REMARK UNBOUND:                -0.116
REMARK SMILES Oc1cc(O)c2cc(O)c(-c3ccc(O)c(O)c3)[o+]c2c1.[Cl-]
REMARK SMILES IDX 10 1 19 2 20 3 21 4 2 5 3 6 4 7 6 8 7 9 8 10 11 11 12 12
REMARK SMILES IDX 13 13 14 14 18 15 16 16 15 17 17 19 9 21 1 23 5 25
REMARK H PARENT 15 18 17 20 9 22 1 24 5 26
REMARK Flexibility Score: inf
ROOT
ATOM      1  C   UNL     1      23.542   2.816  39.057  1.00  0.00     0.402 A 
ATOM      2  O   UNL     1      22.927   1.752  38.550  1.00  0.00    -0.202 OA
ATOM      3  C   UNL     1      23.162   1.287  37.327  1.00  0.00     0.368 A 
ATOM      4  C   UNL     1      22.463   0.163  36.880  1.00  0.00     0.162 A 
ATOM      5  C   UNL     1      22.687  -0.345  35.600  1.00  0.00     0.128 A 
ATOM      6  C   UNL     1      23.617   0.274  34.757  1.00  0.00     0.093 A 
ATOM      7  C   UNL     1      24.331   1.402  35.182  1.00  0.00     0.136 A 
ATOM      8  C   UNL     1      24.107   1.920  36.483  1.00  0.00     0.125 A 
ATOM      9  C   UNL     1      24.785   3.037  36.998  1.00  0.00     0.078 A 
ATOM     10  C   UNL     1      24.515   3.487  38.293  1.00  0.00     0.223 A 
ENDROOT
BRANCH   1  11
ATOM     11  C   UNL     1      23.185   3.243  40.429  1.00  0.00     0.087 A 
ATOM     12  C   UNL     1      22.472   4.437  40.617  1.00  0.00     0.022 A 
ATOM     13  C   UNL     1      22.143   4.871  41.904  1.00  0.00     0.051 A 
ATOM     14  C   UNL     1      22.533   4.127  43.021  1.00  0.00     0.157 A 
ATOM     15  C   UNL     1      23.594   2.508  41.555  1.00  0.00     0.068 A 
ATOM     16  C   UNL     1      23.266   2.942  42.849  1.00  0.00     0.158 A 
BRANCH  14  17
ATOM     17  O   UNL     1      22.187   4.583  44.293  1.00  0.00    -0.504 OA
ATOM     18  H   UNL     1      21.646   5.428  44.434  1.00  0.00     0.293 HD
ENDBRANCH  14  17
BRANCH  16  19
ATOM     19  O   UNL     1      23.670   2.202  43.959  1.00  0.00    -0.504 OA
ATOM     20  H   UNL     1      24.150   2.635  44.740  1.00  0.00     0.293 HD
ENDBRANCH  16  19
ENDBRANCH   1  11
BRANCH  10  21
ATOM     21  O   UNL     1      25.224   4.565  38.822  1.00  0.00    -0.500 OA
ATOM     22  H   UNL     1      26.147   4.814  38.484  1.00  0.00     0.294 HD
ENDBRANCH  10  21
BRANCH   5  23
ATOM     23  O   UNL     1      21.980  -1.467  35.172  1.00  0.00    -0.507 OA
ATOM     24  H   UNL     1      22.315  -2.406  35.354  1.00  0.00     0.293 HD
ENDBRANCH   5  23
BRANCH   7  25
ATOM     25  O   UNL     1      25.240   1.965  34.280  1.00  0.00    -0.507 OA
ATOM     26  H   UNL     1      25.943   1.442  33.779  1.00  0.00     0.293 HD
ENDBRANCH   7  25
TORSDOF 6
ENDMDL
MODEL 9
REMARK VINA RESULT:    -5.307      2.525      4.434
REMARK INTER + INTRA:          -6.508
REMARK INTER:                  -6.167
REMARK INTRA:                  -0.341
REMARK UNBOUND:                -0.116
REMARK SMILES Oc1cc(O)c2cc(O)c(-c3ccc(O)c(O)c3)[o+]c2c1.[Cl-]
REMARK SMILES IDX 10 1 19 2 20 3 21 4 2 5 3 6 4 7 6 8 7 9 8 10 11 11 12 12
REMARK SMILES IDX 13 13 14 14 18 15 16 16 15 17 17 19 9 21 1 23 5 25
REMARK H PARENT 15 18 17 20 9 22 1 24 5 26
REMARK Flexibility Score: inf
ROOT
ATOM      1  C   UNL     1      23.886  -0.189  34.300  1.00  0.00     0.402 A 
ATOM      2  O   UNL     1      23.968   0.756  33.369  1.00  0.00    -0.202 OA
ATOM      3  C   UNL     1      22.981   1.606  33.103  1.00  0.00     0.368 A 
ATOM      4  C   UNL     1      23.160   2.564  32.102  1.00  0.00     0.162 A 
ATOM      5  C   UNL     1      22.140   3.466  31.799  1.00  0.00     0.128 A 
ATOM      6  C   UNL     1      20.929   3.411  32.500  1.00  0.00     0.093 A 
ATOM      7  C   UNL     1      20.725   2.460  33.507  1.00  0.00     0.136 A 
ATOM      8  C   UNL     1      21.761   1.542  33.820  1.00  0.00     0.125 A 
ATOM      9  C   UNL     1      21.652   0.564  34.821  1.00  0.00     0.078 A 
ATOM     10  C   UNL     1      22.717  -0.302  35.077  1.00  0.00     0.223 A 
ENDROOT
BRANCH   1  11
ATOM     11  C   UNL     1      25.051  -1.082  34.497  1.00  0.00     0.087 A 
ATOM     12  C   UNL     1      25.158  -2.255  33.733  1.00  0.00     0.022 A 
ATOM     13  C   UNL     1      26.238  -3.124  33.915  1.00  0.00     0.051 A 
ATOM     14  C   UNL     1      27.218  -2.841  34.871  1.00  0.00     0.157 A 
ATOM     15  C   UNL     1      26.027  -0.811  35.472  1.00  0.00     0.068 A 
ATOM     16  C   UNL     1      27.112  -1.682  35.658  1.00  0.00     0.158 A 
BRANCH  14  17
ATOM     17  O   UNL     1      28.285  -3.724  35.029  1.00  0.00    -0.504 OA
ATOM     18  H   UNL     1      29.096  -3.494  35.592  1.00  0.00     0.293 HD
ENDBRANCH  14  17
BRANCH  16  19
ATOM     19  O   UNL     1      28.078  -1.401  36.622  1.00  0.00    -0.504 OA
ATOM     20  H   UNL     1      28.306  -2.064  37.354  1.00  0.00     0.293 HD
ENDBRANCH  16  19
ENDBRANCH   1  11
BRANCH  10  21
ATOM     21  O   UNL     1      22.627  -1.241  36.105  1.00  0.00    -0.500 OA
ATOM     22  H   UNL     1      23.279  -1.244  36.881  1.00  0.00     0.294 HD
ENDBRANCH  10  21
BRANCH   5  23
ATOM     23  O   UNL     1      22.336   4.415  30.798  1.00  0.00    -0.507 OA
ATOM     24  H   UNL     1      22.442   5.399  31.014  1.00  0.00     0.293 HD
ENDBRANCH   5  23
BRANCH   7  25
ATOM     25  O   UNL     1      19.488   2.468  34.159  1.00  0.00    -0.507 OA
ATOM     26  H   UNL     1      19.336   2.833  35.088  1.00  0.00     0.293 HD
ENDBRANCH   7  25
TORSDOF 6
ENDMDL
