MODEL 1
REMARK VINA RESULT:     0.000      0.000      0.000
REMARK INTER + INTRA:          -3.735
REMARK INTER:                   0.000
REMARK INTRA:                  -3.735
REMARK UNBOUND:                -3.735
REMARK SMILES CCCCCCCCCCCCCCCCCC(=O)[O-]
REMARK SMILES IDX 10 1 11 2 12 3 13 4 14 5 15 6 16 7 17 8 18 9 19 10 20 11
REMARK SMILES IDX 9 12 8 13 7 14 6 15 5 16 4 17 3 18 2 19 1 20
REMARK H PARENT
REMARK Flexibility Score: inf
ROOT
ATOM      1  C   UNL     1     171.082 188.344 188.835  1.00  0.00     0.000 C 
ENDROOT
BRANCH   1   2
ATOM      2  C   UNL     1     170.779 186.941 188.295  1.00  0.00     0.000 C 
BRANCH   2   3
ATOM      3  C   UNL     1     170.085 187.018 186.928  1.00  0.00     0.000 C 
BRANCH   3   4
ATOM      4  C   UNL     1     170.087 188.437 186.333  1.00  0.00     0.000 C 
BRANCH   4   5
ATOM      5  C   UNL     1     168.719 188.933 185.823  1.00  0.00     0.000 C 
BRANCH   5   6
ATOM      6  C   UNL     1     167.796 187.839 185.257  1.00  0.00     0.000 C 
BRANCH   6   7
ATOM      7  C   UNL     1     166.317 188.253 185.246  1.00  0.00     0.006 C 
BRANCH   7   8
ATOM      8  C   UNL     1     166.133 189.646 185.856  1.00  0.00     0.053 C 
BRANCH   8   9
ATOM      9  C   UNL     1     164.911 189.681 186.720  1.00  0.00     0.041 C 
ATOM     10  O   UNL     1     164.600 190.734 187.336  1.00  0.00    -0.550 OA
ATOM     11  O   UNL     1     164.148 188.533 186.890  1.00  0.00    -0.550 OA
ENDBRANCH   8   9
ENDBRANCH   7   8
ENDBRANCH   6   7
ENDBRANCH   5   6
ENDBRANCH   4   5
ENDBRANCH   3   4
ENDBRANCH   2   3
ENDBRANCH   1   2
BRANCH   1  12
ATOM     12  C   UNL     1     170.884 188.404 190.355  1.00  0.00     0.000 C 
BRANCH  12  13
ATOM     13  C   UNL     1     169.763 189.386 190.725  1.00  0.00    -0.000 C 
BRANCH  13  14
ATOM     14  C   UNL     1     169.189 190.124 189.503  1.00  0.00    -0.000 C 
BRANCH  14  15
ATOM     15  C   UNL     1     167.686 189.890 189.250  1.00  0.00    -0.000 C 
BRANCH  15  16
ATOM     16  C   UNL     1     167.116 188.585 189.841  1.00  0.00    -0.000 C 
BRANCH  16  17
ATOM     17  C   UNL     1     166.965 187.424 188.839  1.00  0.00    -0.000 C 
BRANCH  17  18
ATOM     18  C   UNL     1     167.374 186.067 189.435  1.00  0.00    -0.000 C 
BRANCH  18  19
ATOM     19  C   UNL     1     167.876 186.188 190.883  1.00  0.00    -0.003 C 
ATOM     20  C   UNL     1     169.066 185.274 191.177  1.00  0.00     0.004 C 
ENDBRANCH  18  19
ENDBRANCH  17  18
ENDBRANCH  16  17
ENDBRANCH  15  16
ENDBRANCH  14  15
ENDBRANCH  13  14
ENDBRANCH  12  13
ENDBRANCH   1  12
TORSDOF 16
ENDMDL
MODEL 2
REMARK VINA RESULT:     0.031      2.966      5.484
REMARK INTER + INTRA:          -3.676
REMARK INTER:                   0.000
REMARK INTRA:                  -3.676
REMARK UNBOUND:                -3.735
REMARK SMILES CCCCCCCCCCCCCCCCCC(=O)[O-]
REMARK SMILES IDX 10 1 11 2 12 3 13 4 14 5 15 6 16 7 17 8 18 9 19 10 20 11
REMARK SMILES IDX 9 12 8 13 7 14 6 15 5 16 4 17 3 18 2 19 1 20
REMARK H PARENT
REMARK Flexibility Score: inf
ROOT
ATOM      1  C   UNL     1     168.985 189.012 188.252  1.00  0.00     0.000 C 
ENDROOT
BRANCH   1   2
ATOM      2  C   UNL     1     167.653 188.298 187.992  1.00  0.00     0.000 C 
BRANCH   2   3
ATOM      3  C   UNL     1     166.802 188.243 189.269  1.00  0.00     0.000 C 
BRANCH   3   4
ATOM      4  C   UNL     1     167.587 188.644 190.530  1.00  0.00     0.000 C 
BRANCH   4   5
ATOM      5  C   UNL     1     166.810 189.524 191.530  1.00  0.00     0.000 C 
BRANCH   5   6
ATOM      6  C   UNL     1     165.277 189.459 191.405  1.00  0.00     0.000 C 
BRANCH   6   7
ATOM      7  C   UNL     1     164.584 190.740 191.891  1.00  0.00     0.006 C 
BRANCH   7   8
ATOM      8  C   UNL     1     165.612 191.798 192.305  1.00  0.00     0.053 C 
BRANCH   8   9
ATOM      9  C   UNL     1     165.096 193.172 192.013  1.00  0.00     0.041 C 
ATOM     10  O   UNL     1     163.874 193.435 192.162  1.00  0.00    -0.550 OA
ATOM     11  O   UNL     1     165.956 194.146 191.524  1.00  0.00    -0.550 OA
ENDBRANCH   8   9
ENDBRANCH   7   8
ENDBRANCH   6   7
ENDBRANCH   5   6
ENDBRANCH   4   5
ENDBRANCH   3   4
ENDBRANCH   2   3
ENDBRANCH   1   2
BRANCH   1  12
ATOM     12  C   UNL     1     169.366 189.913 187.071  1.00  0.00     0.000 C 
BRANCH  12  13
ATOM     13  C   UNL     1     169.473 191.380 187.512  1.00  0.00    -0.000 C 
BRANCH  13  14
ATOM     14  C   UNL     1     169.285 191.563 189.028  1.00  0.00    -0.000 C 
BRANCH  14  15
ATOM     15  C   UNL     1     168.019 192.342 189.437  1.00  0.00    -0.000 C 
BRANCH  15  16
ATOM     16  C   UNL     1     166.985 192.551 188.313  1.00  0.00    -0.000 C 
BRANCH  16  17
ATOM     17  C   UNL     1     165.621 191.874 188.545  1.00  0.00    -0.000 C 
BRANCH  17  18
ATOM     18  C   UNL     1     165.200 190.966 187.377  1.00  0.00    -0.000 C 
BRANCH  18  19
ATOM     19  C   UNL     1     165.975 191.274 186.085  1.00  0.00    -0.003 C 
ATOM     20  C   UNL     1     166.047 190.077 185.136  1.00  0.00     0.004 C 
ENDBRANCH  18  19
ENDBRANCH  17  18
ENDBRANCH  16  17
ENDBRANCH  15  16
ENDBRANCH  14  15
ENDBRANCH  13  14
ENDBRANCH  12  13
ENDBRANCH   1  12
TORSDOF 16
ENDMDL
MODEL 3
REMARK VINA RESULT:     0.048      7.169      9.326
REMARK INTER + INTRA:          -3.641
REMARK INTER:                   0.000
REMARK INTRA:                  -3.641
REMARK UNBOUND:                -3.735
REMARK SMILES CCCCCCCCCCCCCCCCCC(=O)[O-]
REMARK SMILES IDX 10 1 11 2 12 3 13 4 14 5 15 6 16 7 17 8 18 9 19 10 20 11
REMARK SMILES IDX 9 12 8 13 7 14 6 15 5 16 4 17 3 18 2 19 1 20
REMARK H PARENT
REMARK Flexibility Score: inf
ROOT
ATOM      1  C   UNL     1     170.559 193.954 187.308  1.00  0.00     0.000 C 
ENDROOT
BRANCH   1   2
ATOM      2  C   UNL     1     171.761 193.486 188.137  1.00  0.00     0.000 C 
BRANCH   2   3
ATOM      3  C   UNL     1     172.047 194.460 189.289  1.00  0.00     0.000 C 
BRANCH   3   4
ATOM      4  C   UNL     1     173.307 195.313 189.053  1.00  0.00     0.000 C 
BRANCH   4   5
ATOM      5  C   UNL     1     174.384 194.655 188.168  1.00  0.00     0.000 C 
BRANCH   5   6
ATOM      6  C   UNL     1     174.773 195.452 186.909  1.00  0.00     0.000 C 
BRANCH   6   7
ATOM      7  C   UNL     1     174.685 194.617 185.623  1.00  0.00     0.006 C 
BRANCH   7   8
ATOM      8  C   UNL     1     174.751 193.119 185.937  1.00  0.00     0.053 C 
BRANCH   8   9
ATOM      9  C   UNL     1     173.892 192.347 184.985  1.00  0.00     0.041 C 
ATOM     10  O   UNL     1     173.968 192.561 183.747  1.00  0.00    -0.550 OA
ATOM     11  O   UNL     1     172.968 191.431 185.470  1.00  0.00    -0.550 OA
ENDBRANCH   8   9
ENDBRANCH   7   8
ENDBRANCH   6   7
ENDBRANCH   5   6
ENDBRANCH   4   5
ENDBRANCH   3   4
ENDBRANCH   2   3
ENDBRANCH   1   2
BRANCH   1  12
ATOM     12  C   UNL     1     171.000 194.432 185.920  1.00  0.00     0.000 C 
BRANCH  12  13
ATOM     13  C   UNL     1     170.513 195.864 185.652  1.00  0.00    -0.000 C 
BRANCH  13  14
ATOM     14  C   UNL     1     171.665 196.881 185.570  1.00  0.00    -0.000 C 
BRANCH  14  15
ATOM     15  C   UNL     1     171.816 197.792 186.804  1.00  0.00    -0.000 C 
BRANCH  15  16
ATOM     16  C   UNL     1     170.497 198.172 187.506  1.00  0.00    -0.000 C 
BRANCH  16  17
ATOM     17  C   UNL     1     170.379 197.710 188.971  1.00  0.00    -0.000 C 
BRANCH  17  18
ATOM     18  C   UNL     1     169.146 196.825 189.218  1.00  0.00    -0.000 C 
BRANCH  18  19
ATOM     19  C   UNL     1     168.042 197.049 188.171  1.00  0.00    -0.003 C 
ATOM     20  C   UNL     1     167.356 195.751 187.744  1.00  0.00     0.004 C 
ENDBRANCH  18  19
ENDBRANCH  17  18
ENDBRANCH  16  17
ENDBRANCH  15  16
ENDBRANCH  14  15
ENDBRANCH  13  14
ENDBRANCH  12  13
ENDBRANCH   1  12
TORSDOF 16
ENDMDL
MODEL 4
REMARK VINA RESULT:     0.051      5.342      8.115
REMARK INTER + INTRA:          -3.637
REMARK INTER:                   0.000
REMARK INTRA:                  -3.637
REMARK UNBOUND:                -3.735
REMARK SMILES CCCCCCCCCCCCCCCCCC(=O)[O-]
REMARK SMILES IDX 10 1 11 2 12 3 13 4 14 5 15 6 16 7 17 8 18 9 19 10 20 11
REMARK SMILES IDX 9 12 8 13 7 14 6 15 5 16 4 17 3 18 2 19 1 20
REMARK H PARENT
REMARK Flexibility Score: inf
ROOT
ATOM      1  C   UNL     1     161.645 191.692 186.113  1.00  0.00     0.000 C 
ENDROOT
BRANCH   1   2
ATOM      2  C   UNL     1     160.850 190.404 185.866  1.00  0.00     0.000 C 
BRANCH   2   3
ATOM      3  C   UNL     1     160.344 190.341 184.417  1.00  0.00     0.000 C 
BRANCH   3   4
ATOM      4  C   UNL     1     160.700 189.018 183.716  1.00  0.00     0.000 C 
BRANCH   4   5
ATOM      5  C   UNL     1     161.072 189.149 182.225  1.00  0.00     0.000 C 
BRANCH   5   6
ATOM      6  C   UNL     1     161.034 190.582 181.665  1.00  0.00     0.000 C 
BRANCH   6   7
ATOM      7  C   UNL     1     162.022 190.798 180.509  1.00  0.00     0.006 C 
BRANCH   7   8
ATOM      8  C   UNL     1     162.964 189.599 180.362  1.00  0.00     0.053 C 
BRANCH   8   9
ATOM      9  C   UNL     1     164.372 190.063 180.155  1.00  0.00     0.041 C 
ATOM     10  O   UNL     1     165.330 189.257 180.289  1.00  0.00    -0.550 OA
ATOM     11  O   UNL     1     164.629 191.397 179.870  1.00  0.00    -0.550 OA
ENDBRANCH   8   9
ENDBRANCH   7   8
ENDBRANCH   6   7
ENDBRANCH   5   6
ENDBRANCH   4   5
ENDBRANCH   3   4
ENDBRANCH   2   3
ENDBRANCH   1   2
BRANCH   1  12
ATOM     12  C   UNL     1     161.914 192.434 184.798  1.00  0.00     0.000 C 
BRANCH  12  13
ATOM     13  C   UNL     1     163.415 192.699 184.615  1.00  0.00    -0.000 C 
BRANCH  13  14
ATOM     14  C   UNL     1     164.013 191.941 183.417  1.00  0.00    -0.000 C 
BRANCH  14  15
ATOM     15  C   UNL     1     164.980 190.798 183.788  1.00  0.00    -0.000 C 
BRANCH  15  16
ATOM     16  C   UNL     1     164.347 189.394 183.842  1.00  0.00    -0.000 C 
BRANCH  16  17
ATOM     17  C   UNL     1     164.161 188.815 185.258  1.00  0.00    -0.000 C 
BRANCH  17  18
ATOM     18  C   UNL     1     164.812 189.684 186.346  1.00  0.00    -0.000 C 
BRANCH  18  19
ATOM     19  C   UNL     1     164.167 189.478 187.727  1.00  0.00    -0.003 C 
ATOM     20  C   UNL     1     163.239 188.263 187.773  1.00  0.00     0.004 C 
ENDBRANCH  18  19
ENDBRANCH  17  18
ENDBRANCH  16  17
ENDBRANCH  15  16
ENDBRANCH  14  15
ENDBRANCH  13  14
ENDBRANCH  12  13
ENDBRANCH   1  12
TORSDOF 16
ENDMDL
MODEL 5
REMARK VINA RESULT:     0.051      6.588      8.820
REMARK INTER + INTRA:          -3.636
REMARK INTER:                   0.000
REMARK INTRA:                  -3.636
REMARK UNBOUND:                -3.735
REMARK SMILES CCCCCCCCCCCCCCCCCC(=O)[O-]
REMARK SMILES IDX 10 1 11 2 12 3 13 4 14 5 15 6 16 7 17 8 18 9 19 10 20 11
REMARK SMILES IDX 9 12 8 13 7 14 6 15 5 16 4 17 3 18 2 19 1 20
REMARK H PARENT
REMARK Flexibility Score: inf
ROOT
ATOM      1  C   UNL     1     165.084 194.126 185.631  1.00  0.00     0.000 C 
ENDROOT
BRANCH   1   2
ATOM      2  C   UNL     1     165.085 194.711 184.214  1.00  0.00     0.000 C 
BRANCH   2   3
ATOM      3  C   UNL     1     164.990 193.597 183.161  1.00  0.00     0.000 C 
BRANCH   3   4
ATOM      4  C   UNL     1     165.396 194.068 181.753  1.00  0.00     0.000 C 
BRANCH   4   5
ATOM      5  C   UNL     1     165.755 195.564 181.643  1.00  0.00     0.000 C 
BRANCH   5   6
ATOM      6  C   UNL     1     166.951 195.884 180.728  1.00  0.00     0.000 C 
BRANCH   6   7
ATOM      7  C   UNL     1     167.792 197.064 181.238  1.00  0.00     0.006 C 
BRANCH   7   8
ATOM      8  C   UNL     1     167.236 197.604 182.559  1.00  0.00     0.053 C 
BRANCH   8   9
ATOM      9  C   UNL     1     168.324 198.246 183.361  1.00  0.00     0.041 C 
ATOM     10  O   UNL     1     169.507 197.823 183.277  1.00  0.00    -0.550 OA
ATOM     11  O   UNL     1     168.022 199.274 184.244  1.00  0.00    -0.550 OA
ENDBRANCH   8   9
ENDBRANCH   7   8
ENDBRANCH   6   7
ENDBRANCH   5   6
ENDBRANCH   4   5
ENDBRANCH   3   4
ENDBRANCH   2   3
ENDBRANCH   1   2
BRANCH   1  12
ATOM     12  C   UNL     1     166.213 194.730 186.476  1.00  0.00     0.000 C 
BRANCH  12  13
ATOM     13  C   UNL     1     167.166 195.563 185.606  1.00  0.00    -0.000 C 
BRANCH  13  14
ATOM     14  C   UNL     1     168.645 195.356 185.974  1.00  0.00    -0.000 C 
BRANCH  14  15
ATOM     15  C   UNL     1     169.479 194.605 184.916  1.00  0.00    -0.000 C 
BRANCH  15  16
ATOM     16  C   UNL     1     168.759 194.340 183.579  1.00  0.00    -0.000 C 
BRANCH  16  17
ATOM     17  C   UNL     1     168.645 192.856 183.181  1.00  0.00    -0.000 C 
BRANCH  17  18
ATOM     18  C   UNL     1     168.828 191.904 184.375  1.00  0.00    -0.000 C 
BRANCH  18  19
ATOM     19  C   UNL     1     167.488 191.413 184.946  1.00  0.00    -0.003 C 
ATOM     20  C   UNL     1     167.506 191.275 186.469  1.00  0.00     0.004 C 
ENDBRANCH  18  19
ENDBRANCH  17  18
ENDBRANCH  16  17
ENDBRANCH  15  16
ENDBRANCH  14  15
ENDBRANCH  13  14
ENDBRANCH  12  13
ENDBRANCH   1  12
TORSDOF 16
ENDMDL
MODEL 6
REMARK VINA RESULT:     0.056      8.787     10.935
REMARK INTER + INTRA:          -3.627
REMARK INTER:                   0.000
REMARK INTRA:                  -3.627
REMARK UNBOUND:                -3.735
REMARK SMILES CCCCCCCCCCCCCCCCCC(=O)[O-]
REMARK SMILES IDX 10 1 11 2 12 3 13 4 14 5 15 6 16 7 17 8 18 9 19 10 20 11
REMARK SMILES IDX 9 12 8 13 7 14 6 15 5 16 4 17 3 18 2 19 1 20
REMARK H PARENT
REMARK Flexibility Score: inf
ROOT
ATOM      1  C   UNL     1     171.384 195.334 181.869  1.00  0.00     0.000 C 
ENDROOT
BRANCH   1   2
ATOM      2  C   UNL     1     171.516 193.900 182.395  1.00  0.00     0.000 C 
BRANCH   2   3
ATOM      3  C   UNL     1     172.991 193.485 182.497  1.00  0.00     0.000 C 
BRANCH   3   4
ATOM      4  C   UNL     1     173.278 192.587 183.713  1.00  0.00     0.000 C 
BRANCH   4   5
ATOM      5  C   UNL     1     174.533 192.968 184.524  1.00  0.00     0.000 C 
BRANCH   5   6
ATOM      6  C   UNL     1     175.409 194.066 183.895  1.00  0.00     0.000 C 
BRANCH   6   7
ATOM      7  C   UNL     1     176.302 194.778 184.922  1.00  0.00     0.006 C 
BRANCH   7   8
ATOM      8  C   UNL     1     175.977 194.314 186.346  1.00  0.00     0.053 C 
BRANCH   8   9
ATOM      9  C   UNL     1     175.776 195.492 187.247  1.00  0.00     0.041 C 
ATOM     10  O   UNL     1     175.071 195.384 188.284  1.00  0.00    -0.550 OA
ATOM     11  O   UNL     1     176.323 196.724 186.911  1.00  0.00    -0.550 OA
ENDBRANCH   8   9
ENDBRANCH   7   8
ENDBRANCH   6   7
ENDBRANCH   5   6
ENDBRANCH   4   5
ENDBRANCH   3   4
ENDBRANCH   2   3
ENDBRANCH   1   2
BRANCH   1  12
ATOM     12  C   UNL     1     172.704 196.100 182.023  1.00  0.00     0.000 C 
BRANCH  12  13
ATOM     13  C   UNL     1     172.458 197.615 182.068  1.00  0.00    -0.000 C 
BRANCH  13  14
ATOM     14  C   UNL     1     172.942 198.261 183.378  1.00  0.00    -0.000 C 
BRANCH  14  15
ATOM     15  C   UNL     1     173.633 197.295 184.361  1.00  0.00    -0.000 C 
BRANCH  15  16
ATOM     16  C   UNL     1     172.849 197.004 185.656  1.00  0.00    -0.000 C 
BRANCH  16  17
ATOM     17  C   UNL     1     172.275 195.579 185.766  1.00  0.00    -0.000 C 
BRANCH  17  18
ATOM     18  C   UNL     1     170.749 195.536 185.574  1.00  0.00    -0.000 C 
BRANCH  18  19
ATOM     19  C   UNL     1     170.119 196.938 185.556  1.00  0.00    -0.003 C 
ATOM     20  C   UNL     1     169.341 197.223 184.270  1.00  0.00     0.004 C 
ENDBRANCH  18  19
ENDBRANCH  17  18
ENDBRANCH  16  17
ENDBRANCH  15  16
ENDBRANCH  14  15
ENDBRANCH  13  14
ENDBRANCH  12  13
ENDBRANCH   1  12
TORSDOF 16
ENDMDL
MODEL 7
REMARK VINA RESULT:     0.065      4.338      7.171
REMARK INTER + INTRA:          -3.610
REMARK INTER:                   0.000
REMARK INTRA:                  -3.610
REMARK UNBOUND:                -3.735
REMARK SMILES CCCCCCCCCCCCCCCCCC(=O)[O-]
REMARK SMILES IDX 10 1 11 2 12 3 13 4 14 5 15 6 16 7 17 8 18 9 19 10 20 11
REMARK SMILES IDX 9 12 8 13 7 14 6 15 5 16 4 17 3 18 2 19 1 20
REMARK H PARENT
REMARK Flexibility Score: inf
ROOT
ATOM      1  C   UNL     1     166.368 190.203 186.437  1.00  0.00     0.000 C 
ENDROOT
BRANCH   1   2
ATOM      2  C   UNL     1     165.172 190.685 185.607  1.00  0.00     0.000 C 
BRANCH   2   3
ATOM      3  C   UNL     1     163.863 190.548 186.398  1.00  0.00     0.000 C 
BRANCH   3   4
ATOM      4  C   UNL     1     164.077 189.988 187.816  1.00  0.00     0.000 C 
BRANCH   4   5
ATOM      5  C   UNL     1     163.618 190.915 188.959  1.00  0.00     0.000 C 
BRANCH   5   6
ATOM      6  C   UNL     1     164.723 191.791 189.575  1.00  0.00     0.000 C 
BRANCH   6   7
ATOM      7  C   UNL     1     165.907 190.970 190.108  1.00  0.00     0.006 C 
BRANCH   7   8
ATOM      8  C   UNL     1     167.182 191.818 190.164  1.00  0.00     0.053 C 
BRANCH   8   9
ATOM      9  C   UNL     1     166.993 192.987 191.078  1.00  0.00     0.041 C 
ATOM     10  O   UNL     1     166.747 192.804 192.299  1.00  0.00    -0.550 OA
ATOM     11  O   UNL     1     167.034 194.279 190.570  1.00  0.00    -0.550 OA
ENDBRANCH   8   9
ENDBRANCH   7   8
ENDBRANCH   6   7
ENDBRANCH   5   6
ENDBRANCH   4   5
ENDBRANCH   3   4
ENDBRANCH   2   3
ENDBRANCH   1   2
BRANCH   1  12
ATOM     12  C   UNL     1     167.450 191.287 186.524  1.00  0.00     0.000 C 
BRANCH  12  13
ATOM     13  C   UNL     1     166.938 192.621 185.961  1.00  0.00    -0.000 C 
BRANCH  13  14
ATOM     14  C   UNL     1     166.868 193.731 187.025  1.00  0.00    -0.000 C 
BRANCH  14  15
ATOM     15  C   UNL     1     165.479 194.377 187.200  1.00  0.00    -0.000 C 
BRANCH  15  16
ATOM     16  C   UNL     1     164.567 194.319 185.959  1.00  0.00    -0.000 C 
BRANCH  16  17
ATOM     17  C   UNL     1     163.065 194.151 186.259  1.00  0.00    -0.000 C 
BRANCH  17  18
ATOM     18  C   UNL     1     162.724 194.387 187.740  1.00  0.00    -0.000 C 
BRANCH  18  19
ATOM     19  C   UNL     1     161.399 193.724 188.151  1.00  0.00    -0.003 C 
ATOM     20  C   UNL     1     160.880 192.735 187.106  1.00  0.00     0.004 C 
ENDBRANCH  18  19
ENDBRANCH  17  18
ENDBRANCH  16  17
ENDBRANCH  15  16
ENDBRANCH  14  15
ENDBRANCH  13  14
ENDBRANCH  12  13
ENDBRANCH   1  12
TORSDOF 16
ENDMDL
MODEL 8
REMARK VINA RESULT:     0.067      3.519      5.799
REMARK INTER + INTRA:          -3.606
REMARK INTER:                   0.000
REMARK INTRA:                  -3.606
REMARK UNBOUND:                -3.735
REMARK SMILES CCCCCCCCCCCCCCCCCC(=O)[O-]
REMARK SMILES IDX 10 1 11 2 12 3 13 4 14 5 15 6 16 7 17 8 18 9 19 10 20 11
REMARK SMILES IDX 9 12 8 13 7 14 6 15 5 16 4 17 3 18 2 19 1 20
REMARK H PARENT
REMARK Flexibility Score: inf
ROOT
ATOM      1  C   UNL     1     165.527 192.670 192.971  1.00  0.00     0.000 C 
ENDROOT
BRANCH   1   2
ATOM      2  C   UNL     1     165.962 191.555 193.929  1.00  0.00     0.000 C 
BRANCH   2   3
ATOM      3  C   UNL     1     167.442 191.200 193.722  1.00  0.00     0.000 C 
BRANCH   3   4
ATOM      4  C   UNL     1     168.150 192.138 192.729  1.00  0.00     0.000 C 
BRANCH   4   5
ATOM      5  C   UNL     1     168.984 191.430 191.643  1.00  0.00     0.000 C 
BRANCH   5   6
ATOM      6  C   UNL     1     169.099 192.188 190.308  1.00  0.00     0.000 C 
BRANCH   6   7
ATOM      7  C   UNL     1     169.270 191.251 189.103  1.00  0.00     0.006 C 
BRANCH   7   8
ATOM      8  C   UNL     1     169.771 189.873 189.545  1.00  0.00     0.053 C 
BRANCH   8   9
ATOM      9  C   UNL     1     169.326 188.820 188.580  1.00  0.00     0.041 C 
ATOM     10  O   UNL     1     169.785 187.651 188.661  1.00  0.00    -0.550 OA
ATOM     11  O   UNL     1     168.446 189.144 187.555  1.00  0.00    -0.550 OA
ENDBRANCH   8   9
ENDBRANCH   7   8
ENDBRANCH   6   7
ENDBRANCH   5   6
ENDBRANCH   4   5
ENDBRANCH   3   4
ENDBRANCH   2   3
ENDBRANCH   1   2
BRANCH   1  12
ATOM     12  C   UNL     1     164.134 192.388 192.394  1.00  0.00     0.000 C 
BRANCH  12  13
ATOM     13  C   UNL     1     164.107 192.632 190.878  1.00  0.00    -0.000 C 
BRANCH  13  14
ATOM     14  C   UNL     1     165.409 192.199 190.181  1.00  0.00    -0.000 C 
BRANCH  14  15
ATOM     15  C   UNL     1     165.351 190.822 189.492  1.00  0.00    -0.000 C 
BRANCH  15  16
ATOM     16  C   UNL     1     166.072 189.682 190.240  1.00  0.00    -0.000 C 
BRANCH  16  17
ATOM     17  C   UNL     1     165.249 189.008 191.354  1.00  0.00    -0.000 C 
BRANCH  17  18
ATOM     18  C   UNL     1     166.099 188.093 192.251  1.00  0.00    -0.000 C 
BRANCH  18  19
ATOM     19  C   UNL     1     167.475 187.783 191.639  1.00  0.00    -0.003 C 
ATOM     20  C   UNL     1     168.607 187.831 192.666  1.00  0.00     0.004 C 
ENDBRANCH  18  19
ENDBRANCH  17  18
ENDBRANCH  16  17
ENDBRANCH  15  16
ENDBRANCH  14  15
ENDBRANCH  13  14
ENDBRANCH  12  13
ENDBRANCH   1  12
TORSDOF 16
ENDMDL
MODEL 9
REMARK VINA RESULT:     0.068      6.831      9.178
REMARK INTER + INTRA:          -3.604
REMARK INTER:                   0.000
REMARK INTRA:                  -3.604
REMARK UNBOUND:                -3.735
REMARK SMILES CCCCCCCCCCCCCCCCCC(=O)[O-]
REMARK SMILES IDX 10 1 11 2 12 3 13 4 14 5 15 6 16 7 17 8 18 9 19 10 20 11
REMARK SMILES IDX 9 12 8 13 7 14 6 15 5 16 4 17 3 18 2 19 1 20
REMARK H PARENT
REMARK Flexibility Score: inf
ROOT
ATOM      1  C   UNL     1     165.000 193.665 191.902  1.00  0.00     0.000 C 
ENDROOT
BRANCH   1   2
ATOM      2  C   UNL     1     165.745 192.879 190.816  1.00  0.00     0.000 C 
BRANCH   2   3
ATOM      3  C   UNL     1     165.943 193.734 189.556  1.00  0.00     0.000 C 
BRANCH   3   4
ATOM      4  C   UNL     1     164.789 194.724 189.317  1.00  0.00     0.000 C 
BRANCH   4   5
ATOM      5  C   UNL     1     165.216 196.196 189.145  1.00  0.00     0.000 C 
BRANCH   5   6
ATOM      6  C   UNL     1     164.676 197.163 190.213  1.00  0.00     0.000 C 
BRANCH   6   7
ATOM      7  C   UNL     1     165.617 197.307 191.419  1.00  0.00     0.006 C 
BRANCH   7   8
ATOM      8  C   UNL     1     167.078 197.115 191.000  1.00  0.00     0.053 C 
BRANCH   8   9
ATOM      9  C   UNL     1     167.752 196.123 191.895  1.00  0.00     0.041 C 
ATOM     10  O   UNL     1     168.561 195.285 191.417  1.00  0.00    -0.550 OA
ATOM     11  O   UNL     1     167.445 196.088 193.249  1.00  0.00    -0.550 OA
ENDBRANCH   8   9
ENDBRANCH   7   8
ENDBRANCH   6   7
ENDBRANCH   5   6
ENDBRANCH   4   5
ENDBRANCH   3   4
ENDBRANCH   2   3
ENDBRANCH   1   2
BRANCH   1  12
ATOM     12  C   UNL     1     163.987 192.774 192.631  1.00  0.00     0.000 C 
BRANCH  12  13
ATOM     13  C   UNL     1     162.872 193.616 193.266  1.00  0.00    -0.000 C 
BRANCH  13  14
ATOM     14  C   UNL     1     163.127 195.129 193.152  1.00  0.00    -0.000 C 
BRANCH  14  15
ATOM     15  C   UNL     1     162.015 195.923 192.438  1.00  0.00    -0.000 C 
BRANCH  15  16
ATOM     16  C   UNL     1     161.109 195.094 191.507  1.00  0.00    -0.000 C 
BRANCH  16  17
ATOM     17  C   UNL     1     161.259 195.401 190.005  1.00  0.00    -0.000 C 
BRANCH  17  18
ATOM     18  C   UNL     1     161.208 194.137 189.130  1.00  0.00    -0.000 C 
BRANCH  18  19
ATOM     19  C   UNL     1     161.369 192.848 189.951  1.00  0.00    -0.003 C 
ATOM     20  C   UNL     1     162.399 191.887 189.354  1.00  0.00     0.004 C 
ENDBRANCH  18  19
ENDBRANCH  17  18
ENDBRANCH  16  17
ENDBRANCH  15  16
ENDBRANCH  14  15
ENDBRANCH  13  14
ENDBRANCH  12  13
ENDBRANCH   1  12
TORSDOF 16
ENDMDL
