MODEL 1
REMARK VINA RESULT:    -3.132      0.000      0.000
REMARK INTER + INTRA:          -4.220
REMARK INTER:                  -4.047
REMARK INTRA:                  -0.173
REMARK UNBOUND:                -0.173
REMARK SMILES CCO[C@H]1O[C@H](CO)[C@H](O)[C@H](O)[C@@H]1O
REMARK SMILES IDX 4 1 13 2 11 3 9 4 6 5 5 6 3 7 2 8 1 9 14 10 12 12 7 14 8 15
REMARK SMILES IDX 10 17
REMARK H PARENT 14 11 12 13 8 16 10 18
REMARK Flexibility Score: inf
ROOT
ATOM      1  C   UNL     1     -12.656 -22.399  17.902  1.00  0.00     0.281 C 
ATOM      2  C   UNL     1     -11.368 -21.544  17.815  1.00  0.00     0.202 C 
ATOM      3  C   UNL     1     -11.550 -20.400  16.798  1.00  0.00     0.179 C 
ATOM      4  C   UNL     1     -12.089 -20.938  15.463  1.00  0.00     0.177 C 
ATOM      5  C   UNL     1     -13.345 -21.795  15.734  1.00  0.00     0.178 C 
ATOM      6  O   UNL     1     -13.044 -22.866  16.617  1.00  0.00    -0.341 OA
ENDROOT
BRANCH   1   7
ATOM      7  O   UNL     1     -13.714 -21.655  18.494  1.00  0.00    -0.350 OA
BRANCH   7   8
ATOM      8  C   UNL     1     -14.732 -22.510  18.971  1.00  0.00     0.160 C 
ATOM      9  C   UNL     1     -16.062 -22.087  18.369  1.00  0.00     0.035 C 
ENDBRANCH   7   8
ENDBRANCH   1   7
BRANCH   2  10
ATOM     10  O   UNL     1     -10.282 -22.352  17.434  1.00  0.00    -0.385 OA
ATOM     11  H   UNL     1      -9.690 -22.429  18.227  1.00  0.00     0.211 HD
ENDBRANCH   2  10
BRANCH   3  12
ATOM     12  O   UNL     1     -10.333 -19.732  16.583  1.00  0.00    -0.387 OA
ATOM     13  H   UNL     1      -9.899 -19.637  17.471  1.00  0.00     0.211 HD
ENDBRANCH   3  12
BRANCH   5  14
ATOM     14  C   UNL     1     -13.917 -22.371  14.430  1.00  0.00     0.191 C 
BRANCH  14  15
ATOM     15  O   UNL     1     -14.678 -21.403  13.761  1.00  0.00    -0.394 OA
ATOM     16  H   UNL     1     -15.441 -21.879  13.342  1.00  0.00     0.210 HD
ENDBRANCH  14  15
ENDBRANCH   5  14
BRANCH   4  17
ATOM     17  O   UNL     1     -11.095 -21.702  14.824  1.00  0.00    -0.387 OA
ATOM     18  H   UNL     1     -11.560 -22.359  14.243  1.00  0.00     0.211 HD
ENDBRANCH   4  17
TORSDOF 7
ENDMDL
MODEL 2
REMARK VINA RESULT:    -3.110      1.386      3.206
REMARK INTER + INTRA:          -4.191
REMARK INTER:                  -3.982
REMARK INTRA:                  -0.209
REMARK UNBOUND:                -0.173
REMARK SMILES CCO[C@H]1O[C@H](CO)[C@H](O)[C@H](O)[C@@H]1O
REMARK SMILES IDX 4 1 13 2 11 3 9 4 6 5 5 6 3 7 2 8 1 9 14 10 12 12 7 14 8 15
REMARK SMILES IDX 10 17
REMARK H PARENT 14 11 12 13 8 16 10 18
REMARK Flexibility Score: inf
ROOT
ATOM      1  C   UNL     1     -13.769 -21.977  16.930  1.00  0.00     0.281 C 
ATOM      2  C   UNL     1     -13.397 -22.366  15.478  1.00  0.00     0.202 C 
ATOM      3  C   UNL     1     -11.929 -22.832  15.406  1.00  0.00     0.179 C 
ATOM      4  C   UNL     1     -11.000 -21.815  16.085  1.00  0.00     0.177 C 
ATOM      5  C   UNL     1     -11.534 -21.511  17.503  1.00  0.00     0.178 C 
ATOM      6  O   UNL     1     -12.862 -21.011  17.446  1.00  0.00    -0.341 OA
ENDROOT
BRANCH   1   7
ATOM      7  O   UNL     1     -13.792 -23.125  17.768  1.00  0.00    -0.350 OA
BRANCH   7   8
ATOM      8  C   UNL     1     -14.865 -23.064  18.685  1.00  0.00     0.160 C 
ATOM      9  C   UNL     1     -16.022 -22.310  18.049  1.00  0.00     0.035 C 
ENDBRANCH   7   8
ENDBRANCH   1   7
BRANCH   2  10
ATOM     10  O   UNL     1     -13.590 -21.267  14.623  1.00  0.00    -0.385 OA
ATOM     11  H   UNL     1     -12.870 -20.614  14.828  1.00  0.00     0.211 HD
ENDBRANCH   2  10
BRANCH   3  12
ATOM     12  O   UNL     1     -11.535 -23.017  14.070  1.00  0.00    -0.387 OA
ATOM     13  H   UNL     1     -12.278 -22.682  13.504  1.00  0.00     0.211 HD
ENDBRANCH   3  12
BRANCH   5  14
ATOM     14  C   UNL     1     -10.647 -20.485  18.223  1.00  0.00     0.191 C 
BRANCH  14  15
ATOM     15  O   UNL     1     -11.409 -19.377  18.624  1.00  0.00    -0.394 OA
ATOM     16  H   UNL     1     -12.001 -19.689  19.357  1.00  0.00     0.210 HD
ENDBRANCH  14  15
ENDBRANCH   5  14
BRANCH   4  17
ATOM     17  O   UNL     1     -10.940 -20.639  15.316  1.00  0.00    -0.387 OA
ATOM     18  H   UNL     1     -11.201 -20.883  14.389  1.00  0.00     0.211 HD
ENDBRANCH   4  17
TORSDOF 7
ENDMDL
MODEL 3
REMARK VINA RESULT:    -3.007      1.577      3.718
REMARK INTER + INTRA:          -4.059
REMARK INTER:                  -3.687
REMARK INTRA:                  -0.372
REMARK UNBOUND:                -0.173
REMARK SMILES CCO[C@H]1O[C@H](CO)[C@H](O)[C@H](O)[C@@H]1O
REMARK SMILES IDX 4 1 13 2 11 3 9 4 6 5 5 6 3 7 2 8 1 9 14 10 12 12 7 14 8 15
REMARK SMILES IDX 10 17
REMARK H PARENT 14 11 12 13 8 16 10 18
REMARK Flexibility Score: inf
ROOT
ATOM      1  C   UNL     1     -12.119 -21.498  16.094  1.00  0.00     0.281 C 
ATOM      2  C   UNL     1     -11.101 -20.479  16.663  1.00  0.00     0.202 C 
ATOM      3  C   UNL     1     -10.755 -20.826  18.125  1.00  0.00     0.179 C 
ATOM      4  C   UNL     1     -12.033 -21.031  18.954  1.00  0.00     0.177 C 
ATOM      5  C   UNL     1     -12.949 -22.042  18.229  1.00  0.00     0.178 C 
ATOM      6  O   UNL     1     -13.271 -21.585  16.923  1.00  0.00    -0.341 OA
ENDROOT
BRANCH   1   7
ATOM      7  O   UNL     1     -11.520 -22.780  15.951  1.00  0.00    -0.350 OA
BRANCH   7   8
ATOM      8  C   UNL     1     -11.371 -23.123  14.589  1.00  0.00     0.160 C 
ATOM      9  C   UNL     1     -12.727 -23.052  13.905  1.00  0.00     0.035 C 
ENDBRANCH   7   8
ENDBRANCH   1   7
BRANCH   2  10
ATOM     10  O   UNL     1     -11.635 -19.181  16.595  1.00  0.00    -0.385 OA
ATOM     11  H   UNL     1     -11.181 -18.723  15.839  1.00  0.00     0.211 HD
ENDBRANCH   2  10
BRANCH   3  12
ATOM     12  O   UNL     1      -9.975 -19.810  18.701  1.00  0.00    -0.387 OA
ATOM     13  H   UNL     1      -9.267 -19.585  18.042  1.00  0.00     0.211 HD
ENDBRANCH   3  12
BRANCH   5  14
ATOM     14  C   UNL     1     -14.250 -22.273  19.010  1.00  0.00     0.191 C 
BRANCH  14  15
ATOM     15  O   UNL     1     -15.159 -21.234  18.762  1.00  0.00    -0.394 OA
ATOM     16  H   UNL     1     -15.548 -20.980  19.640  1.00  0.00     0.210 HD
ENDBRANCH  14  15
ENDBRANCH   5  14
BRANCH   4  17
ATOM     17  O   UNL     1     -12.691 -19.799  19.125  1.00  0.00    -0.387 OA
ATOM     18  H   UNL     1     -12.461 -19.234  18.342  1.00  0.00     0.211 HD
ENDBRANCH   4  17
TORSDOF 7
ENDMDL
MODEL 4
REMARK VINA RESULT:    -2.964      1.722      3.532
REMARK INTER + INTRA:          -4.003
REMARK INTER:                  -4.041
REMARK INTRA:                   0.038
REMARK UNBOUND:                -0.173
REMARK SMILES CCO[C@H]1O[C@H](CO)[C@H](O)[C@H](O)[C@@H]1O
REMARK SMILES IDX 4 1 13 2 11 3 9 4 6 5 5 6 3 7 2 8 1 9 14 10 12 12 7 14 8 15
REMARK SMILES IDX 10 17
REMARK H PARENT 14 11 12 13 8 16 10 18
REMARK Flexibility Score: inf
ROOT
ATOM      1  C   UNL     1     -10.803 -21.827  16.194  1.00  0.00     0.281 C 
ATOM      2  C   UNL     1     -12.033 -21.332  16.994  1.00  0.00     0.202 C 
ATOM      3  C   UNL     1     -13.246 -22.248  16.735  1.00  0.00     0.179 C 
ATOM      4  C   UNL     1     -13.464 -22.451  15.228  1.00  0.00     0.177 C 
ATOM      5  C   UNL     1     -12.136 -22.904  14.581  1.00  0.00     0.178 C 
ATOM      6  O   UNL     1     -11.110 -21.950  14.812  1.00  0.00    -0.341 OA
ENDROOT
BRANCH   1   7
ATOM      7  O   UNL     1     -10.337 -23.070  16.705  1.00  0.00    -0.350 OA
BRANCH   7   8
ATOM      8  C   UNL     1     -10.471 -23.125  18.110  1.00  0.00     0.160 C 
ATOM      9  C   UNL     1      -9.088 -23.125  18.743  1.00  0.00     0.035 C 
ENDBRANCH   7   8
ENDBRANCH   1   7
BRANCH   2  10
ATOM     10  O   UNL     1     -12.345 -20.013  16.624  1.00  0.00    -0.385 OA
ATOM     11  H   UNL     1     -11.600 -19.691  16.052  1.00  0.00     0.211 HD
ENDBRANCH   2  10
BRANCH   3  12
ATOM     12  O   UNL     1     -14.406 -21.707  17.313  1.00  0.00    -0.387 OA
ATOM     13  H   UNL     1     -14.314 -21.819  18.296  1.00  0.00     0.211 HD
ENDBRANCH   3  12
BRANCH   5  14
ATOM     14  C   UNL     1     -12.295 -23.108  13.068  1.00  0.00     0.191 C 
BRANCH  14  15
ATOM     15  O   UNL     1     -11.322 -22.376  12.372  1.00  0.00    -0.394 OA
ATOM     16  H   UNL     1     -10.533 -22.971  12.275  1.00  0.00     0.210 HD
ENDBRANCH  14  15
ENDBRANCH   5  14
BRANCH   4  17
ATOM     17  O   UNL     1     -13.913 -21.250  14.648  1.00  0.00    -0.387 OA
ATOM     18  H   UNL     1     -14.076 -20.610  15.389  1.00  0.00     0.211 HD
ENDBRANCH   4  17
TORSDOF 7
ENDMDL
MODEL 5
REMARK VINA RESULT:    -2.927      1.481      1.713
REMARK INTER + INTRA:          -3.955
REMARK INTER:                  -3.564
REMARK INTRA:                  -0.391
REMARK UNBOUND:                -0.173
REMARK SMILES CCO[C@H]1O[C@H](CO)[C@H](O)[C@H](O)[C@@H]1O
REMARK SMILES IDX 4 1 13 2 11 3 9 4 6 5 5 6 3 7 2 8 1 9 14 10 12 12 7 14 8 15
REMARK SMILES IDX 10 17
REMARK H PARENT 14 11 12 13 8 16 10 18
REMARK Flexibility Score: inf
ROOT
ATOM      1  C   UNL     1     -13.694 -22.483  17.775  1.00  0.00     0.281 C 
ATOM      2  C   UNL     1     -12.661 -21.549  18.451  1.00  0.00     0.202 C 
ATOM      3  C   UNL     1     -12.134 -20.511  17.441  1.00  0.00     0.179 C 
ATOM      4  C   UNL     1     -11.670 -21.196  16.146  1.00  0.00     0.177 C 
ATOM      5  C   UNL     1     -12.800 -22.115  15.629  1.00  0.00     0.178 C 
ATOM      6  O   UNL     1     -13.150 -23.084  16.607  1.00  0.00    -0.341 OA
ENDROOT
BRANCH   1   7
ATOM      7  O   UNL     1     -14.881 -21.770  17.452  1.00  0.00    -0.350 OA
BRANCH   7   8
ATOM      8  C   UNL     1     -16.018 -22.602  17.548  1.00  0.00     0.160 C 
ATOM      9  C   UNL     1     -16.664 -22.724  16.177  1.00  0.00     0.035 C 
ENDBRANCH   7   8
ENDBRANCH   1   7
BRANCH   2  10
ATOM     10  O   UNL     1     -11.591 -22.307  18.958  1.00  0.00    -0.385 OA
ATOM     11  H   UNL     1     -11.752 -22.416  19.932  1.00  0.00     0.211 HD
ENDBRANCH   2  10
BRANCH   3  12
ATOM     12  O   UNL     1     -11.071 -19.778  17.996  1.00  0.00    -0.387 OA
ATOM     13  H   UNL     1     -10.555 -20.409  18.563  1.00  0.00     0.211 HD
ENDBRANCH   3  12
BRANCH   5  14
ATOM     14  C   UNL     1     -12.382 -22.838  14.341  1.00  0.00     0.191 C 
BRANCH  14  15
ATOM     15  O   UNL     1     -11.278 -22.200  13.758  1.00  0.00    -0.394 OA
ATOM     16  H   UNL     1     -11.552 -21.264  13.578  1.00  0.00     0.210 HD
ENDBRANCH  14  15
ENDBRANCH   5  14
BRANCH   4  17
ATOM     17  O   UNL     1     -10.502 -21.939  16.394  1.00  0.00    -0.387 OA
ATOM     18  H   UNL     1      -9.732 -21.327  16.256  1.00  0.00     0.211 HD
ENDBRANCH   4  17
TORSDOF 7
ENDMDL
MODEL 6
REMARK VINA RESULT:    -2.872      1.517      3.558
REMARK INTER + INTRA:          -3.885
REMARK INTER:                  -3.711
REMARK INTRA:                  -0.173
REMARK UNBOUND:                -0.173
REMARK SMILES CCO[C@H]1O[C@H](CO)[C@H](O)[C@H](O)[C@@H]1O
REMARK SMILES IDX 4 1 13 2 11 3 9 4 6 5 5 6 3 7 2 8 1 9 14 10 12 12 7 14 8 15
REMARK SMILES IDX 10 17
REMARK H PARENT 14 11 12 13 8 16 10 18
REMARK Flexibility Score: inf
ROOT
ATOM      1  C   UNL     1     -12.245 -21.667  15.384  1.00  0.00     0.281 C 
ATOM      2  C   UNL     1     -11.154 -21.141  16.347  1.00  0.00     0.202 C 
ATOM      3  C   UNL     1     -11.201 -21.909  17.683  1.00  0.00     0.179 C 
ATOM      4  C   UNL     1     -12.631 -21.941  18.244  1.00  0.00     0.177 C 
ATOM      5  C   UNL     1     -13.592 -22.451  17.148  1.00  0.00     0.178 C 
ATOM      6  O   UNL     1     -13.528 -21.624  15.995  1.00  0.00    -0.341 OA
ENDROOT
BRANCH   1   7
ATOM      7  O   UNL     1     -11.948 -22.992  14.962  1.00  0.00    -0.350 OA
BRANCH   7   8
ATOM      8  C   UNL     1     -11.818 -23.062  13.558  1.00  0.00     0.160 C 
ATOM      9  C   UNL     1     -13.203 -23.125  12.932  1.00  0.00     0.035 C 
ENDBRANCH   7   8
ENDBRANCH   1   7
BRANCH   2  10
ATOM     10  O   UNL     1     -11.343 -19.768  16.581  1.00  0.00    -0.385 OA
ATOM     11  H   UNL     1     -12.189 -19.678  17.095  1.00  0.00     0.211 HD
ENDBRANCH   2  10
BRANCH   3  12
ATOM     12  O   UNL     1     -10.336 -21.321  18.622  1.00  0.00    -0.387 OA
ATOM     13  H   UNL     1      -9.824 -22.060  19.041  1.00  0.00     0.211 HD
ENDBRANCH   3  12
BRANCH   5  14
ATOM     14  C   UNL     1     -15.042 -22.488  17.653  1.00  0.00     0.191 C 
BRANCH  14  15
ATOM     15  O   UNL     1     -15.923 -22.092  16.637  1.00  0.00    -0.394 OA
ATOM     16  H   UNL     1     -15.813 -22.741  15.894  1.00  0.00     0.210 HD
ENDBRANCH  14  15
ENDBRANCH   5  14
BRANCH   4  17
ATOM     17  O   UNL     1     -13.002 -20.653  18.669  1.00  0.00    -0.387 OA
ATOM     18  H   UNL     1     -12.183 -20.092  18.656  1.00  0.00     0.211 HD
ENDBRANCH   4  17
TORSDOF 7
ENDMDL
