MODEL 1
REMARK VINA RESULT:    -5.742      0.000      0.000
REMARK INTER + INTRA:          -8.650
REMARK INTER:                  -7.756
REMARK INTRA:                  -0.894
REMARK UNBOUND:                -0.894
REMARK SMILES CC(=O)CCC=C(C)CCC=C(C)C
REMARK SMILES IDX 7 1 6 2 8 3 9 4 10 5 11 6 13 7 12 8 14 9 5 10 4 11 2 12 3 13
REMARK SMILES IDX 1 14
REMARK H PARENT
REMARK Flexibility Score: inf
ROOT
ATOM      1  C   UNL     1     121.868 179.160 127.519  1.00  0.00    -0.077 C 
ATOM      2  C   UNL     1     120.680 179.517 126.983  1.00  0.00    -0.028 C 
ATOM      3  C   UNL     1     123.156 179.305 126.743  1.00  0.00     0.039 C 
ENDROOT
BRANCH   1   4
ATOM      4  C   UNL     1     121.909 178.600 128.924  1.00  0.00     0.034 C 
BRANCH   4   5
ATOM      5  C   UNL     1     121.672 177.086 128.914  1.00  0.00     0.032 C 
BRANCH   5   6
ATOM      6  C   UNL     1     120.468 176.726 129.747  1.00  0.00    -0.028 C 
ATOM      7  C   UNL     1     118.967 176.479 127.757  1.00  0.00     0.039 C 
ATOM      8  C   UNL     1     119.236 176.483 129.241  1.00  0.00    -0.080 C 
ATOM      9  C   UNL     1     118.095 176.160 130.170  1.00  0.00     0.039 C 
ENDBRANCH   5   6
ENDBRANCH   4   5
ENDBRANCH   1   4
BRANCH   2  10
ATOM     10  C   UNL     1     120.540 180.087 125.590  1.00  0.00     0.035 C 
BRANCH  10  11
ATOM     11  C   UNL     1     120.034 179.043 124.586  1.00  0.00     0.079 C 
BRANCH  11  12
ATOM     12  C   UNL     1     121.007 178.828 123.455  1.00  0.00     0.130 C 
ATOM     13  O   UNL     1     121.979 178.104 123.619  1.00  0.00    -0.300 OA
ATOM     14  C   UNL     1     120.813 179.524 122.142  1.00  0.00     0.087 C 
ENDBRANCH  11  12
ENDBRANCH  10  11
ENDBRANCH   2  10
TORSDOF 6
ENDMDL
MODEL 2
REMARK VINA RESULT:    -5.575      1.861      2.077
REMARK INTER + INTRA:          -8.425
REMARK INTER:                  -7.568
REMARK INTRA:                  -0.857
REMARK UNBOUND:                -0.894
REMARK SMILES CC(=O)CCC=C(C)CCC=C(C)C
REMARK SMILES IDX 7 1 6 2 8 3 9 4 10 5 11 6 13 7 12 8 14 9 5 10 4 11 2 12 3 13
REMARK SMILES IDX 1 14
REMARK H PARENT
REMARK Flexibility Score: inf
ROOT
ATOM      1  C   UNL     1     121.463 179.209 127.258  1.00  0.00    -0.077 C 
ATOM      2  C   UNL     1     120.252 179.688 126.901  1.00  0.00    -0.028 C 
ATOM      3  C   UNL     1     122.576 179.053 126.248  1.00  0.00     0.039 C 
ENDROOT
BRANCH   1   4
ATOM      4  C   UNL     1     121.710 178.816 128.698  1.00  0.00     0.034 C 
BRANCH   4   5
ATOM      5  C   UNL     1     121.664 177.294 128.863  1.00  0.00     0.032 C 
BRANCH   5   6
ATOM      6  C   UNL     1     120.483 176.882 129.705  1.00  0.00    -0.028 C 
ATOM      7  C   UNL     1     119.027 176.416 127.720  1.00  0.00     0.039 C 
ATOM      8  C   UNL     1     119.280 176.516 129.204  1.00  0.00    -0.080 C 
ATOM      9  C   UNL     1     118.158 176.151 130.140  1.00  0.00     0.039 C 
ENDBRANCH   5   6
ENDBRANCH   4   5
ENDBRANCH   1   4
BRANCH   2  10
ATOM     10  C   UNL     1     119.913 180.107 125.489  1.00  0.00     0.035 C 
BRANCH  10  11
ATOM     11  C   UNL     1     119.207 178.991 124.707  1.00  0.00     0.079 C 
BRANCH  11  12
ATOM     12  C   UNL     1     117.729 179.250 124.561  1.00  0.00     0.130 C 
ATOM     13  O   UNL     1     117.089 179.667 125.516  1.00  0.00    -0.300 OA
ATOM     14  C   UNL     1     117.031 178.967 123.266  1.00  0.00     0.087 C 
ENDBRANCH  11  12
ENDBRANCH  10  11
ENDBRANCH   2  10
TORSDOF 6
ENDMDL
MODEL 3
REMARK VINA RESULT:    -5.526      2.465      6.119
REMARK INTER + INTRA:          -8.358
REMARK INTER:                  -7.418
REMARK INTRA:                  -0.940
REMARK UNBOUND:                -0.894
REMARK SMILES CC(=O)CCC=C(C)CCC=C(C)C
REMARK SMILES IDX 7 1 6 2 8 3 9 4 10 5 11 6 13 7 12 8 14 9 5 10 4 11 2 12 3 13
REMARK SMILES IDX 1 14
REMARK H PARENT
REMARK Flexibility Score: inf
ROOT
ATOM      1  C   UNL     1     120.263 177.842 127.549  1.00  0.00    -0.077 C 
ATOM      2  C   UNL     1     121.053 177.977 128.637  1.00  0.00    -0.028 C 
ATOM      3  C   UNL     1     119.910 176.481 126.998  1.00  0.00     0.039 C 
ENDROOT
BRANCH   1   4
ATOM      4  C   UNL     1     119.724 179.080 126.867  1.00  0.00     0.034 C 
BRANCH   4   5
ATOM      5  C   UNL     1     120.818 179.766 126.042  1.00  0.00     0.032 C 
BRANCH   5   6
ATOM      6  C   UNL     1     120.406 179.882 124.596  1.00  0.00    -0.028 C 
ATOM      7  C   UNL     1     121.956 178.065 123.842  1.00  0.00     0.039 C 
ATOM      8  C   UNL     1     120.934 179.145 123.591  1.00  0.00    -0.080 C 
ATOM      9  C   UNL     1     120.468 179.365 122.176  1.00  0.00     0.039 C 
ENDBRANCH   5   6
ENDBRANCH   4   5
ENDBRANCH   1   4
BRANCH   2  10
ATOM     10  C   UNL     1     121.635 176.800 129.386  1.00  0.00     0.035 C 
BRANCH  10  11
ATOM     11  C   UNL     1     120.922 176.554 130.723  1.00  0.00     0.079 C 
BRANCH  11  12
ATOM     12  C   UNL     1     119.766 175.598 130.580  1.00  0.00     0.130 C 
ATOM     13  O   UNL     1     119.967 174.393 130.612  1.00  0.00    -0.300 OA
ATOM     14  C   UNL     1     118.376 176.113 130.363  1.00  0.00     0.087 C 
ENDBRANCH  11  12
ENDBRANCH  10  11
ENDBRANCH   2  10
TORSDOF 6
ENDMDL
MODEL 4
REMARK VINA RESULT:    -5.520      1.713      1.952
REMARK INTER + INTRA:          -8.350
REMARK INTER:                  -7.479
REMARK INTRA:                  -0.870
REMARK UNBOUND:                -0.894
REMARK SMILES CC(=O)CCC=C(C)CCC=C(C)C
REMARK SMILES IDX 7 1 6 2 8 3 9 4 10 5 11 6 13 7 12 8 14 9 5 10 4 11 2 12 3 13
REMARK SMILES IDX 1 14
REMARK H PARENT
REMARK Flexibility Score: inf
ROOT
ATOM      1  C   UNL     1     122.413 178.904 128.592  1.00  0.00    -0.077 C 
ATOM      2  C   UNL     1     121.298 178.856 127.832  1.00  0.00    -0.028 C 
ATOM      3  C   UNL     1     123.790 178.852 127.973  1.00  0.00     0.039 C 
ENDROOT
BRANCH   1   4
ATOM      4  C   UNL     1     122.281 179.008 130.096  1.00  0.00     0.034 C 
BRANCH   4   5
ATOM      5  C   UNL     1     122.630 177.676 130.767  1.00  0.00     0.032 C 
BRANCH   5   6
ATOM      6  C   UNL     1     121.380 176.911 131.122  1.00  0.00    -0.028 C 
ATOM      7  C   UNL     1     121.585 175.356 129.169  1.00  0.00     0.039 C 
ATOM      8  C   UNL     1     120.881 175.886 130.392  1.00  0.00    -0.080 C 
ATOM      9  C   UNL     1     119.605 175.210 130.825  1.00  0.00     0.039 C 
ENDBRANCH   5   6
ENDBRANCH   4   5
ENDBRANCH   1   4
BRANCH   2  10
ATOM     10  C   UNL     1     121.331 178.754 126.324  1.00  0.00     0.035 C 
BRANCH  10  11
ATOM     11  C   UNL     1     120.570 179.904 125.650  1.00  0.00     0.079 C 
BRANCH  11  12
ATOM     12  C   UNL     1     119.884 179.462 124.383  1.00  0.00     0.130 C 
ATOM     13  O   UNL     1     118.708 179.127 124.414  1.00  0.00    -0.300 OA
ATOM     14  C   UNL     1     120.641 179.394 123.092  1.00  0.00     0.087 C 
ENDBRANCH  11  12
ENDBRANCH  10  11
ENDBRANCH   2  10
TORSDOF 6
ENDMDL
MODEL 5
REMARK VINA RESULT:    -5.515      2.377      5.907
REMARK INTER + INTRA:          -8.344
REMARK INTER:                  -7.529
REMARK INTRA:                  -0.815
REMARK UNBOUND:                -0.894
REMARK SMILES CC(=O)CCC=C(C)CCC=C(C)C
REMARK SMILES IDX 7 1 6 2 8 3 9 4 10 5 11 6 13 7 12 8 14 9 5 10 4 11 2 12 3 13
REMARK SMILES IDX 1 14
REMARK H PARENT
REMARK Flexibility Score: inf
ROOT
ATOM      1  C   UNL     1     122.309 178.957 127.618  1.00  0.00    -0.077 C 
ATOM      2  C   UNL     1     123.178 179.009 128.650  1.00  0.00    -0.028 C 
ATOM      3  C   UNL     1     120.816 178.951 127.847  1.00  0.00     0.039 C 
ENDROOT
BRANCH   1   4
ATOM      4  C   UNL     1     122.841 178.900 126.203  1.00  0.00     0.034 C 
BRANCH   4   5
ATOM      5  C   UNL     1     122.061 177.878 125.369  1.00  0.00     0.032 C 
BRANCH   5   6
ATOM      6  C   UNL     1     121.899 178.358 123.948  1.00  0.00    -0.028 C 
ATOM      7  C   UNL     1     119.709 179.483 124.409  1.00  0.00     0.039 C 
ATOM      8  C   UNL     1     120.829 179.053 123.496  1.00  0.00    -0.080 C 
ATOM      9  C   UNL     1     120.757 179.457 122.046  1.00  0.00     0.039 C 
ENDBRANCH   5   6
ENDBRANCH   4   5
ENDBRANCH   1   4
BRANCH   2  10
ATOM     10  C   UNL     1     122.741 179.071 130.096  1.00  0.00     0.035 C 
BRANCH  10  11
ATOM     11  C   UNL     1     123.135 177.809 130.874  1.00  0.00     0.079 C 
BRANCH  11  12
ATOM     12  C   UNL     1     122.279 176.625 130.502  1.00  0.00     0.130 C 
ATOM     13  O   UNL     1     122.690 175.811 129.688  1.00  0.00    -0.300 OA
ATOM     14  C   UNL     1     120.914 176.458 131.095  1.00  0.00     0.087 C 
ENDBRANCH  11  12
ENDBRANCH  10  11
ENDBRANCH   2  10
TORSDOF 6
ENDMDL
MODEL 6
REMARK VINA RESULT:    -5.472      2.480      5.967
REMARK INTER + INTRA:          -8.286
REMARK INTER:                  -7.424
REMARK INTRA:                  -0.862
REMARK UNBOUND:                -0.894
REMARK SMILES CC(=O)CCC=C(C)CCC=C(C)C
REMARK SMILES IDX 7 1 6 2 8 3 9 4 10 5 11 6 13 7 12 8 14 9 5 10 4 11 2 12 3 13
REMARK SMILES IDX 1 14
REMARK H PARENT
REMARK Flexibility Score: inf
ROOT
ATOM      1  C   UNL     1     119.577 177.911 127.361  1.00  0.00    -0.077 C 
ATOM      2  C   UNL     1     120.502 177.925 128.346  1.00  0.00    -0.028 C 
ATOM      3  C   UNL     1     119.024 176.614 126.820  1.00  0.00     0.039 C 
ENDROOT
BRANCH   1   4
ATOM      4  C   UNL     1     119.088 179.222 126.785  1.00  0.00     0.034 C 
BRANCH   4   5
ATOM      5  C   UNL     1     120.250 180.020 126.183  1.00  0.00     0.032 C 
BRANCH   5   6
ATOM      6  C   UNL     1     120.166 180.036 124.677  1.00  0.00    -0.028 C 
ATOM      7  C   UNL     1     121.816 178.171 124.407  1.00  0.00     0.039 C 
ATOM      8  C   UNL     1     120.890 179.231 123.865  1.00  0.00    -0.080 C 
ATOM      9  C   UNL     1     120.748 179.352 122.371  1.00  0.00     0.039 C 
ENDBRANCH   5   6
ENDBRANCH   4   5
ENDBRANCH   1   4
BRANCH   2  10
ATOM     10  C   UNL     1     121.048 176.668 128.983  1.00  0.00     0.035 C 
BRANCH  10  11
ATOM     11  C   UNL     1     121.395 176.874 130.464  1.00  0.00     0.079 C 
BRANCH  11  12
ATOM     12  C   UNL     1     122.718 177.573 130.642  1.00  0.00     0.130 C 
ATOM     13  O   UNL     1     123.759 176.952 130.481  1.00  0.00    -0.300 OA
ATOM     14  C   UNL     1     122.769 179.013 131.051  1.00  0.00     0.087 C 
ENDBRANCH  11  12
ENDBRANCH  10  11
ENDBRANCH   2  10
TORSDOF 6
ENDMDL
MODEL 7
REMARK VINA RESULT:    -5.425      2.316      4.171
REMARK INTER + INTRA:          -8.222
REMARK INTER:                  -7.214
REMARK INTRA:                  -1.008
REMARK UNBOUND:                -0.894
REMARK SMILES CC(=O)CCC=C(C)CCC=C(C)C
REMARK SMILES IDX 7 1 6 2 8 3 9 4 10 5 11 6 13 7 12 8 14 9 5 10 4 11 2 12 3 13
REMARK SMILES IDX 1 14
REMARK H PARENT
REMARK Flexibility Score: inf
ROOT
ATOM      1  C   UNL     1     120.907 178.738 127.647  1.00  0.00    -0.077 C 
ATOM      2  C   UNL     1     120.211 179.672 126.963  1.00  0.00    -0.028 C 
ATOM      3  C   UNL     1     120.248 177.475 128.146  1.00  0.00     0.039 C 
ENDROOT
BRANCH   1   4
ATOM      4  C   UNL     1     122.377 178.965 127.922  1.00  0.00     0.034 C 
BRANCH   4   5
ATOM      5  C   UNL     1     123.105 179.422 126.654  1.00  0.00     0.032 C 
BRANCH   5   6
ATOM      6  C   UNL     1     123.749 178.251 125.954  1.00  0.00    -0.028 C 
ATOM      7  C   UNL     1     121.977 178.129 124.188  1.00  0.00     0.039 C 
ATOM      8  C   UNL     1     123.233 177.639 124.862  1.00  0.00    -0.080 C 
ATOM      9  C   UNL     1     123.946 176.456 124.260  1.00  0.00     0.039 C 
ENDBRANCH   5   6
ENDBRANCH   4   5
ENDBRANCH   1   4
BRANCH   2  10
ATOM     10  C   UNL     1     118.741 179.533 126.638  1.00  0.00     0.035 C 
BRANCH  10  11
ATOM     11  C   UNL     1     118.449 179.789 125.153  1.00  0.00     0.079 C 
BRANCH  11  12
ATOM     12  C   UNL     1     117.716 178.638 124.514  1.00  0.00     0.130 C 
ATOM     13  O   UNL     1     117.544 177.603 125.143  1.00  0.00    -0.300 OA
ATOM     14  C   UNL     1     117.227 178.738 123.101  1.00  0.00     0.087 C 
ENDBRANCH  11  12
ENDBRANCH  10  11
ENDBRANCH   2  10
TORSDOF 6
ENDMDL
MODEL 8
REMARK VINA RESULT:    -5.300      2.086      3.445
REMARK INTER + INTRA:          -8.053
REMARK INTER:                  -7.081
REMARK INTRA:                  -0.971
REMARK UNBOUND:                -0.894
REMARK SMILES CC(=O)CCC=C(C)CCC=C(C)C
REMARK SMILES IDX 7 1 6 2 8 3 9 4 10 5 11 6 13 7 12 8 14 9 5 10 4 11 2 12 3 13
REMARK SMILES IDX 1 14
REMARK H PARENT
REMARK Flexibility Score: inf
ROOT
ATOM      1  C   UNL     1     122.490 178.720 125.882  1.00  0.00    -0.077 C 
ATOM      2  C   UNL     1     121.697 179.756 126.232  1.00  0.00    -0.028 C 
ATOM      3  C   UNL     1     122.152 177.832 124.708  1.00  0.00     0.039 C 
ENDROOT
BRANCH   1   4
ATOM      4  C   UNL     1     123.742 178.441 126.686  1.00  0.00     0.034 C 
BRANCH   4   5
ATOM      5  C   UNL     1     123.559 178.871 128.145  1.00  0.00     0.032 C 
BRANCH   5   6
ATOM      6  C   UNL     1     122.761 177.845 128.910  1.00  0.00    -0.028 C 
ATOM      7  C   UNL     1     122.614 179.261 130.970  1.00  0.00     0.039 C 
ATOM      8  C   UNL     1     122.358 177.995 130.193  1.00  0.00    -0.080 C 
ATOM      9  C   UNL     1     121.589 176.891 130.871  1.00  0.00     0.039 C 
ENDBRANCH   5   6
ENDBRANCH   4   5
ENDBRANCH   1   4
BRANCH   2  10
ATOM     10  C   UNL     1     120.430 180.113 125.489  1.00  0.00     0.035 C 
BRANCH  10  11
ATOM     11  C   UNL     1     119.175 179.890 126.344  1.00  0.00     0.079 C 
BRANCH  11  12
ATOM     12  C   UNL     1     118.820 178.430 126.456  1.00  0.00     0.130 C 
ATOM     13  O   UNL     1     118.177 177.891 125.567  1.00  0.00    -0.300 OA
ATOM     14  C   UNL     1     119.217 177.641 127.667  1.00  0.00     0.087 C 
ENDBRANCH  11  12
ENDBRANCH  10  11
ENDBRANCH   2  10
TORSDOF 6
ENDMDL
