MODEL 1
REMARK VINA RESULT:    -5.589      0.000      0.000
REMARK INTER + INTRA:          -6.485
REMARK INTER:                  -6.406
REMARK INTRA:                  -0.079
REMARK UNBOUND:                -0.079
REMARK SMILES COc1cc(C(=O)[O-])ccc1O
REMARK SMILES IDX 5 1 9 2 4 3 10 4 3 5 11 6 6 7 7 8 8 9 2 10 1 11 12 12
REMARK H PARENT 12 13
REMARK Flexibility Score: inf
ROOT
ATOM      1  C   UNL     1      17.736  26.431   1.019  1.00  0.00     0.001 A 
ATOM      2  C   UNL     1      18.172  25.660  -0.072  1.00  0.00     0.014 A 
ATOM      3  C   UNL     1      18.233  27.737   1.176  1.00  0.00     0.060 A 
ATOM      4  C   UNL     1      19.086  26.185  -0.987  1.00  0.00     0.051 A 
ATOM      5  C   UNL     1      19.157  28.271   0.255  1.00  0.00     0.161 A 
ATOM      6  C   UNL     1      19.581  27.484  -0.830  1.00  0.00     0.157 A 
ENDROOT
BRANCH   1   7
ATOM      7  C   UNL     1      16.765  25.877   1.990  1.00  0.00     0.072 C 
ATOM      8  O   UNL     1      16.686  26.348   3.156  1.00  0.00    -0.545 OA
ATOM      9  O   UNL     1      15.926  24.829   1.628  1.00  0.00    -0.545 OA
ENDBRANCH   1   7
BRANCH   5  10
ATOM     10  O   UNL     1      19.670  29.572   0.387  1.00  0.00    -0.493 OA
ATOM     11  C   UNL     1      19.347  30.466   1.448  1.00  0.00     0.278 C 
ENDBRANCH   5  10
BRANCH   6  12
ATOM     12  O   UNL     1      20.493  27.974  -1.764  1.00  0.00    -0.504 OA
ATOM     13  H   UNL     1      20.924  27.379  -2.461  1.00  0.00     0.293 HD
ENDBRANCH   6  12
TORSDOF 3
ENDMDL
MODEL 2
REMARK VINA RESULT:    -5.472      1.760      3.976
REMARK INTER + INTRA:          -6.351
REMARK INTER:                  -6.268
REMARK INTRA:                  -0.082
REMARK UNBOUND:                -0.079
REMARK SMILES COc1cc(C(=O)[O-])ccc1O
REMARK SMILES IDX 5 1 9 2 4 3 10 4 3 5 11 6 6 7 7 8 8 9 2 10 1 11 12 12
REMARK H PARENT 12 13
REMARK Flexibility Score: inf
ROOT
ATOM      1  C   UNL     1      18.501  28.112   0.849  1.00  0.00     0.001 A 
ATOM      2  C   UNL     1      19.450  27.942  -0.172  1.00  0.00     0.014 A 
ATOM      3  C   UNL     1      17.730  27.010   1.257  1.00  0.00     0.060 A 
ATOM      4  C   UNL     1      19.624  26.695  -0.774  1.00  0.00     0.051 A 
ATOM      5  C   UNL     1      17.901  25.748   0.653  1.00  0.00     0.161 A 
ATOM      6  C   UNL     1      18.857  25.599  -0.369  1.00  0.00     0.157 A 
ENDROOT
BRANCH   1   7
ATOM      7  C   UNL     1      18.315  29.434   1.490  1.00  0.00     0.072 C 
ATOM      8  O   UNL     1      17.296  30.131   1.239  1.00  0.00    -0.545 OA
ATOM      9  O   UNL     1      19.263  29.925   2.381  1.00  0.00    -0.545 OA
ENDBRANCH   1   7
BRANCH   5  10
ATOM     10  O   UNL     1      17.145  24.629   1.040  1.00  0.00    -0.493 OA
ATOM     11  C   UNL     1      15.727  24.615   1.165  1.00  0.00     0.278 C 
ENDBRANCH   5  10
BRANCH   6  12
ATOM     12  O   UNL     1      19.058  24.368  -0.993  1.00  0.00    -0.504 OA
ATOM     13  H   UNL     1      18.637  24.141  -1.885  1.00  0.00     0.293 HD
ENDBRANCH   6  12
TORSDOF 3
ENDMDL
MODEL 3
REMARK VINA RESULT:    -5.445      2.274      2.963
REMARK INTER + INTRA:          -6.320
REMARK INTER:                  -6.238
REMARK INTRA:                  -0.082
REMARK UNBOUND:                -0.079
REMARK SMILES COc1cc(C(=O)[O-])ccc1O
REMARK SMILES IDX 5 1 9 2 4 3 10 4 3 5 11 6 6 7 7 8 8 9 2 10 1 11 12 12
REMARK H PARENT 12 13
REMARK Flexibility Score: inf
ROOT
ATOM      1  C   UNL     1      16.667  26.513   1.033  1.00  0.00     0.001 A 
ATOM      2  C   UNL     1      15.494  27.086   0.515  1.00  0.00     0.014 A 
ATOM      3  C   UNL     1      17.694  27.355   1.496  1.00  0.00     0.060 A 
ATOM      4  C   UNL     1      15.351  28.473   0.460  1.00  0.00     0.051 A 
ATOM      5  C   UNL     1      17.554  28.757   1.442  1.00  0.00     0.161 A 
ATOM      6  C   UNL     1      16.372  29.310   0.919  1.00  0.00     0.157 A 
ENDROOT
BRANCH   1   7
ATOM      7  C   UNL     1      16.822  25.041   1.094  1.00  0.00     0.072 C 
ATOM      8  O   UNL     1      15.814  24.295   1.217  1.00  0.00    -0.545 OA
ATOM      9  O   UNL     1      18.083  24.462   1.014  1.00  0.00    -0.545 OA
ENDBRANCH   1   7
BRANCH   5  10
ATOM     10  O   UNL     1      18.562  29.622   1.897  1.00  0.00    -0.493 OA
ATOM     11  C   UNL     1      19.599  30.157   1.080  1.00  0.00     0.278 C 
ENDBRANCH   5  10
BRANCH   6  12
ATOM     12  O   UNL     1      16.192  30.692   0.848  1.00  0.00    -0.504 OA
ATOM     13  H   UNL     1      16.788  31.340   1.348  1.00  0.00     0.293 HD
ENDBRANCH   6  12
TORSDOF 3
ENDMDL
MODEL 4
REMARK VINA RESULT:    -5.405      2.672      4.998
REMARK INTER + INTRA:          -6.274
REMARK INTER:                  -6.179
REMARK INTRA:                  -0.095
REMARK UNBOUND:                -0.079
REMARK SMILES COc1cc(C(=O)[O-])ccc1O
REMARK SMILES IDX 5 1 9 2 4 3 10 4 3 5 11 6 6 7 7 8 8 9 2 10 1 11 12 12
REMARK H PARENT 12 13
REMARK Flexibility Score: inf
ROOT
ATOM      1  C   UNL     1      16.729  26.245   0.383  1.00  0.00     0.001 A 
ATOM      2  C   UNL     1      18.058  25.958   0.030  1.00  0.00     0.014 A 
ATOM      3  C   UNL     1      15.874  25.188   0.744  1.00  0.00     0.060 A 
ATOM      4  C   UNL     1      18.523  24.642   0.038  1.00  0.00     0.051 A 
ATOM      5  C   UNL     1      16.338  23.858   0.753  1.00  0.00     0.161 A 
ATOM      6  C   UNL     1      17.673  23.592   0.397  1.00  0.00     0.157 A 
ENDROOT
BRANCH   1   7
ATOM      7  C   UNL     1      16.233  27.640   0.376  1.00  0.00     0.072 C 
ATOM      8  O   UNL     1      16.339  28.353  -0.657  1.00  0.00    -0.545 OA
ATOM      9  O   UNL     1      15.642  28.183   1.511  1.00  0.00    -0.545 OA
ENDBRANCH   1   7
BRANCH   5  10
ATOM     10  O   UNL     1      15.507  22.783   1.110  1.00  0.00    -0.493 OA
ATOM     11  C   UNL     1      14.404  22.322   0.337  1.00  0.00     0.278 C 
ENDBRANCH   5  10
BRANCH   6  12
ATOM     12  O   UNL     1      18.173  22.290   0.393  1.00  0.00    -0.504 OA
ATOM     13  H   UNL     1      18.246  21.743  -0.456  1.00  0.00     0.293 HD
ENDBRANCH   6  12
TORSDOF 3
ENDMDL
MODEL 5
REMARK VINA RESULT:    -5.335      1.832      3.133
REMARK INTER + INTRA:          -6.194
REMARK INTER:                  -6.119
REMARK INTRA:                  -0.074
REMARK UNBOUND:                -0.079
REMARK SMILES COc1cc(C(=O)[O-])ccc1O
REMARK SMILES IDX 5 1 9 2 4 3 10 4 3 5 11 6 6 7 7 8 8 9 2 10 1 11 12 12
REMARK H PARENT 12 13
REMARK Flexibility Score: inf
ROOT
ATOM      1  C   UNL     1      17.092  25.005   0.807  1.00  0.00     0.001 A 
ATOM      2  C   UNL     1      16.645  25.590   2.003  1.00  0.00     0.014 A 
ATOM      3  C   UNL     1      17.922  25.750  -0.051  1.00  0.00     0.060 A 
ATOM      4  C   UNL     1      17.019  26.893   2.335  1.00  0.00     0.051 A 
ATOM      5  C   UNL     1      18.302  27.066   0.280  1.00  0.00     0.161 A 
ATOM      6  C   UNL     1      17.844  27.634   1.482  1.00  0.00     0.157 A 
ENDROOT
BRANCH   1   7
ATOM      7  C   UNL     1      16.698  23.623   0.453  1.00  0.00     0.072 C 
ATOM      8  O   UNL     1      17.551  22.696   0.442  1.00  0.00    -0.545 OA
ATOM      9  O   UNL     1      15.378  23.328   0.129  1.00  0.00    -0.545 OA
ENDBRANCH   1   7
BRANCH   5  10
ATOM     10  O   UNL     1      19.129  27.833  -0.557  1.00  0.00    -0.493 OA
ATOM     11  C   UNL     1      19.971  27.298  -1.574  1.00  0.00     0.278 C 
ENDBRANCH   5  10
BRANCH   6  12
ATOM     12  O   UNL     1      18.196  28.932   1.847  1.00  0.00    -0.504 OA
ATOM     13  H   UNL     1      17.777  29.747   1.415  1.00  0.00     0.293 HD
ENDBRANCH   6  12
TORSDOF 3
ENDMDL
MODEL 6
REMARK VINA RESULT:    -5.258      2.213      4.686
REMARK INTER + INTRA:          -6.106
REMARK INTER:                  -6.009
REMARK INTRA:                  -0.097
REMARK UNBOUND:                -0.079
REMARK SMILES COc1cc(C(=O)[O-])ccc1O
REMARK SMILES IDX 5 1 9 2 4 3 10 4 3 5 11 6 6 7 7 8 8 9 2 10 1 11 12 12
REMARK H PARENT 12 13
REMARK Flexibility Score: inf
ROOT
ATOM      1  C   UNL     1      17.925  28.867   0.796  1.00  0.00     0.001 A 
ATOM      2  C   UNL     1      16.678  29.492   0.961  1.00  0.00     0.014 A 
ATOM      3  C   UNL     1      17.985  27.617   0.154  1.00  0.00     0.060 A 
ATOM      4  C   UNL     1      15.514  28.880   0.493  1.00  0.00     0.051 A 
ATOM      5  C   UNL     1      16.812  26.995  -0.320  1.00  0.00     0.161 A 
ATOM      6  C   UNL     1      15.573  27.637  -0.145  1.00  0.00     0.157 A 
ENDROOT
BRANCH   1   7
ATOM      7  C   UNL     1      19.161  29.515   1.291  1.00  0.00     0.072 C 
ATOM      8  O   UNL     1      19.366  29.645   2.527  1.00  0.00    -0.545 OA
ATOM      9  O   UNL     1      20.116  29.986   0.396  1.00  0.00    -0.545 OA
ENDBRANCH   1   7
BRANCH   5  10
ATOM     10  O   UNL     1      16.842  25.747  -0.965  1.00  0.00    -0.493 OA
ATOM     11  C   UNL     1      16.916  24.492  -0.296  1.00  0.00     0.278 C 
ENDBRANCH   5  10
BRANCH   6  12
ATOM     12  O   UNL     1      14.390  27.056  -0.599  1.00  0.00    -0.504 OA
ATOM     13  H   UNL     1      13.688  27.584  -1.103  1.00  0.00     0.293 HD
ENDBRANCH   6  12
TORSDOF 3
ENDMDL
MODEL 7
REMARK VINA RESULT:    -5.224      1.504      1.839
REMARK INTER + INTRA:          -6.067
REMARK INTER:                  -5.977
REMARK INTRA:                  -0.090
REMARK UNBOUND:                -0.079
REMARK SMILES COc1cc(C(=O)[O-])ccc1O
REMARK SMILES IDX 5 1 9 2 4 3 10 4 3 5 11 6 6 7 7 8 8 9 2 10 1 11 12 12
REMARK H PARENT 12 13
REMARK Flexibility Score: inf
ROOT
ATOM      1  C   UNL     1      17.741  25.408   0.381  1.00  0.00     0.001 A 
ATOM      2  C   UNL     1      18.874  25.274  -0.439  1.00  0.00     0.014 A 
ATOM      3  C   UNL     1      17.384  26.684   0.851  1.00  0.00     0.060 A 
ATOM      4  C   UNL     1      19.634  26.393  -0.781  1.00  0.00     0.051 A 
ATOM      5  C   UNL     1      18.148  27.817   0.509  1.00  0.00     0.161 A 
ATOM      6  C   UNL     1      19.279  27.662  -0.313  1.00  0.00     0.157 A 
ENDROOT
BRANCH   1   7
ATOM      7  C   UNL     1      16.932  24.222   0.744  1.00  0.00     0.072 C 
ATOM      8  O   UNL     1      15.823  24.357   1.327  1.00  0.00    -0.545 OA
ATOM      9  O   UNL     1      17.385  22.942   0.446  1.00  0.00    -0.545 OA
ENDBRANCH   1   7
BRANCH   5  10
ATOM     10  O   UNL     1      17.815  29.104   0.964  1.00  0.00    -0.493 OA
ATOM     11  C   UNL     1      16.520  29.687   0.863  1.00  0.00     0.278 C 
ENDBRANCH   5  10
BRANCH   6  12
ATOM     12  O   UNL     1      20.063  28.757  -0.675  1.00  0.00    -0.504 OA
ATOM     13  H   UNL     1      19.821  29.360  -1.452  1.00  0.00     0.293 HD
ENDBRANCH   6  12
TORSDOF 3
ENDMDL
MODEL 8
REMARK VINA RESULT:    -5.165      2.557      3.243
REMARK INTER + INTRA:          -5.999
REMARK INTER:                  -5.896
REMARK INTRA:                  -0.103
REMARK UNBOUND:                -0.079
REMARK SMILES COc1cc(C(=O)[O-])ccc1O
REMARK SMILES IDX 5 1 9 2 4 3 10 4 3 5 11 6 6 7 7 8 8 9 2 10 1 11 12 12
REMARK H PARENT 12 13
REMARK Flexibility Score: inf
ROOT
ATOM      1  C   UNL     1      16.442  25.004   0.117  1.00  0.00     0.001 A 
ATOM      2  C   UNL     1      15.129  25.369  -0.227  1.00  0.00     0.014 A 
ATOM      3  C   UNL     1      17.444  25.991   0.133  1.00  0.00     0.060 A 
ATOM      4  C   UNL     1      14.825  26.693  -0.546  1.00  0.00     0.051 A 
ATOM      5  C   UNL     1      17.141  27.329  -0.189  1.00  0.00     0.161 A 
ATOM      6  C   UNL     1      15.821  27.674  -0.530  1.00  0.00     0.157 A 
ENDROOT
BRANCH   1   7
ATOM      7  C   UNL     1      16.768  23.601   0.457  1.00  0.00     0.072 C 
ATOM      8  O   UNL     1      15.860  22.796   0.797  1.00  0.00    -0.545 OA
ATOM      9  O   UNL     1      18.082  23.150   0.405  1.00  0.00    -0.545 OA
ENDBRANCH   1   7
BRANCH   5  10
ATOM     10  O   UNL     1      18.121  28.336  -0.181  1.00  0.00    -0.493 OA
ATOM     11  C   UNL     1      18.601  28.988   0.991  1.00  0.00     0.278 C 
ENDBRANCH   5  10
BRANCH   6  12
ATOM     12  O   UNL     1      15.479  28.986  -0.856  1.00  0.00    -0.504 OA
ATOM     13  H   UNL     1      15.717  29.769  -0.260  1.00  0.00     0.293 HD
ENDBRANCH   6  12
TORSDOF 3
ENDMDL
MODEL 9
REMARK VINA RESULT:    -5.143      2.537      4.777
REMARK INTER + INTRA:          -5.973
REMARK INTER:                  -5.892
REMARK INTRA:                  -0.081
REMARK UNBOUND:                -0.079
REMARK SMILES COc1cc(C(=O)[O-])ccc1O
REMARK SMILES IDX 5 1 9 2 4 3 10 4 3 5 11 6 6 7 7 8 8 9 2 10 1 11 12 12
REMARK H PARENT 12 13
REMARK Flexibility Score: inf
ROOT
ATOM      1  C   UNL     1      16.417  27.662   0.358  1.00  0.00     0.001 A 
ATOM      2  C   UNL     1      15.074  27.750  -0.045  1.00  0.00     0.014 A 
ATOM      3  C   UNL     1      17.082  26.427   0.258  1.00  0.00     0.060 A 
ATOM      4  C   UNL     1      14.410  26.625  -0.538  1.00  0.00     0.051 A 
ATOM      5  C   UNL     1      16.416  25.289  -0.238  1.00  0.00     0.161 A 
ATOM      6  C   UNL     1      15.071  25.397  -0.637  1.00  0.00     0.157 A 
ENDROOT
BRANCH   1   7
ATOM      7  C   UNL     1      17.124  28.854   0.880  1.00  0.00     0.072 C 
ATOM      8  O   UNL     1      18.305  28.761   1.310  1.00  0.00    -0.545 OA
ATOM      9  O   UNL     1      16.495  30.093   0.901  1.00  0.00    -0.545 OA
ENDBRANCH   1   7
BRANCH   5  10
ATOM     10  O   UNL     1      17.055  24.043  -0.349  1.00  0.00    -0.493 OA
ATOM     11  C   UNL     1      18.223  23.665   0.372  1.00  0.00     0.278 C 
ENDBRANCH   5  10
BRANCH   6  12
ATOM     12  O   UNL     1      14.375  24.296  -1.133  1.00  0.00    -0.504 OA
ATOM     13  H   UNL     1      14.006  24.271  -2.076  1.00  0.00     0.293 HD
ENDBRANCH   6  12
TORSDOF 3
ENDMDL
