MODEL 1
REMARK VINA RESULT:    -2.673      0.000      0.000
REMARK INTER + INTRA:          -4.601
REMARK INTER:                  -3.923
REMARK INTRA:                  -0.679
REMARK UNBOUND:                -0.679
REMARK SMILES O=C([O-])CCCCCCCC(=O)[O-]
REMARK SMILES IDX 7 1 6 2 5 3 4 4 2 5 1 6 3 7 8 8 9 9 10 10 11 11 12 12 13 13
REMARK H PARENT
REMARK Flexibility Score: inf
ROOT
ATOM      1  C   UNL     1      22.960  21.578  19.597  1.00  0.00     0.000 C 
ENDROOT
BRANCH   1   2
ATOM      2  C   UNL     1      21.739  20.888  18.966  1.00  0.00     0.000 C 
BRANCH   2   3
ATOM      3  C   UNL     1      20.531  20.839  19.912  1.00  0.00     0.006 C 
BRANCH   3   4
ATOM      4  C   UNL     1      20.785  19.876  21.075  1.00  0.00     0.053 C 
BRANCH   4   5
ATOM      5  C   UNL     1      20.301  18.502  20.734  1.00  0.00     0.041 C 
ATOM      6  O   UNL     1      19.100  18.316  20.406  1.00  0.00    -0.550 OA
ATOM      7  O   UNL     1      21.166  17.418  20.826  1.00  0.00    -0.550 OA
ENDBRANCH   4   5
ENDBRANCH   3   4
ENDBRANCH   2   3
ENDBRANCH   1   2
BRANCH   1   8
ATOM      8  C   UNL     1      22.641  22.988  20.116  1.00  0.00     0.000 C 
BRANCH   8   9
ATOM      9  C   UNL     1      22.719  24.021  18.981  1.00  0.00     0.006 C 
BRANCH   9  10
ATOM     10  C   UNL     1      21.635  25.099  19.102  1.00  0.00     0.053 C 
BRANCH  10  11
ATOM     11  C   UNL     1      20.258  24.509  19.082  1.00  0.00     0.041 C 
ATOM     12  O   UNL     1      19.481  24.682  20.058  1.00  0.00    -0.550 OA
ATOM     13  O   UNL     1      19.820  23.798  17.972  1.00  0.00    -0.550 OA
ENDBRANCH  10  11
ENDBRANCH   9  10
ENDBRANCH   8   9
ENDBRANCH   1   8
TORSDOF 8
ENDMDL
MODEL 2
REMARK VINA RESULT:    -2.667      9.836     12.814
REMARK INTER + INTRA:          -4.593
REMARK INTER:                  -3.855
REMARK INTRA:                  -0.737
REMARK UNBOUND:                -0.679
REMARK SMILES O=C([O-])CCCCCCCC(=O)[O-]
REMARK SMILES IDX 7 1 6 2 5 3 4 4 2 5 1 6 3 7 8 8 9 9 10 10 11 11 12 12 13 13
REMARK H PARENT
REMARK Flexibility Score: inf
ROOT
ATOM      1  C   UNL     1      18.278   9.639  16.230  1.00  0.00     0.000 C 
ENDROOT
BRANCH   1   2
ATOM      2  C   UNL     1      18.196   8.422  17.166  1.00  0.00     0.000 C 
BRANCH   2   3
ATOM      3  C   UNL     1      18.870   7.174  16.577  1.00  0.00     0.006 C 
BRANCH   3   4
ATOM      4  C   UNL     1      19.975   7.562  15.590  1.00  0.00     0.053 C 
BRANCH   4   5
ATOM      5  C   UNL     1      21.311   7.120  16.099  1.00  0.00     0.041 C 
ATOM      6  O   UNL     1      22.015   6.325  15.423  1.00  0.00    -0.550 OA
ATOM      7  O   UNL     1      21.757   7.547  17.344  1.00  0.00    -0.550 OA
ENDBRANCH   4   5
ENDBRANCH   3   4
ENDBRANCH   2   3
ENDBRANCH   1   2
BRANCH   1   8
ATOM      8  C   UNL     1      18.754  10.909  16.950  1.00  0.00     0.000 C 
BRANCH   8   9
ATOM      9  C   UNL     1      20.026  10.633  17.765  1.00  0.00     0.006 C 
BRANCH   9  10
ATOM     10  C   UNL     1      21.288  11.155  17.066  1.00  0.00     0.053 C 
BRANCH  10  11
ATOM     11  C   UNL     1      21.325  12.652  17.027  1.00  0.00     0.041 C 
ATOM     12  O   UNL     1      21.615  13.250  15.957  1.00  0.00    -0.550 OA
ATOM     13  O   UNL     1      21.006  13.386  18.161  1.00  0.00    -0.550 OA
ENDBRANCH  10  11
ENDBRANCH   9  10
ENDBRANCH   8   9
ENDBRANCH   1   8
TORSDOF 8
ENDMDL
MODEL 3
REMARK VINA RESULT:    -2.666     10.950     13.659
REMARK INTER + INTRA:          -4.591
REMARK INTER:                  -4.220
REMARK INTRA:                  -0.371
REMARK UNBOUND:                -0.679
REMARK SMILES O=C([O-])CCCCCCCC(=O)[O-]
REMARK SMILES IDX 7 1 6 2 5 3 4 4 2 5 1 6 3 7 8 8 9 9 10 10 11 11 12 12 13 13
REMARK H PARENT
REMARK Flexibility Score: inf
ROOT
ATOM      1  C   UNL     1      21.886   7.692  17.157  1.00  0.00     0.000 C 
ENDROOT
BRANCH   1   2
ATOM      2  C   UNL     1      23.300   8.186  17.504  1.00  0.00     0.000 C 
BRANCH   2   3
ATOM      3  C   UNL     1      24.395   7.445  16.724  1.00  0.00     0.006 C 
BRANCH   3   4
ATOM      4  C   UNL     1      23.888   6.091  16.220  1.00  0.00     0.053 C 
BRANCH   4   5
ATOM      5  C   UNL     1      24.239   5.904  14.777  1.00  0.00     0.041 C 
ATOM      6  O   UNL     1      25.428   6.045  14.390  1.00  0.00    -0.550 OA
ATOM      7  O   UNL     1      23.242   5.621  13.850  1.00  0.00    -0.550 OA
ENDBRANCH   4   5
ENDBRANCH   3   4
ENDBRANCH   2   3
ENDBRANCH   1   2
BRANCH   1   8
ATOM      8  C   UNL     1      20.892   8.843  16.947  1.00  0.00     0.000 C 
BRANCH   8   9
ATOM      9  C   UNL     1      21.609  10.201  16.985  1.00  0.00     0.006 C 
BRANCH   9  10
ATOM     10  C   UNL     1      20.630  11.371  17.147  1.00  0.00     0.053 C 
BRANCH  10  11
ATOM     11  C   UNL     1      21.342  12.686  17.227  1.00  0.00     0.041 C 
ATOM     12  O   UNL     1      21.631  13.182  18.349  1.00  0.00    -0.550 OA
ATOM     13  O   UNL     1      21.715  13.349  16.066  1.00  0.00    -0.550 OA
ENDBRANCH  10  11
ENDBRANCH   9  10
ENDBRANCH   8   9
ENDBRANCH   1   8
TORSDOF 8
ENDMDL
MODEL 4
REMARK VINA RESULT:    -2.622      9.777     13.583
REMARK INTER + INTRA:          -4.527
REMARK INTER:                  -3.784
REMARK INTRA:                  -0.743
REMARK UNBOUND:                -0.679
REMARK SMILES O=C([O-])CCCCCCCC(=O)[O-]
REMARK SMILES IDX 7 1 6 2 5 3 4 4 2 5 1 6 3 7 8 8 9 9 10 10 11 11 12 12 13 13
REMARK H PARENT
REMARK Flexibility Score: inf
ROOT
ATOM      1  C   UNL     1      18.649  10.096  16.630  1.00  0.00     0.000 C 
ENDROOT
BRANCH   1   2
ATOM      2  C   UNL     1      19.021  10.255  18.113  1.00  0.00     0.000 C 
BRANCH   2   3
ATOM      3  C   UNL     1      20.486  10.668  18.316  1.00  0.00     0.006 C 
BRANCH   3   4
ATOM      4  C   UNL     1      21.105  11.156  17.003  1.00  0.00     0.053 C 
BRANCH   4   5
ATOM      5  C   UNL     1      21.307  12.638  17.038  1.00  0.00     0.041 C 
ATOM      6  O   UNL     1      21.082  13.284  18.094  1.00  0.00    -0.550 OA
ATOM      7  O   UNL     1      21.697  13.313  15.888  1.00  0.00    -0.550 OA
ENDBRANCH   4   5
ENDBRANCH   3   4
ENDBRANCH   2   3
ENDBRANCH   1   2
BRANCH   1   8
ATOM      8  C   UNL     1      17.991   8.742  16.326  1.00  0.00     0.000 C 
BRANCH   8   9
ATOM      9  C   UNL     1      18.964   7.585  16.598  1.00  0.00     0.006 C 
BRANCH   9  10
ATOM     10  C   UNL     1      20.044   7.468  15.515  1.00  0.00     0.053 C 
BRANCH  10  11
ATOM     11  C   UNL     1      21.379   7.112  16.095  1.00  0.00     0.041 C 
ATOM     12  O   UNL     1      21.722   7.568  17.218  1.00  0.00    -0.550 OA
ATOM     13  O   UNL     1      22.228   6.252  15.413  1.00  0.00    -0.550 OA
ENDBRANCH  10  11
ENDBRANCH   9  10
ENDBRANCH   8   9
ENDBRANCH   1   8
TORSDOF 8
ENDMDL
MODEL 5
REMARK VINA RESULT:    -2.568     10.942     14.566
REMARK INTER + INTRA:          -4.448
REMARK INTER:                  -4.082
REMARK INTRA:                  -0.366
REMARK UNBOUND:                -0.679
REMARK SMILES O=C([O-])CCCCCCCC(=O)[O-]
REMARK SMILES IDX 7 1 6 2 5 3 4 4 2 5 1 6 3 7 8 8 9 9 10 10 11 11 12 12 13 13
REMARK H PARENT
REMARK Flexibility Score: inf
ROOT
ATOM      1  C   UNL     1      21.256   7.971  16.592  1.00  0.00     0.000 C 
ENDROOT
BRANCH   1   2
ATOM      2  C   UNL     1      19.918   8.723  16.490  1.00  0.00     0.000 C 
BRANCH   2   3
ATOM      3  C   UNL     1      19.961  10.103  17.161  1.00  0.00     0.006 C 
BRANCH   3   4
ATOM      4  C   UNL     1      21.355  10.726  17.044  1.00  0.00     0.053 C 
BRANCH   4   5
ATOM      5  C   UNL     1      21.281  12.212  17.203  1.00  0.00     0.041 C 
ATOM      6  O   UNL     1      21.341  12.962  16.195  1.00  0.00    -0.550 OA
ATOM      7  O   UNL     1      21.195  12.771  18.473  1.00  0.00    -0.550 OA
ENDBRANCH   4   5
ENDBRANCH   3   4
ENDBRANCH   2   3
ENDBRANCH   1   2
BRANCH   1   8
ATOM      8  C   UNL     1      21.244   6.637  15.831  1.00  0.00     0.000 C 
BRANCH   8   9
ATOM      9  C   UNL     1      22.616   5.950  15.908  1.00  0.00     0.006 C 
BRANCH   9  10
ATOM     10  C   UNL     1      23.678   6.845  16.560  1.00  0.00     0.053 C 
BRANCH  10  11
ATOM     11  C   UNL     1      25.034   6.626  15.963  1.00  0.00     0.041 C 
ATOM     12  O   UNL     1      25.149   6.331  14.744  1.00  0.00    -0.550 OA
ATOM     13  O   UNL     1      26.172   6.779  16.743  1.00  0.00    -0.550 OA
ENDBRANCH  10  11
ENDBRANCH   9  10
ENDBRANCH   8   9
ENDBRANCH   1   8
TORSDOF 8
ENDMDL
MODEL 6
REMARK VINA RESULT:    -2.565      1.380      6.054
REMARK INTER + INTRA:          -4.444
REMARK INTER:                  -3.967
REMARK INTRA:                  -0.477
REMARK UNBOUND:                -0.679
REMARK SMILES O=C([O-])CCCCCCCC(=O)[O-]
REMARK SMILES IDX 7 1 6 2 5 3 4 4 2 5 1 6 3 7 8 8 9 9 10 10 11 11 12 12 13 13
REMARK H PARENT
REMARK Flexibility Score: inf
ROOT
ATOM      1  C   UNL     1      21.735  19.855  19.208  1.00  0.00     0.000 C 
ENDROOT
BRANCH   1   2
ATOM      2  C   UNL     1      22.697  21.008  18.879  1.00  0.00     0.000 C 
BRANCH   2   3
ATOM      3  C   UNL     1      22.689  22.110  19.949  1.00  0.00     0.006 C 
BRANCH   3   4
ATOM      4  C   UNL     1      22.785  23.497  19.308  1.00  0.00     0.053 C 
BRANCH   4   5
ATOM      5  C   UNL     1      21.461  23.907  18.743  1.00  0.00     0.041 C 
ATOM      6  O   UNL     1      21.406  24.594  17.691  1.00  0.00    -0.550 OA
ATOM      7  O   UNL     1      20.288  23.571  19.409  1.00  0.00    -0.550 OA
ENDBRANCH   4   5
ENDBRANCH   3   4
ENDBRANCH   2   3
ENDBRANCH   1   2
BRANCH   1   8
ATOM      8  C   UNL     1      20.834  20.160  20.414  1.00  0.00     0.000 C 
BRANCH   8   9
ATOM      9  C   UNL     1      19.948  18.953  20.756  1.00  0.00     0.006 C 
BRANCH   9  10
ATOM     10  C   UNL     1      20.732  17.635  20.742  1.00  0.00     0.053 C 
BRANCH  10  11
ATOM     11  C   UNL     1      19.894  16.493  20.255  1.00  0.00     0.041 C 
ATOM     12  O   UNL     1      20.398  15.345  20.130  1.00  0.00    -0.550 OA
ATOM     13  O   UNL     1      18.549  16.687  19.972  1.00  0.00    -0.550 OA
ENDBRANCH  10  11
ENDBRANCH   9  10
ENDBRANCH   8   9
ENDBRANCH   1   8
TORSDOF 8
ENDMDL
MODEL 7
REMARK VINA RESULT:    -2.532     10.508     13.388
REMARK INTER + INTRA:          -4.395
REMARK INTER:                  -4.002
REMARK INTRA:                  -0.393
REMARK UNBOUND:                -0.679
REMARK SMILES O=C([O-])CCCCCCCC(=O)[O-]
REMARK SMILES IDX 7 1 6 2 5 3 4 4 2 5 1 6 3 7 8 8 9 9 10 10 11 11 12 12 13 13
REMARK H PARENT
REMARK Flexibility Score: inf
ROOT
ATOM      1  C   UNL     1      22.298   7.523  17.417  1.00  0.00     0.000 C 
ENDROOT
BRANCH   1   2
ATOM      2  C   UNL     1      22.854   6.692  16.249  1.00  0.00     0.000 C 
BRANCH   2   3
ATOM      3  C   UNL     1      24.389   6.700  16.193  1.00  0.00     0.006 C 
BRANCH   3   4
ATOM      4  C   UNL     1      24.948   8.029  16.708  1.00  0.00     0.053 C 
BRANCH   4   5
ATOM      5  C   UNL     1      26.027   7.787  17.717  1.00  0.00     0.041 C 
ATOM      6  O   UNL     1      26.483   8.742  18.399  1.00  0.00    -0.550 OA
ATOM      7  O   UNL     1      26.564   6.515  17.870  1.00  0.00    -0.550 OA
ENDBRANCH   4   5
ENDBRANCH   3   4
ENDBRANCH   2   3
ENDBRANCH   1   2
BRANCH   1   8
ATOM      8  C   UNL     1      21.254   8.555  16.965  1.00  0.00     0.000 C 
BRANCH   8   9
ATOM      9  C   UNL     1      21.825   9.979  17.034  1.00  0.00     0.006 C 
BRANCH   9  10
ATOM     10  C   UNL     1      20.729  11.036  17.220  1.00  0.00     0.053 C 
BRANCH  10  11
ATOM     11  C   UNL     1      21.292  12.424  17.248  1.00  0.00     0.041 C 
ATOM     12  O   UNL     1      21.562  13.019  16.171  1.00  0.00    -0.550 OA
ATOM     13  O   UNL     1      21.487  13.072  18.460  1.00  0.00    -0.550 OA
ENDBRANCH  10  11
ENDBRANCH   9  10
ENDBRANCH   8   9
ENDBRANCH   1   8
TORSDOF 8
ENDMDL
MODEL 8
REMARK VINA RESULT:    -2.515     14.243     15.559
REMARK INTER + INTRA:          -4.370
REMARK INTER:                  -3.694
REMARK INTRA:                  -0.676
REMARK UNBOUND:                -0.679
REMARK SMILES O=C([O-])CCCCCCCC(=O)[O-]
REMARK SMILES IDX 7 1 6 2 5 3 4 4 2 5 1 6 3 7 8 8 9 9 10 10 11 11 12 12 13 13
REMARK H PARENT
REMARK Flexibility Score: inf
ROOT
ATOM      1  C   UNL     1      24.993   6.342  15.110  1.00  0.00     0.000 C 
ENDROOT
BRANCH   1   2
ATOM      2  C   UNL     1      23.857   5.348  15.401  1.00  0.00     0.000 C 
BRANCH   2   3
ATOM      3  C   UNL     1      22.465   5.953  15.167  1.00  0.00     0.006 C 
BRANCH   3   4
ATOM      4  C   UNL     1      21.822   6.375  16.490  1.00  0.00     0.053 C 
BRANCH   4   5
ATOM      5  C   UNL     1      21.156   7.708  16.348  1.00  0.00     0.041 C 
ATOM      6  O   UNL     1      20.165   7.844  15.585  1.00  0.00    -0.550 OA
ATOM      7  O   UNL     1      21.663   8.813  17.022  1.00  0.00    -0.550 OA
ENDBRANCH   4   5
ENDBRANCH   3   4
ENDBRANCH   2   3
ENDBRANCH   1   2
BRANCH   1   8
ATOM      8  C   UNL     1      25.736   6.781  16.380  1.00  0.00     0.000 C 
BRANCH   8   9
ATOM      9  C   UNL     1      25.120   8.065  16.958  1.00  0.00     0.006 C 
BRANCH   9  10
ATOM     10  C   UNL     1      24.901   7.972  18.474  1.00  0.00     0.053 C 
BRANCH  10  11
ATOM     11  C   UNL     1      26.194   7.830  19.216  1.00  0.00     0.041 C 
ATOM     12  O   UNL     1      27.040   8.764  19.197  1.00  0.00    -0.550 OA
ATOM     13  O   UNL     1      26.452   6.684  19.955  1.00  0.00    -0.550 OA
ENDBRANCH  10  11
ENDBRANCH   9  10
ENDBRANCH   8   9
ENDBRANCH   1   8
TORSDOF 8
ENDMDL
MODEL 9
REMARK VINA RESULT:    -2.496     10.481     13.424
REMARK INTER + INTRA:          -4.343
REMARK INTER:                  -3.801
REMARK INTRA:                  -0.541
REMARK UNBOUND:                -0.679
REMARK SMILES O=C([O-])CCCCCCCC(=O)[O-]
REMARK SMILES IDX 7 1 6 2 5 3 4 4 2 5 1 6 3 7 8 8 9 9 10 10 11 11 12 12 13 13
REMARK H PARENT
REMARK Flexibility Score: inf
ROOT
ATOM      1  C   UNL     1      19.780   8.219  15.872  1.00  0.00     0.000 C 
ENDROOT
BRANCH   1   2
ATOM      2  C   UNL     1      20.501   7.095  16.634  1.00  0.00     0.000 C 
BRANCH   2   3
ATOM      3  C   UNL     1      21.861   6.738  16.017  1.00  0.00     0.006 C 
BRANCH   3   4
ATOM      4  C   UNL     1      22.995   6.966  17.021  1.00  0.00     0.053 C 
BRANCH   4   5
ATOM      5  C   UNL     1      24.289   7.198  16.307  1.00  0.00     0.041 C 
ATOM      6  O   UNL     1      24.973   8.226  16.551  1.00  0.00    -0.550 OA
ATOM      7  O   UNL     1      24.716   6.303  15.333  1.00  0.00    -0.550 OA
ENDBRANCH   4   5
ENDBRANCH   3   4
ENDBRANCH   2   3
ENDBRANCH   1   2
BRANCH   1   8
ATOM      8  C   UNL     1      19.200   9.290  16.808  1.00  0.00     0.000 C 
BRANCH   8   9
ATOM      9  C   UNL     1      20.290   9.867  17.724  1.00  0.00     0.006 C 
BRANCH   9  10
ATOM     10  C   UNL     1      21.308  10.716  16.951  1.00  0.00     0.053 C 
BRANCH  10  11
ATOM     11  C   UNL     1      21.015  12.181  17.069  1.00  0.00     0.041 C 
ATOM     12  O   UNL     1      20.248  12.602  17.975  1.00  0.00    -0.550 OA
ATOM     13  O   UNL     1      21.613  13.083  16.200  1.00  0.00    -0.550 OA
ENDBRANCH  10  11
ENDBRANCH   9  10
ENDBRANCH   8   9
ENDBRANCH   1   8
TORSDOF 8
ENDMDL
