MODEL 1
REMARK VINA RESULT:    -3.469      0.000      0.000
REMARK INTER + INTRA:          -4.181
REMARK INTER:                  -4.179
REMARK INTRA:                  -0.003
REMARK UNBOUND:                -0.003
REMARK SMILES OCC(O)CO
REMARK SMILES IDX 3 1 5 2 6 3 2 5 1 6 4 8
REMARK H PARENT 6 4 1 7 4 9
REMARK Flexibility Score: inf
ROOT
ATOM      1  C   UNL     1      34.487  11.857   5.799  1.00  0.00     0.165 C 
ENDROOT
BRANCH   1   2
ATOM      2  C   UNL     1      35.327  11.512   7.040  1.00  0.00     0.190 C 
BRANCH   2   3
ATOM      3  O   UNL     1      36.700  11.561   6.759  1.00  0.00    -0.394 OA
ATOM      4  H   UNL     1      37.023  12.451   7.056  1.00  0.00     0.210 HD
ENDBRANCH   2   3
ENDBRANCH   1   2
BRANCH   1   5
ATOM      5  C   UNL     1      33.796  10.619   5.206  1.00  0.00     0.190 C 
BRANCH   5   6
ATOM      6  O   UNL     1      33.461  10.834   3.863  1.00  0.00    -0.394 OA
ATOM      7  H   UNL     1      33.497   9.946   3.424  1.00  0.00     0.210 HD
ENDBRANCH   5   6
ENDBRANCH   1   5
BRANCH   1   8
ATOM      8  O   UNL     1      35.301  12.472   4.834  1.00  0.00    -0.388 OA
ATOM      9  H   UNL     1      35.117  13.447   4.884  1.00  0.00     0.211 HD
ENDBRANCH   1   8
TORSDOF 5
ENDMDL
MODEL 2
REMARK VINA RESULT:    -3.373      1.149      2.880
REMARK INTER + INTRA:          -4.066
REMARK INTER:                  -3.844
REMARK INTRA:                  -0.222
REMARK UNBOUND:                -0.003
REMARK SMILES OCC(O)CO
REMARK SMILES IDX 3 1 5 2 6 3 2 5 1 6 4 8
REMARK H PARENT 6 4 1 7 4 9
REMARK Flexibility Score: inf
ROOT
ATOM      1  C   UNL     1      34.269  11.416   5.975  1.00  0.00     0.165 C 
ENDROOT
BRANCH   1   2
ATOM      2  C   UNL     1      34.155  12.236   4.679  1.00  0.00     0.190 C 
BRANCH   2   3
ATOM      3  O   UNL     1      35.367  12.249   3.972  1.00  0.00    -0.394 OA
ATOM      4  H   UNL     1      35.767  13.147   4.104  1.00  0.00     0.210 HD
ENDBRANCH   2   3
ENDBRANCH   1   2
BRANCH   1   5
ATOM      5  C   UNL     1      35.316  12.000   6.937  1.00  0.00     0.190 C 
BRANCH   5   6
ATOM      6  O   UNL     1      36.601  11.560   6.595  1.00  0.00    -0.394 OA
ATOM      7  H   UNL     1      37.098  11.472   7.449  1.00  0.00     0.210 HD
ENDBRANCH   5   6
ENDBRANCH   1   5
BRANCH   1   8
ATOM      8  O   UNL     1      34.579  10.082   5.665  1.00  0.00    -0.388 OA
ATOM      9  H   UNL     1      34.163   9.888   4.784  1.00  0.00     0.211 HD
ENDBRANCH   1   8
TORSDOF 5
ENDMDL
MODEL 3
REMARK VINA RESULT:    -3.297      1.848      3.272
REMARK INTER + INTRA:          -3.975
REMARK INTER:                  -3.972
REMARK INTRA:                  -0.003
REMARK UNBOUND:                -0.003
REMARK SMILES OCC(O)CO
REMARK SMILES IDX 3 1 5 2 6 3 2 5 1 6 4 8
REMARK H PARENT 6 4 1 7 4 9
REMARK Flexibility Score: inf
ROOT
ATOM      1  C   UNL     1      33.576  10.899   5.185  1.00  0.00     0.165 C 
ENDROOT
BRANCH   1   2
ATOM      2  C   UNL     1      32.822   9.961   4.228  1.00  0.00     0.190 C 
BRANCH   2   3
ATOM      3  O   UNL     1      32.721   8.665   4.755  1.00  0.00    -0.394 OA
ATOM      4  H   UNL     1      33.370   8.607   5.503  1.00  0.00     0.210 HD
ENDBRANCH   2   3
ENDBRANCH   1   2
BRANCH   1   5
ATOM      5  C   UNL     1      34.097  12.156   4.472  1.00  0.00     0.190 C 
BRANCH   5   6
ATOM      6  O   UNL     1      35.323  12.562   5.016  1.00  0.00    -0.394 OA
ATOM      7  H   UNL     1      35.978  12.533   4.272  1.00  0.00     0.210 HD
ENDBRANCH   5   6
ENDBRANCH   1   5
BRANCH   1   8
ATOM      8  O   UNL     1      34.636  10.205   5.791  1.00  0.00    -0.388 OA
ATOM      9  H   UNL     1      34.379   9.245   5.804  1.00  0.00     0.211 HD
ENDBRANCH   1   8
TORSDOF 5
ENDMDL
MODEL 4
REMARK VINA RESULT:    -3.223      1.383      3.273
REMARK INTER + INTRA:          -3.884
REMARK INTER:                  -3.882
REMARK INTRA:                  -0.003
REMARK UNBOUND:                -0.003
REMARK SMILES OCC(O)CO
REMARK SMILES IDX 3 1 5 2 6 3 2 5 1 6 4 8
REMARK H PARENT 6 4 1 7 4 9
REMARK Flexibility Score: inf
ROOT
ATOM      1  C   UNL     1      35.601  11.470   6.942  1.00  0.00     0.165 C 
ENDROOT
BRANCH   1   2
ATOM      2  C   UNL     1      34.490  11.446   5.879  1.00  0.00     0.190 C 
BRANCH   2   3
ATOM      3  O   UNL     1      34.776  12.321   4.820  1.00  0.00    -0.394 OA
ATOM      4  H   UNL     1      35.295  13.075   5.202  1.00  0.00     0.210 HD
ENDBRANCH   2   3
ENDBRANCH   1   2
BRANCH   1   5
ATOM      5  C   UNL     1      35.109  12.048   8.279  1.00  0.00     0.190 C 
BRANCH   5   6
ATOM      6  O   UNL     1      35.366  11.155   9.327  1.00  0.00    -0.394 OA
ATOM      7  H   UNL     1      35.359  10.249   8.926  1.00  0.00     0.210 HD
ENDBRANCH   5   6
ENDBRANCH   1   5
BRANCH   1   8
ATOM      8  O   UNL     1      36.697  12.206   6.465  1.00  0.00    -0.388 OA
ATOM      9  H   UNL     1      36.367  12.749   5.701  1.00  0.00     0.211 HD
ENDBRANCH   1   8
TORSDOF 5
ENDMDL
MODEL 5
REMARK VINA RESULT:    -3.215      2.143      2.688
REMARK INTER + INTRA:          -3.876
REMARK INTER:                  -3.873
REMARK INTRA:                  -0.003
REMARK UNBOUND:                -0.003
REMARK SMILES OCC(O)CO
REMARK SMILES IDX 3 1 5 2 6 3 2 5 1 6 4 8
REMARK H PARENT 6 4 1 7 4 9
REMARK Flexibility Score: inf
ROOT
ATOM      1  C   UNL     1      33.840  12.216   4.421  1.00  0.00     0.165 C 
ENDROOT
BRANCH   1   2
ATOM      2  C   UNL     1      33.372  10.758   4.568  1.00  0.00     0.190 C 
BRANCH   2   3
ATOM      3  O   UNL     1      34.131  10.071   5.527  1.00  0.00    -0.394 OA
ATOM      4  H   UNL     1      35.058  10.020   5.178  1.00  0.00     0.210 HD
ENDBRANCH   2   3
ENDBRANCH   1   2
BRANCH   1   5
ATOM      5  C   UNL     1      32.937  13.019   3.472  1.00  0.00     0.190 C 
BRANCH   5   6
ATOM      6  O   UNL     1      33.692  13.605   2.448  1.00  0.00    -0.394 OA
ATOM      7  H   UNL     1      33.041  14.036   1.837  1.00  0.00     0.210 HD
ENDBRANCH   5   6
ENDBRANCH   1   5
BRANCH   1   8
ATOM      8  O   UNL     1      35.170  12.244   3.973  1.00  0.00    -0.388 OA
ATOM      9  H   UNL     1      35.235  11.588   3.229  1.00  0.00     0.211 HD
ENDBRANCH   1   8
TORSDOF 5
ENDMDL
MODEL 6
REMARK VINA RESULT:    -3.194      2.036      2.497
REMARK INTER + INTRA:          -3.850
REMARK INTER:                  -3.848
REMARK INTRA:                  -0.003
REMARK UNBOUND:                -0.003
REMARK SMILES OCC(O)CO
REMARK SMILES IDX 3 1 5 2 6 3 2 5 1 6 4 8
REMARK H PARENT 6 4 1 7 4 9
REMARK Flexibility Score: inf
ROOT
ATOM      1  C   UNL     1      33.616  10.660   4.608  1.00  0.00     0.165 C 
ENDROOT
BRANCH   1   2
ATOM      2  C   UNL     1      33.822  12.163   4.355  1.00  0.00     0.190 C 
BRANCH   2   3
ATOM      3  O   UNL     1      35.110  12.574   4.731  1.00  0.00    -0.394 OA
ATOM      4  H   UNL     1      35.371  12.019   5.511  1.00  0.00     0.210 HD
ENDBRANCH   2   3
ENDBRANCH   1   2
BRANCH   1   5
ATOM      5  C   UNL     1      32.143  10.318   4.882  1.00  0.00     0.190 C 
BRANCH   5   6
ATOM      6  O   UNL     1      31.940   8.933   4.831  1.00  0.00    -0.394 OA
ATOM      7  H   UNL     1      31.343   8.770   4.056  1.00  0.00     0.210 HD
ENDBRANCH   5   6
ENDBRANCH   1   5
BRANCH   1   8
ATOM      8  O   UNL     1      34.423  10.245   5.679  1.00  0.00    -0.388 OA
ATOM      9  H   UNL     1      35.124  10.940   5.795  1.00  0.00     0.211 HD
ENDBRANCH   1   8
TORSDOF 5
ENDMDL
MODEL 7
REMARK VINA RESULT:    -3.156      1.930      2.821
REMARK INTER + INTRA:          -3.804
REMARK INTER:                  -3.586
REMARK INTRA:                  -0.219
REMARK UNBOUND:                -0.003
REMARK SMILES OCC(O)CO
REMARK SMILES IDX 3 1 5 2 6 3 2 5 1 6 4 8
REMARK H PARENT 6 4 1 7 4 9
REMARK Flexibility Score: inf
ROOT
ATOM      1  C   UNL     1      33.130  10.788   4.248  1.00  0.00     0.165 C 
ENDROOT
BRANCH   1   2
ATOM      2  C   UNL     1      34.184  11.649   4.965  1.00  0.00     0.190 C 
BRANCH   2   3
ATOM      3  O   UNL     1      35.055  12.260   4.050  1.00  0.00    -0.394 OA
ATOM      4  H   UNL     1      35.888  12.473   4.545  1.00  0.00     0.210 HD
ENDBRANCH   2   3
ENDBRANCH   1   2
BRANCH   1   5
ATOM      5  C   UNL     1      32.004  11.640   3.641  1.00  0.00     0.190 C 
BRANCH   5   6
ATOM      6  O   UNL     1      32.527  12.602   2.768  1.00  0.00    -0.394 OA
ATOM      7  H   UNL     1      31.816  13.282   2.649  1.00  0.00     0.210 HD
ENDBRANCH   5   6
ENDBRANCH   1   5
BRANCH   1   8
ATOM      8  O   UNL     1      32.603   9.843   5.142  1.00  0.00    -0.388 OA
ATOM      9  H   UNL     1      32.635  10.254   6.045  1.00  0.00     0.211 HD
ENDBRANCH   1   8
TORSDOF 5
ENDMDL
MODEL 8
REMARK VINA RESULT:    -3.117      1.176      2.735
REMARK INTER + INTRA:          -3.758
REMARK INTER:                  -3.588
REMARK INTRA:                  -0.170
REMARK UNBOUND:                -0.003
REMARK SMILES OCC(O)CO
REMARK SMILES IDX 3 1 5 2 6 3 2 5 1 6 4 8
REMARK H PARENT 6 4 1 7 4 9
REMARK Flexibility Score: inf
ROOT
ATOM      1  C   UNL     1      34.643  11.830   5.074  1.00  0.00     0.165 C 
ENDROOT
BRANCH   1   2
ATOM      2  C   UNL     1      33.566  10.734   5.121  1.00  0.00     0.190 C 
BRANCH   2   3
ATOM      3  O   UNL     1      34.096   9.514   5.568  1.00  0.00    -0.394 OA
ATOM      4  H   UNL     1      34.220   8.944   4.765  1.00  0.00     0.210 HD
ENDBRANCH   2   3
ENDBRANCH   1   2
BRANCH   1   5
ATOM      5  C   UNL     1      35.255  12.098   6.458  1.00  0.00     0.190 C 
BRANCH   5   6
ATOM      6  O   UNL     1      36.452  11.389   6.615  1.00  0.00    -0.394 OA
ATOM      7  H   UNL     1      36.994  11.581   5.807  1.00  0.00     0.210 HD
ENDBRANCH   5   6
ENDBRANCH   1   5
BRANCH   1   8
ATOM      8  O   UNL     1      34.095  13.010   4.545  1.00  0.00    -0.388 OA
ATOM      9  H   UNL     1      33.386  12.734   3.905  1.00  0.00     0.211 HD
ENDBRANCH   1   8
TORSDOF 5
ENDMDL
MODEL 9
REMARK VINA RESULT:    -3.093      2.083      3.153
REMARK INTER + INTRA:          -3.728
REMARK INTER:                  -3.726
REMARK INTRA:                  -0.003
REMARK UNBOUND:                -0.003
REMARK SMILES OCC(O)CO
REMARK SMILES IDX 3 1 5 2 6 3 2 5 1 6 4 8
REMARK H PARENT 6 4 1 7 4 9
REMARK Flexibility Score: inf
ROOT
ATOM      1  C   UNL     1      34.290  12.194   4.119  1.00  0.00     0.165 C 
ENDROOT
BRANCH   1   2
ATOM      2  C   UNL     1      33.378  13.333   3.635  1.00  0.00     0.190 C 
BRANCH   2   3
ATOM      3  O   UNL     1      33.677  13.702   2.315  1.00  0.00    -0.394 OA
ATOM      4  H   UNL     1      33.556  12.891   1.756  1.00  0.00     0.210 HD
ENDBRANCH   2   3
ENDBRANCH   1   2
BRANCH   1   5
ATOM      5  C   UNL     1      33.487  11.006   4.672  1.00  0.00     0.190 C 
BRANCH   5   6
ATOM      6  O   UNL     1      34.275  10.234   5.534  1.00  0.00    -0.394 OA
ATOM      7  H   UNL     1      33.889  10.351   6.440  1.00  0.00     0.210 HD
ENDBRANCH   5   6
ENDBRANCH   1   5
BRANCH   1   8
ATOM      8  O   UNL     1      35.178  12.679   5.093  1.00  0.00    -0.388 OA
ATOM      9  H   UNL     1      34.688  12.672   5.957  1.00  0.00     0.211 HD
ENDBRANCH   1   8
TORSDOF 5
ENDMDL
