MODEL 1
REMARK VINA RESULT:    -5.991      0.000      0.000
REMARK INTER + INTRA:          -7.336
REMARK INTER:                  -7.041
REMARK INTRA:                  -0.294
REMARK UNBOUND:                -0.294
REMARK SMILES O=c1cc(-c2ccc(O)c(O)c2)oc2cc(O)cc(O)c12
REMARK SMILES IDX 4 1 3 2 2 3 1 4 21 5 19 6 18 7 16 8 15 9 14 10 13 11 5 12
REMARK SMILES IDX 6 13 7 14 8 15 12 16 10 17 9 18 11 20 20 22 17 24
REMARK H PARENT 9 19 11 21 20 23 17 25
REMARK Flexibility Score: inf
ROOT
ATOM      1  C   UNL     1      15.445  -9.059  12.393  1.00  0.00     0.138 A 
ATOM      2  C   UNL     1      14.473  -8.050  12.449  1.00  0.00     0.100 A 
ATOM      3  C   UNL     1      14.861  -6.713  12.348  1.00  0.00     0.197 A 
ATOM      4  O   UNL     1      13.974  -5.828  12.463  1.00  0.00    -0.289 OA
ATOM      5  C   UNL     1      16.225  -6.388  12.158  1.00  0.00     0.107 A 
ATOM      6  C   UNL     1      16.730  -5.063  12.000  1.00  0.00     0.134 A 
ATOM      7  C   UNL     1      18.114  -4.856  11.936  1.00  0.00     0.093 A 
ATOM      8  C   UNL     1      19.006  -5.930  11.962  1.00  0.00     0.123 A 
ATOM      9  C   UNL     1      18.519  -7.232  12.061  1.00  0.00     0.094 A 
ATOM     10  C   UNL     1      17.147  -7.470  12.162  1.00  0.00     0.146 A 
ATOM     11  O   UNL     1      16.725  -8.724  12.271  1.00  0.00    -0.456 OA
ENDROOT
BRANCH   1  12
ATOM     12  C   UNL     1      15.088 -10.497  12.496  1.00  0.00     0.021 A 
ATOM     13  C   UNL     1      16.072 -11.503  12.513  1.00  0.00     0.016 A 
ATOM     14  C   UNL     1      15.707 -12.848  12.623  1.00  0.00     0.051 A 
ATOM     15  C   UNL     1      14.362 -13.212  12.724  1.00  0.00     0.157 A 
ATOM     16  C   UNL     1      13.737 -10.868  12.613  1.00  0.00     0.062 A 
ATOM     17  C   UNL     1      13.370 -12.218  12.722  1.00  0.00     0.158 A 
BRANCH  15  18
ATOM     18  O   UNL     1      14.031 -14.562  12.831  1.00  0.00    -0.504 OA
ATOM     19  H   UNL     1      14.275 -15.114  13.645  1.00  0.00     0.293 HD
ENDBRANCH  15  18
BRANCH  17  20
ATOM     20  O   UNL     1      12.026 -12.573  12.827  1.00  0.00    -0.504 OA
ATOM     21  H   UNL     1      11.293 -12.004  12.419  1.00  0.00     0.293 HD
ENDBRANCH  17  20
ENDBRANCH   1  12
BRANCH   6  22
ATOM     22  O   UNL     1      15.923  -3.928  11.877  1.00  0.00    -0.507 OA
ATOM     23  H   UNL     1      14.919  -3.922  11.973  1.00  0.00     0.293 HD
ENDBRANCH   6  22
BRANCH   8  24
ATOM     24  O   UNL     1      20.380  -5.716  11.882  1.00  0.00    -0.508 OA
ATOM     25  H   UNL     1      20.915  -5.404  12.685  1.00  0.00     0.293 HD
ENDBRANCH   8  24
TORSDOF 5
ENDMDL
MODEL 2
REMARK VINA RESULT:    -5.868      1.400      7.462
REMARK INTER + INTRA:          -7.192
REMARK INTER:                  -6.899
REMARK INTRA:                  -0.293
REMARK UNBOUND:                -0.294
REMARK SMILES O=c1cc(-c2ccc(O)c(O)c2)oc2cc(O)cc(O)c12
REMARK SMILES IDX 4 1 3 2 2 3 1 4 21 5 19 6 18 7 16 8 15 9 14 10 13 11 5 12
REMARK SMILES IDX 6 13 7 14 8 15 12 16 10 17 9 18 11 20 20 22 17 24
REMARK H PARENT 9 19 11 21 20 23 17 25
REMARK Flexibility Score: inf
ROOT
ATOM      1  C   UNL     1      15.777  -9.331  12.321  1.00  0.00     0.138 A 
ATOM      2  C   UNL     1      16.544 -10.479  12.567  1.00  0.00     0.100 A 
ATOM      3  C   UNL     1      15.913 -11.719  12.674  1.00  0.00     0.197 A 
ATOM      4  O   UNL     1      16.619 -12.721  12.957  1.00  0.00    -0.289 OA
ATOM      5  C   UNL     1      14.512 -11.814  12.503  1.00  0.00     0.107 A 
ATOM      6  C   UNL     1      13.767 -13.029  12.550  1.00  0.00     0.134 A 
ATOM      7  C   UNL     1      12.369 -12.985  12.482  1.00  0.00     0.093 A 
ATOM      8  C   UNL     1      11.693 -11.775  12.308  1.00  0.00     0.123 A 
ATOM      9  C   UNL     1      12.415 -10.588  12.207  1.00  0.00     0.094 A 
ATOM     10  C   UNL     1      13.807 -10.594  12.306  1.00  0.00     0.146 A 
ATOM     11  O   UNL     1      14.457  -9.439  12.220  1.00  0.00    -0.456 OA
ENDROOT
BRANCH   1  12
ATOM     12  C   UNL     1      16.397  -7.987  12.198  1.00  0.00     0.021 A 
ATOM     13  C   UNL     1      15.622  -6.811  12.214  1.00  0.00     0.016 A 
ATOM     14  C   UNL     1      16.233  -5.559  12.108  1.00  0.00     0.051 A 
ATOM     15  C   UNL     1      17.621  -5.455  11.992  1.00  0.00     0.157 A 
ATOM     16  C   UNL     1      17.795  -7.875  12.095  1.00  0.00     0.062 A 
ATOM     17  C   UNL     1      18.408  -6.619  11.987  1.00  0.00     0.158 A 
BRANCH  15  18
ATOM     18  O   UNL     1      18.201  -4.192  11.887  1.00  0.00    -0.504 OA
ATOM     19  H   UNL     1      18.387  -3.758  10.990  1.00  0.00     0.293 HD
ENDBRANCH  15  18
BRANCH  17  20
ATOM     20  O   UNL     1      19.794  -6.523  11.875  1.00  0.00    -0.504 OA
ATOM     21  H   UNL     1      20.277  -5.638  11.981  1.00  0.00     0.293 HD
ENDBRANCH  17  20
ENDBRANCH   1  12
BRANCH   6  22
ATOM     22  O   UNL     1      14.348 -14.299  12.635  1.00  0.00    -0.507 OA
ATOM     23  H   UNL     1      14.152 -14.974  13.357  1.00  0.00     0.293 HD
ENDBRANCH   6  22
BRANCH   8  24
ATOM     24  O   UNL     1      10.303 -11.743  12.228  1.00  0.00    -0.508 OA
ATOM     25  H   UNL     1       9.816 -10.973  11.782  1.00  0.00     0.293 HD
ENDBRANCH   8  24
TORSDOF 5
ENDMDL
MODEL 3
REMARK VINA RESULT:    -5.720      1.188      2.706
REMARK INTER + INTRA:          -7.018
REMARK INTER:                  -6.700
REMARK INTRA:                  -0.318
REMARK UNBOUND:                -0.294
REMARK SMILES O=c1cc(-c2ccc(O)c(O)c2)oc2cc(O)cc(O)c12
REMARK SMILES IDX 4 1 3 2 2 3 1 4 21 5 19 6 18 7 16 8 15 9 14 10 13 11 5 12
REMARK SMILES IDX 6 13 7 14 8 15 12 16 10 17 9 18 11 20 20 22 17 24
REMARK H PARENT 9 19 11 21 20 23 17 25
REMARK Flexibility Score: inf
ROOT
ATOM      1  C   UNL     1      15.876  -9.357  12.410  1.00  0.00     0.138 A 
ATOM      2  C   UNL     1      17.242  -9.042  12.384  1.00  0.00     0.100 A 
ATOM      3  C   UNL     1      17.640  -7.708  12.291  1.00  0.00     0.197 A 
ATOM      4  O   UNL     1      18.871  -7.461  12.207  1.00  0.00    -0.289 OA
ATOM      5  C   UNL     1      16.665  -6.683  12.255  1.00  0.00     0.107 A 
ATOM      6  C   UNL     1      16.955  -5.288  12.202  1.00  0.00     0.134 A 
ATOM      7  C   UNL     1      15.907  -4.371  12.052  1.00  0.00     0.093 A 
ATOM      8  C   UNL     1      14.577  -4.795  12.015  1.00  0.00     0.123 A 
ATOM      9  C   UNL     1      14.281  -6.153  12.121  1.00  0.00     0.094 A 
ATOM     10  C   UNL     1      15.305  -7.095  12.236  1.00  0.00     0.146 A 
ATOM     11  O   UNL     1      14.981  -8.380  12.319  1.00  0.00    -0.456 OA
ENDROOT
BRANCH   1  12
ATOM     12  C   UNL     1      15.398 -10.760  12.508  1.00  0.00     0.021 A 
ATOM     13  C   UNL     1      16.292 -11.847  12.519  1.00  0.00     0.016 A 
ATOM     14  C   UNL     1      15.814 -13.156  12.624  1.00  0.00     0.051 A 
ATOM     15  C   UNL     1      14.442 -13.404  12.726  1.00  0.00     0.157 A 
ATOM     16  C   UNL     1      14.020 -11.015  12.626  1.00  0.00     0.062 A 
ATOM     17  C   UNL     1      13.539 -12.328  12.730  1.00  0.00     0.158 A 
BRANCH  15  18
ATOM     18  O   UNL     1      13.997 -14.721  12.829  1.00  0.00    -0.504 OA
ATOM     19  H   UNL     1      14.069 -15.248  13.691  1.00  0.00     0.293 HD
ENDBRANCH  15  18
BRANCH  17  20
ATOM     20  O   UNL     1      12.170 -12.567  12.837  1.00  0.00    -0.504 OA
ATOM     21  H   UNL     1      11.749 -13.416  12.477  1.00  0.00     0.293 HD
ENDBRANCH  17  20
ENDBRANCH   1  12
BRANCH   6  22
ATOM     22  O   UNL     1      18.241  -4.751  12.316  1.00  0.00    -0.507 OA
ATOM     23  H   UNL     1      18.987  -4.895  11.653  1.00  0.00     0.293 HD
ENDBRANCH   6  22
BRANCH   8  24
ATOM     24  O   UNL     1      13.540  -3.875  11.881  1.00  0.00    -0.508 OA
ATOM     25  H   UNL     1      12.895  -3.688  12.641  1.00  0.00     0.293 HD
ENDBRANCH   8  24
TORSDOF 5
ENDMDL
MODEL 4
REMARK VINA RESULT:    -4.838      1.140      6.837
REMARK INTER + INTRA:          -5.981
REMARK INTER:                  -5.688
REMARK INTRA:                  -0.294
REMARK UNBOUND:                -0.294
REMARK SMILES O=c1cc(-c2ccc(O)c(O)c2)oc2cc(O)cc(O)c12
REMARK SMILES IDX 4 1 3 2 2 3 1 4 21 5 19 6 18 7 16 8 15 9 14 10 13 11 5 12
REMARK SMILES IDX 6 13 7 14 8 15 12 16 10 17 9 18 11 20 20 22 17 24
REMARK H PARENT 9 19 11 21 20 23 17 25
REMARK Flexibility Score: inf
ROOT
ATOM      1  C   UNL     1      15.670  -8.526  12.527  1.00  0.00     0.138 A 
ATOM      2  C   UNL     1      14.325  -8.132  12.557  1.00  0.00     0.100 A 
ATOM      3  C   UNL     1      13.324  -9.102  12.630  1.00  0.00     0.197 A 
ATOM      4  O   UNL     1      12.125  -8.721  12.592  1.00  0.00    -0.289 OA
ATOM      5  C   UNL     1      13.674 -10.471  12.704  1.00  0.00     0.107 A 
ATOM      6  C   UNL     1      12.740 -11.543  12.823  1.00  0.00     0.134 A 
ATOM      7  C   UNL     1      13.198 -12.866  12.770  1.00  0.00     0.093 A 
ATOM      8  C   UNL     1      14.561 -13.153  12.665  1.00  0.00     0.123 A 
ATOM      9  C   UNL     1      15.485 -12.112  12.604  1.00  0.00     0.094 A 
ATOM     10  C   UNL     1      15.058 -10.783  12.618  1.00  0.00     0.146 A 
ATOM     11  O   UNL     1      15.970  -9.821  12.542  1.00  0.00    -0.456 OA
ENDROOT
BRANCH   1  12
ATOM     12  C   UNL     1      16.775  -7.537  12.451  1.00  0.00     0.021 A 
ATOM     13  C   UNL     1      18.122  -7.921  12.589  1.00  0.00     0.016 A 
ATOM     14  C   UNL     1      19.142  -6.970  12.501  1.00  0.00     0.051 A 
ATOM     15  C   UNL     1      18.840  -5.626  12.267  1.00  0.00     0.157 A 
ATOM     16  C   UNL     1      16.478  -6.185  12.201  1.00  0.00     0.062 A 
ATOM     17  C   UNL     1      17.501  -5.230  12.114  1.00  0.00     0.158 A 
BRANCH  15  18
ATOM     18  O   UNL     1      19.880  -4.701  12.185  1.00  0.00    -0.504 OA
ATOM     19  H   UNL     1      19.710  -3.706  12.094  1.00  0.00     0.293 HD
ENDBRANCH  15  18
BRANCH  17  20
ATOM     20  O   UNL     1      17.192  -3.892  11.876  1.00  0.00    -0.504 OA
ATOM     21  H   UNL     1      17.827  -3.145  12.134  1.00  0.00     0.293 HD
ENDBRANCH  17  20
ENDBRANCH   1  12
BRANCH   6  22
ATOM     22  O   UNL     1      11.367 -11.365  13.017  1.00  0.00    -0.507 OA
ATOM     23  H   UNL     1      10.656 -12.026  12.744  1.00  0.00     0.293 HD
ENDBRANCH   6  22
BRANCH   8  24
ATOM     24  O   UNL     1      15.008 -14.472  12.629  1.00  0.00    -0.508 OA
ATOM     25  H   UNL     1      15.247 -14.974  13.476  1.00  0.00     0.293 HD
ENDBRANCH   8  24
TORSDOF 5
ENDMDL
