MODEL 1
REMARK VINA RESULT:    19.869      0.000      0.000
REMARK INTER + INTRA:          24.368
REMARK INTER:                  23.934
REMARK INTRA:                   0.433
REMARK UNBOUND:                 0.433
REMARK SMILES CCCCc1oc(O)c2ccccc12
REMARK SMILES IDX 4 1 5 2 7 3 6 4 9 5 14 6 10 7 13 8 11 9 12 10 8 11 3 13 2 14
REMARK SMILES IDX 1 15
REMARK H PARENT 8 12
REMARK Flexibility Score: inf
ROOT
ATOM      1  C   UNL     1      16.137  48.996  35.191  1.00  0.00     0.076 C 
ENDROOT
BRANCH   1   2
ATOM      2  C   UNL     1      17.080  48.637  34.085  1.00  0.00     0.116 A 
ATOM      3  C   UNL     1      18.284  48.841  32.323  1.00  0.00     0.290 A 
ATOM      4  O   UNL     1      17.485  49.483  33.153  1.00  0.00    -0.430 OA
ATOM      5  C   UNL     1      18.408  47.528  32.716  1.00  0.00     0.066 A 
ATOM      6  C   UNL     1      17.638  47.395  33.840  1.00  0.00     0.027 A 
ATOM      7  C   UNL     1      19.120  46.460  32.175  1.00  0.00     0.016 A 
ATOM      8  C   UNL     1      17.521  46.175  34.507  1.00  0.00     0.012 A 
ATOM      9  C   UNL     1      19.025  45.217  32.827  1.00  0.00     0.001 A 
ATOM     10  C   UNL     1      18.229  45.075  33.988  1.00  0.00     0.001 A 
BRANCH   3  11
ATOM     11  O   UNL     1      18.899  49.419  31.218  1.00  0.00    -0.480 OA
ATOM     12  H   UNL     1      18.797  49.004  30.300  1.00  0.00     0.297 HD
ENDBRANCH   3  11
ENDBRANCH   1   2
BRANCH   1  13
ATOM     13  C   UNL     1      15.197  50.124  34.748  1.00  0.00     0.008 C 
BRANCH  13  14
ATOM     14  C   UNL     1      14.932  50.111  33.235  1.00  0.00    -0.003 C 
ATOM     15  C   UNL     1      13.442  50.064  32.897  1.00  0.00     0.004 C 
ENDBRANCH  13  14
ENDBRANCH   1  13
TORSDOF 4
ENDMDL
MODEL 2
REMARK VINA RESULT:    20.160      1.592      4.279
REMARK INTER + INTRA:          24.719
REMARK INTER:                  25.058
REMARK INTRA:                  -0.340
REMARK UNBOUND:                 0.433
REMARK SMILES CCCCc1oc(O)c2ccccc12
REMARK SMILES IDX 4 1 5 2 7 3 6 4 9 5 14 6 10 7 13 8 11 9 12 10 8 11 3 13 2 14
REMARK SMILES IDX 1 15
REMARK H PARENT 8 12
REMARK Flexibility Score: inf
ROOT
ATOM      1  C   UNL     1      18.543  45.226  33.824  1.00  0.00     0.076 C 
ENDROOT
BRANCH   1   2
ATOM      2  C   UNL     1      18.412  46.607  33.260  1.00  0.00     0.116 A 
ATOM      3  C   UNL     1      18.690  48.278  31.947  1.00  0.00     0.290 A 
ATOM      4  O   UNL     1      18.985  47.007  32.138  1.00  0.00    -0.430 OA
ATOM      5  C   UNL     1      17.901  48.734  32.977  1.00  0.00     0.066 A 
ATOM      6  C   UNL     1      17.724  47.670  33.819  1.00  0.00     0.027 A 
ATOM      7  C   UNL     1      17.342  49.983  33.236  1.00  0.00     0.016 A 
ATOM      8  C   UNL     1      16.973  47.779  34.990  1.00  0.00     0.012 A 
ATOM      9  C   UNL     1      16.577  50.125  34.409  1.00  0.00     0.001 A 
ATOM     10  C   UNL     1      16.393  49.027  35.282  1.00  0.00     0.001 A 
BRANCH   3  11
ATOM     11  O   UNL     1      19.124  49.031  30.862  1.00  0.00    -0.480 OA
ATOM     12  H   UNL     1      20.032  48.858  30.449  1.00  0.00     0.297 HD
ENDBRANCH   3  11
ENDBRANCH   1   2
BRANCH   1  13
ATOM     13  C   UNL     1      17.999  44.190  32.832  1.00  0.00     0.008 C 
BRANCH  13  14
ATOM     14  C   UNL     1      16.999  43.221  33.482  1.00  0.00    -0.003 C 
ATOM     15  C   UNL     1      15.600  43.823  33.621  1.00  0.00     0.004 C 
ENDBRANCH  13  14
ENDBRANCH   1  13
TORSDOF 4
ENDMDL
MODEL 3
REMARK VINA RESULT:    20.368     15.055     16.206
REMARK INTER + INTRA:          24.969
REMARK INTER:                  25.243
REMARK INTRA:                  -0.274
REMARK UNBOUND:                 0.433
REMARK SMILES CCCCc1oc(O)c2ccccc12
REMARK SMILES IDX 4 1 5 2 7 3 6 4 9 5 14 6 10 7 13 8 11 9 12 10 8 11 3 13 2 14
REMARK SMILES IDX 1 15
REMARK H PARENT 8 12
REMARK Flexibility Score: inf
ROOT
ATOM      1  C   UNL     1      14.628  33.999  39.390  1.00  0.00     0.076 C 
ENDROOT
BRANCH   1   2
ATOM      2  C   UNL     1      14.561  34.370  40.839  1.00  0.00     0.116 A 
ATOM      3  C   UNL     1      13.748  34.705  42.794  1.00  0.00     0.290 A 
ATOM      4  O   UNL     1      13.470  34.274  41.579  1.00  0.00    -0.430 OA
ATOM      5  C   UNL     1      15.063  35.102  42.859  1.00  0.00     0.066 A 
ATOM      6  C   UNL     1      15.585  34.892  41.611  1.00  0.00     0.027 A 
ATOM      7  C   UNL     1      15.824  35.629  43.899  1.00  0.00     0.016 A 
ATOM      8  C   UNL     1      16.912  35.198  41.310  1.00  0.00     0.012 A 
ATOM      9  C   UNL     1      17.168  35.946  43.628  1.00  0.00     0.001 A 
ATOM     10  C   UNL     1      17.710  35.732  42.339  1.00  0.00     0.001 A 
BRANCH   3  11
ATOM     11  O   UNL     1      12.834  34.747  43.841  1.00  0.00    -0.480 OA
ATOM     12  H   UNL     1      11.890  35.079  43.684  1.00  0.00     0.297 HD
ENDBRANCH   3  11
ENDBRANCH   1   2
BRANCH   1  13
ATOM     13  C   UNL     1      13.880  35.032  38.538  1.00  0.00     0.008 C 
BRANCH  13  14
ATOM     14  C   UNL     1      12.981  34.380  37.477  1.00  0.00    -0.003 C 
ATOM     15  C   UNL     1      12.571  32.955  37.846  1.00  0.00     0.004 C 
ENDBRANCH  13  14
ENDBRANCH   1  13
TORSDOF 4
ENDMDL
MODEL 4
REMARK VINA RESULT:    22.376     13.426     15.556
REMARK INTER + INTRA:          27.387
REMARK INTER:                  27.512
REMARK INTRA:                  -0.125
REMARK UNBOUND:                 0.433
REMARK SMILES CCCCc1oc(O)c2ccccc12
REMARK SMILES IDX 4 1 5 2 7 3 6 4 9 5 14 6 10 7 13 8 11 9 12 10 8 11 3 13 2 14
REMARK SMILES IDX 1 15
REMARK H PARENT 8 12
REMARK Flexibility Score: inf
ROOT
ATOM      1  C   UNL     1      14.326  34.718  40.801  1.00  0.00     0.076 C 
ENDROOT
BRANCH   1   2
ATOM      2  C   UNL     1      13.770  34.289  39.479  1.00  0.00     0.116 A 
ATOM      3  C   UNL     1      12.727  33.113  38.022  1.00  0.00     0.290 A 
ATOM      4  O   UNL     1      13.024  33.212  39.303  1.00  0.00    -0.430 OA
ATOM      5  C   UNL     1      13.298  34.155  37.329  1.00  0.00     0.066 A 
ATOM      6  C   UNL     1      13.967  34.907  38.256  1.00  0.00     0.027 A 
ATOM      7  C   UNL     1      13.286  34.487  35.976  1.00  0.00     0.016 A 
ATOM      8  C   UNL     1      14.680  36.050  37.896  1.00  0.00     0.012 A 
ATOM      9  C   UNL     1      13.993  35.638  35.581  1.00  0.00     0.001 A 
ATOM     10  C   UNL     1      14.688  36.416  36.537  1.00  0.00     0.001 A 
BRANCH   3  11
ATOM     11  O   UNL     1      11.953  32.098  37.471  1.00  0.00    -0.480 OA
ATOM     12  H   UNL     1      12.131  31.130  37.711  1.00  0.00     0.297 HD
ENDBRANCH   3  11
ENDBRANCH   1   2
BRANCH   1  13
ATOM     13  C   UNL     1      15.859  34.660  40.782  1.00  0.00     0.008 C 
BRANCH  13  14
ATOM     14  C   UNL     1      16.451  34.263  42.143  1.00  0.00    -0.003 C 
ATOM     15  C   UNL     1      16.889  35.471  42.971  1.00  0.00     0.004 C 
ENDBRANCH  13  14
ENDBRANCH   1  13
TORSDOF 4
ENDMDL
MODEL 5
REMARK VINA RESULT:    22.482     14.317     16.040
REMARK INTER + INTRA:          27.515
REMARK INTER:                  27.727
REMARK INTRA:                  -0.212
REMARK UNBOUND:                 0.433
REMARK SMILES CCCCc1oc(O)c2ccccc12
REMARK SMILES IDX 4 1 5 2 7 3 6 4 9 5 14 6 10 7 13 8 11 9 12 10 8 11 3 13 2 14
REMARK SMILES IDX 1 15
REMARK H PARENT 8 12
REMARK Flexibility Score: inf
ROOT
ATOM      1  C   UNL     1      14.541  34.765  40.870  1.00  0.00     0.076 C 
ENDROOT
BRANCH   1   2
ATOM      2  C   UNL     1      14.109  34.544  39.454  1.00  0.00     0.116 A 
ATOM      3  C   UNL     1      13.838  34.892  37.356  1.00  0.00     0.290 A 
ATOM      4  O   UNL     1      14.385  35.368  38.457  1.00  0.00    -0.430 OA
ATOM      5  C   UNL     1      13.176  33.719  37.634  1.00  0.00     0.066 A 
ATOM      6  C   UNL     1      13.345  33.495  38.973  1.00  0.00     0.027 A 
ATOM      7  C   UNL     1      12.444  32.852  36.825  1.00  0.00     0.016 A 
ATOM      8  C   UNL     1      12.789  32.383  39.606  1.00  0.00     0.012 A 
ATOM      9  C   UNL     1      11.873  31.719  37.434  1.00  0.00     0.001 A 
ATOM     10  C   UNL     1      12.045  31.485  38.819  1.00  0.00     0.001 A 
BRANCH   3  11
ATOM     11  O   UNL     1      13.924  35.501  36.109  1.00  0.00    -0.480 OA
ATOM     12  H   UNL     1      14.501  35.097  35.381  1.00  0.00     0.297 HD
ENDBRANCH   3  11
ENDBRANCH   1   2
BRANCH   1  13
ATOM     13  C   UNL     1      16.069  34.689  40.982  1.00  0.00     0.008 C 
BRANCH  13  14
ATOM     14  C   UNL     1      16.540  34.385  42.413  1.00  0.00    -0.003 C 
ATOM     15  C   UNL     1      17.017  35.634  43.154  1.00  0.00     0.004 C 
ENDBRANCH  13  14
ENDBRANCH   1  13
TORSDOF 4
ENDMDL
MODEL 6
REMARK VINA RESULT:    22.781     15.218     16.232
REMARK INTER + INTRA:          27.875
REMARK INTER:                  28.118
REMARK INTRA:                  -0.242
REMARK UNBOUND:                 0.433
REMARK SMILES CCCCc1oc(O)c2ccccc12
REMARK SMILES IDX 4 1 5 2 7 3 6 4 9 5 14 6 10 7 13 8 11 9 12 10 8 11 3 13 2 14
REMARK SMILES IDX 1 15
REMARK H PARENT 8 12
REMARK Flexibility Score: inf
ROOT
ATOM      1  C   UNL     1      13.241  34.700  38.620  1.00  0.00     0.076 C 
ENDROOT
BRANCH   1   2
ATOM      2  C   UNL     1      14.474  34.485  39.442  1.00  0.00     0.116 A 
ATOM      3  C   UNL     1      16.477  33.916  39.953  1.00  0.00     0.290 A 
ATOM      4  O   UNL     1      15.608  34.001  38.964  1.00  0.00    -0.430 OA
ATOM      5  C   UNL     1      15.898  34.354  41.121  1.00  0.00     0.066 A 
ATOM      6  C   UNL     1      14.618  34.716  40.799  1.00  0.00     0.027 A 
ATOM      7  C   UNL     1      16.389  34.453  42.421  1.00  0.00     0.016 A 
ATOM      8  C   UNL     1      13.731  35.203  41.758  1.00  0.00     0.012 A 
ATOM      9  C   UNL     1      15.519  34.944  43.412  1.00  0.00     0.001 A 
ATOM     10  C   UNL     1      14.195  35.317  43.082  1.00  0.00     0.001 A 
BRANCH   3  11
ATOM     11  O   UNL     1      17.778  33.448  39.817  1.00  0.00    -0.480 OA
ATOM     12  H   UNL     1      18.014  32.501  40.091  1.00  0.00     0.297 HD
ENDBRANCH   3  11
ENDBRANCH   1   2
BRANCH   1  13
ATOM     13  C   UNL     1      13.123  33.618  37.539  1.00  0.00     0.008 C 
BRANCH  13  14
ATOM     14  C   UNL     1      12.009  32.604  37.840  1.00  0.00    -0.003 C 
ATOM     15  C   UNL     1      12.414  31.167  37.512  1.00  0.00     0.004 C 
ENDBRANCH  13  14
ENDBRANCH   1  13
TORSDOF 4
ENDMDL
