MODEL 1
REMARK VINA RESULT:    -6.972      0.000      0.000
REMARK INTER + INTRA:         -10.863
REMARK INTER:                  -9.621
REMARK INTRA:                  -1.242
REMARK UNBOUND:                -1.242
REMARK SMILES CC[C@H](CC[C@H](C)[C@H]1CC[C@H]2[C@@H]3CC=C4C[C@H](O)CC[C@]4(C)[C@H]3CC[C@@]12C)C(C)C
REMARK SMILES IDX 5 1 4 2 3 3 2 4 1 5 28 6 29 7 30 8 6 9 7 10 8 11 9 12 26 13
REMARK SMILES IDX 10 14 11 15 25 16 27 17 12 18 24 19 23 20 13 21 21 22 14 23
REMARK SMILES IDX 15 24 20 25 22 26 16 27 19 28 17 29 18 30
REMARK H PARENT 18 31
REMARK Flexibility Score: inf
ROOT
ATOM      1  C   UNL     1     170.461 173.969 152.286  1.00  0.00     0.004 C 
ENDROOT
BRANCH   1   2
ATOM      2  C   UNL     1     171.293 174.618 151.156  1.00  0.00     0.004 C 
BRANCH   2   3
ATOM      3  C   UNL     1     172.810 174.280 151.256  1.00  0.00    -0.009 C 
BRANCH   3   4
ATOM      4  C   UNL     1     173.126 173.521 152.584  1.00  0.00     0.000 C 
ATOM      5  C   UNL     1     174.468 173.883 153.235  1.00  0.00     0.004 C 
ENDBRANCH   3   4
BRANCH   3   6
ATOM      6  C   UNL     1     173.345 173.541 149.975  1.00  0.00    -0.014 C 
ATOM      7  C   UNL     1     173.177 172.011 150.071  1.00  0.00     0.007 C 
ATOM      8  C   UNL     1     174.834 173.846 149.712  1.00  0.00     0.007 C 
ENDBRANCH   3   6
ENDBRANCH   2   3
ENDBRANCH   1   2
BRANCH   1   9
ATOM      9  C   UNL     1     169.177 173.235 151.811  1.00  0.00    -0.011 C 
ATOM     10  C   UNL     1     169.526 172.075 150.855  1.00  0.00     0.008 C 
BRANCH   9  11
ATOM     11  C   UNL     1     168.077 174.226 151.281  1.00  0.00    -0.002 C 
ATOM     12  C   UNL     1     167.756 174.146 149.795  1.00  0.00     0.005 C 
ATOM     13  C   UNL     1     166.684 174.197 151.980  1.00  0.00    -0.026 C 
ATOM     14  C   UNL     1     166.544 175.044 149.642  1.00  0.00     0.005 C 
ATOM     15  C   UNL     1     165.745 174.926 150.961  1.00  0.00    -0.001 C 
ATOM     16  C   UNL     1     166.172 172.753 152.241  1.00  0.00     0.007 C 
ATOM     17  C   UNL     1     166.759 174.980 153.317  1.00  0.00     0.012 C 
ATOM     18  C   UNL     1     164.363 174.234 150.714  1.00  0.00     0.000 C 
ATOM     19  C   UNL     1     164.741 172.732 152.793  1.00  0.00     0.005 C 
ATOM     20  C   UNL     1     163.749 173.653 152.016  1.00  0.00     0.003 C 
ATOM     21  C   UNL     1     163.387 175.247 150.080  1.00  0.00     0.031 C 
ATOM     22  C   UNL     1     162.358 172.961 151.749  1.00  0.00    -0.008 C 
ATOM     23  C   UNL     1     161.974 174.751 150.009  1.00  0.00    -0.027 C 
ATOM     24  C   UNL     1     161.462 173.844 150.863  1.00  0.00    -0.065 C 
ATOM     25  C   UNL     1     161.642 172.757 153.118  1.00  0.00     0.014 C 
ATOM     26  C   UNL     1     162.537 171.579 151.043  1.00  0.00     0.016 C 
ATOM     27  C   UNL     1     159.976 173.532 150.780  1.00  0.00     0.063 C 
ATOM     28  C   UNL     1     160.190 172.286 152.968  1.00  0.00     0.033 C 
ATOM     29  C   UNL     1     159.361 173.295 152.167  1.00  0.00     0.118 C 
BRANCH  29  30
ATOM     30  O   UNL     1     159.279 174.506 152.874  1.00  0.00    -0.393 OA
ATOM     31  H   UNL     1     160.205 174.751 153.132  1.00  0.00     0.210 HD
ENDBRANCH  29  30
ENDBRANCH   9  11
ENDBRANCH   1   9
TORSDOF 7
ENDMDL
MODEL 2
REMARK VINA RESULT:    -6.857      6.908     10.871
REMARK INTER + INTRA:         -10.704
REMARK INTER:                  -9.527
REMARK INTRA:                  -1.177
REMARK UNBOUND:                -1.242
REMARK SMILES CC[C@H](CC[C@H](C)[C@H]1CC[C@H]2[C@@H]3CC=C4C[C@H](O)CC[C@]4(C)[C@H]3CC[C@@]12C)C(C)C
REMARK SMILES IDX 5 1 4 2 3 3 2 4 1 5 28 6 29 7 30 8 6 9 7 10 8 11 9 12 26 13
REMARK SMILES IDX 10 14 11 15 25 16 27 17 12 18 24 19 23 20 13 21 21 22 14 23
REMARK SMILES IDX 15 24 20 25 22 26 16 27 19 28 17 29 18 30
REMARK H PARENT 18 31
REMARK Flexibility Score: inf
ROOT
ATOM      1  C   UNL     1     174.835 164.054 152.246  1.00  0.00     0.004 C 
ENDROOT
BRANCH   1   2
ATOM      2  C   UNL     1     175.761 163.488 151.145  1.00  0.00     0.004 C 
BRANCH   2   3
ATOM      3  C   UNL     1     175.986 161.952 151.280  1.00  0.00    -0.009 C 
BRANCH   3   4
ATOM      4  C   UNL     1     175.275 161.393 152.553  1.00  0.00     0.000 C 
ATOM      5  C   UNL     1     176.122 160.437 153.403  1.00  0.00     0.004 C 
ENDBRANCH   3   4
BRANCH   3   6
ATOM      6  C   UNL     1     175.610 161.174 149.965  1.00  0.00    -0.014 C 
ATOM      7  C   UNL     1     174.088 161.148 149.718  1.00  0.00     0.007 C 
ATOM      8  C   UNL     1     176.119 159.718 149.990  1.00  0.00     0.007 C 
ENDBRANCH   3   6
ENDBRANCH   2   3
ENDBRANCH   1   2
BRANCH   1   9
ATOM      9  C   UNL     1     173.807 165.109 151.754  1.00  0.00    -0.011 C 
ATOM     10  C   UNL     1     172.824 164.490 150.737  1.00  0.00     0.008 C 
BRANCH   9  11
ATOM     11  C   UNL     1     174.490 166.446 151.289  1.00  0.00    -0.002 C 
ATOM     12  C   UNL     1     174.407 166.765 149.802  1.00  0.00     0.005 C 
ATOM     13  C   UNL     1     174.047 167.765 151.993  1.00  0.00    -0.026 C 
ATOM     14  C   UNL     1     174.950 168.177 149.709  1.00  0.00     0.005 C 
ATOM     15  C   UNL     1     174.549 168.887 151.023  1.00  0.00    -0.001 C 
ATOM     16  C   UNL     1     172.506 167.862 152.173  1.00  0.00     0.007 C 
ATOM     17  C   UNL     1     174.747 167.875 153.373  1.00  0.00     0.012 C 
ATOM     18  C   UNL     1     173.524 170.036 150.744  1.00  0.00     0.000 C 
ATOM     19  C   UNL     1     172.069 169.222 152.731  1.00  0.00     0.005 C 
ATOM     20  C   UNL     1     172.728 170.442 152.014  1.00  0.00     0.003 C 
ATOM     21  C   UNL     1     174.267 171.262 150.176  1.00  0.00     0.031 C 
ATOM     22  C   UNL     1     171.701 171.600 151.715  1.00  0.00    -0.008 C 
ATOM     23  C   UNL     1     173.412 172.490 150.084  1.00  0.00    -0.027 C 
ATOM     24  C   UNL     1     172.355 172.720 150.887  1.00  0.00    -0.065 C 
ATOM     25  C   UNL     1     171.236 172.205 153.074  1.00  0.00     0.014 C 
ATOM     26  C   UNL     1     170.459 171.070 150.928  1.00  0.00     0.016 C 
ATOM     27  C   UNL     1     171.658 174.068 150.794  1.00  0.00     0.063 C 
ATOM     28  C   UNL     1     170.399 173.479 152.905  1.00  0.00     0.033 C 
ATOM     29  C   UNL     1     171.188 174.567 152.169  1.00  0.00     0.118 C 
BRANCH  29  30
ATOM     30  O   UNL     1     172.292 174.957 152.945  1.00  0.00    -0.393 OA
ATOM     31  H   UNL     1     172.112 174.654 153.872  1.00  0.00     0.210 HD
ENDBRANCH  29  30
ENDBRANCH   9  11
ENDBRANCH   1   9
TORSDOF 7
ENDMDL
MODEL 3
REMARK VINA RESULT:    -6.777      7.846     11.641
REMARK INTER + INTRA:         -10.594
REMARK INTER:                  -8.591
REMARK INTRA:                  -2.003
REMARK UNBOUND:                -1.242
REMARK SMILES CC[C@H](CC[C@H](C)[C@H]1CC[C@H]2[C@@H]3CC=C4C[C@H](O)CC[C@]4(C)[C@H]3CC[C@@]12C)C(C)C
REMARK SMILES IDX 5 1 4 2 3 3 2 4 1 5 28 6 29 7 30 8 6 9 7 10 8 11 9 12 26 13
REMARK SMILES IDX 10 14 11 15 25 16 27 17 12 18 24 19 23 20 13 21 21 22 14 23
REMARK SMILES IDX 15 24 20 25 22 26 16 27 19 28 17 29 18 30
REMARK H PARENT 18 31
REMARK Flexibility Score: inf
ROOT
ATOM      1  C   UNL     1     172.230 163.347 152.889  1.00  0.00     0.004 C 
ENDROOT
BRANCH   1   2
ATOM      2  C   UNL     1     173.712 162.922 152.777  1.00  0.00     0.004 C 
BRANCH   2   3
ATOM      3  C   UNL     1     173.922 161.720 151.807  1.00  0.00    -0.009 C 
BRANCH   3   4
ATOM      4  C   UNL     1     172.555 161.207 151.253  1.00  0.00     0.000 C 
ATOM      5  C   UNL     1     172.318 161.474 149.760  1.00  0.00     0.004 C 
ENDBRANCH   3   4
BRANCH   3   6
ATOM      6  C   UNL     1     174.971 162.038 150.679  1.00  0.00    -0.014 C 
ATOM      7  C   UNL     1     175.748 160.782 150.235  1.00  0.00     0.007 C 
ATOM      8  C   UNL     1     175.994 163.103 151.126  1.00  0.00     0.007 C 
ENDBRANCH   3   6
ENDBRANCH   2   3
ENDBRANCH   1   2
BRANCH   1   9
ATOM      9  C   UNL     1     171.903 164.736 152.276  1.00  0.00    -0.011 C 
ATOM     10  C   UNL     1     170.777 164.625 151.226  1.00  0.00     0.008 C 
BRANCH   9  11
ATOM     11  C   UNL     1     173.188 165.500 151.794  1.00  0.00    -0.002 C 
ATOM     12  C   UNL     1     173.388 165.604 150.288  1.00  0.00     0.005 C 
ATOM     13  C   UNL     1     173.400 166.955 152.313  1.00  0.00    -0.026 C 
ATOM     14  C   UNL     1     174.561 166.553 150.147  1.00  0.00     0.005 C 
ATOM     15  C   UNL     1     174.461 167.548 151.326  1.00  0.00    -0.001 C 
ATOM     16  C   UNL     1     172.097 167.803 152.271  1.00  0.00     0.007 C 
ATOM     17  C   UNL     1     173.955 166.914 153.760  1.00  0.00     0.012 C 
ATOM     18  C   UNL     1     174.159 168.995 150.810  1.00  0.00     0.000 C 
ATOM     19  C   UNL     1     172.344 169.271 152.643  1.00  0.00     0.005 C 
ATOM     20  C   UNL     1     173.571 169.909 151.919  1.00  0.00     0.003 C 
ATOM     21  C   UNL     1     175.450 169.619 150.244  1.00  0.00     0.031 C 
ATOM     22  C   UNL     1     173.273 171.361 151.382  1.00  0.00    -0.008 C 
ATOM     23  C   UNL     1     175.319 171.080 149.929  1.00  0.00    -0.027 C 
ATOM     24  C   UNL     1     174.455 171.900 150.557  1.00  0.00    -0.065 C 
ATOM     25  C   UNL     1     173.063 172.302 152.606  1.00  0.00     0.014 C 
ATOM     26  C   UNL     1     171.995 171.384 150.483  1.00  0.00     0.016 C 
ATOM     27  C   UNL     1     174.520 173.387 150.252  1.00  0.00     0.063 C 
ATOM     28  C   UNL     1     172.977 173.783 152.214  1.00  0.00     0.033 C 
ATOM     29  C   UNL     1     174.253 174.242 151.500  1.00  0.00     0.118 C 
BRANCH  29  30
ATOM     30  O   UNL     1     175.343 174.162 152.384  1.00  0.00    -0.393 OA
ATOM     31  H   UNL     1     176.088 173.743 151.882  1.00  0.00     0.210 HD
ENDBRANCH  29  30
ENDBRANCH   9  11
ENDBRANCH   1   9
TORSDOF 7
ENDMDL
MODEL 4
REMARK VINA RESULT:    -6.774      8.144     12.447
REMARK INTER + INTRA:         -10.590
REMARK INTER:                  -8.715
REMARK INTRA:                  -1.875
REMARK UNBOUND:                -1.242
REMARK SMILES CC[C@H](CC[C@H](C)[C@H]1CC[C@H]2[C@@H]3CC=C4C[C@H](O)CC[C@]4(C)[C@H]3CC[C@@]12C)C(C)C
REMARK SMILES IDX 5 1 4 2 3 3 2 4 1 5 28 6 29 7 30 8 6 9 7 10 8 11 9 12 26 13
REMARK SMILES IDX 10 14 11 15 25 16 27 17 12 18 24 19 23 20 13 21 21 22 14 23
REMARK SMILES IDX 15 24 20 25 22 26 16 27 19 28 17 29 18 30
REMARK H PARENT 18 31
REMARK Flexibility Score: inf
ROOT
ATOM      1  C   UNL     1     171.418 170.116 150.818  1.00  0.00     0.004 C 
ENDROOT
BRANCH   1   2
ATOM      2  C   UNL     1     172.716 170.456 150.049  1.00  0.00     0.004 C 
BRANCH   2   3
ATOM      3  C   UNL     1     173.544 171.582 150.738  1.00  0.00    -0.009 C 
BRANCH   3   4
ATOM      4  C   UNL     1     175.001 171.104 151.030  1.00  0.00     0.000 C 
ATOM      5  C   UNL     1     175.538 170.035 150.069  1.00  0.00     0.004 C 
ENDBRANCH   3   4
BRANCH   3   6
ATOM      6  C   UNL     1     173.480 172.940 149.947  1.00  0.00    -0.014 C 
ATOM      7  C   UNL     1     174.819 173.704 149.992  1.00  0.00     0.007 C 
ATOM      8  C   UNL     1     172.376 173.872 150.487  1.00  0.00     0.007 C 
ENDBRANCH   3   6
ENDBRANCH   2   3
ENDBRANCH   1   2
BRANCH   1   9
ATOM      9  C   UNL     1     171.483 168.815 151.664  1.00  0.00    -0.011 C 
ATOM     10  C   UNL     1     170.945 169.057 153.091  1.00  0.00     0.008 C 
BRANCH   9  11
ATOM     11  C   UNL     1     172.892 168.120 151.595  1.00  0.00    -0.002 C 
ATOM     12  C   UNL     1     173.631 167.957 152.915  1.00  0.00     0.005 C 
ATOM     13  C   UNL     1     172.968 166.711 150.932  1.00  0.00    -0.026 C 
ATOM     14  C   UNL     1     174.819 167.087 152.555  1.00  0.00     0.005 C 
ATOM     15  C   UNL     1     174.344 166.147 151.423  1.00  0.00    -0.001 C 
ATOM     16  C   UNL     1     171.813 165.773 151.380  1.00  0.00     0.007 C 
ATOM     17  C   UNL     1     172.955 166.863 149.388  1.00  0.00     0.012 C 
ATOM     18  C   UNL     1     174.320 164.659 151.909  1.00  0.00     0.000 C 
ATOM     19  C   UNL     1     171.978 164.346 150.841  1.00  0.00     0.005 C 
ATOM     20  C   UNL     1     173.413 163.761 151.025  1.00  0.00     0.003 C 
ATOM     21  C   UNL     1     175.757 164.100 151.925  1.00  0.00     0.031 C 
ATOM     22  C   UNL     1     173.401 162.267 151.528  1.00  0.00    -0.008 C 
ATOM     23  C   UNL     1     175.820 162.620 152.161  1.00  0.00    -0.027 C 
ATOM     24  C   UNL     1     174.826 161.773 151.831  1.00  0.00    -0.065 C 
ATOM     25  C   UNL     1     172.804 161.375 150.399  1.00  0.00     0.014 C 
ATOM     26  C   UNL     1     172.542 162.110 152.824  1.00  0.00     0.016 C 
ATOM     27  C   UNL     1     175.070 160.281 151.984  1.00  0.00     0.063 C 
ATOM     28  C   UNL     1     172.938 159.875 150.689  1.00  0.00     0.033 C 
ATOM     29  C   UNL     1     174.407 159.472 150.859  1.00  0.00     0.118 C 
BRANCH  29  30
ATOM     30  O   UNL     1     175.094 159.671 149.650  1.00  0.00    -0.393 OA
ATOM     31  H   UNL     1     174.834 158.930 149.047  1.00  0.00     0.210 HD
ENDBRANCH  29  30
ENDBRANCH   9  11
ENDBRANCH   1   9
TORSDOF 7
ENDMDL
MODEL 5
REMARK VINA RESULT:    -6.755     14.595     17.578
REMARK INTER + INTRA:         -10.564
REMARK INTER:                  -8.387
REMARK INTRA:                  -2.176
REMARK UNBOUND:                -1.242
REMARK SMILES CC[C@H](CC[C@H](C)[C@H]1CC[C@H]2[C@@H]3CC=C4C[C@H](O)CC[C@]4(C)[C@H]3CC[C@@]12C)C(C)C
REMARK SMILES IDX 5 1 4 2 3 3 2 4 1 5 28 6 29 7 30 8 6 9 7 10 8 11 9 12 26 13
REMARK SMILES IDX 10 14 11 15 25 16 27 17 12 18 24 19 23 20 13 21 21 22 14 23
REMARK SMILES IDX 15 24 20 25 22 26 16 27 19 28 17 29 18 30
REMARK H PARENT 18 31
REMARK Flexibility Score: inf
ROOT
ATOM      1  C   UNL     1     172.310 161.825 152.074  1.00  0.00     0.004 C 
ENDROOT
BRANCH   1   2
ATOM      2  C   UNL     1     173.062 161.732 150.726  1.00  0.00     0.004 C 
BRANCH   2   3
ATOM      3  C   UNL     1     173.040 160.295 150.123  1.00  0.00    -0.009 C 
BRANCH   3   4
ATOM      4  C   UNL     1     174.438 159.613 150.256  1.00  0.00     0.000 C 
ATOM      5  C   UNL     1     175.638 160.556 150.094  1.00  0.00     0.004 C 
ENDBRANCH   3   4
BRANCH   3   6
ATOM      6  C   UNL     1     171.864 159.423 150.698  1.00  0.00    -0.014 C 
ATOM      7  C   UNL     1     172.354 158.063 151.232  1.00  0.00     0.007 C 
ATOM      8  C   UNL     1     170.771 159.160 149.642  1.00  0.00     0.007 C 
ENDBRANCH   3   6
ENDBRANCH   2   3
ENDBRANCH   1   2
BRANCH   1   9
ATOM      9  C   UNL     1     173.222 161.798 153.331  1.00  0.00    -0.011 C 
ATOM     10  C   UNL     1     174.524 162.591 153.087  1.00  0.00     0.008 C 
BRANCH   9  11
ATOM     11  C   UNL     1     173.425 160.346 153.898  1.00  0.00    -0.002 C 
ATOM     12  C   UNL     1     174.865 159.880 154.064  1.00  0.00     0.005 C 
ATOM     13  C   UNL     1     172.748 160.003 155.260  1.00  0.00    -0.026 C 
ATOM     14  C   UNL     1     174.732 158.567 154.809  1.00  0.00     0.005 C 
ATOM     15  C   UNL     1     173.497 158.710 155.728  1.00  0.00    -0.001 C 
ATOM     16  C   UNL     1     172.916 161.131 156.316  1.00  0.00     0.007 C 
ATOM     17  C   UNL     1     171.241 159.714 155.032  1.00  0.00     0.012 C 
ATOM     18  C   UNL     1     173.919 158.692 157.235  1.00  0.00     0.000 C 
ATOM     19  C   UNL     1     172.378 160.726 157.693  1.00  0.00     0.005 C 
ATOM     20  C   UNL     1     172.837 159.310 158.162  1.00  0.00     0.003 C 
ATOM     21  C   UNL     1     174.216 157.242 157.668  1.00  0.00     0.031 C 
ATOM     22  C   UNL     1     173.280 159.283 159.675  1.00  0.00    -0.008 C 
ATOM     23  C   UNL     1     174.413 157.089 159.148  1.00  0.00    -0.027 C 
ATOM     24  C   UNL     1     173.857 157.909 160.059  1.00  0.00    -0.065 C 
ATOM     25  C   UNL     1     172.023 159.549 160.557  1.00  0.00     0.014 C 
ATOM     26  C   UNL     1     174.363 160.370 159.970  1.00  0.00     0.016 C 
ATOM     27  C   UNL     1     174.010 157.563 161.531  1.00  0.00     0.063 C 
ATOM     28  C   UNL     1     172.287 159.336 162.053  1.00  0.00     0.033 C 
ATOM     29  C   UNL     1     172.746 157.902 162.336  1.00  0.00     0.118 C 
BRANCH  29  30
ATOM     30  O   UNL     1     171.714 157.004 162.017  1.00  0.00    -0.393 OA
ATOM     31  H   UNL     1     171.753 156.858 161.038  1.00  0.00     0.210 HD
ENDBRANCH  29  30
ENDBRANCH   9  11
ENDBRANCH   1   9
TORSDOF 7
ENDMDL
MODEL 6
REMARK VINA RESULT:    -6.688      8.466     12.589
REMARK INTER + INTRA:         -10.471
REMARK INTER:                  -9.000
REMARK INTRA:                  -1.471
REMARK UNBOUND:                -1.242
REMARK SMILES CC[C@H](CC[C@H](C)[C@H]1CC[C@H]2[C@@H]3CC=C4C[C@H](O)CC[C@]4(C)[C@H]3CC[C@@]12C)C(C)C
REMARK SMILES IDX 5 1 4 2 3 3 2 4 1 5 28 6 29 7 30 8 6 9 7 10 8 11 9 12 26 13
REMARK SMILES IDX 10 14 11 15 25 16 27 17 12 18 24 19 23 20 13 21 21 22 14 23
REMARK SMILES IDX 15 24 20 25 22 26 16 27 19 28 17 29 18 30
REMARK H PARENT 18 31
REMARK Flexibility Score: inf
ROOT
ATOM      1  C   UNL     1     174.711 169.751 151.397  1.00  0.00     0.004 C 
ENDROOT
BRANCH   1   2
ATOM      2  C   UNL     1     174.784 170.965 150.442  1.00  0.00     0.004 C 
BRANCH   2   3
ATOM      3  C   UNL     1     173.380 171.553 150.110  1.00  0.00    -0.009 C 
BRANCH   3   4
ATOM      4  C   UNL     1     172.335 171.153 151.200  1.00  0.00     0.000 C 
ATOM      5  C   UNL     1     171.109 170.394 150.675  1.00  0.00     0.004 C 
ENDBRANCH   3   4
BRANCH   3   6
ATOM      6  C   UNL     1     173.430 173.101 149.834  1.00  0.00    -0.014 C 
ATOM      7  C   UNL     1     174.839 173.687 150.051  1.00  0.00     0.007 C 
ATOM      8  C   UNL     1     172.442 173.879 150.729  1.00  0.00     0.007 C 
ENDBRANCH   3   6
ENDBRANCH   2   3
ENDBRANCH   1   2
BRANCH   1   9
ATOM      9  C   UNL     1     174.817 168.367 150.702  1.00  0.00    -0.011 C 
ATOM     10  C   UNL     1     175.230 168.522 149.223  1.00  0.00     0.008 C 
BRANCH   9  11
ATOM     11  C   UNL     1     173.549 167.470 150.947  1.00  0.00    -0.002 C 
ATOM     12  C   UNL     1     172.687 167.171 149.728  1.00  0.00     0.005 C 
ATOM     13  C   UNL     1     173.768 166.079 151.616  1.00  0.00    -0.026 C 
ATOM     14  C   UNL     1     171.697 166.141 150.234  1.00  0.00     0.005 C 
ATOM     15  C   UNL     1     172.444 165.305 151.300  1.00  0.00    -0.001 C 
ATOM     16  C   UNL     1     174.988 165.315 151.029  1.00  0.00     0.007 C 
ATOM     17  C   UNL     1     173.947 166.262 153.146  1.00  0.00     0.012 C 
ATOM     18  C   UNL     1     172.633 163.829 150.817  1.00  0.00     0.000 C 
ATOM     19  C   UNL     1     175.108 163.892 151.587  1.00  0.00     0.005 C 
ATOM     20  C   UNL     1     173.767 163.095 151.584  1.00  0.00     0.003 C 
ATOM     21  C   UNL     1     171.306 163.060 150.981  1.00  0.00     0.031 C 
ATOM     22  C   UNL     1     173.942 161.609 151.085  1.00  0.00    -0.008 C 
ATOM     23  C   UNL     1     171.439 161.583 150.757  1.00  0.00    -0.027 C 
ATOM     24  C   UNL     1     172.582 160.901 150.962  1.00  0.00    -0.065 C 
ATOM     25  C   UNL     1     174.801 160.840 152.133  1.00  0.00     0.014 C 
ATOM     26  C   UNL     1     174.650 161.557 149.692  1.00  0.00     0.016 C 
ATOM     27  C   UNL     1     172.550 159.387 150.842  1.00  0.00     0.063 C 
ATOM     28  C   UNL     1     174.861 159.331 151.864  1.00  0.00     0.033 C 
ATOM     29  C   UNL     1     173.460 158.709 151.878  1.00  0.00     0.118 C 
BRANCH  29  30
ATOM     30  O   UNL     1     172.904 158.828 153.162  1.00  0.00    -0.393 OA
ATOM     31  H   UNL     1     172.649 157.914 153.450  1.00  0.00     0.210 HD
ENDBRANCH  29  30
ENDBRANCH   9  11
ENDBRANCH   1   9
TORSDOF 7
ENDMDL
MODEL 7
REMARK VINA RESULT:    -6.632      7.641     11.955
REMARK INTER + INTRA:         -10.393
REMARK INTER:                  -8.858
REMARK INTRA:                  -1.535
REMARK UNBOUND:                -1.242
REMARK SMILES CC[C@H](CC[C@H](C)[C@H]1CC[C@H]2[C@@H]3CC=C4C[C@H](O)CC[C@]4(C)[C@H]3CC[C@@]12C)C(C)C
REMARK SMILES IDX 5 1 4 2 3 3 2 4 1 5 28 6 29 7 30 8 6 9 7 10 8 11 9 12 26 13
REMARK SMILES IDX 10 14 11 15 25 16 27 17 12 18 24 19 23 20 13 21 21 22 14 23
REMARK SMILES IDX 15 24 20 25 22 26 16 27 19 28 17 29 18 30
REMARK H PARENT 18 31
REMARK Flexibility Score: inf
ROOT
ATOM      1  C   UNL     1     175.443 163.281 151.252  1.00  0.00     0.004 C 
ENDROOT
BRANCH   1   2
ATOM      2  C   UNL     1     174.556 162.266 150.494  1.00  0.00     0.004 C 
BRANCH   2   3
ATOM      3  C   UNL     1     174.913 160.787 150.831  1.00  0.00    -0.009 C 
BRANCH   3   4
ATOM      4  C   UNL     1     176.125 160.715 151.813  1.00  0.00     0.000 C 
ATOM      5  C   UNL     1     176.028 159.619 152.883  1.00  0.00     0.004 C 
ENDBRANCH   3   4
BRANCH   3   6
ATOM      6  C   UNL     1     173.663 159.967 151.322  1.00  0.00    -0.014 C 
ATOM      7  C   UNL     1     173.331 158.791 150.381  1.00  0.00     0.007 C 
ATOM      8  C   UNL     1     172.406 160.852 151.448  1.00  0.00     0.007 C 
ENDBRANCH   3   6
ENDBRANCH   2   3
ENDBRANCH   1   2
BRANCH   1   9
ATOM      9  C   UNL     1     174.663 164.306 152.121  1.00  0.00    -0.011 C 
ATOM     10  C   UNL     1     174.076 163.630 153.378  1.00  0.00     0.008 C 
BRANCH   9  11
ATOM     11  C   UNL     1     173.638 165.152 151.281  1.00  0.00    -0.002 C 
ATOM     12  C   UNL     1     172.254 165.334 151.888  1.00  0.00     0.005 C 
ATOM     13  C   UNL     1     174.067 166.590 150.857  1.00  0.00    -0.026 C 
ATOM     14  C   UNL     1     171.592 166.344 150.972  1.00  0.00     0.005 C 
ATOM     15  C   UNL     1     172.716 167.277 150.466  1.00  0.00    -0.001 C 
ATOM     16  C   UNL     1     174.755 167.376 152.009  1.00  0.00     0.007 C 
ATOM     17  C   UNL     1     175.018 166.508 149.634  1.00  0.00     0.012 C 
ATOM     18  C   UNL     1     172.522 168.730 151.016  1.00  0.00     0.000 C 
ATOM     19  C   UNL     1     175.039 168.835 151.630  1.00  0.00     0.005 C 
ATOM     20  C   UNL     1     173.831 169.563 150.963  1.00  0.00     0.003 C 
ATOM     21  C   UNL     1     171.414 169.440 150.212  1.00  0.00     0.031 C 
ATOM     22  C   UNL     1     173.617 171.023 151.520  1.00  0.00    -0.008 C 
ATOM     23  C   UNL     1     171.305 170.906 150.511  1.00  0.00    -0.027 C 
ATOM     24  C   UNL     1     172.339 171.654 150.942  1.00  0.00    -0.065 C 
ATOM     25  C   UNL     1     174.833 171.895 151.084  1.00  0.00     0.014 C 
ATOM     26  C   UNL     1     173.506 171.026 153.079  1.00  0.00     0.016 C 
ATOM     27  C   UNL     1     172.139 173.156 151.069  1.00  0.00     0.063 C 
ATOM     28  C   UNL     1     174.636 173.387 151.386  1.00  0.00     0.033 C 
ATOM     29  C   UNL     1     173.399 173.938 150.668  1.00  0.00     0.118 C 
BRANCH  29  30
ATOM     30  O   UNL     1     173.590 173.870 149.278  1.00  0.00    -0.393 OA
ATOM     31  H   UNL     1     173.261 174.725 148.901  1.00  0.00     0.210 HD
ENDBRANCH  29  30
ENDBRANCH   9  11
ENDBRANCH   1   9
TORSDOF 7
ENDMDL
MODEL 8
REMARK VINA RESULT:    -6.623      3.202      9.289
REMARK INTER + INTRA:         -10.381
REMARK INTER:                  -8.224
REMARK INTRA:                  -2.157
REMARK UNBOUND:                -1.242
REMARK SMILES CC[C@H](CC[C@H](C)[C@H]1CC[C@H]2[C@@H]3CC=C4C[C@H](O)CC[C@]4(C)[C@H]3CC[C@@]12C)C(C)C
REMARK SMILES IDX 5 1 4 2 3 3 2 4 1 5 28 6 29 7 30 8 6 9 7 10 8 11 9 12 26 13
REMARK SMILES IDX 10 14 11 15 25 16 27 17 12 18 24 19 23 20 13 21 21 22 14 23
REMARK SMILES IDX 15 24 20 25 22 26 16 27 19 28 17 29 18 30
REMARK H PARENT 18 31
REMARK Flexibility Score: inf
ROOT
ATOM      1  C   UNL     1     163.683 172.185 150.758  1.00  0.00     0.004 C 
ENDROOT
BRANCH   1   2
ATOM      2  C   UNL     1     163.715 173.427 149.837  1.00  0.00     0.004 C 
BRANCH   2   3
ATOM      3  C   UNL     1     162.586 174.449 150.167  1.00  0.00    -0.009 C 
BRANCH   3   4
ATOM      4  C   UNL     1     161.520 173.816 151.116  1.00  0.00     0.000 C 
ATOM      5  C   UNL     1     160.080 174.294 150.886  1.00  0.00     0.004 C 
ENDBRANCH   3   4
BRANCH   3   6
ATOM      6  C   UNL     1     163.153 175.819 150.692  1.00  0.00    -0.014 C 
ATOM      7  C   UNL     1     164.557 176.122 150.130  1.00  0.00     0.007 C 
ATOM      8  C   UNL     1     163.233 175.857 152.233  1.00  0.00     0.007 C 
ENDBRANCH   3   6
ENDBRANCH   2   3
ENDBRANCH   1   2
BRANCH   1   9
ATOM      9  C   UNL     1     164.883 172.068 151.736  1.00  0.00    -0.011 C 
ATOM     10  C   UNL     1     164.397 171.853 153.185  1.00  0.00     0.008 C 
BRANCH   9  11
ATOM     11  C   UNL     1     165.928 173.228 151.551  1.00  0.00    -0.002 C 
ATOM     12  C   UNL     1     166.316 173.995 152.808  1.00  0.00     0.005 C 
ATOM     13  C   UNL     1     167.290 172.872 150.880  1.00  0.00    -0.026 C 
ATOM     14  C   UNL     1     167.463 174.874 152.351  1.00  0.00     0.005 C 
ATOM     15  C   UNL     1     168.213 174.078 151.258  1.00  0.00    -0.001 C 
ATOM     16  C   UNL     1     167.895 171.545 151.417  1.00  0.00     0.007 C 
ATOM     17  C   UNL     1     167.102 172.782 149.343  1.00  0.00     0.012 C 
ATOM     18  C   UNL     1     169.652 173.693 151.739  1.00  0.00     0.000 C 
ATOM     19  C   UNL     1     169.300 171.278 150.862  1.00  0.00     0.005 C 
ATOM     20  C   UNL     1     170.252 172.513 150.928  1.00  0.00     0.003 C 
ATOM     21  C   UNL     1     170.575 174.924 151.638  1.00  0.00     0.031 C 
ATOM     22  C   UNL     1     171.701 172.139 151.426  1.00  0.00    -0.008 C 
ATOM     23  C   UNL     1     172.023 174.605 151.863  1.00  0.00    -0.027 C 
ATOM     24  C   UNL     1     172.565 173.397 151.611  1.00  0.00    -0.065 C 
ATOM     25  C   UNL     1     172.372 171.239 150.345  1.00  0.00     0.014 C 
ATOM     26  C   UNL     1     171.653 171.371 152.786  1.00  0.00     0.016 C 
ATOM     27  C   UNL     1     174.071 173.242 151.740  1.00  0.00     0.063 C 
ATOM     28  C   UNL     1     173.861 170.987 150.619  1.00  0.00     0.033 C 
ATOM     29  C   UNL     1     174.645 172.302 150.669  1.00  0.00     0.118 C 
BRANCH  29  30
ATOM     30  O   UNL     1     174.608 172.923 149.410  1.00  0.00    -0.393 OA
ATOM     31  H   UNL     1     174.854 173.872 149.551  1.00  0.00     0.210 HD
ENDBRANCH  29  30
ENDBRANCH   9  11
ENDBRANCH   1   9
TORSDOF 7
ENDMDL
MODEL 9
REMARK VINA RESULT:    -6.493     13.863     16.832
REMARK INTER + INTRA:         -10.203
REMARK INTER:                  -7.998
REMARK INTRA:                  -2.205
REMARK UNBOUND:                -1.242
REMARK SMILES CC[C@H](CC[C@H](C)[C@H]1CC[C@H]2[C@@H]3CC=C4C[C@H](O)CC[C@]4(C)[C@H]3CC[C@@]12C)C(C)C
REMARK SMILES IDX 5 1 4 2 3 3 2 4 1 5 28 6 29 7 30 8 6 9 7 10 8 11 9 12 26 13
REMARK SMILES IDX 10 14 11 15 25 16 27 17 12 18 24 19 23 20 13 21 21 22 14 23
REMARK SMILES IDX 15 24 20 25 22 26 16 27 19 28 17 29 18 30
REMARK H PARENT 18 31
REMARK Flexibility Score: inf
ROOT
ATOM      1  C   UNL     1     171.908 160.968 150.311  1.00  0.00     0.004 C 
ENDROOT
BRANCH   1   2
ATOM      2  C   UNL     1     173.040 162.021 150.269  1.00  0.00     0.004 C 
BRANCH   2   3
ATOM      3  C   UNL     1     174.402 161.459 150.775  1.00  0.00    -0.009 C 
BRANCH   3   4
ATOM      4  C   UNL     1     175.180 160.757 149.617  1.00  0.00     0.000 C 
ATOM      5  C   UNL     1     176.123 159.629 150.059  1.00  0.00     0.004 C 
ENDBRANCH   3   4
BRANCH   3   6
ATOM      6  C   UNL     1     175.254 162.544 151.530  1.00  0.00    -0.014 C 
ATOM      7  C   UNL     1     175.736 162.051 152.909  1.00  0.00     0.007 C 
ATOM      8  C   UNL     1     174.467 163.855 151.736  1.00  0.00     0.007 C 
ENDBRANCH   3   6
ENDBRANCH   2   3
ENDBRANCH   1   2
BRANCH   1   9
ATOM      9  C   UNL     1     172.167 159.771 151.267  1.00  0.00    -0.011 C 
ATOM     10  C   UNL     1     172.090 158.431 150.505  1.00  0.00     0.008 C 
BRANCH   9  11
ATOM     11  C   UNL     1     171.297 159.843 152.574  1.00  0.00    -0.002 C 
ATOM     12  C   UNL     1     170.483 158.602 152.914  1.00  0.00     0.005 C 
ATOM     13  C   UNL     1     172.024 160.206 153.905  1.00  0.00    -0.026 C 
ATOM     14  C   UNL     1     169.942 158.898 154.299  1.00  0.00     0.005 C 
ATOM     15  C   UNL     1     171.013 159.755 155.012  1.00  0.00    -0.001 C 
ATOM     16  C   UNL     1     173.375 159.455 154.075  1.00  0.00     0.007 C 
ATOM     17  C   UNL     1     172.261 161.737 153.966  1.00  0.00     0.012 C 
ATOM     18  C   UNL     1     171.643 158.974 156.213  1.00  0.00     0.000 C 
ATOM     19  C   UNL     1     174.011 159.703 155.448  1.00  0.00     0.005 C 
ATOM     20  C   UNL     1     173.017 159.554 156.643  1.00  0.00     0.003 C 
ATOM     21  C   UNL     1     170.667 158.994 157.408  1.00  0.00     0.031 C 
ATOM     22  C   UNL     1     173.636 158.755 157.853  1.00  0.00    -0.008 C 
ATOM     23  C   UNL     1     171.267 158.466 158.677  1.00  0.00    -0.027 C 
ATOM     24  C   UNL     1     172.585 158.508 158.949  1.00  0.00    -0.065 C 
ATOM     25  C   UNL     1     174.788 159.607 158.464  1.00  0.00     0.014 C 
ATOM     26  C   UNL     1     174.199 157.371 157.393  1.00  0.00     0.016 C 
ATOM     27  C   UNL     1     173.051 158.076 160.330  1.00  0.00     0.063 C 
ATOM     28  C   UNL     1     175.326 159.030 159.780  1.00  0.00     0.033 C 
ATOM     29  C   UNL     1     174.220 158.935 160.836  1.00  0.00     0.118 C 
BRANCH  29  30
ATOM     30  O   UNL     1     173.768 160.224 161.163  1.00  0.00    -0.393 OA
ATOM     31  H   UNL     1     172.801 160.252 160.947  1.00  0.00     0.210 HD
ENDBRANCH  29  30
ENDBRANCH   9  11
ENDBRANCH   1   9
TORSDOF 7
ENDMDL
