MODEL 1
REMARK VINA RESULT:    -3.562      0.000      0.000
REMARK INTER + INTRA:          -5.510
REMARK INTER:                  -5.019
REMARK INTRA:                  -0.491
REMARK UNBOUND:                -0.491
REMARK SMILES C=CCCCCCCC(=O)[O-]
REMARK SMILES IDX 6 1 7 2 8 3 9 4 10 5 11 6 5 7 4 8 3 9 2 10 1 11
REMARK H PARENT
REMARK Flexibility Score: inf
ROOT
ATOM      1  C   UNL     1       0.872 -15.318  -6.593  1.00  0.00     0.000 C 
ENDROOT
BRANCH   1   2
ATOM      2  C   UNL     1       0.126 -14.770  -5.362  1.00  0.00     0.006 C 
BRANCH   2   3
ATOM      3  C   UNL     1      -0.934 -13.706  -5.695  1.00  0.00     0.053 C 
BRANCH   3   4
ATOM      4  C   UNL     1      -0.896 -12.537  -4.757  1.00  0.00     0.041 C 
ATOM      5  O   UNL     1       0.207 -12.061  -4.380  1.00  0.00    -0.550 OA
ATOM      6  O   UNL     1      -2.079 -11.995  -4.275  1.00  0.00    -0.550 OA
ENDBRANCH   3   4
ENDBRANCH   2   3
ENDBRANCH   1   2
BRANCH   1   7
ATOM      7  C   UNL     1       0.103 -15.108  -7.905  1.00  0.00     0.000 C 
BRANCH   7   8
ATOM      8  C   UNL     1       0.178 -16.358  -8.791  1.00  0.00     0.004 C 
BRANCH   8   9
ATOM      9  C   UNL     1      -0.684 -17.491  -8.217  1.00  0.00     0.027 C 
BRANCH   9  10
ATOM     10  C   UNL     1       0.119 -18.751  -8.043  1.00  0.00    -0.035 C 
ATOM     11  C   UNL     1       1.447 -18.724  -7.891  1.00  0.00     0.004 C 
ENDBRANCH   9  10
ENDBRANCH   8   9
ENDBRANCH   7   8
ENDBRANCH   1   7
TORSDOF 7
ENDMDL
MODEL 2
REMARK VINA RESULT:    -3.517      2.894      4.722
REMARK INTER + INTRA:          -5.448
REMARK INTER:                  -4.766
REMARK INTRA:                  -0.681
REMARK UNBOUND:                -0.491
REMARK SMILES C=CCCCCCCC(=O)[O-]
REMARK SMILES IDX 6 1 7 2 8 3 9 4 10 5 11 6 5 7 4 8 3 9 2 10 1 11
REMARK H PARENT
REMARK Flexibility Score: inf
ROOT
ATOM      1  C   UNL     1       0.116 -17.430  -8.205  1.00  0.00     0.000 C 
ENDROOT
BRANCH   1   2
ATOM      2  C   UNL     1      -1.245 -18.050  -8.571  1.00  0.00     0.006 C 
BRANCH   2   3
ATOM      3  C   UNL     1      -2.427 -17.487  -7.762  1.00  0.00     0.053 C 
BRANCH   3   4
ATOM      4  C   UNL     1      -3.159 -16.399  -8.487  1.00  0.00     0.041 C 
ATOM      5  O   UNL     1      -3.013 -15.196  -8.145  1.00  0.00    -0.550 OA
ATOM      6  O   UNL     1      -4.029 -16.717  -9.522  1.00  0.00    -0.550 OA
ENDBRANCH   3   4
ENDBRANCH   2   3
ENDBRANCH   1   2
BRANCH   1   7
ATOM      7  C   UNL     1       0.380 -16.095  -8.916  1.00  0.00     0.000 C 
BRANCH   7   8
ATOM      8  C   UNL     1       0.434 -14.939  -7.910  1.00  0.00     0.004 C 
BRANCH   8   9
ATOM      9  C   UNL     1       0.773 -15.450  -6.503  1.00  0.00     0.027 C 
BRANCH   9  10
ATOM     10  C   UNL     1       0.001 -14.701  -5.450  1.00  0.00    -0.035 C 
ATOM     11  C   UNL     1      -0.875 -13.744  -5.768  1.00  0.00     0.004 C 
ENDBRANCH   9  10
ENDBRANCH   8   9
ENDBRANCH   7   8
ENDBRANCH   1   7
TORSDOF 7
ENDMDL
MODEL 3
REMARK VINA RESULT:    -3.495      2.699      5.609
REMARK INTER + INTRA:          -5.417
REMARK INTER:                  -4.979
REMARK INTRA:                  -0.438
REMARK UNBOUND:                -0.491
REMARK SMILES C=CCCCCCCC(=O)[O-]
REMARK SMILES IDX 6 1 7 2 8 3 9 4 10 5 11 6 5 7 4 8 3 9 2 10 1 11
REMARK H PARENT
REMARK Flexibility Score: inf
ROOT
ATOM      1  C   UNL     1       0.254 -15.408  -5.687  1.00  0.00     0.000 C 
ENDROOT
BRANCH   1   2
ATOM      2  C   UNL     1       0.260 -14.733  -7.072  1.00  0.00     0.006 C 
BRANCH   2   3
ATOM      3  C   UNL     1      -0.362 -15.590  -8.188  1.00  0.00     0.053 C 
BRANCH   3   4
ATOM      4  C   UNL     1      -1.859 -15.627  -8.123  1.00  0.00     0.041 C 
ATOM      5  O   UNL     1      -2.520 -14.557  -8.063  1.00  0.00    -0.550 OA
ATOM      6  O   UNL     1      -2.523 -16.846  -8.097  1.00  0.00    -0.550 OA
ENDBRANCH   3   4
ENDBRANCH   2   3
ENDBRANCH   1   2
BRANCH   1   7
ATOM      7  C   UNL     1      -0.450 -14.568  -4.612  1.00  0.00     0.000 C 
BRANCH   7   8
ATOM      8  C   UNL     1      -0.576 -13.105  -5.054  1.00  0.00     0.004 C 
BRANCH   8   9
ATOM      9  C   UNL     1      -0.202 -12.151  -3.912  1.00  0.00     0.027 C 
BRANCH   9  10
ATOM     10  C   UNL     1      -1.399 -11.378  -3.432  1.00  0.00    -0.035 C 
ATOM     11  C   UNL     1      -2.639 -11.688  -3.823  1.00  0.00     0.004 C 
ENDBRANCH   9  10
ENDBRANCH   8   9
ENDBRANCH   7   8
ENDBRANCH   1   7
TORSDOF 7
ENDMDL
MODEL 4
REMARK VINA RESULT:    -3.482      1.212      2.249
REMARK INTER + INTRA:          -5.398
REMARK INTER:                  -4.757
REMARK INTRA:                  -0.640
REMARK UNBOUND:                -0.491
REMARK SMILES C=CCCCCCCC(=O)[O-]
REMARK SMILES IDX 6 1 7 2 8 3 9 4 10 5 11 6 5 7 4 8 3 9 2 10 1 11
REMARK H PARENT
REMARK Flexibility Score: inf
ROOT
ATOM      1  C   UNL     1       0.699 -15.623  -6.385  1.00  0.00     0.000 C 
ENDROOT
BRANCH   1   2
ATOM      2  C   UNL     1       0.146 -14.746  -5.246  1.00  0.00     0.006 C 
BRANCH   2   3
ATOM      3  C   UNL     1      -0.845 -13.665  -5.713  1.00  0.00     0.053 C 
BRANCH   3   4
ATOM      4  C   UNL     1      -0.983 -12.542  -4.730  1.00  0.00     0.041 C 
ATOM      5  O   UNL     1      -2.123 -12.174  -4.342  1.00  0.00    -0.550 OA
ATOM      6  O   UNL     1       0.147 -11.882  -4.267  1.00  0.00    -0.550 OA
ENDBRANCH   3   4
ENDBRANCH   2   3
ENDBRANCH   1   2
BRANCH   1   7
ATOM      7  C   UNL     1       0.201 -15.191  -7.772  1.00  0.00     0.000 C 
BRANCH   7   8
ATOM      8  C   UNL     1      -0.008 -16.407  -8.683  1.00  0.00     0.004 C 
BRANCH   8   9
ATOM      9  C   UNL     1      -1.361 -17.076  -8.404  1.00  0.00     0.027 C 
BRANCH   9  10
ATOM     10  C   UNL     1      -2.443 -16.052  -8.194  1.00  0.00    -0.035 C 
ATOM     11  C   UNL     1      -3.460 -16.266  -7.354  1.00  0.00     0.004 C 
ENDBRANCH   9  10
ENDBRANCH   8   9
ENDBRANCH   7   8
ENDBRANCH   1   7
TORSDOF 7
ENDMDL
MODEL 5
REMARK VINA RESULT:    -3.421      3.006      3.683
REMARK INTER + INTRA:          -5.313
REMARK INTER:                  -4.392
REMARK INTRA:                  -0.921
REMARK UNBOUND:                -0.491
REMARK SMILES C=CCCCCCCC(=O)[O-]
REMARK SMILES IDX 6 1 7 2 8 3 9 4 10 5 11 6 5 7 4 8 3 9 2 10 1 11
REMARK H PARENT
REMARK Flexibility Score: inf
ROOT
ATOM      1  C   UNL     1      -1.124 -15.834  -5.152  1.00  0.00     0.000 C 
ENDROOT
BRANCH   1   2
ATOM      2  C   UNL     1      -2.574 -15.507  -5.554  1.00  0.00     0.006 C 
BRANCH   2   3
ATOM      3  C   UNL     1      -3.141 -16.424  -6.652  1.00  0.00     0.053 C 
BRANCH   3   4
ATOM      4  C   UNL     1      -3.102 -15.794  -8.011  1.00  0.00     0.041 C 
ATOM      5  O   UNL     1      -2.613 -14.644  -8.165  1.00  0.00    -0.550 OA
ATOM      6  O   UNL     1      -3.635 -16.466  -9.103  1.00  0.00    -0.550 OA
ENDBRANCH   3   4
ENDBRANCH   2   3
ENDBRANCH   1   2
BRANCH   1   7
ATOM      7  C   UNL     1      -0.119 -14.767  -5.607  1.00  0.00     0.000 C 
BRANCH   7   8
ATOM      8  C   UNL     1       0.601 -15.202  -6.890  1.00  0.00     0.004 C 
BRANCH   8   9
ATOM      9  C   UNL     1       0.652 -16.731  -7.000  1.00  0.00     0.027 C 
BRANCH   9  10
ATOM     10  C   UNL     1       0.243 -17.194  -8.372  1.00  0.00    -0.035 C 
ATOM     11  C   UNL     1      -0.423 -18.336  -8.559  1.00  0.00     0.004 C 
ENDBRANCH   9  10
ENDBRANCH   8   9
ENDBRANCH   7   8
ENDBRANCH   1   7
TORSDOF 7
ENDMDL
MODEL 6
REMARK VINA RESULT:    -3.407      2.200      3.115
REMARK INTER + INTRA:          -5.292
REMARK INTER:                  -4.691
REMARK INTRA:                  -0.601
REMARK UNBOUND:                -0.491
REMARK SMILES C=CCCCCCCC(=O)[O-]
REMARK SMILES IDX 6 1 7 2 8 3 9 4 10 5 11 6 5 7 4 8 3 9 2 10 1 11
REMARK H PARENT
REMARK Flexibility Score: inf
ROOT
ATOM      1  C   UNL     1       0.908 -17.129  -6.709  1.00  0.00     0.000 C 
ENDROOT
BRANCH   1   2
ATOM      2  C   UNL     1       0.712 -15.605  -6.604  1.00  0.00     0.006 C 
BRANCH   2   3
ATOM      3  C   UNL     1      -0.101 -14.998  -7.760  1.00  0.00     0.053 C 
BRANCH   3   4
ATOM      4  C   UNL     1      -1.493 -14.618  -7.353  1.00  0.00     0.041 C 
ATOM      5  O   UNL     1      -1.723 -14.198  -6.188  1.00  0.00    -0.550 OA
ATOM      6  O   UNL     1      -2.542 -14.760  -8.251  1.00  0.00    -0.550 OA
ENDBRANCH   3   4
ENDBRANCH   2   3
ENDBRANCH   1   2
BRANCH   1   7
ATOM      7  C   UNL     1       0.634 -17.675  -8.118  1.00  0.00     0.000 C 
BRANCH   7   8
ATOM      8  C   UNL     1       0.276 -19.166  -8.069  1.00  0.00     0.004 C 
BRANCH   8   9
ATOM      9  C   UNL     1      -1.077 -19.429  -8.744  1.00  0.00     0.027 C 
BRANCH   9  10
ATOM     10  C   UNL     1      -1.713 -18.147  -9.208  1.00  0.00    -0.035 C 
ATOM     11  C   UNL     1      -2.917 -18.129  -9.788  1.00  0.00     0.004 C 
ENDBRANCH   9  10
ENDBRANCH   8   9
ENDBRANCH   7   8
ENDBRANCH   1   7
TORSDOF 7
ENDMDL
MODEL 7
REMARK VINA RESULT:    -3.381      1.344      2.265
REMARK INTER + INTRA:          -5.256
REMARK INTER:                  -4.548
REMARK INTRA:                  -0.708
REMARK UNBOUND:                -0.491
REMARK SMILES C=CCCCCCCC(=O)[O-]
REMARK SMILES IDX 6 1 7 2 8 3 9 4 10 5 11 6 5 7 4 8 3 9 2 10 1 11
REMARK H PARENT
REMARK Flexibility Score: inf
ROOT
ATOM      1  C   UNL     1      -0.665 -15.863  -7.791  1.00  0.00     0.000 C 
ENDROOT
BRANCH   1   2
ATOM      2  C   UNL     1       0.247 -14.770  -7.200  1.00  0.00     0.006 C 
BRANCH   2   3
ATOM      3  C   UNL     1       0.169 -14.651  -5.668  1.00  0.00     0.053 C 
BRANCH   3   4
ATOM      4  C   UNL     1      -0.702 -13.517  -5.219  1.00  0.00     0.041 C 
ATOM      5  O   UNL     1      -1.956 -13.608  -5.298  1.00  0.00    -0.550 OA
ATOM      6  O   UNL     1      -0.127 -12.346  -4.743  1.00  0.00    -0.550 OA
ENDBRANCH   3   4
ENDBRANCH   2   3
ENDBRANCH   1   2
BRANCH   1   7
ATOM      7  C   UNL     1       0.100 -16.892  -8.634  1.00  0.00     0.000 C 
BRANCH   7   8
ATOM      8  C   UNL     1       0.307 -18.196  -7.853  1.00  0.00     0.004 C 
BRANCH   8   9
ATOM      9  C   UNL     1       1.776 -18.364  -7.443  1.00  0.00     0.027 C 
BRANCH   9  10
ATOM     10  C   UNL     1       1.991 -17.966  -6.008  1.00  0.00    -0.035 C 
ATOM     11  C   UNL     1       2.917 -17.068  -5.659  1.00  0.00     0.004 C 
ENDBRANCH   9  10
ENDBRANCH   8   9
ENDBRANCH   7   8
ENDBRANCH   1   7
TORSDOF 7
ENDMDL
MODEL 8
REMARK VINA RESULT:    -3.362      2.802      5.061
REMARK INTER + INTRA:          -5.229
REMARK INTER:                  -4.688
REMARK INTRA:                  -0.540
REMARK UNBOUND:                -0.491
REMARK SMILES C=CCCCCCCC(=O)[O-]
REMARK SMILES IDX 6 1 7 2 8 3 9 4 10 5 11 6 5 7 4 8 3 9 2 10 1 11
REMARK H PARENT
REMARK Flexibility Score: inf
ROOT
ATOM      1  C   UNL     1       0.462 -17.252  -7.326  1.00  0.00     0.000 C 
ENDROOT
BRANCH   1   2
ATOM      2  C   UNL     1      -0.321 -17.009  -8.630  1.00  0.00     0.006 C 
BRANCH   2   3
ATOM      3  C   UNL     1      -1.679 -17.729  -8.689  1.00  0.00     0.053 C 
BRANCH   3   4
ATOM      4  C   UNL     1      -2.827 -16.830  -8.341  1.00  0.00     0.041 C 
ATOM      5  O   UNL     1      -3.520 -16.303  -9.251  1.00  0.00    -0.550 OA
ATOM      6  O   UNL     1      -3.111 -16.550  -7.011  1.00  0.00    -0.550 OA
ENDBRANCH   3   4
ENDBRANCH   2   3
ENDBRANCH   1   2
BRANCH   1   7
ATOM      7  C   UNL     1       0.702 -15.968  -6.520  1.00  0.00     0.000 C 
BRANCH   7   8
ATOM      8  C   UNL     1       0.106 -14.750  -7.238  1.00  0.00     0.004 C 
BRANCH   8   9
ATOM      9  C   UNL     1      -0.876 -14.001  -6.327  1.00  0.00     0.027 C 
BRANCH   9  10
ATOM     10  C   UNL     1      -0.201 -13.531  -5.068  1.00  0.00    -0.035 C 
ATOM     11  C   UNL     1      -0.631 -12.458  -4.398  1.00  0.00     0.004 C 
ENDBRANCH   9  10
ENDBRANCH   8   9
ENDBRANCH   7   8
ENDBRANCH   1   7
TORSDOF 7
ENDMDL
MODEL 9
REMARK VINA RESULT:    -3.304     12.083     13.799
REMARK INTER + INTRA:          -5.146
REMARK INTER:                  -4.675
REMARK INTRA:                  -0.471
REMARK UNBOUND:                -0.491
REMARK SMILES C=CCCCCCCC(=O)[O-]
REMARK SMILES IDX 6 1 7 2 8 3 9 4 10 5 11 6 5 7 4 8 3 9 2 10 1 11
REMARK H PARENT
REMARK Flexibility Score: inf
ROOT
ATOM      1  C   UNL     1      10.653 -17.737  -7.020  1.00  0.00     0.000 C 
ENDROOT
BRANCH   1   2
ATOM      2  C   UNL     1      10.928 -18.938  -7.944  1.00  0.00     0.006 C 
BRANCH   2   3
ATOM      3  C   UNL     1      10.527 -18.704  -9.411  1.00  0.00     0.053 C 
BRANCH   3   4
ATOM      4  C   UNL     1      11.650 -18.970 -10.368  1.00  0.00     0.041 C 
ATOM      5  O   UNL     1      12.147 -20.123 -10.459  1.00  0.00    -0.550 OA
ATOM      6  O   UNL     1      12.168 -17.936 -11.136  1.00  0.00    -0.550 OA
ENDBRANCH   3   4
ENDBRANCH   2   3
ENDBRANCH   1   2
BRANCH   1   7
ATOM      7  C   UNL     1      11.927 -17.164  -6.383  1.00  0.00     0.000 C 
BRANCH   7   8
ATOM      8  C   UNL     1      13.159 -17.488  -7.236  1.00  0.00     0.004 C 
BRANCH   8   9
ATOM      9  C   UNL     1      13.640 -16.247  -8.001  1.00  0.00     0.027 C 
BRANCH   9  10
ATOM     10  C   UNL     1      14.233 -15.227  -7.069  1.00  0.00    -0.035 C 
ATOM     11  C   UNL     1      14.112 -13.915  -7.293  1.00  0.00     0.004 C 
ENDBRANCH   9  10
ENDBRANCH   8   9
ENDBRANCH   7   8
ENDBRANCH   1   7
TORSDOF 7
ENDMDL
