MODEL 1
REMARK VINA RESULT:    -7.716      0.000      0.000
REMARK INTER + INTRA:          -9.642
REMARK INTER:                  -9.294
REMARK INTRA:                  -0.348
REMARK UNBOUND:                -0.348
REMARK SMILES O=c1c(O)c(-c2ccc(O)cc2O)oc2cc(O)cc(O)c12
REMARK SMILES IDX 5 1 3 2 2 3 1 4 22 5 20 6 19 7 17 8 16 9 15 10 14 11 6 12
REMARK SMILES IDX 8 13 7 14 9 15 11 16 12 17 10 18 13 20 4 22 21 24 18 26
REMARK H PARENT 10 19 13 21 4 23 21 25 18 27
REMARK Flexibility Score: inf
ROOT
ATOM      1  C   UNL     1      21.772  28.858  38.515  1.00  0.00     0.184 A 
ATOM      2  C   UNL     1      21.363  27.996  37.482  1.00  0.00     0.208 A 
ATOM      3  C   UNL     1      20.209  28.316  36.751  1.00  0.00     0.238 A 
ATOM      4  O   UNL     1      19.824  27.546  35.829  1.00  0.00    -0.285 OA
ATOM      5  C   UNL     1      19.499  29.498  37.050  1.00  0.00     0.111 A 
ATOM      6  C   UNL     1      18.329  29.895  36.360  1.00  0.00     0.134 A 
ATOM      7  C   UNL     1      17.685  31.091  36.712  1.00  0.00     0.093 A 
ATOM      8  C   UNL     1      18.190  31.895  37.740  1.00  0.00     0.123 A 
ATOM      9  C   UNL     1      19.342  31.507  38.425  1.00  0.00     0.094 A 
ATOM     10  C   UNL     1      19.998  30.319  38.090  1.00  0.00     0.146 A 
ATOM     11  O   UNL     1      21.090  29.971  38.762  1.00  0.00    -0.451 OA
ENDROOT
BRANCH   1  12
ATOM     12  C   UNL     1      22.971  28.574  39.331  1.00  0.00     0.063 A 
ATOM     13  C   UNL     1      23.923  27.691  41.387  1.00  0.00     0.047 A 
ATOM     14  C   UNL     1      22.810  27.978  40.592  1.00  0.00     0.020 A 
ATOM     15  C   UNL     1      25.212  27.984  40.924  1.00  0.00     0.119 A 
ATOM     16  C   UNL     1      25.382  28.556  39.660  1.00  0.00     0.093 A 
ATOM     17  C   UNL     1      24.271  28.842  38.854  1.00  0.00     0.130 A 
BRANCH  15  18
ATOM     18  O   UNL     1      26.327  27.705  41.710  1.00  0.00    -0.508 OA
ATOM     19  H   UNL     1      26.421  28.076  42.649  1.00  0.00     0.293 HD
ENDBRANCH  15  18
BRANCH  17  20
ATOM     20  O   UNL     1      24.459  29.368  37.575  1.00  0.00    -0.507 OA
ATOM     21  H   UNL     1      23.810  30.036  37.175  1.00  0.00     0.293 HD
ENDBRANCH  17  20
ENDBRANCH   1  12
BRANCH   2  22
ATOM     22  O   UNL     1      22.113  26.857  37.179  1.00  0.00    -0.502 OA
ATOM     23  H   UNL     1      23.098  26.902  36.950  1.00  0.00     0.293 HD
ENDBRANCH   2  22
BRANCH   6  24
ATOM     24  O   UNL     1      17.804  29.115  35.329  1.00  0.00    -0.507 OA
ATOM     25  H   UNL     1      18.284  28.290  34.988  1.00  0.00     0.293 HD
ENDBRANCH   6  24
BRANCH   8  26
ATOM     26  O   UNL     1      17.551  33.083  38.090  1.00  0.00    -0.508 OA
ATOM     27  H   UNL     1      17.740  33.547  38.971  1.00  0.00     0.293 HD
ENDBRANCH   8  26
TORSDOF 6
ENDMDL
MODEL 2
REMARK VINA RESULT:    -7.313      1.618      6.766
REMARK INTER + INTRA:          -9.157
REMARK INTER:                  -8.731
REMARK INTRA:                  -0.426
REMARK UNBOUND:                -0.348
REMARK SMILES O=c1c(O)c(-c2ccc(O)cc2O)oc2cc(O)cc(O)c12
REMARK SMILES IDX 5 1 3 2 2 3 1 4 22 5 20 6 19 7 17 8 16 9 15 10 14 11 6 12
REMARK SMILES IDX 8 13 7 14 9 15 11 16 12 17 10 18 13 20 4 22 21 24 18 26
REMARK H PARENT 10 19 13 21 4 23 21 25 18 27
REMARK Flexibility Score: inf
ROOT
ATOM      1  C   UNL     1      21.151  29.716  37.523  1.00  0.00     0.184 A 
ATOM      2  C   UNL     1      22.166  30.413  36.843  1.00  0.00     0.208 A 
ATOM      3  C   UNL     1      23.478  30.349  37.338  1.00  0.00     0.238 A 
ATOM      4  O   UNL     1      24.396  30.979  36.744  1.00  0.00    -0.285 OA
ATOM      5  C   UNL     1      23.754  29.578  38.485  1.00  0.00     0.111 A 
ATOM      6  C   UNL     1      25.049  29.458  39.046  1.00  0.00     0.134 A 
ATOM      7  C   UNL     1      25.243  28.663  40.185  1.00  0.00     0.093 A 
ATOM      8  C   UNL     1      24.169  27.986  40.773  1.00  0.00     0.123 A 
ATOM      9  C   UNL     1      22.891  28.101  40.225  1.00  0.00     0.094 A 
ATOM     10  C   UNL     1      22.675  28.889  39.090  1.00  0.00     0.146 A 
ATOM     11  O   UNL     1      21.447  28.985  38.592  1.00  0.00    -0.451 OA
ENDROOT
BRANCH   1  12
ATOM     12  C   UNL     1      19.747  29.749  37.063  1.00  0.00     0.063 A 
ATOM     13  C   UNL     1      18.049  28.953  35.515  1.00  0.00     0.047 A 
ATOM     14  C   UNL     1      19.370  28.950  35.971  1.00  0.00     0.020 A 
ATOM     15  C   UNL     1      17.086  29.744  36.153  1.00  0.00     0.119 A 
ATOM     16  C   UNL     1      17.449  30.525  37.254  1.00  0.00     0.093 A 
ATOM     17  C   UNL     1      18.770  30.523  37.723  1.00  0.00     0.130 A 
BRANCH  15  18
ATOM     18  O   UNL     1      15.768  29.758  35.703  1.00  0.00    -0.508 OA
ATOM     19  H   UNL     1      15.177  30.573  35.818  1.00  0.00     0.293 HD
ENDBRANCH  15  18
BRANCH  17  20
ATOM     20  O   UNL     1      19.107  31.269  38.853  1.00  0.00    -0.507 OA
ATOM     21  H   UNL     1      20.063  31.332  39.183  1.00  0.00     0.293 HD
ENDBRANCH  17  20
ENDBRANCH   1  12
BRANCH   2  22
ATOM     22  O   UNL     1      21.869  31.131  35.683  1.00  0.00    -0.502 OA
ATOM     23  H   UNL     1      21.463  30.694  34.864  1.00  0.00     0.293 HD
ENDBRANCH   2  22
BRANCH   6  24
ATOM     24  O   UNL     1      26.139  30.121  38.481  1.00  0.00    -0.507 OA
ATOM     25  H   UNL     1      26.024  30.795  37.733  1.00  0.00     0.293 HD
ENDBRANCH   6  24
BRANCH   8  26
ATOM     26  O   UNL     1      24.362  27.195  41.904  1.00  0.00    -0.508 OA
ATOM     27  H   UNL     1      24.988  26.399  41.893  1.00  0.00     0.293 HD
ENDBRANCH   8  26
TORSDOF 6
ENDMDL
MODEL 3
REMARK VINA RESULT:    -6.873      1.515      2.891
REMARK INTER + INTRA:          -8.627
REMARK INTER:                  -8.232
REMARK INTRA:                  -0.395
REMARK UNBOUND:                -0.348
REMARK SMILES O=c1c(O)c(-c2ccc(O)cc2O)oc2cc(O)cc(O)c12
REMARK SMILES IDX 5 1 3 2 2 3 1 4 22 5 20 6 19 7 17 8 16 9 15 10 14 11 6 12
REMARK SMILES IDX 8 13 7 14 9 15 11 16 12 17 10 18 13 20 4 22 21 24 18 26
REMARK H PARENT 10 19 13 21 4 23 21 25 18 27
REMARK Flexibility Score: inf
ROOT
ATOM      1  C   UNL     1      22.553  29.462  38.505  1.00  0.00     0.184 A 
ATOM      2  C   UNL     1      22.406  30.860  38.491  1.00  0.00     0.208 A 
ATOM      3  C   UNL     1      21.401  31.427  37.693  1.00  0.00     0.238 A 
ATOM      4  O   UNL     1      21.265  32.681  37.662  1.00  0.00    -0.285 OA
ATOM      5  C   UNL     1      20.551  30.588  36.941  1.00  0.00     0.111 A 
ATOM      6  C   UNL     1      19.512  31.078  36.114  1.00  0.00     0.134 A 
ATOM      7  C   UNL     1      18.704  30.178  35.405  1.00  0.00     0.093 A 
ATOM      8  C   UNL     1      18.915  28.798  35.508  1.00  0.00     0.123 A 
ATOM      9  C   UNL     1      19.939  28.310  36.321  1.00  0.00     0.094 A 
ATOM     10  C   UNL     1      20.756  29.191  37.035  1.00  0.00     0.146 A 
ATOM     11  O   UNL     1      21.727  28.699  37.798  1.00  0.00    -0.451 OA
ENDROOT
BRANCH   1  12
ATOM     12  C   UNL     1      23.598  28.801  39.315  1.00  0.00     0.063 A 
ATOM     13  C   UNL     1      24.208  27.602  41.341  1.00  0.00     0.047 A 
ATOM     14  C   UNL     1      23.246  28.241  40.553  1.00  0.00     0.020 A 
ATOM     15  C   UNL     1      25.531  27.505  40.894  1.00  0.00     0.119 A 
ATOM     16  C   UNL     1      25.885  28.040  39.652  1.00  0.00     0.093 A 
ATOM     17  C   UNL     1      24.924  28.676  38.852  1.00  0.00     0.130 A 
BRANCH  15  18
ATOM     18  O   UNL     1      26.498  26.875  41.673  1.00  0.00    -0.508 OA
ATOM     19  H   UNL     1      26.690  25.884  41.580  1.00  0.00     0.293 HD
ENDBRANCH  15  18
BRANCH  17  20
ATOM     20  O   UNL     1      25.281  29.162  37.593  1.00  0.00    -0.507 OA
ATOM     21  H   UNL     1      25.528  28.539  36.833  1.00  0.00     0.293 HD
ENDBRANCH  17  20
ENDBRANCH   1  12
BRANCH   2  22
ATOM     22  O   UNL     1      23.233  31.661  39.282  1.00  0.00    -0.502 OA
ATOM     23  H   UNL     1      23.541  32.580  38.987  1.00  0.00     0.293 HD
ENDBRANCH   2  22
BRANCH   6  24
ATOM     24  O   UNL     1      19.277  32.449  35.993  1.00  0.00    -0.507 OA
ATOM     25  H   UNL     1      19.004  32.867  35.112  1.00  0.00     0.293 HD
ENDBRANCH   6  24
BRANCH   8  26
ATOM     26  O   UNL     1      18.111  27.903  34.804  1.00  0.00    -0.508 OA
ATOM     27  H   UNL     1      17.675  28.160  33.926  1.00  0.00     0.293 HD
ENDBRANCH   8  26
TORSDOF 6
ENDMDL
MODEL 4
REMARK VINA RESULT:    -6.774      1.977      6.617
REMARK INTER + INTRA:          -8.508
REMARK INTER:                  -8.096
REMARK INTRA:                  -0.411
REMARK UNBOUND:                -0.348
REMARK SMILES O=c1c(O)c(-c2ccc(O)cc2O)oc2cc(O)cc(O)c12
REMARK SMILES IDX 5 1 3 2 2 3 1 4 22 5 20 6 19 7 17 8 16 9 15 10 14 11 6 12
REMARK SMILES IDX 8 13 7 14 9 15 11 16 12 17 10 18 13 20 4 22 21 24 18 26
REMARK H PARENT 10 19 13 21 4 23 21 25 18 27
REMARK Flexibility Score: inf
ROOT
ATOM      1  C   UNL     1      21.962  29.565  38.048  1.00  0.00     0.184 A 
ATOM      2  C   UNL     1      22.322  28.654  39.057  1.00  0.00     0.208 A 
ATOM      3  C   UNL     1      23.603  28.742  39.622  1.00  0.00     0.238 A 
ATOM      4  O   UNL     1      23.943  27.924  40.520  1.00  0.00    -0.285 OA
ATOM      5  C   UNL     1      24.491  29.747  39.185  1.00  0.00     0.111 A 
ATOM      6  C   UNL     1      25.798  29.907  39.704  1.00  0.00     0.134 A 
ATOM      7  C   UNL     1      26.617  30.939  39.223  1.00  0.00     0.093 A 
ATOM      8  C   UNL     1      26.153  31.813  38.233  1.00  0.00     0.123 A 
ATOM      9  C   UNL     1      24.866  31.659  37.716  1.00  0.00     0.094 A 
ATOM     10  C   UNL     1      24.034  30.636  38.182  1.00  0.00     0.146 A 
ATOM     11  O   UNL     1      22.815  30.510  37.670  1.00  0.00    -0.451 OA
ENDROOT
BRANCH   1  12
ATOM     12  C   UNL     1      20.633  29.521  37.403  1.00  0.00     0.063 A 
ATOM     13  C   UNL     1      19.147  28.495  35.774  1.00  0.00     0.047 A 
ATOM     14  C   UNL     1      20.395  28.568  36.400  1.00  0.00     0.020 A 
ATOM     15  C   UNL     1      18.118  29.365  36.153  1.00  0.00     0.119 A 
ATOM     16  C   UNL     1      18.340  30.301  37.167  1.00  0.00     0.093 A 
ATOM     17  C   UNL     1      19.586  30.377  37.805  1.00  0.00     0.130 A 
BRANCH  15  18
ATOM     18  O   UNL     1      16.873  29.303  35.533  1.00  0.00    -0.508 OA
ATOM     19  H   UNL     1      16.784  29.123  34.539  1.00  0.00     0.293 HD
ENDBRANCH  15  18
BRANCH  17  20
ATOM     20  O   UNL     1      19.778  31.283  38.848  1.00  0.00    -0.507 OA
ATOM     21  H   UNL     1      20.696  31.456  39.241  1.00  0.00     0.293 HD
ENDBRANCH  17  20
ENDBRANCH   1  12
BRANCH   2  22
ATOM     22  O   UNL     1      21.404  27.699  39.501  1.00  0.00    -0.502 OA
ATOM     23  H   UNL     1      21.447  26.729  39.210  1.00  0.00     0.293 HD
ENDBRANCH   2  22
BRANCH   6  24
ATOM     24  O   UNL     1      26.286  29.052  40.693  1.00  0.00    -0.507 OA
ATOM     25  H   UNL     1      26.156  29.248  41.679  1.00  0.00     0.293 HD
ENDBRANCH   6  24
BRANCH   8  26
ATOM     26  O   UNL     1      26.967  32.839  37.754  1.00  0.00    -0.508 OA
ATOM     27  H   UNL     1      26.649  33.473  37.030  1.00  0.00     0.293 HD
ENDBRANCH   8  26
TORSDOF 6
ENDMDL
MODEL 5
REMARK VINA RESULT:    -6.251      3.206      4.995
REMARK INTER + INTRA:          -7.878
REMARK INTER:                  -7.572
REMARK INTRA:                  -0.305
REMARK UNBOUND:                -0.348
REMARK SMILES O=c1c(O)c(-c2ccc(O)cc2O)oc2cc(O)cc(O)c12
REMARK SMILES IDX 5 1 3 2 2 3 1 4 22 5 20 6 19 7 17 8 16 9 15 10 14 11 6 12
REMARK SMILES IDX 8 13 7 14 9 15 11 16 12 17 10 18 13 20 4 22 21 24 18 26
REMARK H PARENT 10 19 13 21 4 23 21 25 18 27
REMARK Flexibility Score: inf
ROOT
ATOM      1  C   UNL     1      21.204  32.275  38.286  1.00  0.00     0.184 A 
ATOM      2  C   UNL     1      20.191  32.717  37.416  1.00  0.00     0.208 A 
ATOM      3  C   UNL     1      19.529  31.776  36.615  1.00  0.00     0.238 A 
ATOM      4  O   UNL     1      18.626  32.160  35.822  1.00  0.00    -0.285 OA
ATOM      5  C   UNL     1      19.874  30.411  36.711  1.00  0.00     0.111 A 
ATOM      6  C   UNL     1      19.253  29.398  35.942  1.00  0.00     0.134 A 
ATOM      7  C   UNL     1      19.648  28.062  36.102  1.00  0.00     0.093 A 
ATOM      8  C   UNL     1      20.651  27.721  37.017  1.00  0.00     0.123 A 
ATOM      9  C   UNL     1      21.267  28.716  37.777  1.00  0.00     0.094 A 
ATOM     10  C   UNL     1      20.889  30.054  37.631  1.00  0.00     0.146 A 
ATOM     11  O   UNL     1      21.495  30.981  38.364  1.00  0.00    -0.451 OA
ENDROOT
BRANCH   1  12
ATOM     12  C   UNL     1      21.949  33.215  39.149  1.00  0.00     0.063 A 
ATOM     13  C   UNL     1      21.915  34.889  40.912  1.00  0.00     0.047 A 
ATOM     14  C   UNL     1      21.240  33.995  40.076  1.00  0.00     0.020 A 
ATOM     15  C   UNL     1      23.308  35.005  40.840  1.00  0.00     0.119 A 
ATOM     16  C   UNL     1      24.024  34.215  39.935  1.00  0.00     0.093 A 
ATOM     17  C   UNL     1      23.356  33.311  39.097  1.00  0.00     0.130 A 
BRANCH  15  18
ATOM     18  O   UNL     1      23.990  35.895  41.665  1.00  0.00    -0.508 OA
ATOM     19  H   UNL     1      24.105  36.871  41.413  1.00  0.00     0.293 HD
ENDBRANCH  15  18
BRANCH  17  20
ATOM     20  O   UNL     1      24.087  32.495  38.234  1.00  0.00    -0.507 OA
ATOM     21  H   UNL     1      23.653  31.731  37.728  1.00  0.00     0.293 HD
ENDBRANCH  17  20
ENDBRANCH   1  12
BRANCH   2  22
ATOM     22  O   UNL     1      19.840  34.069  37.377  1.00  0.00    -0.502 OA
ATOM     23  H   UNL     1      19.044  34.407  36.851  1.00  0.00     0.293 HD
ENDBRANCH   2  22
BRANCH   6  24
ATOM     24  O   UNL     1      18.250  29.709  35.023  1.00  0.00    -0.507 OA
ATOM     25  H   UNL     1      18.325  30.504  34.400  1.00  0.00     0.293 HD
ENDBRANCH   6  24
BRANCH   8  26
ATOM     26  O   UNL     1      21.042  26.393  37.178  1.00  0.00    -0.508 OA
ATOM     27  H   UNL     1      20.601  25.643  36.658  1.00  0.00     0.293 HD
ENDBRANCH   8  26
TORSDOF 6
ENDMDL
MODEL 6
REMARK VINA RESULT:    -6.149      3.022      4.819
REMARK INTER + INTRA:          -7.755
REMARK INTER:                  -7.421
REMARK INTRA:                  -0.334
REMARK UNBOUND:                -0.348
REMARK SMILES O=c1c(O)c(-c2ccc(O)cc2O)oc2cc(O)cc(O)c12
REMARK SMILES IDX 5 1 3 2 2 3 1 4 22 5 20 6 19 7 17 8 16 9 15 10 14 11 6 12
REMARK SMILES IDX 8 13 7 14 9 15 11 16 12 17 10 18 13 20 4 22 21 24 18 26
REMARK H PARENT 10 19 13 21 4 23 21 25 18 27
REMARK Flexibility Score: inf
ROOT
ATOM      1  C   UNL     1      21.736  31.503  38.157  1.00  0.00     0.184 A 
ATOM      2  C   UNL     1      22.515  30.385  38.507  1.00  0.00     0.208 A 
ATOM      3  C   UNL     1      22.127  29.119  38.044  1.00  0.00     0.238 A 
ATOM      4  O   UNL     1      22.810  28.107  38.360  1.00  0.00    -0.285 OA
ATOM      5  C   UNL     1      20.984  28.995  37.227  1.00  0.00     0.111 A 
ATOM      6  C   UNL     1      20.528  27.756  36.716  1.00  0.00     0.134 A 
ATOM      7  C   UNL     1      19.387  27.717  35.901  1.00  0.00     0.093 A 
ATOM      8  C   UNL     1      18.695  28.893  35.588  1.00  0.00     0.123 A 
ATOM      9  C   UNL     1      19.140  30.116  36.090  1.00  0.00     0.094 A 
ATOM     10  C   UNL     1      20.275  30.176  36.905  1.00  0.00     0.146 A 
ATOM     11  O   UNL     1      20.674  31.354  37.373  1.00  0.00    -0.451 OA
ENDROOT
BRANCH   1  12
ATOM     12  C   UNL     1      22.081  32.863  38.620  1.00  0.00     0.063 A 
ATOM     13  C   UNL     1      21.610  34.737  40.096  1.00  0.00     0.047 A 
ATOM     14  C   UNL     1      21.307  33.455  39.631  1.00  0.00     0.020 A 
ATOM     15  C   UNL     1      22.699  35.439  39.565  1.00  0.00     0.119 A 
ATOM     16  C   UNL     1      23.489  34.848  38.574  1.00  0.00     0.093 A 
ATOM     17  C   UNL     1      23.196  33.559  38.107  1.00  0.00     0.130 A 
BRANCH  15  18
ATOM     18  O   UNL     1      23.007  36.719  40.019  1.00  0.00    -0.508 OA
ATOM     19  H   UNL     1      23.104  37.500  39.379  1.00  0.00     0.293 HD
ENDBRANCH  15  18
BRANCH  17  20
ATOM     20  O   UNL     1      24.021  32.963  37.153  1.00  0.00    -0.507 OA
ATOM     21  H   UNL     1      24.991  32.748  37.349  1.00  0.00     0.293 HD
ENDBRANCH  17  20
ENDBRANCH   1  12
BRANCH   2  22
ATOM     22  O   UNL     1      23.667  30.547  39.281  1.00  0.00    -0.502 OA
ATOM     23  H   UNL     1      23.712  31.194  40.059  1.00  0.00     0.293 HD
ENDBRANCH   2  22
BRANCH   6  24
ATOM     24  O   UNL     1      21.198  26.568  37.010  1.00  0.00    -0.507 OA
ATOM     25  H   UNL     1      21.658  26.422  37.901  1.00  0.00     0.293 HD
ENDBRANCH   6  24
BRANCH   8  26
ATOM     26  O   UNL     1      17.561  28.855  34.778  1.00  0.00    -0.508 OA
ATOM     27  H   UNL     1      17.633  28.789  33.769  1.00  0.00     0.293 HD
ENDBRANCH   8  26
TORSDOF 6
ENDMDL
MODEL 7
REMARK VINA RESULT:    -6.041      2.689      6.568
REMARK INTER + INTRA:          -7.625
REMARK INTER:                  -7.228
REMARK INTRA:                  -0.397
REMARK UNBOUND:                -0.348
REMARK SMILES O=c1c(O)c(-c2ccc(O)cc2O)oc2cc(O)cc(O)c12
REMARK SMILES IDX 5 1 3 2 2 3 1 4 22 5 20 6 19 7 17 8 16 9 15 10 14 11 6 12
REMARK SMILES IDX 8 13 7 14 9 15 11 16 12 17 10 18 13 20 4 22 21 24 18 26
REMARK H PARENT 10 19 13 21 4 23 21 25 18 27
REMARK Flexibility Score: inf
ROOT
ATOM      1  C   UNL     1      20.910  30.029  36.783  1.00  0.00     0.184 A 
ATOM      2  C   UNL     1      21.626  29.126  37.590  1.00  0.00     0.208 A 
ATOM      3  C   UNL     1      23.026  29.099  37.496  1.00  0.00     0.238 A 
ATOM      4  O   UNL     1      23.679  28.286  38.205  1.00  0.00    -0.285 OA
ATOM      5  C   UNL     1      23.683  29.985  36.618  1.00  0.00     0.111 A 
ATOM      6  C   UNL     1      25.090  30.024  36.466  1.00  0.00     0.134 A 
ATOM      7  C   UNL     1      25.669  30.942  35.577  1.00  0.00     0.093 A 
ATOM      8  C   UNL     1      24.868  31.820  34.838  1.00  0.00     0.123 A 
ATOM      9  C   UNL     1      23.481  31.784  34.983  1.00  0.00     0.094 A 
ATOM     10  C   UNL     1      22.884  30.876  35.863  1.00  0.00     0.146 A 
ATOM     11  O   UNL     1      21.560  30.861  35.977  1.00  0.00    -0.451 OA
ENDROOT
BRANCH   1  12
ATOM     12  C   UNL     1      19.435  30.102  36.824  1.00  0.00     0.063 A 
ATOM     13  C   UNL     1      17.431  31.216  37.635  1.00  0.00     0.047 A 
ATOM     14  C   UNL     1      18.824  31.115  37.580  1.00  0.00     0.020 A 
ATOM     15  C   UNL     1      16.632  30.313  36.923  1.00  0.00     0.119 A 
ATOM     16  C   UNL     1      17.232  29.316  36.149  1.00  0.00     0.093 A 
ATOM     17  C   UNL     1      18.629  29.211  36.083  1.00  0.00     0.130 A 
BRANCH  15  18
ATOM     18  O   UNL     1      15.243  30.403  36.974  1.00  0.00    -0.508 OA
ATOM     19  H   UNL     1      14.759  30.650  37.829  1.00  0.00     0.293 HD
ENDBRANCH  15  18
BRANCH  17  20
ATOM     20  O   UNL     1      19.215  28.242  35.269  1.00  0.00    -0.507 OA
ATOM     21  H   UNL     1      18.990  28.168  34.284  1.00  0.00     0.293 HD
ENDBRANCH  17  20
ENDBRANCH   1  12
BRANCH   2  22
ATOM     22  O   UNL     1      20.948  28.293  38.484  1.00  0.00    -0.502 OA
ATOM     23  H   UNL     1      21.343  28.021  39.376  1.00  0.00     0.293 HD
ENDBRANCH   2  22
BRANCH   6  24
ATOM     24  O   UNL     1      25.914  29.162  37.191  1.00  0.00    -0.507 OA
ATOM     25  H   UNL     1      26.578  28.548  36.733  1.00  0.00     0.293 HD
ENDBRANCH   6  24
BRANCH   8  26
ATOM     26  O   UNL     1      25.443  32.732  33.955  1.00  0.00    -0.508 OA
ATOM     27  H   UNL     1      25.513  33.717  34.182  1.00  0.00     0.293 HD
ENDBRANCH   8  26
TORSDOF 6
ENDMDL
MODEL 8
REMARK VINA RESULT:    -6.035      2.177      6.833
REMARK INTER + INTRA:          -7.618
REMARK INTER:                  -7.207
REMARK INTRA:                  -0.411
REMARK UNBOUND:                -0.348
REMARK SMILES O=c1c(O)c(-c2ccc(O)cc2O)oc2cc(O)cc(O)c12
REMARK SMILES IDX 5 1 3 2 2 3 1 4 22 5 20 6 19 7 17 8 16 9 15 10 14 11 6 12
REMARK SMILES IDX 8 13 7 14 9 15 11 16 12 17 10 18 13 20 4 22 21 24 18 26
REMARK H PARENT 10 19 13 21 4 23 21 25 18 27
REMARK Flexibility Score: inf
ROOT
ATOM      1  C   UNL     1      19.762  31.411  36.566  1.00  0.00     0.184 A 
ATOM      2  C   UNL     1      19.282  30.232  35.969  1.00  0.00     0.208 A 
ATOM      3  C   UNL     1      19.890  29.011  36.298  1.00  0.00     0.238 A 
ATOM      4  O   UNL     1      19.476  27.947  35.762  1.00  0.00    -0.285 OA
ATOM      5  C   UNL     1      20.949  28.988  37.229  1.00  0.00     0.111 A 
ATOM      6  C   UNL     1      21.614  27.800  37.617  1.00  0.00     0.134 A 
ATOM      7  C   UNL     1      22.653  27.860  38.557  1.00  0.00     0.093 A 
ATOM      8  C   UNL     1      23.040  29.084  39.114  1.00  0.00     0.123 A 
ATOM      9  C   UNL     1      22.389  30.258  38.734  1.00  0.00     0.094 A 
ATOM     10  C   UNL     1      21.351  30.220  37.798  1.00  0.00     0.146 A 
ATOM     11  O   UNL     1      20.752  31.354  37.450  1.00  0.00    -0.451 OA
ENDROOT
BRANCH   1  12
ATOM     12  C   UNL     1      19.175  32.731  36.255  1.00  0.00     0.063 A 
ATOM     13  C   UNL     1      19.152  34.716  34.851  1.00  0.00     0.047 A 
ATOM     14  C   UNL     1      19.689  33.467  35.175  1.00  0.00     0.020 A 
ATOM     15  C   UNL     1      18.086  35.239  35.593  1.00  0.00     0.119 A 
ATOM     16  C   UNL     1      17.554  34.502  36.655  1.00  0.00     0.093 A 
ATOM     17  C   UNL     1      18.082  33.245  36.984  1.00  0.00     0.130 A 
BRANCH  15  18
ATOM     18  O   UNL     1      17.547  36.484  35.281  1.00  0.00    -0.508 OA
ATOM     19  H   UNL     1      16.732  36.845  35.763  1.00  0.00     0.293 HD
ENDBRANCH  15  18
BRANCH  17  20
ATOM     20  O   UNL     1      17.509  32.500  38.015  1.00  0.00    -0.507 OA
ATOM     21  H   UNL     1      17.664  31.502  38.099  1.00  0.00     0.293 HD
ENDBRANCH  17  20
ENDBRANCH   1  12
BRANCH   2  22
ATOM     22  O   UNL     1      18.200  30.282  35.086  1.00  0.00    -0.502 OA
ATOM     23  H   UNL     1      18.320  30.253  34.080  1.00  0.00     0.293 HD
ENDBRANCH   2  22
BRANCH   6  24
ATOM     24  O   UNL     1      21.249  26.565  37.080  1.00  0.00    -0.507 OA
ATOM     25  H   UNL     1      20.891  26.479  36.136  1.00  0.00     0.293 HD
ENDBRANCH   6  24
BRANCH   8  26
ATOM     26  O   UNL     1      24.073  29.144  40.049  1.00  0.00    -0.508 OA
ATOM     27  H   UNL     1      24.932  29.645  39.857  1.00  0.00     0.293 HD
ENDBRANCH   8  26
TORSDOF 6
ENDMDL
MODEL 9
REMARK VINA RESULT:    -5.902      3.754      4.846
REMARK INTER + INTRA:          -7.458
REMARK INTER:                  -7.134
REMARK INTRA:                  -0.324
REMARK UNBOUND:                -0.348
REMARK SMILES O=c1c(O)c(-c2ccc(O)cc2O)oc2cc(O)cc(O)c12
REMARK SMILES IDX 5 1 3 2 2 3 1 4 22 5 20 6 19 7 17 8 16 9 15 10 14 11 6 12
REMARK SMILES IDX 8 13 7 14 9 15 11 16 12 17 10 18 13 20 4 22 21 24 18 26
REMARK H PARENT 10 19 13 21 4 23 21 25 18 27
REMARK Flexibility Score: inf
ROOT
ATOM      1  C   UNL     1      21.206  31.643  36.642  1.00  0.00     0.184 A 
ATOM      2  C   UNL     1      19.931  32.155  36.945  1.00  0.00     0.208 A 
ATOM      3  C   UNL     1      19.344  33.073  36.062  1.00  0.00     0.238 A 
ATOM      4  O   UNL     1      18.206  33.548  36.327  1.00  0.00    -0.285 OA
ATOM      5  C   UNL     1      20.028  33.446  34.887  1.00  0.00     0.111 A 
ATOM      6  C   UNL     1      19.506  34.363  33.943  1.00  0.00     0.134 A 
ATOM      7  C   UNL     1      20.245  34.676  32.793  1.00  0.00     0.093 A 
ATOM      8  C   UNL     1      21.497  34.090  32.570  1.00  0.00     0.123 A 
ATOM      9  C   UNL     1      22.017  33.187  33.497  1.00  0.00     0.094 A 
ATOM     10  C   UNL     1      21.296  32.862  34.650  1.00  0.00     0.146 A 
ATOM     11  O   UNL     1      21.818  32.003  35.519  1.00  0.00    -0.451 OA
ENDROOT
BRANCH   1  12
ATOM     12  C   UNL     1      21.886  30.681  37.535  1.00  0.00     0.063 A 
ATOM     13  C   UNL     1      23.657  30.231  39.140  1.00  0.00     0.047 A 
ATOM     14  C   UNL     1      22.994  31.113  38.281  1.00  0.00     0.020 A 
ATOM     15  C   UNL     1      23.212  28.910  39.271  1.00  0.00     0.119 A 
ATOM     16  C   UNL     1      22.096  28.479  38.549  1.00  0.00     0.093 A 
ATOM     17  C   UNL     1      21.421  29.359  37.691  1.00  0.00     0.130 A 
BRANCH  15  18
ATOM     18  O   UNL     1      23.868  28.023  40.120  1.00  0.00    -0.508 OA
ATOM     19  H   UNL     1      24.611  28.330  40.737  1.00  0.00     0.293 HD
ENDBRANCH  15  18
BRANCH  17  20
ATOM     20  O   UNL     1      20.280  28.929  37.013  1.00  0.00    -0.507 OA
ATOM     21  H   UNL     1      19.587  28.338  37.458  1.00  0.00     0.293 HD
ENDBRANCH  17  20
ENDBRANCH   1  12
BRANCH   2  22
ATOM     22  O   UNL     1      19.259  31.730  38.094  1.00  0.00    -0.502 OA
ATOM     23  H   UNL     1      19.237  30.759  38.382  1.00  0.00     0.293 HD
ENDBRANCH   2  22
BRANCH   6  24
ATOM     24  O   UNL     1      18.260  34.961  34.138  1.00  0.00    -0.507 OA
ATOM     25  H   UNL     1      17.433  34.415  34.346  1.00  0.00     0.293 HD
ENDBRANCH   6  24
BRANCH   8  26
ATOM     26  O   UNL     1      22.231  34.400  31.427  1.00  0.00    -0.508 OA
ATOM     27  H   UNL     1      22.813  35.228  31.379  1.00  0.00     0.293 HD
ENDBRANCH   8  26
TORSDOF 6
ENDMDL
