MODEL 1
REMARK VINA RESULT:    22.888      0.000      0.000
REMARK INTER + INTRA:          28.755
REMARK INTER:                  28.240
REMARK INTRA:                   0.515
REMARK UNBOUND:                 0.515
REMARK SMILES C=C1[C@@H]2CC[C@H]3[C@H]2C(C)(C)CCC[C@@]13C
REMARK SMILES IDX 14 1 6 2 7 3 3 4 2 5 1 6 4 7 5 8 15 9 8 10 9 11 10 12 11 13
REMARK SMILES IDX 13 15 12 16
REMARK H PARENT
REMARK Flexibility Score: 80.00
ROOT
ATOM      1  C   UNL     1      -0.157   6.000  -8.710  1.00  0.00    -0.008 C 
ATOM      2  C   UNL     1       0.496   6.378 -10.032  1.00  0.00     0.003 C 
ATOM      3  C   UNL     1       0.116   5.131 -10.852  1.00  0.00     0.006 C 
ATOM      4  C   UNL     1       0.948   4.182 -10.007  1.00  0.00     0.019 C 
ATOM      5  C   UNL     1       0.316   4.539  -8.640  1.00  0.00    -0.068 C 
ATOM      6  C   UNL     1       0.148   3.696  -7.617  1.00  0.00     0.009 C 
ATOM      7  C   UNL     1       2.338   4.803 -10.043  1.00  0.00     0.008 C 
ATOM      8  C   UNL     1       2.041   6.305 -10.038  1.00  0.00     0.005 C 
ATOM      9  C   UNL     1       0.382   6.810  -7.511  1.00  0.00     0.016 C 
ENDROOT
BRANCH   3  10
ATOM     10  C   UNL     1      -0.641   5.537 -12.136  1.00  0.00    -0.032 C 
ATOM     11  C   UNL     1       0.260   6.376 -13.071  1.00  0.00     0.011 C 
ATOM     12  C   UNL     1      -1.113   4.295 -12.942  1.00  0.00     0.011 C 
BRANCH  10  13
ATOM     13  C   UNL     1      -1.897   6.393 -11.643  1.00  0.00     0.007 CG0
ATOM     14  G   UNL     1      -2.526   5.997 -10.236  1.00  0.00     0.000 G0
ENDBRANCH  10  13
ENDBRANCH   3  10
BRANCH   1  15
ATOM     15  C   UNL     1      -1.723   6.263  -8.876  1.00  0.00     0.011 C 
BRANCH  15  16
ATOM     16  C   UNL     1      -2.524   5.998 -10.232  1.00  0.00     0.001 CG0
ATOM     17  G   UNL     1      -1.904   6.393 -11.643  1.00  0.00     0.000 G0
ENDBRANCH  15  16
ENDBRANCH   1  15
TORSDOF 0
ENDMDL
MODEL 2
REMARK VINA RESULT:    23.681      1.194      3.785
REMARK INTER + INTRA:          29.734
REMARK INTER:                  29.199
REMARK INTRA:                   0.534
REMARK UNBOUND:                 0.515
REMARK SMILES C=C1[C@@H]2CC[C@H]3[C@H]2C(C)(C)CCC[C@@]13C
REMARK SMILES IDX 14 1 6 2 7 3 3 4 2 5 1 6 4 7 5 8 15 9 8 10 9 11 10 12 11 13
REMARK SMILES IDX 13 15 12 16
REMARK H PARENT
REMARK Flexibility Score: 80.00
ROOT
ATOM      1  C   UNL     1      -0.770   5.339 -10.841  1.00  0.00    -0.008 C 
ATOM      2  C   UNL     1      -0.165   4.981  -9.491  1.00  0.00     0.003 C 
ATOM      3  C   UNL     1       0.340   6.375  -9.077  1.00  0.00     0.006 C 
ATOM      4  C   UNL     1       1.357   6.465 -10.201  1.00  0.00     0.019 C 
ATOM      5  C   UNL     1       0.374   6.218 -11.370  1.00  0.00    -0.068 C 
ATOM      6  C   UNL     1       0.474   6.743 -12.594  1.00  0.00     0.009 C 
ATOM      7  C   UNL     1       2.188   5.201 -10.027  1.00  0.00     0.008 C 
ATOM      8  C   UNL     1       1.153   4.173  -9.563  1.00  0.00     0.005 C 
ATOM      9  C   UNL     1      -0.991   4.114 -11.754  1.00  0.00     0.016 C 
ENDROOT
BRANCH   3  10
ATOM     10  C   UNL     1      -0.243   6.777  -7.704  1.00  0.00    -0.032 C 
ATOM     11  C   UNL     1       0.291   5.857  -6.583  1.00  0.00     0.011 C 
ATOM     12  C   UNL     1       0.135   8.236  -7.323  1.00  0.00     0.011 C 
BRANCH  10  13
ATOM     13  C   UNL     1      -1.828   6.631  -7.849  1.00  0.00     0.007 CG0
ATOM     14  G   UNL     1      -2.451   6.971  -9.272  1.00  0.00     0.000 G0
ENDBRANCH  10  13
ENDBRANCH   3  10
BRANCH   1  15
ATOM     15  C   UNL     1      -2.171   6.047 -10.546  1.00  0.00     0.011 C 
BRANCH  15  16
ATOM     16  C   UNL     1      -2.437   6.984  -9.279  1.00  0.00     0.001 CG0
ATOM     17  G   UNL     1      -1.831   6.627  -7.852  1.00  0.00     0.000 G0
ENDBRANCH  15  16
ENDBRANCH   1  15
TORSDOF 0
ENDMDL
MODEL 3
REMARK VINA RESULT:    24.856      9.824     11.808
REMARK INTER + INTRA:          31.183
REMARK INTER:                  30.701
REMARK INTRA:                   0.482
REMARK UNBOUND:                 0.515
REMARK SMILES C=C1[C@@H]2CC[C@H]3[C@H]2C(C)(C)CCC[C@@]13C
REMARK SMILES IDX 14 1 6 2 7 3 3 4 2 5 1 6 4 7 5 8 15 9 8 10 9 11 10 12 11 13
REMARK SMILES IDX 13 15 12 16
REMARK H PARENT
REMARK Flexibility Score: 80.00
ROOT
ATOM      1  C   UNL     1      11.861   7.486  -6.734  1.00  0.00    -0.008 C 
ATOM      2  C   UNL     1      11.021   8.739  -6.532  1.00  0.00     0.003 C 
ATOM      3  C   UNL     1       9.990   8.521  -7.654  1.00  0.00     0.006 C 
ATOM      4  C   UNL     1      11.012   8.641  -8.772  1.00  0.00     0.019 C 
ATOM      5  C   UNL     1      11.979   7.544  -8.266  1.00  0.00    -0.068 C 
ATOM      6  C   UNL     1      12.721   6.745  -9.038  1.00  0.00     0.009 C 
ATOM      7  C   UNL     1      11.670   9.988  -8.505  1.00  0.00     0.008 C 
ATOM      8  C   UNL     1      11.702  10.056  -6.976  1.00  0.00     0.005 C 
ATOM      9  C   UNL     1      13.253   7.572  -6.072  1.00  0.00     0.016 C 
ENDROOT
BRANCH   3  10
ATOM     10  C   UNL     1       8.555   8.550  -7.084  1.00  0.00    -0.032 C 
ATOM     11  C   UNL     1       8.183   9.965  -6.586  1.00  0.00     0.011 C 
ATOM     12  C   UNL     1       7.502   8.146  -8.154  1.00  0.00     0.011 C 
BRANCH  10  13
ATOM     13  C   UNL     1       8.550   7.505  -5.875  1.00  0.00     0.007 CG0
ATOM     14  G   UNL     1       9.545   6.270  -5.992  1.00  0.00     0.000 G0
ENDBRANCH  10  13
ENDBRANCH   3  10
BRANCH   1  15
ATOM     15  C   UNL     1      11.039   6.272  -6.101  1.00  0.00     0.011 C 
BRANCH  15  16
ATOM     16  C   UNL     1       9.447   6.258  -5.970  1.00  0.00     0.001 CG0
ATOM     17  G   UNL     1       8.616   7.613  -5.911  1.00  0.00     0.000 G0
ENDBRANCH  15  16
ENDBRANCH   1  15
TORSDOF 0
ENDMDL
MODEL 4
REMARK VINA RESULT:    25.822      1.325      4.076
REMARK INTER + INTRA:          32.376
REMARK INTER:                  31.893
REMARK INTRA:                   0.483
REMARK UNBOUND:                 0.515
REMARK SMILES C=C1[C@@H]2CC[C@H]3[C@H]2C(C)(C)CCC[C@@]13C
REMARK SMILES IDX 14 1 6 2 7 3 3 4 2 5 1 6 4 7 5 8 15 9 8 10 9 11 10 12 11 13
REMARK SMILES IDX 13 15 12 16
REMARK H PARENT
REMARK Flexibility Score: 80.00
ROOT
ATOM      1  C   UNL     1      -2.688   5.564 -11.729  1.00  0.00    -0.008 C 
ATOM      2  C   UNL     1      -1.422   4.720 -11.740  1.00  0.00     0.003 C 
ATOM      3  C   UNL     1      -0.380   5.848 -11.622  1.00  0.00     0.006 C 
ATOM      4  C   UNL     1      -0.722   6.459 -12.970  1.00  0.00     0.019 C 
ATOM      5  C   UNL     1      -2.235   6.655 -12.713  1.00  0.00    -0.068 C 
ATOM      6  C   UNL     1      -2.986   7.644 -13.206  1.00  0.00     0.009 C 
ATOM      7  C   UNL     1      -0.570   5.292 -13.936  1.00  0.00     0.008 C 
ATOM      8  C   UNL     1      -1.066   4.100 -13.113  1.00  0.00     0.005 C 
ATOM      9  C   UNL     1      -3.925   4.815 -12.268  1.00  0.00     0.016 C 
ENDROOT
BRANCH   3  10
ATOM     10  C   UNL     1       0.543   5.608 -10.407  1.00  0.00    -0.032 C 
ATOM     11  C   UNL     1       1.301   4.268 -10.540  1.00  0.00     0.011 C 
ATOM     12  C   UNL     1       1.609   6.730 -10.264  1.00  0.00     0.011 C 
BRANCH  10  13
ATOM     13  C   UNL     1      -0.420   5.589  -9.132  1.00  0.00     0.007 CG0
ATOM     14  G   UNL     1      -1.754   6.451  -9.228  1.00  0.00     0.000 G0
ENDBRANCH  10  13
ENDBRANCH   3  10
BRANCH   1  15
ATOM     15  C   UNL     1      -2.941   5.997 -10.212  1.00  0.00     0.011 C 
BRANCH  15  16
ATOM     16  C   UNL     1      -1.774   6.437  -9.213  1.00  0.00     0.001 CG0
ATOM     17  G   UNL     1      -0.419   5.611  -9.119  1.00  0.00     0.000 G0
ENDBRANCH  15  16
ENDBRANCH   1  15
TORSDOF 0
ENDMDL
