MODEL 1
REMARK VINA RESULT:    -3.737      0.000      0.000
REMARK INTER + INTRA:          -4.641
REMARK INTER:                  -4.502
REMARK INTRA:                  -0.139
REMARK UNBOUND:                -0.139
REMARK SMILES CC[C@@H](C)[C@@H]([NH3+])C(=O)[O-]
REMARK SMILES IDX 3 1 4 2 5 3 6 4 7 8 8 9 9 10 2 11 1 12
REMARK H PARENT 6 5 6 6 6 7
REMARK Flexibility Score: inf
ROOT
ATOM      1  C   UNL     1      -5.992  11.992  16.514  1.00  0.00     0.050 C 
ATOM      2  C   UNL     1      -5.930  12.858  15.242  1.00  0.00     0.014 C 
ENDROOT
BRANCH   1   3
ATOM      3  C   UNL     1      -4.578  11.577  17.036  1.00  0.00     0.230 C 
BRANCH   3   4
ATOM      4  N   UNL     1      -3.969  12.626  17.868  1.00  0.00    -0.350 N 
ATOM      5  H   UNL     1      -4.366  13.556  17.601  1.00  0.00     0.345 HD
ATOM      6  H   UNL     1      -2.932  12.663  17.743  1.00  0.00     0.345 HD
ATOM      7  H   UNL     1      -4.189  12.457  18.877  1.00  0.00     0.345 HD
ENDBRANCH   3   4
BRANCH   3   8
ATOM      8  C   UNL     1      -4.589  10.255  17.766  1.00  0.00     0.099 C 
ATOM      9  O   UNL     1      -5.496   9.408  17.554  1.00  0.00    -0.544 OA
ATOM     10  O   UNL     1      -3.573   9.955  18.666  1.00  0.00    -0.544 OA
ENDBRANCH   3   8
ENDBRANCH   1   3
BRANCH   1  11
ATOM     11  C   UNL     1      -6.847  12.712  17.587  1.00  0.00     0.006 C 
ATOM     12  C   UNL     1      -7.969  11.842  18.155  1.00  0.00     0.004 C 
ENDBRANCH   1  11
TORSDOF 4
ENDMDL
MODEL 2
REMARK VINA RESULT:    -3.650      1.746      2.609
REMARK INTER + INTRA:          -4.537
REMARK INTER:                  -4.465
REMARK INTRA:                  -0.072
REMARK UNBOUND:                -0.139
REMARK SMILES CC[C@@H](C)[C@@H]([NH3+])C(=O)[O-]
REMARK SMILES IDX 3 1 4 2 5 3 6 4 7 8 8 9 9 10 2 11 1 12
REMARK H PARENT 6 5 6 6 6 7
REMARK Flexibility Score: inf
ROOT
ATOM      1  C   UNL     1      -5.424  12.716  17.109  1.00  0.00     0.050 C 
ATOM      2  C   UNL     1      -6.863  13.008  17.570  1.00  0.00     0.014 C 
ENDROOT
BRANCH   1   3
ATOM      3  C   UNL     1      -4.839  11.407  17.733  1.00  0.00     0.230 C 
BRANCH   3   4
ATOM      4  N   UNL     1      -5.288  10.206  17.013  1.00  0.00    -0.350 N 
ATOM      5  H   UNL     1      -5.069  10.308  15.995  1.00  0.00     0.345 HD
ATOM      6  H   UNL     1      -6.317  10.058  17.114  1.00  0.00     0.345 HD
ATOM      7  H   UNL     1      -4.781   9.363  17.370  1.00  0.00     0.345 HD
ENDBRANCH   3   4
BRANCH   3   8
ATOM      8  C   UNL     1      -3.333  11.433  17.842  1.00  0.00     0.099 C 
ATOM      9  O   UNL     1      -2.632  10.523  17.328  1.00  0.00    -0.544 OA
ATOM     10  O   UNL     1      -2.707  12.488  18.497  1.00  0.00    -0.544 OA
ENDBRANCH   3   8
ENDBRANCH   1   3
BRANCH   1  11
ATOM     11  C   UNL     1      -5.367  12.727  15.560  1.00  0.00     0.006 C 
ATOM     12  C   UNL     1      -5.984  13.980  14.938  1.00  0.00     0.004 C 
ENDBRANCH   1  11
TORSDOF 4
ENDMDL
MODEL 3
REMARK VINA RESULT:    -3.589      0.836      2.305
REMARK INTER + INTRA:          -4.462
REMARK INTER:                  -4.774
REMARK INTRA:                   0.312
REMARK UNBOUND:                -0.139
REMARK SMILES CC[C@@H](C)[C@@H]([NH3+])C(=O)[O-]
REMARK SMILES IDX 3 1 4 2 5 3 6 4 7 8 8 9 9 10 2 11 1 12
REMARK H PARENT 6 5 6 6 6 7
REMARK Flexibility Score: inf
ROOT
ATOM      1  C   UNL     1      -5.647  12.897  16.791  1.00  0.00     0.050 C 
ATOM      2  C   UNL     1      -6.908  12.661  17.643  1.00  0.00     0.014 C 
ENDROOT
BRANCH   1   3
ATOM      3  C   UNL     1      -4.503  11.878  17.105  1.00  0.00     0.230 C 
BRANCH   3   4
ATOM      4  N   UNL     1      -3.544  12.411  18.084  1.00  0.00    -0.350 N 
ATOM      5  H   UNL     1      -4.063  12.905  18.846  1.00  0.00     0.345 HD
ATOM      6  H   UNL     1      -2.881  13.088  17.645  1.00  0.00     0.345 HD
ATOM      7  H   UNL     1      -3.002  11.628  18.517  1.00  0.00     0.345 HD
ENDBRANCH   3   4
BRANCH   3   8
ATOM      8  C   UNL     1      -5.025  10.531  17.546  1.00  0.00     0.099 C 
ATOM      9  O   UNL     1      -4.534   9.943  18.544  1.00  0.00    -0.544 OA
ATOM     10  O   UNL     1      -6.079   9.940  16.857  1.00  0.00    -0.544 OA
ENDBRANCH   3   8
ENDBRANCH   1   3
BRANCH   1  11
ATOM     11  C   UNL     1      -6.036  12.929  15.291  1.00  0.00     0.006 C 
ATOM     12  C   UNL     1      -6.094  14.341  14.709  1.00  0.00     0.004 C 
ENDBRANCH   1  11
TORSDOF 4
ENDMDL
MODEL 4
REMARK VINA RESULT:    -3.522      2.187      3.536
REMARK INTER + INTRA:          -4.382
REMARK INTER:                  -4.311
REMARK INTRA:                  -0.071
REMARK UNBOUND:                -0.139
REMARK SMILES CC[C@@H](C)[C@@H]([NH3+])C(=O)[O-]
REMARK SMILES IDX 3 1 4 2 5 3 6 4 7 8 8 9 9 10 2 11 1 12
REMARK H PARENT 6 5 6 6 6 7
REMARK Flexibility Score: inf
ROOT
ATOM      1  C   UNL     1      -4.090  10.848  17.214  1.00  0.00     0.050 C 
ATOM      2  C   UNL     1      -4.713   9.918  18.271  1.00  0.00     0.014 C 
ENDROOT
BRANCH   1   3
ATOM      3  C   UNL     1      -4.996  12.076  16.876  1.00  0.00     0.230 C 
BRANCH   3   4
ATOM      4  N   UNL     1      -4.602  12.721  15.614  1.00  0.00    -0.350 N 
ATOM      5  H   UNL     1      -4.312  13.707  15.804  1.00  0.00     0.345 HD
ATOM      6  H   UNL     1      -5.389  12.736  14.927  1.00  0.00     0.345 HD
ATOM      7  H   UNL     1      -3.786  12.218  15.194  1.00  0.00     0.345 HD
ENDBRANCH   3   4
BRANCH   3   8
ATOM      8  C   UNL     1      -6.467  11.731  16.863  1.00  0.00     0.099 C 
ATOM      9  O   UNL     1      -6.944  10.969  15.982  1.00  0.00    -0.544 OA
ATOM     10  O   UNL     1      -7.304  12.239  17.850  1.00  0.00    -0.544 OA
ENDBRANCH   3   8
ENDBRANCH   1   3
BRANCH   1  11
ATOM     11  C   UNL     1      -2.662  11.253  17.661  1.00  0.00     0.006 C 
ATOM     12  C   UNL     1      -2.648  12.361  18.715  1.00  0.00     0.004 C 
ENDBRANCH   1  11
TORSDOF 4
ENDMDL
MODEL 5
REMARK VINA RESULT:    -3.514      1.343      1.990
REMARK INTER + INTRA:          -4.372
REMARK INTER:                  -4.317
REMARK INTRA:                  -0.055
REMARK UNBOUND:                -0.139
REMARK SMILES CC[C@@H](C)[C@@H]([NH3+])C(=O)[O-]
REMARK SMILES IDX 3 1 4 2 5 3 6 4 7 8 8 9 9 10 2 11 1 12
REMARK H PARENT 6 5 6 6 6 7
REMARK Flexibility Score: inf
ROOT
ATOM      1  C   UNL     1      -5.517  11.662  17.526  1.00  0.00     0.050 C 
ATOM      2  C   UNL     1      -6.193  10.497  16.780  1.00  0.00     0.014 C 
ENDROOT
BRANCH   1   3
ATOM      3  C   UNL     1      -3.957  11.617  17.435  1.00  0.00     0.230 C 
BRANCH   3   4
ATOM      4  N   UNL     1      -3.329  12.706  18.199  1.00  0.00    -0.350 N 
ATOM      5  H   UNL     1      -2.762  12.302  18.979  1.00  0.00     0.345 HD
ATOM      6  H   UNL     1      -4.043  13.348  18.611  1.00  0.00     0.345 HD
ATOM      7  H   UNL     1      -2.687  13.254  17.581  1.00  0.00     0.345 HD
ENDBRANCH   3   4
BRANCH   3   8
ATOM      8  C   UNL     1      -3.386  10.279  17.844  1.00  0.00     0.099 C 
ATOM      9  O   UNL     1      -2.481   9.729  17.165  1.00  0.00    -0.544 OA
ATOM     10  O   UNL     1      -3.846   9.657  18.999  1.00  0.00    -0.544 OA
ENDBRANCH   3   8
ENDBRANCH   1   3
BRANCH   1  11
ATOM     11  C   UNL     1      -6.114  13.005  17.032  1.00  0.00     0.006 C 
ATOM     12  C   UNL     1      -5.877  13.264  15.544  1.00  0.00     0.004 C 
ENDBRANCH   1  11
TORSDOF 4
ENDMDL
MODEL 6
REMARK VINA RESULT:    -3.496      1.225      1.652
REMARK INTER + INTRA:          -4.350
REMARK INTER:                  -4.269
REMARK INTRA:                  -0.081
REMARK UNBOUND:                -0.139
REMARK SMILES CC[C@@H](C)[C@@H]([NH3+])C(=O)[O-]
REMARK SMILES IDX 3 1 4 2 5 3 6 4 7 8 8 9 9 10 2 11 1 12
REMARK H PARENT 6 5 6 6 6 7
REMARK Flexibility Score: inf
ROOT
ATOM      1  C   UNL     1      -6.541  10.986  17.268  1.00  0.00     0.050 C 
ATOM      2  C   UNL     1      -7.225  10.372  16.034  1.00  0.00     0.014 C 
ENDROOT
BRANCH   1   3
ATOM      3  C   UNL     1      -5.096  11.502  16.967  1.00  0.00     0.230 C 
BRANCH   3   4
ATOM      4  N   UNL     1      -4.906  12.894  17.404  1.00  0.00    -0.350 N 
ATOM      5  H   UNL     1      -5.829  13.384  17.415  1.00  0.00     0.345 HD
ATOM      6  H   UNL     1      -4.264  13.414  16.764  1.00  0.00     0.345 HD
ATOM      7  H   UNL     1      -4.516  12.915  18.375  1.00  0.00     0.345 HD
ENDBRANCH   3   4
BRANCH   3   8
ATOM      8  C   UNL     1      -4.024  10.609  17.546  1.00  0.00     0.099 C 
ATOM      9  O   UNL     1      -2.805  10.902  17.427  1.00  0.00    -0.544 OA
ATOM     10  O   UNL     1      -4.384   9.461  18.241  1.00  0.00    -0.544 OA
ENDBRANCH   3   8
ENDBRANCH   1   3
BRANCH   1  11
ATOM     11  C   UNL     1      -7.459  12.077  17.877  1.00  0.00     0.006 C 
ATOM     12  C   UNL     1      -8.623  11.507  18.687  1.00  0.00     0.004 C 
ENDBRANCH   1  11
TORSDOF 4
ENDMDL
MODEL 7
REMARK VINA RESULT:    -3.467      2.932      4.301
REMARK INTER + INTRA:          -4.316
REMARK INTER:                  -4.237
REMARK INTRA:                  -0.079
REMARK UNBOUND:                -0.139
REMARK SMILES CC[C@@H](C)[C@@H]([NH3+])C(=O)[O-]
REMARK SMILES IDX 3 1 4 2 5 3 6 4 7 8 8 9 9 10 2 11 1 12
REMARK H PARENT 6 5 6 6 6 7
REMARK Flexibility Score: inf
ROOT
ATOM      1  C   UNL     1      -2.682  11.651  18.931  1.00  0.00     0.050 C 
ATOM      2  C   UNL     1      -1.678  12.816  19.017  1.00  0.00     0.014 C 
ENDROOT
BRANCH   1   3
ATOM      3  C   UNL     1      -3.143  11.355  17.466  1.00  0.00     0.230 C 
BRANCH   3   4
ATOM      4  N   UNL     1      -2.754  10.006  17.029  1.00  0.00    -0.350 N 
ATOM      5  H   UNL     1      -2.537  10.020  16.007  1.00  0.00     0.345 HD
ATOM      6  H   UNL     1      -3.519   9.313  17.193  1.00  0.00     0.345 HD
ATOM      7  H   UNL     1      -1.894   9.697  17.539  1.00  0.00     0.345 HD
ENDBRANCH   3   4
BRANCH   3   8
ATOM      8  C   UNL     1      -4.624  11.577  17.264  1.00  0.00     0.099 C 
ATOM      9  O   UNL     1      -5.405  10.604  17.094  1.00  0.00    -0.544 OA
ATOM     10  O   UNL     1      -5.137  12.868  17.289  1.00  0.00    -0.544 OA
ENDBRANCH   3   8
ENDBRANCH   1   3
BRANCH   1  11
ATOM     11  C   UNL     1      -2.091  10.408  19.643  1.00  0.00     0.006 C 
ATOM     12  C   UNL     1      -0.860  10.723  20.494  1.00  0.00     0.004 C 
ENDBRANCH   1  11
TORSDOF 4
ENDMDL
MODEL 8
REMARK VINA RESULT:    -3.353      2.460      2.901
REMARK INTER + INTRA:          -4.178
REMARK INTER:                  -4.077
REMARK INTRA:                  -0.101
REMARK UNBOUND:                -0.139
REMARK SMILES CC[C@@H](C)[C@@H]([NH3+])C(=O)[O-]
REMARK SMILES IDX 3 1 4 2 5 3 6 4 7 8 8 9 9 10 2 11 1 12
REMARK H PARENT 6 5 6 6 6 7
REMARK Flexibility Score: inf
ROOT
ATOM      1  C   UNL     1      -6.459  10.299  17.225  1.00  0.00     0.050 C 
ATOM      2  C   UNL     1      -7.271  10.382  15.920  1.00  0.00     0.014 C 
ENDROOT
BRANCH   1   3
ATOM      3  C   UNL     1      -5.394  11.438  17.351  1.00  0.00     0.230 C 
BRANCH   3   4
ATOM      4  N   UNL     1      -4.091  11.037  16.802  1.00  0.00    -0.350 N 
ATOM      5  H   UNL     1      -4.177  10.097  16.352  1.00  0.00     0.345 HD
ATOM      6  H   UNL     1      -3.360  10.979  17.547  1.00  0.00     0.345 HD
ATOM      7  H   UNL     1      -3.784  11.719  16.070  1.00  0.00     0.345 HD
ENDBRANCH   3   4
BRANCH   3   8
ATOM      8  C   UNL     1      -5.855  12.740  16.738  1.00  0.00     0.099 C 
ATOM      9  O   UNL     1      -6.634  13.507  17.361  1.00  0.00    -0.544 OA
ATOM     10  O   UNL     1      -5.395  13.110  15.479  1.00  0.00    -0.544 OA
ENDBRANCH   3   8
ENDBRANCH   1   3
BRANCH   1  11
ATOM     11  C   UNL     1      -7.428  10.240  18.433  1.00  0.00     0.006 C 
ATOM     12  C   UNL     1      -8.806  10.830  18.135  1.00  0.00     0.004 C 
ENDBRANCH   1  11
TORSDOF 4
ENDMDL
MODEL 9
REMARK VINA RESULT:    -3.257      2.486      3.325
REMARK INTER + INTRA:          -4.063
REMARK INTER:                  -4.013
REMARK INTRA:                  -0.050
REMARK UNBOUND:                -0.139
REMARK SMILES CC[C@@H](C)[C@@H]([NH3+])C(=O)[O-]
REMARK SMILES IDX 3 1 4 2 5 3 6 4 7 8 8 9 9 10 2 11 1 12
REMARK H PARENT 6 5 6 6 6 7
REMARK Flexibility Score: inf
ROOT
ATOM      1  C   UNL     1      -2.955  11.483  17.606  1.00  0.00     0.050 C 
ATOM      2  C   UNL     1      -2.224  12.263  18.715  1.00  0.00     0.014 C 
ENDROOT
BRANCH   1   3
ATOM      3  C   UNL     1      -2.858   9.933  17.789  1.00  0.00     0.230 C 
BRANCH   3   4
ATOM      4  N   UNL     1      -1.975   9.315  16.789  1.00  0.00    -0.350 N 
ATOM      5  H   UNL     1      -2.543   8.717  16.146  1.00  0.00     0.345 HD
ATOM      6  H   UNL     1      -1.246   8.716  17.237  1.00  0.00     0.345 HD
ATOM      7  H   UNL     1      -1.509  10.056  16.215  1.00  0.00     0.345 HD
ENDBRANCH   3   4
BRANCH   3   8
ATOM      8  C   UNL     1      -2.444   9.535  19.186  1.00  0.00     0.099 C 
ATOM      9  O   UNL     1      -3.295   9.438  20.109  1.00  0.00    -0.544 OA
ATOM     10  O   UNL     1      -1.111   9.245  19.455  1.00  0.00    -0.544 OA
ENDBRANCH   3   8
ENDBRANCH   1   3
BRANCH   1  11
ATOM     11  C   UNL     1      -4.415  11.990  17.497  1.00  0.00     0.006 C 
ATOM     12  C   UNL     1      -5.430  10.871  17.263  1.00  0.00     0.004 C 
ENDBRANCH   1  11
TORSDOF 4
ENDMDL
