MODEL 1
REMARK VINA RESULT:    -5.668      0.000      0.000
REMARK INTER + INTRA:          -6.768
REMARK INTER:                  -6.497
REMARK INTRA:                  -0.271
REMARK UNBOUND:                -0.271
REMARK SMILES O=C([O-])C=Cc1ccc(O)cc1
REMARK SMILES IDX 6 1 7 2 12 3 8 4 11 5 9 6 5 7 4 8 2 9 1 10 3 11 10 12
REMARK H PARENT 10 13
REMARK Flexibility Score: inf
ROOT
ATOM      1  C   UNL     1      59.316 153.197   2.612  1.00  0.00    -0.025 A 
ATOM      2  C   UNL     1      60.610 152.755   2.298  1.00  0.00     0.012 A 
ATOM      3  C   UNL     1      58.634 154.023   1.701  1.00  0.00     0.012 A 
ATOM      4  C   UNL     1      61.233 153.173   1.119  1.00  0.00     0.047 A 
ATOM      5  C   UNL     1      59.258 154.440   0.522  1.00  0.00     0.047 A 
ATOM      6  C   UNL     1      60.563 154.019   0.230  1.00  0.00     0.115 A 
ENDROOT
BRANCH   1   7
ATOM      7  C   UNL     1      58.658 152.700   3.837  1.00  0.00     0.010 C 
ATOM      8  C   UNL     1      58.585 153.360   5.004  1.00  0.00     0.025 C 
BRANCH   8   9
ATOM      9  C   UNL     1      59.296 154.611   5.333  1.00  0.00     0.064 C 
ATOM     10  O   UNL     1      60.305 154.616   6.088  1.00  0.00    -0.545 OA
ATOM     11  O   UNL     1      58.802 155.816   4.854  1.00  0.00    -0.545 OA
ENDBRANCH   8   9
ENDBRANCH   1   7
BRANCH   6  12
ATOM     12  O   UNL     1      61.195 154.429  -0.941  1.00  0.00    -0.508 OA
ATOM     13  H   UNL     1      61.140 153.883  -1.792  1.00  0.00     0.293 HD
ENDBRANCH   6  12
TORSDOF 3
ENDMDL
MODEL 2
REMARK VINA RESULT:    -5.307      4.723      5.881
REMARK INTER + INTRA:          -6.354
REMARK INTER:                  -6.108
REMARK INTRA:                  -0.246
REMARK UNBOUND:                -0.271
REMARK SMILES O=C([O-])C=Cc1ccc(O)cc1
REMARK SMILES IDX 6 1 7 2 12 3 8 4 11 5 9 6 5 7 4 8 2 9 1 10 3 11 10 12
REMARK H PARENT 10 13
REMARK Flexibility Score: inf
ROOT
ATOM      1  C   UNL     1      63.177 151.884   4.550  1.00  0.00    -0.025 A 
ATOM      2  C   UNL     1      62.025 152.071   5.329  1.00  0.00     0.012 A 
ATOM      3  C   UNL     1      63.056 151.822   3.151  1.00  0.00     0.012 A 
ATOM      4  C   UNL     1      60.767 152.143   4.725  1.00  0.00     0.047 A 
ATOM      5  C   UNL     1      61.796 151.893   2.547  1.00  0.00     0.047 A 
ATOM      6  C   UNL     1      60.647 152.050   3.335  1.00  0.00     0.115 A 
ENDROOT
BRANCH   1   7
ATOM      7  C   UNL     1      64.500 151.865   5.205  1.00  0.00     0.010 C 
ATOM      8  C   UNL     1      65.294 150.788   5.326  1.00  0.00     0.025 C 
BRANCH   8   9
ATOM      9  C   UNL     1      64.920 149.400   4.992  1.00  0.00     0.064 C 
ATOM     10  O   UNL     1      65.317 148.847   3.932  1.00  0.00    -0.545 OA
ATOM     11  O   UNL     1      64.057 148.711   5.834  1.00  0.00    -0.545 OA
ENDBRANCH   8   9
ENDBRANCH   1   7
BRANCH   6  12
ATOM     12  O   UNL     1      59.387 152.122   2.746  1.00  0.00    -0.508 OA
ATOM     13  H   UNL     1      58.957 151.312   2.316  1.00  0.00     0.293 HD
ENDBRANCH   6  12
TORSDOF 3
ENDMDL
MODEL 3
REMARK VINA RESULT:    -5.214      5.719      7.497
REMARK INTER + INTRA:          -6.247
REMARK INTER:                  -6.085
REMARK INTRA:                  -0.162
REMARK UNBOUND:                -0.271
REMARK SMILES O=C([O-])C=Cc1ccc(O)cc1
REMARK SMILES IDX 6 1 7 2 12 3 8 4 11 5 9 6 5 7 4 8 2 9 1 10 3 11 10 12
REMARK H PARENT 10 13
REMARK Flexibility Score: inf
ROOT
ATOM      1  C   UNL     1      63.394 148.965   5.821  1.00  0.00    -0.025 A 
ATOM      2  C   UNL     1      62.663 147.880   5.315  1.00  0.00     0.012 A 
ATOM      3  C   UNL     1      62.876 149.697   6.904  1.00  0.00     0.012 A 
ATOM      4  C   UNL     1      61.410 147.563   5.847  1.00  0.00     0.047 A 
ATOM      5  C   UNL     1      61.623 149.379   7.435  1.00  0.00     0.047 A 
ATOM      6  C   UNL     1      60.884 148.312   6.904  1.00  0.00     0.115 A 
ENDROOT
BRANCH   1   7
ATOM      7  C   UNL     1      64.739 149.248   5.280  1.00  0.00     0.010 C 
ATOM      8  C   UNL     1      65.117 150.396   4.694  1.00  0.00     0.025 C 
BRANCH   8   9
ATOM      9  C   UNL     1      64.223 151.510   4.324  1.00  0.00     0.064 C 
ATOM     10  O   UNL     1      63.615 151.529   3.221  1.00  0.00    -0.545 OA
ATOM     11  O   UNL     1      64.101 152.593   5.183  1.00  0.00    -0.545 OA
ENDBRANCH   8   9
ENDBRANCH   1   7
BRANCH   6  12
ATOM     12  O   UNL     1      59.634 147.986   7.424  1.00  0.00    -0.508 OA
ATOM     13  H   UNL     1      59.408 148.144   8.399  1.00  0.00     0.293 HD
ENDBRANCH   6  12
TORSDOF 3
ENDMDL
MODEL 4
REMARK VINA RESULT:    -4.936     19.956     21.911
REMARK INTER + INTRA:          -5.929
REMARK INTER:                  -5.681
REMARK INTRA:                  -0.247
REMARK UNBOUND:                -0.271
REMARK SMILES O=C([O-])C=Cc1ccc(O)cc1
REMARK SMILES IDX 6 1 7 2 12 3 8 4 11 5 9 6 5 7 4 8 2 9 1 10 3 11 10 12
REMARK H PARENT 10 13
REMARK Flexibility Score: inf
ROOT
ATOM      1  C   UNL     1      70.629 138.757  -8.154  1.00  0.00    -0.025 A 
ATOM      2  C   UNL     1      69.635 139.537  -7.544  1.00  0.00     0.012 A 
ATOM      3  C   UNL     1      71.057 137.575  -7.525  1.00  0.00     0.012 A 
ATOM      4  C   UNL     1      69.113 139.170  -6.300  1.00  0.00     0.047 A 
ATOM      5  C   UNL     1      70.535 137.210  -6.280  1.00  0.00     0.047 A 
ATOM      6  C   UNL     1      69.563 138.010  -5.662  1.00  0.00     0.115 A 
ENDROOT
BRANCH   1   7
ATOM      7  C   UNL     1      71.126 139.135  -9.492  1.00  0.00     0.010 C 
ATOM      8  C   UNL     1      72.309 139.716  -9.749  1.00  0.00     0.025 C 
BRANCH   8   9
ATOM      9  C   UNL     1      73.246 140.244  -8.738  1.00  0.00     0.064 C 
ATOM     10  O   UNL     1      72.986 141.285  -8.078  1.00  0.00    -0.545 OA
ATOM     11  O   UNL     1      74.472 139.618  -8.560  1.00  0.00    -0.545 OA
ENDBRANCH   8   9
ENDBRANCH   1   7
BRANCH   6  12
ATOM     12  O   UNL     1      69.037 137.656  -4.422  1.00  0.00    -0.508 OA
ATOM     13  H   UNL     1      69.356 136.833  -3.926  1.00  0.00     0.293 HD
ENDBRANCH   6  12
TORSDOF 3
ENDMDL
MODEL 5
REMARK VINA RESULT:    -4.823      3.049      3.812
REMARK INTER + INTRA:          -5.799
REMARK INTER:                  -5.533
REMARK INTRA:                  -0.266
REMARK UNBOUND:                -0.271
REMARK SMILES O=C([O-])C=Cc1ccc(O)cc1
REMARK SMILES IDX 6 1 7 2 12 3 8 4 11 5 9 6 5 7 4 8 2 9 1 10 3 11 10 12
REMARK H PARENT 10 13
REMARK Flexibility Score: inf
ROOT
ATOM      1  C   UNL     1      61.308 151.737   3.815  1.00  0.00    -0.025 A 
ATOM      2  C   UNL     1      61.712 151.854   2.476  1.00  0.00     0.012 A 
ATOM      3  C   UNL     1      60.160 152.422   4.248  1.00  0.00     0.012 A 
ATOM      4  C   UNL     1      61.009 152.682   1.596  1.00  0.00     0.047 A 
ATOM      5  C   UNL     1      59.458 153.251   3.367  1.00  0.00     0.047 A 
ATOM      6  C   UNL     1      59.884 153.386   2.038  1.00  0.00     0.115 A 
ENDROOT
BRANCH   1   7
ATOM      7  C   UNL     1      62.034 150.815   4.712  1.00  0.00     0.010 C 
ATOM      8  C   UNL     1      63.141 151.117   5.409  1.00  0.00     0.025 C 
BRANCH   8   9
ATOM      9  C   UNL     1      63.936 152.353   5.272  1.00  0.00     0.064 C 
ATOM     10  O   UNL     1      63.696 153.372   5.972  1.00  0.00    -0.545 OA
ATOM     11  O   UNL     1      64.927 152.415   4.302  1.00  0.00    -0.545 OA
ENDBRANCH   8   9
ENDBRANCH   1   7
BRANCH   6  12
ATOM     12  O   UNL     1      59.194 154.209   1.152  1.00  0.00    -0.508 OA
ATOM     13  H   UNL     1      58.810 153.851   0.286  1.00  0.00     0.293 HD
ENDBRANCH   6  12
TORSDOF 3
ENDMDL
MODEL 6
REMARK VINA RESULT:    -4.680      5.271      7.297
REMARK INTER + INTRA:          -5.636
REMARK INTER:                  -5.338
REMARK INTRA:                  -0.297
REMARK UNBOUND:                -0.271
REMARK SMILES O=C([O-])C=Cc1ccc(O)cc1
REMARK SMILES IDX 6 1 7 2 12 3 8 4 11 5 9 6 5 7 4 8 2 9 1 10 3 11 10 12
REMARK H PARENT 10 13
REMARK Flexibility Score: inf
ROOT
ATOM      1  C   UNL     1      61.921 150.511   5.507  1.00  0.00    -0.025 A 
ATOM      2  C   UNL     1      61.936 151.049   6.802  1.00  0.00     0.012 A 
ATOM      3  C   UNL     1      61.523 149.175   5.323  1.00  0.00     0.012 A 
ATOM      4  C   UNL     1      61.608 150.252   7.902  1.00  0.00     0.047 A 
ATOM      5  C   UNL     1      61.196 148.378   6.424  1.00  0.00     0.047 A 
ATOM      6  C   UNL     1      61.241 148.915   7.719  1.00  0.00     0.115 A 
ENDROOT
BRANCH   1   7
ATOM      7  C   UNL     1      62.218 151.386   4.355  1.00  0.00     0.010 C 
ATOM      8  C   UNL     1      63.416 151.512   3.761  1.00  0.00     0.025 C 
BRANCH   8   9
ATOM      9  C   UNL     1      64.686 150.944   4.254  1.00  0.00     0.064 C 
ATOM     10  O   UNL     1      65.165 149.884   3.773  1.00  0.00    -0.545 OA
ATOM     11  O   UNL     1      65.333 151.558   5.318  1.00  0.00    -0.545 OA
ENDBRANCH   8   9
ENDBRANCH   1   7
BRANCH   6  12
ATOM     12  O   UNL     1      60.919 148.131   8.824  1.00  0.00    -0.508 OA
ATOM     13  H   UNL     1      60.162 148.381   9.448  1.00  0.00     0.293 HD
ENDBRANCH   6  12
TORSDOF 3
ENDMDL
MODEL 7
REMARK VINA RESULT:    -4.588      4.226      5.513
REMARK INTER + INTRA:          -5.530
REMARK INTER:                  -5.389
REMARK INTRA:                  -0.142
REMARK UNBOUND:                -0.271
REMARK SMILES O=C([O-])C=Cc1ccc(O)cc1
REMARK SMILES IDX 6 1 7 2 12 3 8 4 11 5 9 6 5 7 4 8 2 9 1 10 3 11 10 12
REMARK H PARENT 10 13
REMARK Flexibility Score: inf
ROOT
ATOM      1  C   UNL     1      62.408 151.082   4.255  1.00  0.00    -0.025 A 
ATOM      2  C   UNL     1      62.203 149.978   5.096  1.00  0.00     0.012 A 
ATOM      3  C   UNL     1      63.719 151.425   3.880  1.00  0.00     0.012 A 
ATOM      4  C   UNL     1      63.293 149.259   5.597  1.00  0.00     0.047 A 
ATOM      5  C   UNL     1      64.808 150.707   4.383  1.00  0.00     0.047 A 
ATOM      6  C   UNL     1      64.597 149.623   5.247  1.00  0.00     0.115 A 
ENDROOT
BRANCH   1   7
ATOM      7  C   UNL     1      61.241 151.792   3.694  1.00  0.00     0.010 C 
ATOM      8  C   UNL     1      60.403 152.581   4.387  1.00  0.00     0.025 C 
BRANCH   8   9
ATOM      9  C   UNL     1      60.384 152.739   5.854  1.00  0.00     0.064 C 
ATOM     10  O   UNL     1      59.560 152.116   6.574  1.00  0.00    -0.545 OA
ATOM     11  O   UNL     1      61.250 153.648   6.447  1.00  0.00    -0.545 OA
ENDBRANCH   8   9
ENDBRANCH   1   7
BRANCH   6  12
ATOM     12  O   UNL     1      65.674 148.900   5.754  1.00  0.00    -0.508 OA
ATOM     13  H   UNL     1      66.568 149.339   5.937  1.00  0.00     0.293 HD
ENDBRANCH   6  12
TORSDOF 3
ENDMDL
MODEL 8
REMARK VINA RESULT:    -4.519      4.207      5.119
REMARK INTER + INTRA:          -5.450
REMARK INTER:                  -5.216
REMARK INTRA:                  -0.234
REMARK UNBOUND:                -0.271
REMARK SMILES O=C([O-])C=Cc1ccc(O)cc1
REMARK SMILES IDX 6 1 7 2 12 3 8 4 11 5 9 6 5 7 4 8 2 9 1 10 3 11 10 12
REMARK H PARENT 10 13
REMARK Flexibility Score: inf
ROOT
ATOM      1  C   UNL     1      62.093 151.460   4.668  1.00  0.00    -0.025 A 
ATOM      2  C   UNL     1      60.880 152.059   5.038  1.00  0.00     0.012 A 
ATOM      3  C   UNL     1      62.480 151.472   3.316  1.00  0.00     0.012 A 
ATOM      4  C   UNL     1      60.042 152.616   4.068  1.00  0.00     0.047 A 
ATOM      5  C   UNL     1      61.641 152.028   2.347  1.00  0.00     0.047 A 
ATOM      6  C   UNL     1      60.416 152.599   2.721  1.00  0.00     0.115 A 
ENDROOT
BRANCH   1   7
ATOM      7  C   UNL     1      62.987 150.926   5.715  1.00  0.00     0.010 C 
ATOM      8  C   UNL     1      63.012 149.654   6.144  1.00  0.00     0.025 C 
BRANCH   8   9
ATOM      9  C   UNL     1      62.039 148.603   5.784  1.00  0.00     0.064 C 
ATOM     10  O   UNL     1      60.836 148.666   6.150  1.00  0.00    -0.545 OA
ATOM     11  O   UNL     1      62.477 147.489   5.081  1.00  0.00    -0.545 OA
ENDBRANCH   8   9
ENDBRANCH   1   7
BRANCH   6  12
ATOM     12  O   UNL     1      59.571 153.156   1.764  1.00  0.00    -0.508 OA
ATOM     13  H   UNL     1      59.931 153.709   0.997  1.00  0.00     0.293 HD
ENDBRANCH   6  12
TORSDOF 3
ENDMDL
MODEL 9
REMARK VINA RESULT:    -4.476      5.308      6.281
REMARK INTER + INTRA:          -5.402
REMARK INTER:                  -5.166
REMARK INTRA:                  -0.235
REMARK UNBOUND:                -0.271
REMARK SMILES O=C([O-])C=Cc1ccc(O)cc1
REMARK SMILES IDX 6 1 7 2 12 3 8 4 11 5 9 6 5 7 4 8 2 9 1 10 3 11 10 12
REMARK H PARENT 10 13
REMARK Flexibility Score: inf
ROOT
ATOM      1  C   UNL     1      62.661 149.299   5.416  1.00  0.00    -0.025 A 
ATOM      2  C   UNL     1      64.035 149.090   5.607  1.00  0.00     0.012 A 
ATOM      3  C   UNL     1      62.224 150.497   4.824  1.00  0.00     0.012 A 
ATOM      4  C   UNL     1      64.956 150.083   5.260  1.00  0.00     0.047 A 
ATOM      5  C   UNL     1      63.146 151.490   4.478  1.00  0.00     0.047 A 
ATOM      6  C   UNL     1      64.516 151.286   4.699  1.00  0.00     0.115 A 
ENDROOT
BRANCH   1   7
ATOM      7  C   UNL     1      61.711 148.215   5.740  1.00  0.00     0.010 C 
ATOM      8  C   UNL     1      60.817 148.236   6.741  1.00  0.00     0.025 C 
BRANCH   8   9
ATOM      9  C   UNL     1      60.739 149.256   7.805  1.00  0.00     0.064 C 
ATOM     10  O   UNL     1      59.836 150.134   7.811  1.00  0.00    -0.545 OA
ATOM     11  O   UNL     1      61.722 149.289   8.784  1.00  0.00    -0.545 OA
ENDBRANCH   8   9
ENDBRANCH   1   7
BRANCH   6  12
ATOM     12  O   UNL     1      65.443 152.268   4.360  1.00  0.00    -0.508 OA
ATOM     13  H   UNL     1      66.047 152.689   5.055  1.00  0.00     0.293 HD
ENDBRANCH   6  12
TORSDOF 3
ENDMDL
