MODEL 1
REMARK VINA RESULT:    -3.800      0.000      0.000
REMARK INTER + INTRA:          -5.836
REMARK INTER:                  -5.799
REMARK INTRA:                  -0.036
REMARK UNBOUND:                -0.036
REMARK SMILES CC1=CCC[C@@H](C)C(=O)C[C@H](C(C)C)C(=O)C1
REMARK SMILES IDX 8 1 9 2 6 3 7 4 5 5 4 6 3 7 2 8 1 9 10 11 11 12 15 13 16 14
REMARK SMILES IDX 17 15 12 17 13 18 14 19
REMARK H PARENT
REMARK Flexibility Score: 70.00
ROOT
ATOM      1  C   UNL     1      -6.334  36.387  -0.932  1.00  0.00     0.136 C 
ATOM      2  O   UNL     1      -5.269  36.513  -0.343  1.00  0.00    -0.299 OA
ENDROOT
BRANCH   1   3
ATOM      3  C   UNL     1      -6.574  37.150  -2.220  1.00  0.00     0.053 C 
ATOM      4  C   UNL     1      -5.455  36.863  -3.232  1.00  0.00     0.016 C 
BRANCH   3   5
ATOM      5  C   UNL     1      -6.684  38.665  -1.931  1.00  0.00     0.015 C 
BRANCH   5   6
ATOM      6  C   UNL     1      -8.132  39.177  -2.057  1.00  0.00     0.028 C 
BRANCH   6   7
ATOM      7  C   UNL     1      -8.865  38.483  -3.174  1.00  0.00    -0.028 C 
ATOM      8  C   UNL     1      -9.907  37.635  -3.013  1.00  0.00    -0.070 CG0
ATOM      9  C   UNL     1     -10.563  37.078  -4.251  1.00  0.00     0.039 C 
ATOM     10  G   UNL     1     -10.449  37.229  -1.652  1.00  0.00     0.000 G0
ENDBRANCH   6   7
ENDBRANCH   5   6
ENDBRANCH   3   5
ENDBRANCH   1   3
BRANCH   1  11
ATOM     11  C   UNL     1      -7.389  35.470  -0.357  1.00  0.00     0.087 C 
BRANCH  11  12
ATOM     12  C   UNL     1      -8.686  36.230   0.027  1.00  0.00     0.066 C 
BRANCH  12  13
ATOM     13  C   UNL     1      -9.762  36.042  -1.037  1.00  0.00     0.140 C 
ATOM     14  O   UNL     1     -10.002  34.912  -1.437  1.00  0.00    -0.299 OA
BRANCH  13  15
ATOM     15  C   UNL     1     -10.485  37.215  -1.661  1.00  0.00     0.106 CG0
ATOM     16  G   UNL     1      -9.886  37.617  -2.999  1.00  0.00     0.000 G0
ENDBRANCH  13  15
ENDBRANCH  12  13
BRANCH  12  17
ATOM     17  C   UNL     1      -9.214  35.857   1.450  1.00  0.00    -0.006 C 
ATOM     18  C   UNL     1      -8.318  36.409   2.573  1.00  0.00     0.008 C 
ATOM     19  C   UNL     1     -10.648  36.380   1.661  1.00  0.00     0.008 C 
ENDBRANCH  12  17
ENDBRANCH  11  12
ENDBRANCH   1  11
TORSDOF 1
ENDMDL
MODEL 2
REMARK VINA RESULT:    -3.785      1.772      3.929
REMARK INTER + INTRA:          -5.812
REMARK INTER:                  -5.750
REMARK INTRA:                  -0.062
REMARK UNBOUND:                -0.036
REMARK SMILES CC1=CCC[C@@H](C)C(=O)C[C@H](C(C)C)C(=O)C1
REMARK SMILES IDX 8 1 9 2 6 3 7 4 5 5 4 6 3 7 2 8 1 9 10 11 11 12 15 13 16 14
REMARK SMILES IDX 17 15 12 17 13 18 14 19
REMARK H PARENT
REMARK Flexibility Score: 70.00
ROOT
ATOM      1  C   UNL     1      -8.227  36.032  -0.320  1.00  0.00     0.136 C 
ATOM      2  O   UNL     1      -7.228  35.327  -0.350  1.00  0.00    -0.299 OA
ENDROOT
BRANCH   1   3
ATOM      3  C   UNL     1      -9.492  35.513   0.336  1.00  0.00     0.053 C 
ATOM      4  C   UNL     1      -9.867  34.136  -0.232  1.00  0.00     0.016 C 
BRANCH   3   5
ATOM      5  C   UNL     1     -10.646  36.524   0.145  1.00  0.00     0.015 C 
BRANCH   5   6
ATOM      6  C   UNL     1     -11.455  36.248  -1.137  1.00  0.00     0.028 C 
BRANCH   6   7
ATOM      7  C   UNL     1     -11.773  37.525  -1.871  1.00  0.00    -0.028 C 
ATOM      8  C   UNL     1     -11.135  37.966  -2.979  1.00  0.00    -0.070 CG0
ATOM      9  C   UNL     1     -11.629  39.239  -3.620  1.00  0.00     0.039 C 
ATOM     10  G   UNL     1      -9.958  37.238  -3.610  1.00  0.00     0.000 G0
ENDBRANCH   6   7
ENDBRANCH   5   6
ENDBRANCH   3   5
ENDBRANCH   1   3
BRANCH   1  11
ATOM     11  C   UNL     1      -8.176  37.408  -0.943  1.00  0.00     0.087 C 
BRANCH  11  12
ATOM     12  C   UNL     1      -7.606  37.383  -2.386  1.00  0.00     0.066 C 
BRANCH  12  13
ATOM     13  C   UNL     1      -8.625  37.921  -3.383  1.00  0.00     0.140 C 
ATOM     14  O   UNL     1      -8.386  38.973  -3.959  1.00  0.00    -0.299 OA
BRANCH  13  15
ATOM     15  C   UNL     1      -9.950  37.232  -3.626  1.00  0.00     0.106 CG0
ATOM     16  G   UNL     1     -11.114  37.983  -3.000  1.00  0.00     0.000 G0
ENDBRANCH  13  15
ENDBRANCH  12  13
BRANCH  12  17
ATOM     17  C   UNL     1      -6.233  38.120  -2.513  1.00  0.00    -0.006 C 
ATOM     18  C   UNL     1      -5.901  38.963  -1.269  1.00  0.00     0.008 C 
ATOM     19  C   UNL     1      -5.088  37.116  -2.749  1.00  0.00     0.008 C 
ENDBRANCH  12  17
ENDBRANCH  11  12
ENDBRANCH   1  11
TORSDOF 1
ENDMDL
MODEL 3
REMARK VINA RESULT:    -3.741      1.977      3.897
REMARK INTER + INTRA:          -5.746
REMARK INTER:                  -5.964
REMARK INTRA:                   0.218
REMARK UNBOUND:                -0.036
REMARK SMILES CC1=CCC[C@@H](C)C(=O)C[C@H](C(C)C)C(=O)C1
REMARK SMILES IDX 8 1 9 2 6 3 7 4 5 5 4 6 3 7 2 8 1 9 10 11 11 12 15 13 16 14
REMARK SMILES IDX 17 15 12 17 13 18 14 19
REMARK H PARENT
REMARK Flexibility Score: 70.00
ROOT
ATOM      1  C   UNL     1     -10.002  37.249  -2.642  1.00  0.00     0.136 C 
ATOM      2  O   UNL     1     -11.040  36.607  -2.713  1.00  0.00    -0.299 OA
ENDROOT
BRANCH   1   3
ATOM      3  C   UNL     1      -9.443  37.912  -3.887  1.00  0.00     0.053 C 
ATOM      4  C   UNL     1      -9.985  37.228  -5.151  1.00  0.00     0.016 C 
BRANCH   3   5
ATOM      5  C   UNL     1      -7.898  37.883  -3.860  1.00  0.00     0.015 C 
BRANCH   5   6
ATOM      6  C   UNL     1      -7.310  39.005  -2.983  1.00  0.00     0.028 C 
BRANCH   6   7
ATOM      7  C   UNL     1      -5.914  38.670  -2.525  1.00  0.00    -0.028 C 
ATOM      8  C   UNL     1      -5.600  38.100  -1.338  1.00  0.00    -0.070 CG0
ATOM      9  C   UNL     1      -4.151  37.777  -1.072  1.00  0.00     0.039 C 
ATOM     10  G   UNL     1      -6.632  37.764  -0.274  1.00  0.00     0.000 G0
ENDBRANCH   6   7
ENDBRANCH   5   6
ENDBRANCH   3   5
ENDBRANCH   1   3
BRANCH   1  11
ATOM     11  C   UNL     1      -9.297  37.364  -1.311  1.00  0.00     0.087 C 
BRANCH  11  12
ATOM     12  C   UNL     1      -8.580  36.049  -0.905  1.00  0.00     0.066 C 
BRANCH  12  13
ATOM     13  C   UNL     1      -7.165  36.331  -0.414  1.00  0.00     0.140 C 
ATOM     14  O   UNL     1      -6.462  35.390  -0.075  1.00  0.00    -0.299 OA
BRANCH  13  15
ATOM     15  C   UNL     1      -6.632  37.739  -0.266  1.00  0.00     0.106 CG0
ATOM     16  G   UNL     1      -5.603  38.081  -1.331  1.00  0.00     0.000 G0
ENDBRANCH  13  15
ENDBRANCH  12  13
BRANCH  12  17
ATOM     17  C   UNL     1      -9.391  35.207   0.131  1.00  0.00    -0.006 C 
ATOM     18  C   UNL     1     -10.463  36.039   0.857  1.00  0.00     0.008 C 
ATOM     19  C   UNL     1     -10.077  34.006  -0.550  1.00  0.00     0.008 C 
ENDBRANCH  12  17
ENDBRANCH  11  12
ENDBRANCH   1  11
TORSDOF 1
ENDMDL
MODEL 4
REMARK VINA RESULT:    -3.684      1.837      4.254
REMARK INTER + INTRA:          -5.658
REMARK INTER:                  -5.465
REMARK INTRA:                  -0.193
REMARK UNBOUND:                -0.036
REMARK SMILES CC1=CCC[C@@H](C)C(=O)C[C@H](C(C)C)C(=O)C1
REMARK SMILES IDX 8 1 9 2 6 3 7 4 5 5 4 6 3 7 2 8 1 9 10 11 11 12 15 13 16 14
REMARK SMILES IDX 17 15 12 17 13 18 14 19
REMARK H PARENT
REMARK Flexibility Score: 70.00
ROOT
ATOM      1  C   UNL     1      -8.407  37.861  -3.222  1.00  0.00     0.136 C 
ATOM      2  O   UNL     1      -8.367  39.051  -3.498  1.00  0.00    -0.299 OA
ENDROOT
BRANCH   1   3
ATOM      3  C   UNL     1      -9.716  37.104  -3.352  1.00  0.00     0.053 C 
ATOM      4  C   UNL     1     -10.263  37.217  -4.782  1.00  0.00     0.016 C 
BRANCH   3   5
ATOM      5  C   UNL     1     -10.742  37.631  -2.323  1.00  0.00     0.015 C 
BRANCH   5   6
ATOM      6  C   UNL     1     -11.178  36.540  -1.325  1.00  0.00     0.028 C 
BRANCH   6   7
ATOM      7  C   UNL     1     -10.604  36.788   0.045  1.00  0.00    -0.028 C 
ATOM      8  C   UNL     1      -9.426  36.297   0.496  1.00  0.00    -0.070 CG0
ATOM      9  C   UNL     1      -8.976  36.700   1.878  1.00  0.00     0.039 C 
ATOM     10  G   UNL     1      -8.538  35.374  -0.323  1.00  0.00     0.000 G0
ENDBRANCH   6   7
ENDBRANCH   5   6
ENDBRANCH   3   5
ENDBRANCH   1   3
BRANCH   1  11
ATOM     11  C   UNL     1      -7.147  37.171  -2.753  1.00  0.00     0.087 C 
BRANCH  11  12
ATOM     12  C   UNL     1      -6.934  37.303  -1.222  1.00  0.00     0.066 C 
BRANCH  12  13
ATOM     13  C   UNL     1      -7.139  35.962  -0.527  1.00  0.00     0.140 C 
ATOM     14  O   UNL     1      -6.156  35.320  -0.187  1.00  0.00    -0.299 OA
BRANCH  13  15
ATOM     15  C   UNL     1      -8.515  35.372  -0.312  1.00  0.00     0.106 CG0
ATOM     16  G   UNL     1      -9.420  36.296   0.487  1.00  0.00     0.000 G0
ENDBRANCH  13  15
ENDBRANCH  12  13
BRANCH  12  17
ATOM     17  C   UNL     1      -5.557  37.940  -0.850  1.00  0.00    -0.006 C 
ATOM     18  C   UNL     1      -4.901  38.661  -2.041  1.00  0.00     0.008 C 
ATOM     19  C   UNL     1      -5.708  38.941   0.311  1.00  0.00     0.008 C 
ENDBRANCH  12  17
ENDBRANCH  11  12
ENDBRANCH   1  11
TORSDOF 1
ENDMDL
MODEL 5
REMARK VINA RESULT:    -3.644      1.763      4.084
REMARK INTER + INTRA:          -5.597
REMARK INTER:                  -5.569
REMARK INTRA:                  -0.028
REMARK UNBOUND:                -0.036
REMARK SMILES CC1=CCC[C@@H](C)C(=O)C[C@H](C(C)C)C(=O)C1
REMARK SMILES IDX 8 1 9 2 6 3 7 4 5 5 4 6 3 7 2 8 1 9 10 11 11 12 15 13 16 14
REMARK SMILES IDX 17 15 12 17 13 18 14 19
REMARK H PARENT
REMARK Flexibility Score: 70.00
ROOT
ATOM      1  C   UNL     1      -7.592  37.922  -3.270  1.00  0.00     0.136 C 
ATOM      2  O   UNL     1      -7.677  37.712  -4.472  1.00  0.00    -0.299 OA
ENDROOT
BRANCH   1   3
ATOM      3  C   UNL     1      -6.235  37.875  -2.595  1.00  0.00     0.053 C 
ATOM      4  C   UNL     1      -5.334  36.829  -3.269  1.00  0.00     0.016 C 
BRANCH   3   5
ATOM      5  C   UNL     1      -6.399  37.575  -1.087  1.00  0.00     0.015 C 
BRANCH   5   6
ATOM      6  C   UNL     1      -6.885  36.135  -0.830  1.00  0.00     0.028 C 
BRANCH   6   7
ATOM      7  C   UNL     1      -7.733  36.056   0.413  1.00  0.00    -0.028 C 
ATOM      8  C   UNL     1      -9.042  35.712   0.442  1.00  0.00    -0.070 CG0
ATOM      9  C   UNL     1      -9.719  35.623   1.787  1.00  0.00     0.039 C 
ATOM     10  G   UNL     1      -9.852  35.404  -0.807  1.00  0.00     0.000 G0
ENDBRANCH   6   7
ENDBRANCH   5   6
ENDBRANCH   3   5
ENDBRANCH   1   3
BRANCH   1  11
ATOM     11  C   UNL     1      -8.848  38.223  -2.485  1.00  0.00     0.087 C 
BRANCH  11  12
ATOM     12  C   UNL     1      -9.972  37.187  -2.747  1.00  0.00     0.066 C 
BRANCH  12  13
ATOM     13  C   UNL     1     -10.488  36.600  -1.438  1.00  0.00     0.140 C 
ATOM     14  O   UNL     1     -11.397  37.173  -0.855  1.00  0.00    -0.299 OA
BRANCH  13  15
ATOM     15  C   UNL     1      -9.863  35.377  -0.806  1.00  0.00     0.106 CG0
ATOM     16  G   UNL     1      -9.046  35.719   0.430  1.00  0.00     0.000 G0
ENDBRANCH  13  15
ENDBRANCH  12  13
BRANCH  12  17
ATOM     17  C   UNL     1     -11.136  37.757  -3.620  1.00  0.00    -0.006 C 
ATOM     18  C   UNL     1     -11.062  39.286  -3.772  1.00  0.00     0.008 C 
ATOM     19  C   UNL     1     -11.136  37.121  -5.024  1.00  0.00     0.008 C 
ENDBRANCH  12  17
ENDBRANCH  11  12
ENDBRANCH   1  11
TORSDOF 1
ENDMDL
MODEL 6
REMARK VINA RESULT:    -3.591      2.152      4.995
REMARK INTER + INTRA:          -5.517
REMARK INTER:                  -5.309
REMARK INTRA:                  -0.208
REMARK UNBOUND:                -0.036
REMARK SMILES CC1=CCC[C@@H](C)C(=O)C[C@H](C(C)C)C(=O)C1
REMARK SMILES IDX 8 1 9 2 6 3 7 4 5 5 4 6 3 7 2 8 1 9 10 11 11 12 15 13 16 14
REMARK SMILES IDX 17 15 12 17 13 18 14 19
REMARK H PARENT
REMARK Flexibility Score: 70.00
ROOT
ATOM      1  C   UNL     1      -9.790  36.183  -1.736  1.00  0.00     0.136 C 
ATOM      2  O   UNL     1     -10.963  36.396  -1.465  1.00  0.00    -0.299 OA
ENDROOT
BRANCH   1   3
ATOM      3  C   UNL     1      -8.988  35.214  -0.887  1.00  0.00     0.053 C 
ATOM      4  C   UNL     1      -9.924  34.270  -0.119  1.00  0.00     0.016 C 
BRANCH   3   5
ATOM      5  C   UNL     1      -8.066  35.990   0.082  1.00  0.00     0.015 C 
BRANCH   5   6
ATOM      6  C   UNL     1      -6.580  35.871  -0.308  1.00  0.00     0.028 C 
BRANCH   6   7
ATOM      7  C   UNL     1      -5.877  37.199  -0.204  1.00  0.00    -0.028 C 
ATOM      8  C   UNL     1      -5.837  38.137  -1.178  1.00  0.00    -0.070 CG0
ATOM      9  C   UNL     1      -5.137  39.438  -0.877  1.00  0.00     0.039 C 
ATOM     10  G   UNL     1      -6.468  37.946  -2.548  1.00  0.00     0.000 G0
ENDBRANCH   6   7
ENDBRANCH   5   6
ENDBRANCH   3   5
ENDBRANCH   1   3
BRANCH   1  11
ATOM     11  C   UNL     1      -9.165  36.895  -2.913  1.00  0.00     0.087 C 
BRANCH  11  12
ATOM     12  C   UNL     1      -9.073  38.429  -2.696  1.00  0.00     0.066 C 
BRANCH  12  13
ATOM     13  C   UNL     1      -7.629  38.906  -2.795  1.00  0.00     0.140 C 
ATOM     14  O   UNL     1      -7.414  40.063  -3.126  1.00  0.00    -0.299 OA
BRANCH  13  15
ATOM     15  C   UNL     1      -6.459  37.975  -2.566  1.00  0.00     0.106 CG0
ATOM     16  G   UNL     1      -5.841  38.153  -1.188  1.00  0.00     0.000 G0
ENDBRANCH  13  15
ENDBRANCH  12  13
BRANCH  12  17
ATOM     17  C   UNL     1     -10.012  39.237  -3.647  1.00  0.00    -0.006 C 
ATOM     18  C   UNL     1     -10.693  38.344  -4.700  1.00  0.00     0.008 C 
ATOM     19  C   UNL     1     -11.103  39.977  -2.849  1.00  0.00     0.008 C 
ENDBRANCH  12  17
ENDBRANCH  11  12
ENDBRANCH   1  11
TORSDOF 1
ENDMDL
MODEL 7
REMARK VINA RESULT:    -3.427      6.881      9.183
REMARK INTER + INTRA:          -5.266
REMARK INTER:                  -5.356
REMARK INTRA:                   0.090
REMARK UNBOUND:                -0.036
REMARK SMILES CC1=CCC[C@@H](C)C(=O)C[C@H](C(C)C)C(=O)C1
REMARK SMILES IDX 8 1 9 2 6 3 7 4 5 5 4 6 3 7 2 8 1 9 10 11 11 12 15 13 16 14
REMARK SMILES IDX 17 15 12 17 13 18 14 19
REMARK H PARENT
REMARK Flexibility Score: 70.00
ROOT
ATOM      1  C   UNL     1      -4.995  33.820   6.484  1.00  0.00     0.136 C 
ATOM      2  O   UNL     1      -4.654  32.911   7.228  1.00  0.00    -0.299 OA
ENDROOT
BRANCH   1   3
ATOM      3  C   UNL     1      -5.909  33.525   5.310  1.00  0.00     0.053 C 
ATOM      4  C   UNL     1      -5.296  32.442   4.410  1.00  0.00     0.016 C 
BRANCH   3   5
ATOM      5  C   UNL     1      -6.184  34.819   4.510  1.00  0.00     0.015 C 
BRANCH   5   6
ATOM      6  C   UNL     1      -5.338  34.900   3.224  1.00  0.00     0.028 C 
BRANCH   6   7
ATOM      7  C   UNL     1      -4.730  36.267   3.051  1.00  0.00    -0.028 C 
ATOM      8  C   UNL     1      -3.494  36.628   3.467  1.00  0.00    -0.070 CG0
ATOM      9  C   UNL     1      -3.024  38.026   3.153  1.00  0.00     0.039 C 
ATOM     10  G   UNL     1      -2.561  35.695   4.221  1.00  0.00     0.000 G0
ENDBRANCH   6   7
ENDBRANCH   5   6
ENDBRANCH   3   5
ENDBRANCH   1   3
BRANCH   1  11
ATOM     11  C   UNL     1      -4.494  35.220   6.755  1.00  0.00     0.087 C 
BRANCH  11  12
ATOM     12  C   UNL     1      -2.946  35.288   6.832  1.00  0.00     0.066 C 
BRANCH  12  13
ATOM     13  C   UNL     1      -2.379  36.102   5.675  1.00  0.00     0.140 C 
ATOM     14  O   UNL     1      -1.800  37.151   5.921  1.00  0.00    -0.299 OA
BRANCH  13  15
ATOM     15  C   UNL     1      -2.573  35.688   4.233  1.00  0.00     0.106 CG0
ATOM     16  G   UNL     1      -3.483  36.643   3.476  1.00  0.00     0.000 G0
ENDBRANCH  13  15
ENDBRANCH  12  13
BRANCH  12  17
ATOM     17  C   UNL     1      -2.426  35.810   8.211  1.00  0.00    -0.006 C 
ATOM     18  C   UNL     1      -3.382  35.467   9.367  1.00  0.00     0.008 C 
ATOM     19  C   UNL     1      -1.036  35.229   8.532  1.00  0.00     0.008 C 
ENDBRANCH  12  17
ENDBRANCH  11  12
ENDBRANCH   1  11
TORSDOF 1
ENDMDL
MODEL 8
REMARK VINA RESULT:    -3.416      2.264      4.592
REMARK INTER + INTRA:          -5.250
REMARK INTER:                  -5.177
REMARK INTRA:                  -0.073
REMARK UNBOUND:                -0.036
REMARK SMILES CC1=CCC[C@@H](C)C(=O)C[C@H](C(C)C)C(=O)C1
REMARK SMILES IDX 8 1 9 2 6 3 7 4 5 5 4 6 3 7 2 8 1 9 10 11 11 12 15 13 16 14
REMARK SMILES IDX 17 15 12 17 13 18 14 19
REMARK H PARENT
REMARK Flexibility Score: 70.00
ROOT
ATOM      1  C   UNL     1     -12.524  36.798  -2.340  1.00  0.00     0.136 C 
ATOM      2  O   UNL     1     -13.178  35.766  -2.395  1.00  0.00    -0.299 OA
ENDROOT
BRANCH   1   3
ATOM      3  C   UNL     1     -12.593  37.792  -3.483  1.00  0.00     0.053 C 
ATOM      4  C   UNL     1     -14.046  38.223  -3.734  1.00  0.00     0.016 C 
BRANCH   3   5
ATOM      5  C   UNL     1     -11.967  37.184  -4.759  1.00  0.00     0.015 C 
BRANCH   5   6
ATOM      6  C   UNL     1     -10.640  37.868  -5.139  1.00  0.00     0.028 C 
BRANCH   6   7
ATOM      7  C   UNL     1     -10.541  39.246  -4.538  1.00  0.00    -0.028 C 
ATOM      8  C   UNL     1      -9.716  39.595  -3.523  1.00  0.00    -0.070 CG0
ATOM      9  C   UNL     1      -9.703  41.039  -3.088  1.00  0.00     0.039 C 
ATOM     10  G   UNL     1      -8.802  38.608  -2.813  1.00  0.00     0.000 G0
ENDBRANCH   6   7
ENDBRANCH   5   6
ENDBRANCH   3   5
ENDBRANCH   1   3
BRANCH   1  11
ATOM     11  C   UNL     1     -11.658  37.056  -1.128  1.00  0.00     0.087 C 
BRANCH  11  12
ATOM     12  C   UNL     1     -10.154  36.801  -1.412  1.00  0.00     0.066 C 
BRANCH  12  13
ATOM     13  C   UNL     1      -9.385  38.114  -1.491  1.00  0.00     0.140 C 
ATOM     14  O   UNL     1      -9.298  38.806  -0.487  1.00  0.00    -0.299 OA
BRANCH  13  15
ATOM     15  C   UNL     1      -8.791  38.618  -2.788  1.00  0.00     0.106 CG0
ATOM     16  G   UNL     1      -9.720  39.577  -3.514  1.00  0.00     0.000 G0
ENDBRANCH  13  15
ENDBRANCH  12  13
BRANCH  12  17
ATOM     17  C   UNL     1      -9.500  35.812  -0.393  1.00  0.00    -0.006 C 
ATOM     18  C   UNL     1      -9.973  34.362  -0.595  1.00  0.00     0.008 C 
ATOM     19  C   UNL     1      -7.963  35.849  -0.497  1.00  0.00     0.008 C 
ENDBRANCH  12  17
ENDBRANCH  11  12
ENDBRANCH   1  11
TORSDOF 1
ENDMDL
MODEL 9
REMARK VINA RESULT:    -3.309      8.881     11.438
REMARK INTER + INTRA:          -5.086
REMARK INTER:                  -5.050
REMARK INTRA:                  -0.036
REMARK UNBOUND:                -0.036
REMARK SMILES CC1=CCC[C@@H](C)C(=O)C[C@H](C(C)C)C(=O)C1
REMARK SMILES IDX 8 1 9 2 6 3 7 4 5 5 4 6 3 7 2 8 1 9 10 11 11 12 15 13 16 14
REMARK SMILES IDX 17 15 12 17 13 18 14 19
REMARK H PARENT
REMARK Flexibility Score: 70.00
ROOT
ATOM      1  C   UNL     1     -14.555  35.034   5.839  1.00  0.00     0.136 C 
ATOM      2  O   UNL     1     -13.828  34.051   5.860  1.00  0.00    -0.299 OA
ENDROOT
BRANCH   1   3
ATOM      3  C   UNL     1     -13.998  36.387   6.241  1.00  0.00     0.053 C 
ATOM      4  C   UNL     1     -12.834  36.785   5.322  1.00  0.00     0.016 C 
BRANCH   3   5
ATOM      5  C   UNL     1     -13.552  36.364   7.721  1.00  0.00     0.015 C 
BRANCH   5   6
ATOM      6  C   UNL     1     -14.519  37.145   8.632  1.00  0.00     0.028 C 
BRANCH   6   7
ATOM      7  C   UNL     1     -15.049  38.375   7.943  1.00  0.00    -0.028 C 
ATOM      8  C   UNL     1     -16.333  38.558   7.555  1.00  0.00    -0.070 CG0
ATOM      9  C   UNL     1     -16.701  39.882   6.934  1.00  0.00     0.039 C 
ATOM     10  G   UNL     1     -17.414  37.503   7.724  1.00  0.00     0.000 G0
ENDBRANCH   6   7
ENDBRANCH   5   6
ENDBRANCH   3   5
ENDBRANCH   1   3
BRANCH   1  11
ATOM     11  C   UNL     1     -15.996  34.875   5.414  1.00  0.00     0.087 C 
BRANCH  11  12
ATOM     12  C   UNL     1     -16.989  35.144   6.576  1.00  0.00     0.066 C 
BRANCH  12  13
ATOM     13  C   UNL     1     -17.516  36.573   6.522  1.00  0.00     0.140 C 
ATOM     14  O   UNL     1     -17.967  36.993   5.467  1.00  0.00    -0.299 OA
BRANCH  13  15
ATOM     15  C   UNL     1     -17.430  37.505   7.711  1.00  0.00     0.106 CG0
ATOM     16  G   UNL     1     -16.327  38.539   7.555  1.00  0.00     0.000 G0
ENDBRANCH  13  15
ENDBRANCH  12  13
BRANCH  12  17
ATOM     17  C   UNL     1     -18.153  34.104   6.638  1.00  0.00    -0.006 C 
ATOM     18  C   UNL     1     -18.626  33.667   5.240  1.00  0.00     0.008 C 
ATOM     19  C   UNL     1     -17.732  32.850   7.430  1.00  0.00     0.008 C 
ENDBRANCH  12  17
ENDBRANCH  11  12
ENDBRANCH   1  11
TORSDOF 1
ENDMDL
