MODEL 1
REMARK VINA RESULT:    -5.282      0.000      0.000
REMARK INTER + INTRA:          -5.282
REMARK INTER:                  -5.282
REMARK INTRA:                   0.000
REMARK UNBOUND:                 0.000
REMARK SMILES CC1=CC=CC(C)(C)[C@H]1C
REMARK SMILES IDX 10 1 9 2 2 3 3 4 4 5 5 6 6 7 7 8 8 9 1 10
REMARK H PARENT
REMARK Flexibility Score: inf
ROOT
ATOM      1  C   UNL     1     145.583 145.243 130.297  1.00  0.00     0.013 C 
ATOM      2  C   UNL     1     145.175 145.443 131.769  1.00  0.00     0.021 C 
ATOM      3  C   UNL     1     145.090 144.075 132.431  1.00  0.00    -0.070 C 
ATOM      4  C   UNL     1     146.176 143.549 133.021  1.00  0.00    -0.001 C 
ATOM      5  C   UNL     1     147.421 144.330 133.146  1.00  0.00    -0.004 C 
ATOM      6  C   UNL     1     147.433 145.643 132.893  1.00  0.00    -0.020 C 
ATOM      7  C   UNL     1     146.148 146.385 132.567  1.00  0.00    -0.011 C 
ATOM      8  C   UNL     1     146.485 147.669 131.778  1.00  0.00     0.016 C 
ATOM      9  C   UNL     1     145.481 146.803 133.896  1.00  0.00     0.016 C 
ATOM     10  C   UNL     1     143.824 143.272 132.356  1.00  0.00     0.040 C 
ENDROOT
TORSDOF 0
ENDMDL
MODEL 2
REMARK VINA RESULT:    -5.265      1.248      3.616
REMARK INTER + INTRA:          -5.265
REMARK INTER:                  -5.265
REMARK INTRA:                   0.000
REMARK UNBOUND:                 0.000
REMARK SMILES CC1=CC=CC(C)(C)[C@H]1C
REMARK SMILES IDX 10 1 9 2 2 3 3 4 4 5 5 6 6 7 7 8 8 9 1 10
REMARK H PARENT
REMARK Flexibility Score: inf
ROOT
ATOM      1  C   UNL     1     145.093 145.571 130.312  1.00  0.00     0.013 C 
ATOM      2  C   UNL     1     145.524 145.369 131.777  1.00  0.00     0.021 C 
ATOM      3  C   UNL     1     145.587 146.732 132.450  1.00  0.00    -0.070 C 
ATOM      4  C   UNL     1     144.498 147.229 133.059  1.00  0.00    -0.001 C 
ATOM      5  C   UNL     1     143.272 146.421 133.193  1.00  0.00    -0.004 C 
ATOM      6  C   UNL     1     143.285 145.110 132.928  1.00  0.00    -0.020 C 
ATOM      7  C   UNL     1     144.581 144.399 132.580  1.00  0.00    -0.011 C 
ATOM      8  C   UNL     1     144.263 143.115 131.784  1.00  0.00     0.016 C 
ATOM      9  C   UNL     1     145.274 143.984 133.897  1.00  0.00     0.016 C 
ATOM     10  C   UNL     1     146.835 147.564 132.366  1.00  0.00     0.040 C 
ENDROOT
TORSDOF 0
ENDMDL
MODEL 3
REMARK VINA RESULT:    -5.219      1.125      3.574
REMARK INTER + INTRA:          -5.219
REMARK INTER:                  -5.219
REMARK INTRA:                   0.000
REMARK UNBOUND:                 0.000
REMARK SMILES CC1=CC=CC(C)(C)[C@H]1C
REMARK SMILES IDX 10 1 9 2 2 3 3 4 4 5 5 6 6 7 7 8 8 9 1 10
REMARK H PARENT
REMARK Flexibility Score: inf
ROOT
ATOM      1  C   UNL     1     147.449 144.538 132.785  1.00  0.00     0.013 C 
ATOM      2  C   UNL     1     146.109 145.294 132.860  1.00  0.00     0.021 C 
ATOM      3  C   UNL     1     146.148 146.436 131.855  1.00  0.00    -0.070 C 
ATOM      4  C   UNL     1     145.725 146.235 130.597  1.00  0.00    -0.001 C 
ATOM      5  C   UNL     1     145.106 144.955 130.203  1.00  0.00    -0.004 C 
ATOM      6  C   UNL     1     144.740 144.060 131.127  1.00  0.00    -0.020 C 
ATOM      7  C   UNL     1     144.857 144.377 132.608  1.00  0.00    -0.011 C 
ATOM      8  C   UNL     1     144.936 143.059 133.409  1.00  0.00     0.016 C 
ATOM      9  C   UNL     1     143.578 145.125 133.045  1.00  0.00     0.016 C 
ATOM     10  C   UNL     1     146.735 147.764 132.237  1.00  0.00     0.040 C 
ENDROOT
TORSDOF 0
ENDMDL
MODEL 4
REMARK VINA RESULT:    -5.207      1.105      2.270
REMARK INTER + INTRA:          -5.207
REMARK INTER:                  -5.207
REMARK INTRA:                   0.000
REMARK UNBOUND:                 0.000
REMARK SMILES CC1=CC=CC(C)(C)[C@H]1C
REMARK SMILES IDX 10 1 9 2 2 3 3 4 4 5 5 6 6 7 7 8 8 9 1 10
REMARK H PARENT
REMARK Flexibility Score: inf
ROOT
ATOM      1  C   UNL     1     143.226 146.272 132.865  1.00  0.00     0.013 C 
ATOM      2  C   UNL     1     144.547 145.486 132.958  1.00  0.00     0.021 C 
ATOM      3  C   UNL     1     144.518 144.376 131.917  1.00  0.00    -0.070 C 
ATOM      4  C   UNL     1     144.984 144.606 130.679  1.00  0.00    -0.001 C 
ATOM      5  C   UNL     1     145.640 145.884 130.344  1.00  0.00    -0.004 C 
ATOM      6  C   UNL     1     145.995 146.743 131.306  1.00  0.00    -0.020 C 
ATOM      7  C   UNL     1     145.825 146.383 132.772  1.00  0.00    -0.011 C 
ATOM      8  C   UNL     1     145.747 147.678 133.610  1.00  0.00     0.016 C 
ATOM      9  C   UNL     1     147.075 145.596 133.225  1.00  0.00     0.016 C 
ATOM     10  C   UNL     1     143.892 143.049 132.240  1.00  0.00     0.040 C 
ENDROOT
TORSDOF 0
ENDMDL
MODEL 5
REMARK VINA RESULT:    -5.200      1.271      2.942
REMARK INTER + INTRA:          -5.200
REMARK INTER:                  -5.200
REMARK INTRA:                   0.000
REMARK UNBOUND:                 0.000
REMARK SMILES CC1=CC=CC(C)(C)[C@H]1C
REMARK SMILES IDX 10 1 9 2 2 3 3 4 4 5 5 6 6 7 7 8 8 9 1 10
REMARK H PARENT
REMARK Flexibility Score: inf
ROOT
ATOM      1  C   UNL     1     144.360 143.487 132.963  1.00  0.00     0.013 C 
ATOM      2  C   UNL     1     145.240 144.751 132.974  1.00  0.00     0.021 C 
ATOM      3  C   UNL     1     146.429 144.515 132.053  1.00  0.00    -0.070 C 
ATOM      4  C   UNL     1     146.343 144.840 130.753  1.00  0.00    -0.001 C 
ATOM      5  C   UNL     1     145.155 145.537 130.225  1.00  0.00    -0.004 C 
ATOM      6  C   UNL     1     144.250 146.068 131.053  1.00  0.00    -0.020 C 
ATOM      7  C   UNL     1     144.469 146.056 132.556  1.00  0.00    -0.011 C 
ATOM      8  C   UNL     1     143.106 146.174 133.273  1.00  0.00     0.016 C 
ATOM      9  C   UNL     1     145.313 147.294 132.932  1.00  0.00     0.016 C 
ATOM     10  C   UNL     1     147.668 143.842 132.570  1.00  0.00     0.040 C 
ENDROOT
TORSDOF 0
ENDMDL
MODEL 6
REMARK VINA RESULT:    -5.200      1.283      3.031
REMARK INTER + INTRA:          -5.200
REMARK INTER:                  -5.200
REMARK INTRA:                   0.000
REMARK UNBOUND:                 0.000
REMARK SMILES CC1=CC=CC(C)(C)[C@H]1C
REMARK SMILES IDX 10 1 9 2 2 3 3 4 4 5 5 6 6 7 7 8 8 9 1 10
REMARK H PARENT
REMARK Flexibility Score: inf
ROOT
ATOM      1  C   UNL     1     146.390 147.307 132.984  1.00  0.00     0.013 C 
ATOM      2  C   UNL     1     145.503 146.048 133.003  1.00  0.00     0.021 C 
ATOM      3  C   UNL     1     144.342 146.266 132.043  1.00  0.00    -0.070 C 
ATOM      4  C   UNL     1     144.462 145.907 130.755  1.00  0.00    -0.001 C 
ATOM      5  C   UNL     1     145.660 145.191 130.278  1.00  0.00    -0.004 C 
ATOM      6  C   UNL     1     146.539 144.677 131.145  1.00  0.00    -0.020 C 
ATOM      7  C   UNL     1     146.279 144.729 132.640  1.00  0.00    -0.011 C 
ATOM      8  C   UNL     1     147.622 144.623 133.397  1.00  0.00     0.016 C 
ATOM      9  C   UNL     1     145.418 143.506 133.025  1.00  0.00     0.016 C 
ATOM     10  C   UNL     1     143.093 146.958 132.508  1.00  0.00     0.040 C 
ENDROOT
TORSDOF 0
ENDMDL
MODEL 7
REMARK VINA RESULT:    -5.045      1.283      2.638
REMARK INTER + INTRA:          -5.045
REMARK INTER:                  -5.045
REMARK INTRA:                   0.000
REMARK UNBOUND:                 0.000
REMARK SMILES CC1=CC=CC(C)(C)[C@H]1C
REMARK SMILES IDX 10 1 9 2 2 3 3 4 4 5 5 6 6 7 7 8 8 9 1 10
REMARK H PARENT
REMARK Flexibility Score: inf
ROOT
ATOM      1  C   UNL     1     145.255 145.493 130.282  1.00  0.00     0.013 C 
ATOM      2  C   UNL     1     145.516 145.688 131.788  1.00  0.00     0.021 C 
ATOM      3  C   UNL     1     144.173 145.799 132.496  1.00  0.00    -0.070 C 
ATOM      4  C   UNL     1     143.567 144.693 132.957  1.00  0.00    -0.001 C 
ATOM      5  C   UNL     1     144.240 143.382 132.898  1.00  0.00    -0.004 C 
ATOM      6  C   UNL     1     145.542 143.294 132.606  1.00  0.00    -0.020 C 
ATOM      7  C   UNL     1     146.385 144.544 132.426  1.00  0.00    -0.011 C 
ATOM      8  C   UNL     1     147.621 144.208 131.563  1.00  0.00     0.016 C 
ATOM      9  C   UNL     1     146.884 144.996 133.817  1.00  0.00     0.016 C 
ATOM     10  C   UNL     1     143.481 147.126 132.607  1.00  0.00     0.040 C 
ENDROOT
TORSDOF 0
ENDMDL
MODEL 8
REMARK VINA RESULT:    -5.044      1.281      2.432
REMARK INTER + INTRA:          -5.044
REMARK INTER:                  -5.044
REMARK INTRA:                   0.000
REMARK UNBOUND:                 0.000
REMARK SMILES CC1=CC=CC(C)(C)[C@H]1C
REMARK SMILES IDX 10 1 9 2 2 3 3 4 4 5 5 6 6 7 7 8 8 9 1 10
REMARK H PARENT
REMARK Flexibility Score: inf
ROOT
ATOM      1  C   UNL     1     145.492 145.230 130.298  1.00  0.00     0.013 C 
ATOM      2  C   UNL     1     145.240 145.016 131.803  1.00  0.00     0.021 C 
ATOM      3  C   UNL     1     146.587 144.887 132.499  1.00  0.00    -0.070 C 
ATOM      4  C   UNL     1     147.204 145.982 132.971  1.00  0.00    -0.001 C 
ATOM      5  C   UNL     1     146.540 147.298 132.936  1.00  0.00    -0.004 C 
ATOM      6  C   UNL     1     145.236 147.399 132.655  1.00  0.00    -0.020 C 
ATOM      7  C   UNL     1     144.383 146.156 132.464  1.00  0.00    -0.011 C 
ATOM      8  C   UNL     1     143.144 146.513 131.615  1.00  0.00     0.016 C 
ATOM      9  C   UNL     1     143.892 145.689 133.852  1.00  0.00     0.016 C 
ATOM     10  C   UNL     1     147.272 143.553 132.586  1.00  0.00     0.040 C 
ENDROOT
TORSDOF 0
ENDMDL
MODEL 9
REMARK VINA RESULT:    -4.982      1.359      2.723
REMARK INTER + INTRA:          -4.982
REMARK INTER:                  -4.982
REMARK INTRA:                   0.000
REMARK UNBOUND:                 0.000
REMARK SMILES CC1=CC=CC(C)(C)[C@H]1C
REMARK SMILES IDX 10 1 9 2 2 3 3 4 4 5 5 6 6 7 7 8 8 9 1 10
REMARK H PARENT
REMARK Flexibility Score: inf
ROOT
ATOM      1  C   UNL     1     146.785 145.710 134.125  1.00  0.00     0.013 C 
ATOM      2  C   UNL     1     146.065 145.330 132.817  1.00  0.00     0.021 C 
ATOM      3  C   UNL     1     144.913 144.396 133.159  1.00  0.00    -0.070 C 
ATOM      4  C   UNL     1     143.701 144.902 133.434  1.00  0.00    -0.001 C 
ATOM      5  C   UNL     1     143.434 146.346 133.291  1.00  0.00    -0.004 C 
ATOM      6  C   UNL     1     144.307 147.144 132.667  1.00  0.00    -0.020 C 
ATOM      7  C   UNL     1     145.548 146.572 132.003  1.00  0.00    -0.011 C 
ATOM      8  C   UNL     1     146.622 147.675 131.889  1.00  0.00     0.016 C 
ATOM      9  C   UNL     1     145.169 146.125 130.573  1.00  0.00     0.016 C 
ATOM     10  C   UNL     1     145.144 142.917 133.274  1.00  0.00     0.040 C 
ENDROOT
TORSDOF 0
ENDMDL
