MODEL 1
REMARK VINA RESULT:    -3.930      0.000      0.000
REMARK INTER + INTRA:          -5.317
REMARK INTER:                  -5.079
REMARK INTRA:                  -0.237
REMARK UNBOUND:                -0.237
REMARK SMILES CCCCCCC(=O)[O-]
REMARK SMILES IDX 5 1 6 2 7 3 8 4 9 5 4 6 3 7 2 8 1 9
REMARK H PARENT
REMARK Flexibility Score: inf
ROOT
ATOM      1  C   UNL     1       6.000  10.916   6.550  1.00  0.00     0.006 C 
ENDROOT
BRANCH   1   2
ATOM      2  C   UNL     1       4.946  11.158   7.638  1.00  0.00     0.053 C 
BRANCH   2   3
ATOM      3  C   UNL     1       3.908  10.077   7.658  1.00  0.00     0.041 C 
ATOM      4  O   UNL     1       2.708  10.349   7.395  1.00  0.00    -0.550 OA
ATOM      5  O   UNL     1       4.262   8.779   7.999  1.00  0.00    -0.550 OA
ENDBRANCH   2   3
ENDBRANCH   1   2
BRANCH   1   6
ATOM      6  C   UNL     1       5.401  10.980   5.136  1.00  0.00     0.000 C 
BRANCH   6   7
ATOM      7  C   UNL     1       6.160  11.991   4.264  1.00  0.00    -0.000 C 
BRANCH   7   8
ATOM      8  C   UNL     1       7.555  12.319   4.818  1.00  0.00    -0.003 C 
ATOM      9  C   UNL     1       8.654  12.199   3.764  1.00  0.00     0.004 C 
ENDBRANCH   7   8
ENDBRANCH   6   7
ENDBRANCH   1   6
TORSDOF 5
ENDMDL
MODEL 2
REMARK VINA RESULT:    -3.925      3.036      5.626
REMARK INTER + INTRA:          -5.309
REMARK INTER:                  -5.177
REMARK INTRA:                  -0.132
REMARK UNBOUND:                -0.237
REMARK SMILES CCCCCCC(=O)[O-]
REMARK SMILES IDX 5 1 6 2 7 3 8 4 9 5 4 6 3 7 2 8 1 9
REMARK H PARENT
REMARK Flexibility Score: inf
ROOT
ATOM      1  C   UNL     1       3.274  10.457   7.741  1.00  0.00     0.006 C 
ENDROOT
BRANCH   1   2
ATOM      2  C   UNL     1       4.566   9.631   7.771  1.00  0.00     0.053 C 
BRANCH   2   3
ATOM      3  C   UNL     1       5.729  10.395   7.214  1.00  0.00     0.041 C 
ATOM      4  O   UNL     1       6.756  10.584   7.917  1.00  0.00    -0.550 OA
ATOM      5  O   UNL     1       5.664  10.924   5.933  1.00  0.00    -0.550 OA
ENDBRANCH   2   3
ENDBRANCH   1   2
BRANCH   1   6
ATOM      6  C   UNL     1       3.094  11.303   9.011  1.00  0.00     0.000 C 
BRANCH   6   7
ATOM      7  C   UNL     1       1.630  11.289   9.477  1.00  0.00    -0.000 C 
BRANCH   7   8
ATOM      8  C   UNL     1       1.093  12.698   9.776  1.00  0.00    -0.003 C 
ATOM      9  C   UNL     1      -0.210  13.004   9.039  1.00  0.00     0.004 C 
ENDBRANCH   7   8
ENDBRANCH   6   7
ENDBRANCH   1   6
TORSDOF 5
ENDMDL
MODEL 3
REMARK VINA RESULT:    -3.893      0.395      1.148
REMARK INTER + INTRA:          -5.268
REMARK INTER:                  -5.069
REMARK INTRA:                  -0.199
REMARK UNBOUND:                -0.237
REMARK SMILES CCCCCCC(=O)[O-]
REMARK SMILES IDX 5 1 6 2 7 3 8 4 9 5 4 6 3 7 2 8 1 9
REMARK H PARENT
REMARK Flexibility Score: inf
ROOT
ATOM      1  C   UNL     1       6.140  10.658   6.202  1.00  0.00     0.006 C 
ENDROOT
BRANCH   1   2
ATOM      2  C   UNL     1       5.206  11.068   7.348  1.00  0.00     0.053 C 
BRANCH   2   3
ATOM      3  C   UNL     1       4.171  10.019   7.624  1.00  0.00     0.041 C 
ATOM      4  O   UNL     1       4.520   8.866   7.987  1.00  0.00    -0.550 OA
ATOM      5  O   UNL     1       2.825  10.308   7.450  1.00  0.00    -0.550 OA
ENDBRANCH   2   3
ENDBRANCH   1   2
BRANCH   1   6
ATOM      6  C   UNL     1       5.647  11.169   4.839  1.00  0.00     0.000 C 
BRANCH   6   7
ATOM      7  C   UNL     1       6.452  12.397   4.390  1.00  0.00    -0.000 C 
BRANCH   7   8
ATOM      8  C   UNL     1       7.962  12.230   4.621  1.00  0.00    -0.003 C 
ATOM      9  C   UNL     1       8.764  12.228   3.320  1.00  0.00     0.004 C 
ENDBRANCH   7   8
ENDBRANCH   6   7
ENDBRANCH   1   6
TORSDOF 5
ENDMDL
MODEL 4
REMARK VINA RESULT:    -3.778      1.415      2.144
REMARK INTER + INTRA:          -5.119
REMARK INTER:                  -4.968
REMARK INTRA:                  -0.151
REMARK UNBOUND:                -0.237
REMARK SMILES CCCCCCC(=O)[O-]
REMARK SMILES IDX 5 1 6 2 7 3 8 4 9 5 4 6 3 7 2 8 1 9
REMARK H PARENT
REMARK Flexibility Score: inf
ROOT
ATOM      1  C   UNL     1       4.750   9.922   7.386  1.00  0.00     0.006 C 
ENDROOT
BRANCH   1   2
ATOM      2  C   UNL     1       3.301  10.357   7.643  1.00  0.00     0.053 C 
BRANCH   2   3
ATOM      3  C   UNL     1       3.085  10.757   9.071  1.00  0.00     0.041 C 
ATOM      4  O   UNL     1       4.039  10.711   9.892  1.00  0.00    -0.550 OA
ATOM      5  O   UNL     1       1.825  11.149   9.501  1.00  0.00    -0.550 OA
ENDBRANCH   2   3
ENDBRANCH   1   2
BRANCH   1   6
ATOM      6  C   UNL     1       5.549  10.986   6.618  1.00  0.00     0.000 C 
BRANCH   6   7
ATOM      7  C   UNL     1       5.260  10.909   5.112  1.00  0.00    -0.000 C 
BRANCH   7   8
ATOM      8  C   UNL     1       6.054  11.948   4.304  1.00  0.00    -0.003 C 
ATOM      9  C   UNL     1       7.540  11.964   4.661  1.00  0.00     0.004 C 
ENDBRANCH   7   8
ENDBRANCH   6   7
ENDBRANCH   1   6
TORSDOF 5
ENDMDL
MODEL 5
REMARK VINA RESULT:    -3.734     16.180     17.323
REMARK INTER + INTRA:          -5.062
REMARK INTER:                  -4.680
REMARK INTRA:                  -0.382
REMARK UNBOUND:                -0.237
REMARK SMILES CCCCCCC(=O)[O-]
REMARK SMILES IDX 5 1 6 2 7 3 8 4 9 5 4 6 3 7 2 8 1 9
REMARK H PARENT
REMARK Flexibility Score: inf
ROOT
ATOM      1  C   UNL     1      -3.700  10.648  -7.880  1.00  0.00     0.006 C 
ENDROOT
BRANCH   1   2
ATOM      2  C   UNL     1      -4.117  12.031  -7.364  1.00  0.00     0.053 C 
BRANCH   2   3
ATOM      3  C   UNL     1      -4.616  11.970  -5.952  1.00  0.00     0.041 C 
ATOM      4  O   UNL     1      -4.335  10.983  -5.224  1.00  0.00    -0.550 OA
ATOM      5  O   UNL     1      -5.416  12.989  -5.452  1.00  0.00    -0.550 OA
ENDBRANCH   2   3
ENDBRANCH   1   2
BRANCH   1   6
ATOM      6  C   UNL     1      -4.498  10.227  -9.125  1.00  0.00     0.000 C 
BRANCH   6   7
ATOM      7  C   UNL     1      -5.912   9.768  -8.741  1.00  0.00    -0.000 C 
BRANCH   7   8
ATOM      8  C   UNL     1      -5.918   8.830  -7.524  1.00  0.00    -0.003 C 
ATOM      9  C   UNL     1      -7.000   9.188  -6.506  1.00  0.00     0.004 C 
ENDBRANCH   7   8
ENDBRANCH   6   7
ENDBRANCH   1   6
TORSDOF 5
ENDMDL
MODEL 6
REMARK VINA RESULT:    -3.706      3.190      4.905
REMARK INTER + INTRA:          -5.027
REMARK INTER:                  -4.833
REMARK INTRA:                  -0.194
REMARK UNBOUND:                -0.237
REMARK SMILES CCCCCCC(=O)[O-]
REMARK SMILES IDX 5 1 6 2 7 3 8 4 9 5 4 6 3 7 2 8 1 9
REMARK H PARENT
REMARK Flexibility Score: inf
ROOT
ATOM      1  C   UNL     1       5.968  11.832   4.304  1.00  0.00     0.006 C 
ENDROOT
BRANCH   1   2
ATOM      2  C   UNL     1       7.156  12.489   5.019  1.00  0.00     0.053 C 
BRANCH   2   3
ATOM      3  C   UNL     1       8.460  11.869   4.617  1.00  0.00     0.041 C 
ATOM      4  O   UNL     1       8.935  12.083   3.471  1.00  0.00    -0.550 OA
ATOM      5  O   UNL     1       9.132  11.030   5.495  1.00  0.00    -0.550 OA
ENDBRANCH   2   3
ENDBRANCH   1   2
BRANCH   1   6
ATOM      6  C   UNL     1       5.186  10.884   5.227  1.00  0.00     0.000 C 
BRANCH   6   7
ATOM      7  C   UNL     1       5.490  11.179   6.703  1.00  0.00    -0.000 C 
BRANCH   7   8
ATOM      8  C   UNL     1       4.383  10.681   7.644  1.00  0.00    -0.003 C 
ATOM      9  C   UNL     1       4.422   9.168   7.855  1.00  0.00     0.004 C 
ENDBRANCH   7   8
ENDBRANCH   6   7
ENDBRANCH   1   6
TORSDOF 5
ENDMDL
MODEL 7
REMARK VINA RESULT:    -3.618     16.585     17.574
REMARK INTER + INTRA:          -4.913
REMARK INTER:                  -4.561
REMARK INTRA:                  -0.352
REMARK UNBOUND:                -0.237
REMARK SMILES CCCCCCC(=O)[O-]
REMARK SMILES IDX 5 1 6 2 7 3 8 4 9 5 4 6 3 7 2 8 1 9
REMARK H PARENT
REMARK Flexibility Score: inf
ROOT
ATOM      1  C   UNL     1      -5.542   9.734  -8.823  1.00  0.00     0.006 C 
ENDROOT
BRANCH   1   2
ATOM      2  C   UNL     1      -5.691   9.020  -7.473  1.00  0.00     0.053 C 
BRANCH   2   3
ATOM      3  C   UNL     1      -6.952   9.420  -6.769  1.00  0.00     0.041 C 
ATOM      4  O   UNL     1      -7.527   8.612  -5.993  1.00  0.00    -0.550 OA
ATOM      5  O   UNL     1      -7.508  10.672  -6.993  1.00  0.00    -0.550 OA
ENDBRANCH   2   3
ENDBRANCH   1   2
BRANCH   1   6
ATOM      6  C   UNL     1      -4.191  10.453  -8.955  1.00  0.00     0.000 C 
BRANCH   6   7
ATOM      7  C   UNL     1      -3.660  10.882  -7.578  1.00  0.00    -0.000 C 
BRANCH   7   8
ATOM      8  C   UNL     1      -4.116  12.295  -7.184  1.00  0.00    -0.003 C 
ATOM      9  C   UNL     1      -4.812  12.335  -5.825  1.00  0.00     0.004 C 
ENDBRANCH   7   8
ENDBRANCH   6   7
ENDBRANCH   1   6
TORSDOF 5
ENDMDL
MODEL 8
REMARK VINA RESULT:    -3.551     16.352     17.278
REMARK INTER + INTRA:          -4.826
REMARK INTER:                  -4.436
REMARK INTRA:                  -0.391
REMARK UNBOUND:                -0.237
REMARK SMILES CCCCCCC(=O)[O-]
REMARK SMILES IDX 5 1 6 2 7 3 8 4 9 5 4 6 3 7 2 8 1 9
REMARK H PARENT
REMARK Flexibility Score: inf
ROOT
ATOM      1  C   UNL     1      -5.960   9.409  -6.713  1.00  0.00     0.006 C 
ENDROOT
BRANCH   1   2
ATOM      2  C   UNL     1      -6.307  10.890  -6.518  1.00  0.00     0.053 C 
BRANCH   2   3
ATOM      3  C   UNL     1      -5.238  11.618  -5.762  1.00  0.00     0.041 C 
ATOM      4  O   UNL     1      -4.090  11.114  -5.647  1.00  0.00    -0.550 OA
ATOM      5  O   UNL     1      -5.519  12.835  -5.157  1.00  0.00    -0.550 OA
ENDBRANCH   2   3
ENDBRANCH   1   2
BRANCH   1   6
ATOM      6  C   UNL     1      -6.020   8.986  -8.189  1.00  0.00     0.000 C 
BRANCH   6   7
ATOM      7  C   UNL     1      -5.468  10.092  -9.100  1.00  0.00    -0.000 C 
BRANCH   7   8
ATOM      8  C   UNL     1      -3.932  10.126  -9.124  1.00  0.00    -0.003 C 
ATOM      9  C   UNL     1      -3.370  11.546  -9.075  1.00  0.00     0.004 C 
ENDBRANCH   7   8
ENDBRANCH   6   7
ENDBRANCH   1   6
TORSDOF 5
ENDMDL
