MODEL 1
REMARK VINA RESULT:    -4.056      0.000      0.000
REMARK INTER + INTRA:          -1.510
REMARK INTER:                  -5.004
REMARK INTRA:                   3.494
REMARK UNBOUND:                 3.494
REMARK SMILES C=C1CC[C@H]2[C@H]([C@H]3[C@@H]1CC[C@@H]3C)C2(C)C
REMARK SMILES IDX 3 1 2 2 1 3 8 4 12 5 11 6 10 7 7 8 9 9 4 11 5 12 6 13 13 14
REMARK SMILES IDX 14 16 15 17
REMARK H PARENT
REMARK Flexibility Score: 80.00
ROOT
ATOM      1  C   UNL     1      15.272  14.861  36.045  1.00  0.00     0.031 C 
ENDROOT
BRANCH   1   2
ATOM      2  C   UNL     1      15.433  16.126  36.894  1.00  0.00    -0.074 C 
ATOM      3  C   UNL     1      16.557  16.271  37.616  1.00  0.00     0.008 C 
BRANCH   2   4
ATOM      4  C   UNL     1      14.307  17.176  37.025  1.00  0.00     0.018 C 
ATOM      5  C   UNL     1      11.721  18.850  38.010  1.00  0.00     0.008 C 
ATOM      6  C   UNL     1      11.920  17.672  37.044  1.00  0.00    -0.010 C 
ATOM      7  C   UNL     1      12.478  18.148  35.695  1.00  0.00     0.004 C 
ATOM      8  C   UNL     1      12.950  16.670  37.583  1.00  0.00     0.003 CG0
ATOM      9  C   UNL     1      13.987  17.893  35.708  1.00  0.00     0.008 C 
ATOM     10  G   UNL     1      12.626  15.260  37.049  1.00  0.00     0.000 G0
ENDBRANCH   2   4
ENDBRANCH   1   2
BRANCH   1  11
ATOM     11  C   UNL     1      14.543  13.710  36.789  1.00  0.00     0.009 C 
BRANCH  11  12
ATOM     12  C   UNL     1      13.529  14.253  37.806  1.00  0.00    -0.001 C 
ATOM     13  C   UNL     1      12.633  15.267  37.056  1.00  0.00     0.002 CG0
ATOM     14  C   UNL     1      12.005  14.105  37.819  1.00  0.00    -0.029 C 
ATOM     15  G   UNL     1      12.959  16.677  37.589  1.00  0.00     0.000 G0
ATOM     16  C   UNL     1      11.287  14.450  39.129  1.00  0.00     0.011 C 
ATOM     17  C   UNL     1      11.408  12.976  36.972  1.00  0.00     0.011 C 
ENDBRANCH  11  12
ENDBRANCH   1  11
TORSDOF 0
ENDMDL
MODEL 2
REMARK VINA RESULT:    -3.913     12.256     14.402
REMARK INTER + INTRA:          -1.334
REMARK INTER:                  -4.615
REMARK INTRA:                   3.281
REMARK UNBOUND:                 3.494
REMARK SMILES C=C1CC[C@H]2[C@H]([C@H]3[C@@H]1CC[C@@H]3C)C2(C)C
REMARK SMILES IDX 3 1 2 2 1 3 8 4 12 5 11 6 10 7 7 8 9 9 4 11 5 12 6 13 13 14
REMARK SMILES IDX 14 16 15 17
REMARK H PARENT
REMARK Flexibility Score: 80.00
ROOT
ATOM      1  C   UNL     1       7.458  18.440  23.245  1.00  0.00     0.031 C 
ENDROOT
BRANCH   1   2
ATOM      2  C   UNL     1       7.014  19.661  24.057  1.00  0.00    -0.074 C 
ATOM      3  C   UNL     1       6.037  20.437  23.559  1.00  0.00     0.008 C 
BRANCH   2   4
ATOM      4  C   UNL     1       7.722  20.080  25.364  1.00  0.00     0.018 C 
ATOM      5  C   UNL     1       9.670  21.493  27.526  1.00  0.00     0.008 C 
ATOM      6  C   UNL     1       9.788  20.235  26.650  1.00  0.00    -0.010 C 
ATOM      7  C   UNL     1       8.969  19.074  27.233  1.00  0.00     0.004 C 
ATOM      8  C   UNL     1       9.219  20.473  25.245  1.00  0.00     0.003 CG0
ATOM      9  C   UNL     1       7.646  19.016  26.466  1.00  0.00     0.008 C 
ATOM     10  G   UNL     1       9.948  19.566  24.233  1.00  0.00     0.000 G0
ENDBRANCH   2   4
ENDBRANCH   1   2
BRANCH   1  11
ATOM     11  C   UNL     1       8.665  18.728  22.311  1.00  0.00     0.009 C 
BRANCH  11  12
ATOM     12  C   UNL     1       9.489  19.923  22.812  1.00  0.00    -0.001 C 
ATOM     13  C   UNL     1       9.979  19.570  24.237  1.00  0.00     0.002 CG0
ATOM     14  C   UNL     1      10.978  19.985  23.163  1.00  0.00    -0.029 C 
ATOM     15  G   UNL     1       9.237  20.481  25.236  1.00  0.00     0.000 G0
ATOM     16  C   UNL     1      11.598  21.380  23.303  1.00  0.00     0.011 C 
ATOM     17  C   UNL     1      11.873  18.876  22.598  1.00  0.00     0.011 C 
ENDBRANCH  11  12
ENDBRANCH   1  11
TORSDOF 0
ENDMDL
MODEL 3
REMARK VINA RESULT:    -3.884     12.177     14.068
REMARK INTER + INTRA:          -1.298
REMARK INTER:                  -4.517
REMARK INTRA:                   3.219
REMARK UNBOUND:                 3.494
REMARK SMILES C=C1CC[C@H]2[C@H]([C@H]3[C@@H]1CC[C@@H]3C)C2(C)C
REMARK SMILES IDX 3 1 2 2 1 3 8 4 12 5 11 6 10 7 7 8 9 9 4 11 5 12 6 13 13 14
REMARK SMILES IDX 14 16 15 17
REMARK H PARENT
REMARK Flexibility Score: 80.00
ROOT
ATOM      1  C   UNL     1      11.531  19.359  23.313  1.00  0.00     0.031 C 
ENDROOT
BRANCH   1   2
ATOM      2  C   UNL     1      10.578  20.413  22.741  1.00  0.00    -0.074 C 
ATOM      3  C   UNL     1      11.104  21.452  22.071  1.00  0.00     0.008 C 
BRANCH   2   4
ATOM      4  C   UNL     1       9.056  20.372  23.001  1.00  0.00     0.018 C 
ATOM      5  C   UNL     1       6.100  20.854  24.222  1.00  0.00     0.008 C 
ATOM      6  C   UNL     1       7.220  19.844  24.516  1.00  0.00    -0.010 C 
ATOM      7  C   UNL     1       7.268  18.741  23.450  1.00  0.00     0.004 C 
ATOM      8  C   UNL     1       8.602  20.511  24.478  1.00  0.00     0.003 CG0
ATOM      9  C   UNL     1       8.380  19.105  22.463  1.00  0.00     0.008 C 
ATOM     10  G   UNL     1       9.562  19.760  25.423  1.00  0.00     0.000 G0
ENDBRANCH   2   4
ENDBRANCH   1   2
BRANCH   1  11
ATOM     11  C   UNL     1      11.945  19.638  24.783  1.00  0.00     0.009 C 
BRANCH  11  12
ATOM     12  C   UNL     1      10.908  20.513  25.502  1.00  0.00    -0.001 C 
ATOM     13  C   UNL     1       9.561  19.753  25.452  1.00  0.00     0.002 CG0
ATOM     14  C   UNL     1      10.128  20.221  26.787  1.00  0.00    -0.029 C 
ATOM     15  G   UNL     1       8.614  20.522  24.509  1.00  0.00     0.000 G0
ATOM     16  C   UNL     1       9.425  21.409  27.454  1.00  0.00     0.011 C 
ATOM     17  C   UNL     1      10.689  19.133  27.710  1.00  0.00     0.011 C 
ENDBRANCH  11  12
ENDBRANCH   1  11
TORSDOF 0
ENDMDL
MODEL 4
REMARK VINA RESULT:    -3.841     11.966     14.055
REMARK INTER + INTRA:          -1.244
REMARK INTER:                  -4.611
REMARK INTRA:                   3.367
REMARK UNBOUND:                 3.494
REMARK SMILES C=C1CC[C@H]2[C@H]([C@H]3[C@@H]1CC[C@@H]3C)C2(C)C
REMARK SMILES IDX 3 1 2 2 1 3 8 4 12 5 11 6 10 7 7 8 9 9 4 11 5 12 6 13 13 14
REMARK SMILES IDX 14 16 15 17
REMARK H PARENT
REMARK Flexibility Score: 80.00
ROOT
ATOM      1  C   UNL     1       9.386  20.364  27.257  1.00  0.00     0.031 C 
ENDROOT
BRANCH   1   2
ATOM      2  C   UNL     1       8.348  19.362  26.739  1.00  0.00    -0.074 C 
ATOM      3  C   UNL     1       8.021  18.321  27.522  1.00  0.00     0.008 C 
BRANCH   2   4
ATOM      4  C   UNL     1       7.754  19.457  25.317  1.00  0.00     0.018 C 
ATOM      5  C   UNL     1       7.215  19.108  22.147  1.00  0.00     0.008 C 
ATOM      6  C   UNL     1       8.043  20.097  22.982  1.00  0.00    -0.010 C 
ATOM      7  C   UNL     1       7.146  21.154  23.641  1.00  0.00     0.004 C 
ATOM      8  C   UNL     1       8.763  19.391  24.139  1.00  0.00     0.003 CG0
ATOM      9  C   UNL     1       6.913  20.719  25.090  1.00  0.00     0.008 C 
ATOM     10  G   UNL     1      10.059  20.153  24.481  1.00  0.00     0.000 G0
ENDBRANCH   2   4
ENDBRANCH   1   2
BRANCH   1  11
ATOM     11  C   UNL     1      10.836  20.032  26.810  1.00  0.00     0.009 C 
BRANCH  11  12
ATOM     12  C   UNL     1      10.852  19.266  25.480  1.00  0.00    -0.001 C 
ATOM     13  C   UNL     1      10.080  20.128  24.452  1.00  0.00     0.002 CG0
ATOM     14  C   UNL     1      11.500  19.662  24.150  1.00  0.00    -0.029 C 
ATOM     15  G   UNL     1       8.760  19.404  24.118  1.00  0.00     0.000 G0
ATOM     16  C   UNL     1      11.652  18.557  23.098  1.00  0.00     0.011 C 
ATOM     17  C   UNL     1      12.596  20.734  24.201  1.00  0.00     0.011 C 
ENDBRANCH  11  12
ENDBRANCH   1  11
TORSDOF 0
ENDMDL
MODEL 5
REMARK VINA RESULT:    -3.667     12.266     14.354
REMARK INTER + INTRA:          -1.030
REMARK INTER:                  -4.297
REMARK INTRA:                   3.267
REMARK UNBOUND:                 3.494
REMARK SMILES C=C1CC[C@H]2[C@H]([C@H]3[C@@H]1CC[C@@H]3C)C2(C)C
REMARK SMILES IDX 3 1 2 2 1 3 8 4 12 5 11 6 10 7 7 8 9 9 4 11 5 12 6 13 13 14
REMARK SMILES IDX 14 16 15 17
REMARK H PARENT
REMARK Flexibility Score: 80.00
ROOT
ATOM      1  C   UNL     1       7.336  20.525  23.510  1.00  0.00     0.031 C 
ENDROOT
BRANCH   1   2
ATOM      2  C   UNL     1       8.253  19.474  22.878  1.00  0.00    -0.074 C 
ATOM      3  C   UNL     1       7.702  18.336  22.422  1.00  0.00     0.008 C 
BRANCH   2   4
ATOM      4  C   UNL     1       9.789  19.636  22.846  1.00  0.00     0.018 C 
ATOM      5  C   UNL     1      12.943  19.490  23.550  1.00  0.00     0.008 C 
ATOM      6  C   UNL     1      11.814  20.464  23.924  1.00  0.00    -0.010 C 
ATOM      7  C   UNL     1      11.491  21.412  22.761  1.00  0.00     0.004 C 
ATOM      8  C   UNL     1      10.505  19.719  24.221  1.00  0.00     0.003 CG0
ATOM      9  C   UNL     1      10.256  20.858  22.047  1.00  0.00     0.008 C 
ATOM     10  G   UNL     1       9.668  20.532  25.230  1.00  0.00     0.000 G0
ENDBRANCH   2   4
ENDBRANCH   1   2
BRANCH   1  11
ATOM     11  C   UNL     1       7.209  20.384  25.051  1.00  0.00     0.009 C 
BRANCH  11  12
ATOM     12  C   UNL     1       8.439  19.690  25.654  1.00  0.00    -0.001 C 
ATOM     13  C   UNL     1       9.675  20.533  25.257  1.00  0.00     0.002 CG0
ATOM     14  C   UNL     1       9.408  20.206  26.722  1.00  0.00    -0.029 C 
ATOM     15  G   UNL     1      10.504  19.716  24.245  1.00  0.00     0.000 G0
ATOM     16  C   UNL     1      10.332  19.172  27.375  1.00  0.00     0.011 C 
ATOM     17  C   UNL     1       8.922  21.364  27.602  1.00  0.00     0.011 C 
ENDBRANCH  11  12
ENDBRANCH   1  11
TORSDOF 0
ENDMDL
MODEL 6
REMARK VINA RESULT:    -3.480     11.132     13.068
REMARK INTER + INTRA:          -0.799
REMARK INTER:                  -4.213
REMARK INTRA:                   3.414
REMARK UNBOUND:                 3.494
REMARK SMILES C=C1CC[C@H]2[C@H]([C@H]3[C@@H]1CC[C@@H]3C)C2(C)C
REMARK SMILES IDX 3 1 2 2 1 3 8 4 12 5 11 6 10 7 7 8 9 9 4 11 5 12 6 13 13 14
REMARK SMILES IDX 14 16 15 17
REMARK H PARENT
REMARK Flexibility Score: 80.00
ROOT
ATOM      1  C   UNL     1      10.326  20.589  23.087  1.00  0.00     0.031 C 
ENDROOT
BRANCH   1   2
ATOM      2  C   UNL     1      11.336  19.617  23.706  1.00  0.00    -0.074 C 
ATOM      3  C   UNL     1      11.807  18.615  22.945  1.00  0.00     0.008 C 
BRANCH   2   4
ATOM      4  C   UNL     1      11.743  19.693  25.194  1.00  0.00     0.018 C 
ATOM      5  C   UNL     1      11.876  19.293  28.401  1.00  0.00     0.008 C 
ATOM      6  C   UNL     1      11.148  20.287  27.483  1.00  0.00    -0.010 C 
ATOM      7  C   UNL     1      12.107  21.366  26.962  1.00  0.00     0.004 C 
ATOM      8  C   UNL     1      10.592  19.593  26.232  1.00  0.00     0.003 CG0
ATOM      9  C   UNL     1      12.529  20.960  25.548  1.00  0.00     0.008 C 
ATOM     10  G   UNL     1       9.340  20.346  25.739  1.00  0.00     0.000 G0
ENDBRANCH   2   4
ENDBRANCH   1   2
BRANCH   1  11
ATOM     11  C   UNL     1       8.850  20.152  23.290  1.00  0.00     0.009 C 
BRANCH  11  12
ATOM     12  C   UNL     1       8.653  19.449  24.640  1.00  0.00    -0.001 C 
ATOM     13  C   UNL     1       9.330  20.333  25.715  1.00  0.00     0.002 CG0
ATOM     14  C   UNL     1       7.870  19.924  25.867  1.00  0.00    -0.029 C 
ATOM     15  G   UNL     1      10.577  19.587  26.231  1.00  0.00     0.000 G0
ATOM     16  C   UNL     1       7.559  18.872  26.939  1.00  0.00     0.011 C 
ATOM     17  C   UNL     1       6.825  21.023  25.644  1.00  0.00     0.011 C 
ENDBRANCH  11  12
ENDBRANCH   1  11
TORSDOF 0
ENDMDL
MODEL 7
REMARK VINA RESULT:    -3.478     15.131     16.913
REMARK INTER + INTRA:          -0.797
REMARK INTER:                  -4.153
REMARK INTRA:                   3.356
REMARK UNBOUND:                 3.494
REMARK SMILES C=C1CC[C@H]2[C@H]([C@H]3[C@@H]1CC[C@@H]3C)C2(C)C
REMARK SMILES IDX 3 1 2 2 1 3 8 4 12 5 11 6 10 7 7 8 9 9 4 11 5 12 6 13 13 14
REMARK SMILES IDX 14 16 15 17
REMARK H PARENT
REMARK Flexibility Score: 80.00
ROOT
ATOM      1  C   UNL     1       7.423  19.310  22.551  1.00  0.00     0.031 C 
ENDROOT
BRANCH   1   2
ATOM      2  C   UNL     1       7.304  19.991  23.918  1.00  0.00    -0.074 C 
ATOM      3  C   UNL     1       7.779  19.345  24.997  1.00  0.00     0.008 C 
BRANCH   2   4
ATOM      4  C   UNL     1       6.568  21.336  24.105  1.00  0.00     0.018 C 
ATOM      5  C   UNL     1       4.314  23.596  24.628  1.00  0.00     0.008 C 
ATOM      6  C   UNL     1       4.814  22.864  23.373  1.00  0.00    -0.010 C 
ATOM      7  C   UNL     1       6.154  23.437  22.892  1.00  0.00     0.004 C 
ATOM      8  C   UNL     1       5.082  21.379  23.658  1.00  0.00     0.003 CG0
ATOM      9  C   UNL     1       7.259  22.512  23.404  1.00  0.00     0.008 C 
ATOM     10  G   UNL     1       4.870  20.561  22.368  1.00  0.00     0.000 G0
ENDBRANCH   2   4
ENDBRANCH   1   2
BRANCH   1  11
ATOM     11  C   UNL     1       6.188  18.442  22.188  1.00  0.00     0.009 C 
BRANCH  11  12
ATOM     12  C   UNL     1       4.894  19.040  22.758  1.00  0.00    -0.001 C 
ATOM     13  C   UNL     1       4.871  20.535  22.356  1.00  0.00     0.002 CG0
ATOM     14  C   UNL     1       3.695  19.629  22.009  1.00  0.00    -0.029 C 
ATOM     15  G   UNL     1       5.067  21.375  23.634  1.00  0.00     0.000 G0
ATOM     16  C   UNL     1       2.407  19.833  22.815  1.00  0.00     0.011 C 
ATOM     17  C   UNL     1       3.541  19.247  20.532  1.00  0.00     0.011 C 
ENDBRANCH  11  12
ENDBRANCH   1  11
TORSDOF 0
ENDMDL
MODEL 8
REMARK VINA RESULT:    -3.204     11.389     13.573
REMARK INTER + INTRA:          -0.459
REMARK INTER:                  -3.914
REMARK INTRA:                   3.456
REMARK UNBOUND:                 3.494
REMARK SMILES C=C1CC[C@H]2[C@H]([C@H]3[C@@H]1CC[C@@H]3C)C2(C)C
REMARK SMILES IDX 3 1 2 2 1 3 8 4 12 5 11 6 10 7 7 8 9 9 4 11 5 12 6 13 13 14
REMARK SMILES IDX 14 16 15 17
REMARK H PARENT
REMARK Flexibility Score: 80.00
ROOT
ATOM      1  C   UNL     1      11.873  18.846  23.308  1.00  0.00     0.031 C 
ENDROOT
BRANCH   1   2
ATOM      2  C   UNL     1      10.601  19.295  24.035  1.00  0.00    -0.074 C 
ATOM      3  C   UNL     1       9.454  19.352  23.338  1.00  0.00     0.008 C 
BRANCH   2   4
ATOM      4  C   UNL     1      10.620  19.779  25.502  1.00  0.00     0.018 C 
ATOM      5  C   UNL     1      10.822  21.597  28.170  1.00  0.00     0.008 C 
ATOM      6  C   UNL     1      11.851  20.826  27.328  1.00  0.00    -0.010 C 
ATOM      7  C   UNL     1      11.789  19.320  27.619  1.00  0.00     0.004 C 
ATOM      8  C   UNL     1      11.567  20.966  25.826  1.00  0.00     0.003 CG0
ATOM      9  C   UNL     1      10.964  18.672  26.505  1.00  0.00     0.008 C 
ATOM     10  G   UNL     1      12.888  20.848  25.039  1.00  0.00     0.000 G0
ENDBRANCH   2   4
ENDBRANCH   1   2
BRANCH   1  11
ATOM     11  C   UNL     1      12.675  20.023  22.690  1.00  0.00     0.009 C 
BRANCH  11  12
ATOM     12  C   UNL     1      12.584  21.283  23.561  1.00  0.00    -0.001 C 
ATOM     13  C   UNL     1      12.884  20.850  25.016  1.00  0.00     0.002 CG0
ATOM     14  C   UNL     1      13.685  21.974  24.370  1.00  0.00    -0.029 C 
ATOM     15  G   UNL     1      11.579  20.971  25.828  1.00  0.00     0.000 G0
ATOM     16  C   UNL     1      13.394  23.397  24.861  1.00  0.00     0.011 C 
ATOM     17  C   UNL     1      15.135  21.649  23.992  1.00  0.00     0.011 C 
ENDBRANCH  11  12
ENDBRANCH   1  11
TORSDOF 0
ENDMDL
MODEL 9
REMARK VINA RESULT:    -3.186     12.009     13.974
REMARK INTER + INTRA:          -0.436
REMARK INTER:                  -3.756
REMARK INTRA:                   3.320
REMARK UNBOUND:                 3.494
REMARK SMILES C=C1CC[C@H]2[C@H]([C@H]3[C@@H]1CC[C@@H]3C)C2(C)C
REMARK SMILES IDX 3 1 2 2 1 3 8 4 12 5 11 6 10 7 7 8 9 9 4 11 5 12 6 13 13 14
REMARK SMILES IDX 14 16 15 17
REMARK H PARENT
REMARK Flexibility Score: 80.00
ROOT
ATOM      1  C   UNL     1       9.840  18.949  26.868  1.00  0.00     0.031 C 
ENDROOT
BRANCH   1   2
ATOM      2  C   UNL     1      10.801  20.127  26.673  1.00  0.00    -0.074 C 
ATOM      3  C   UNL     1      11.091  20.897  27.736  1.00  0.00     0.008 C 
BRANCH   2   4
ATOM      4  C   UNL     1      11.356  20.513  25.285  1.00  0.00     0.018 C 
ATOM      5  C   UNL     1      11.793  21.878  22.384  1.00  0.00     0.008 C 
ATOM      6  C   UNL     1      11.015  20.646  22.874  1.00  0.00    -0.010 C 
ATOM      7  C   UNL     1      11.957  19.464  23.141  1.00  0.00     0.004 C 
ATOM      8  C   UNL     1      10.312  20.920  24.210  1.00  0.00     0.003 CG0
ATOM      9  C   UNL     1      12.221  19.419  24.648  1.00  0.00     0.008 C 
ATOM     10  G   UNL     1       9.046  20.046  24.315  1.00  0.00     0.000 G0
ENDBRANCH   2   4
ENDBRANCH   1   2
BRANCH   1  11
ATOM     11  C   UNL     1       8.360  19.309  26.569  1.00  0.00     0.009 C 
BRANCH  11  12
ATOM     12  C   UNL     1       8.254  20.469  25.570  1.00  0.00    -0.001 C 
ATOM     13  C   UNL     1       9.030  20.045  24.299  1.00  0.00     0.002 CG0
ATOM     14  C   UNL     1       7.578  20.497  24.196  1.00  0.00    -0.029 C 
ATOM     15  G   UNL     1      10.298  20.918  24.201  1.00  0.00     0.000 G0
ATOM     16  C   UNL     1       7.330  21.877  23.575  1.00  0.00     0.011 C 
ATOM     17  C   UNL     1       6.542  19.405  23.907  1.00  0.00     0.011 C 
ENDBRANCH  11  12
ENDBRANCH   1  11
TORSDOF 0
ENDMDL
