MODEL 1
REMARK VINA RESULT:    -4.584      0.000      0.000
REMARK INTER + INTRA:          -4.865
REMARK INTER:                  -4.852
REMARK INTRA:                  -0.014
REMARK UNBOUND:                -0.014
REMARK SMILES O=Cc1ccccc1
REMARK SMILES IDX 6 1 5 2 4 3 3 4 8 5 7 6 2 7 1 8
REMARK H PARENT
REMARK Flexibility Score: inf
ROOT
ATOM      1  C   UNL     1      59.272 154.215   0.696  1.00  0.00     0.000 A 
ATOM      2  C   UNL     1      60.600 153.845   0.469  1.00  0.00     0.001 A 
ATOM      3  C   UNL     1      61.257 153.001   1.369  1.00  0.00     0.011 A 
ATOM      4  C   UNL     1      60.588 152.521   2.507  1.00  0.00     0.014 A 
ATOM      5  C   UNL     1      59.252 152.898   2.730  1.00  0.00     0.011 A 
ATOM      6  C   UNL     1      58.599 153.742   1.825  1.00  0.00     0.001 A 
ENDROOT
BRANCH   4   7
ATOM      7  C   UNL     1      61.296 151.631   3.447  1.00  0.00     0.260 C 
ATOM      8  O   UNL     1      62.554 151.556   3.447  1.00  0.00    -0.298 OA
ENDBRANCH   4   7
TORSDOF 1
ENDMDL
MODEL 2
REMARK VINA RESULT:    -4.580      0.095      1.714
REMARK INTER + INTRA:          -4.861
REMARK INTER:                  -4.849
REMARK INTRA:                  -0.012
REMARK UNBOUND:                -0.014
REMARK SMILES O=Cc1ccccc1
REMARK SMILES IDX 6 1 5 2 4 3 3 4 8 5 7 6 2 7 1 8
REMARK H PARENT
REMARK Flexibility Score: inf
ROOT
ATOM      1  C   UNL     1      59.274 154.220   0.753  1.00  0.00     0.000 A 
ATOM      2  C   UNL     1      58.654 153.717   1.899  1.00  0.00     0.001 A 
ATOM      3  C   UNL     1      59.348 152.853   2.751  1.00  0.00     0.011 A 
ATOM      4  C   UNL     1      60.673 152.485   2.460  1.00  0.00     0.014 A 
ATOM      5  C   UNL     1      61.290 152.995   1.305  1.00  0.00     0.011 A 
ATOM      6  C   UNL     1      60.590 153.860   0.456  1.00  0.00     0.001 A 
ENDROOT
BRANCH   4   7
ATOM      7  C   UNL     1      61.391 151.573   3.370  1.00  0.00     0.260 C 
ATOM      8  O   UNL     1      62.646 151.613   3.471  1.00  0.00    -0.298 OA
ENDBRANCH   4   7
TORSDOF 1
ENDMDL
MODEL 3
REMARK VINA RESULT:    -4.366      2.799      5.084
REMARK INTER + INTRA:          -4.635
REMARK INTER:                  -4.622
REMARK INTRA:                  -0.012
REMARK UNBOUND:                -0.014
REMARK SMILES O=Cc1ccccc1
REMARK SMILES IDX 6 1 5 2 4 3 3 4 8 5 7 6 2 7 1 8
REMARK H PARENT
REMARK Flexibility Score: inf
ROOT
ATOM      1  C   UNL     1      64.870 150.531   5.372  1.00  0.00     0.000 A 
ATOM      2  C   UNL     1      64.962 151.338   4.236  1.00  0.00     0.001 A 
ATOM      3  C   UNL     1      63.804 151.721   3.552  1.00  0.00     0.011 A 
ATOM      4  C   UNL     1      62.543 151.295   4.001  1.00  0.00     0.014 A 
ATOM      5  C   UNL     1      62.459 150.482   5.145  1.00  0.00     0.011 A 
ATOM      6  C   UNL     1      63.620 150.103   5.826  1.00  0.00     0.001 A 
ENDROOT
BRANCH   4   7
ATOM      7  C   UNL     1      61.331 151.709   3.268  1.00  0.00     0.260 C 
ATOM      8  O   UNL     1      61.352 151.870   2.018  1.00  0.00    -0.298 OA
ENDBRANCH   4   7
TORSDOF 1
ENDMDL
MODEL 4
REMARK VINA RESULT:    -4.311      4.960      5.987
REMARK INTER + INTRA:          -4.577
REMARK INTER:                  -4.565
REMARK INTRA:                  -0.012
REMARK UNBOUND:                -0.014
REMARK SMILES O=Cc1ccccc1
REMARK SMILES IDX 6 1 5 2 4 3 3 4 8 5 7 6 2 7 1 8
REMARK H PARENT
REMARK Flexibility Score: inf
ROOT
ATOM      1  C   UNL     1      65.001 150.426   3.882  1.00  0.00     0.000 A 
ATOM      2  C   UNL     1      64.085 151.463   4.070  1.00  0.00     0.001 A 
ATOM      3  C   UNL     1      63.141 151.387   5.099  1.00  0.00     0.011 A 
ATOM      4  C   UNL     1      63.108 150.268   5.948  1.00  0.00     0.014 A 
ATOM      5  C   UNL     1      64.033 149.228   5.752  1.00  0.00     0.011 A 
ATOM      6  C   UNL     1      64.976 149.310   4.722  1.00  0.00     0.001 A 
ENDROOT
BRANCH   4   7
ATOM      7  C   UNL     1      62.106 150.204   7.029  1.00  0.00     0.260 C 
ATOM      8  O   UNL     1      62.349 149.595   8.104  1.00  0.00    -0.298 OA
ENDBRANCH   4   7
TORSDOF 1
ENDMDL
MODEL 5
REMARK VINA RESULT:    -4.305      4.925      5.949
REMARK INTER + INTRA:          -4.570
REMARK INTER:                  -4.558
REMARK INTRA:                  -0.013
REMARK UNBOUND:                -0.014
REMARK SMILES O=Cc1ccccc1
REMARK SMILES IDX 6 1 5 2 4 3 3 4 8 5 7 6 2 7 1 8
REMARK H PARENT
REMARK Flexibility Score: inf
ROOT
ATOM      1  C   UNL     1      64.997 150.399   3.884  1.00  0.00     0.000 A 
ATOM      2  C   UNL     1      64.975 149.304   4.752  1.00  0.00     0.001 A 
ATOM      3  C   UNL     1      64.017 149.235   5.769  1.00  0.00     0.011 A 
ATOM      4  C   UNL     1      63.073 150.264   5.924  1.00  0.00     0.014 A 
ATOM      5  C   UNL     1      63.102 151.362   5.047  1.00  0.00     0.011 A 
ATOM      6  C   UNL     1      64.062 151.426   4.031  1.00  0.00     0.001 A 
ENDROOT
BRANCH   4   7
ATOM      7  C   UNL     1      62.069 150.174   7.001  1.00  0.00     0.260 C 
ATOM      8  O   UNL     1      62.339 149.609   8.094  1.00  0.00    -0.298 OA
ENDBRANCH   4   7
TORSDOF 1
ENDMDL
MODEL 6
REMARK VINA RESULT:    -4.142      2.248      3.383
REMARK INTER + INTRA:          -4.397
REMARK INTER:                  -4.385
REMARK INTRA:                  -0.013
REMARK UNBOUND:                -0.014
REMARK SMILES O=Cc1ccccc1
REMARK SMILES IDX 6 1 5 2 4 3 3 4 8 5 7 6 2 7 1 8
REMARK H PARENT
REMARK Flexibility Score: inf
ROOT
ATOM      1  C   UNL     1      61.171 151.869   3.887  1.00  0.00     0.000 A 
ATOM      2  C   UNL     1      61.759 151.901   2.621  1.00  0.00     0.001 A 
ATOM      3  C   UNL     1      61.164 152.633   1.589  1.00  0.00     0.011 A 
ATOM      4  C   UNL     1      59.971 153.339   1.818  1.00  0.00     0.014 A 
ATOM      5  C   UNL     1      59.384 153.301   3.095  1.00  0.00     0.011 A 
ATOM      6  C   UNL     1      59.985 152.568   4.124  1.00  0.00     0.001 A 
ENDROOT
BRANCH   4   7
ATOM      7  C   UNL     1      59.356 154.105   0.718  1.00  0.00     0.260 C 
ATOM      8  O   UNL     1      58.488 154.989   0.948  1.00  0.00    -0.298 OA
ENDBRANCH   4   7
TORSDOF 1
ENDMDL
MODEL 7
REMARK VINA RESULT:    -4.096     19.459     20.298
REMARK INTER + INTRA:          -4.349
REMARK INTER:                  -4.337
REMARK INTRA:                  -0.012
REMARK UNBOUND:                -0.014
REMARK SMILES O=Cc1ccccc1
REMARK SMILES IDX 6 1 5 2 4 3 3 4 8 5 7 6 2 7 1 8
REMARK H PARENT
REMARK Flexibility Score: inf
ROOT
ATOM      1  C   UNL     1      71.193 139.488 -10.475  1.00  0.00     0.000 A 
ATOM      2  C   UNL     1      69.921 139.803  -9.991  1.00  0.00     0.001 A 
ATOM      3  C   UNL     1      69.547 139.417  -8.700  1.00  0.00     0.011 A 
ATOM      4  C   UNL     1      70.445 138.711  -7.883  1.00  0.00     0.014 A 
ATOM      5  C   UNL     1      71.723 138.397  -8.378  1.00  0.00     0.011 A 
ATOM      6  C   UNL     1      72.092 138.786  -9.670  1.00  0.00     0.001 A 
ENDROOT
BRANCH   4   7
ATOM      7  C   UNL     1      70.034 138.312  -6.524  1.00  0.00     0.260 C 
ATOM      8  O   UNL     1      69.265 139.038  -5.839  1.00  0.00    -0.298 OA
ENDBRANCH   4   7
TORSDOF 1
ENDMDL
MODEL 8
REMARK VINA RESULT:    -4.006      5.471      6.415
REMARK INTER + INTRA:          -4.254
REMARK INTER:                  -4.245
REMARK INTRA:                  -0.009
REMARK UNBOUND:                -0.014
REMARK SMILES O=Cc1ccccc1
REMARK SMILES IDX 6 1 5 2 4 3 3 4 8 5 7 6 2 7 1 8
REMARK H PARENT
REMARK Flexibility Score: inf
ROOT
ATOM      1  C   UNL     1      62.972 148.917   5.867  1.00  0.00     0.000 A 
ATOM      2  C   UNL     1      62.438 150.193   6.057  1.00  0.00     0.001 A 
ATOM      3  C   UNL     1      63.226 151.325   5.825  1.00  0.00     0.011 A 
ATOM      4  C   UNL     1      64.558 151.186   5.401  1.00  0.00     0.014 A 
ATOM      5  C   UNL     1      65.088 149.897   5.212  1.00  0.00     0.011 A 
ATOM      6  C   UNL     1      64.295 148.769   5.445  1.00  0.00     0.001 A 
ENDROOT
BRANCH   4   7
ATOM      7  C   UNL     1      65.375 152.390   5.160  1.00  0.00     0.260 C 
ATOM      8  O   UNL     1      65.951 152.984   6.111  1.00  0.00    -0.298 OA
ENDBRANCH   4   7
TORSDOF 1
ENDMDL
MODEL 9
REMARK VINA RESULT:    -3.947     19.310     20.213
REMARK INTER + INTRA:          -4.191
REMARK INTER:                  -4.179
REMARK INTRA:                  -0.012
REMARK UNBOUND:                -0.014
REMARK SMILES O=Cc1ccccc1
REMARK SMILES IDX 6 1 5 2 4 3 3 4 8 5 7 6 2 7 1 8
REMARK H PARENT
REMARK Flexibility Score: inf
ROOT
ATOM      1  C   UNL     1      70.484 137.896  -5.819  1.00  0.00     0.000 A 
ATOM      2  C   UNL     1      71.438 137.471  -6.747  1.00  0.00     0.001 A 
ATOM      3  C   UNL     1      71.443 138.002  -8.040  1.00  0.00     0.011 A 
ATOM      4  C   UNL     1      70.490 138.964  -8.415  1.00  0.00     0.014 A 
ATOM      5  C   UNL     1      69.533 139.386  -7.475  1.00  0.00     0.011 A 
ATOM      6  C   UNL     1      69.533 138.852  -6.182  1.00  0.00     0.001 A 
ENDROOT
BRANCH   4   7
ATOM      7  C   UNL     1      70.509 139.515  -9.783  1.00  0.00     0.260 C 
ATOM      8  O   UNL     1      69.449 139.900 -10.343  1.00  0.00    -0.298 OA
ENDBRANCH   4   7
TORSDOF 1
ENDMDL
