MODEL 1
REMARK VINA RESULT:    -2.929      0.000      0.000
REMARK INTER + INTRA:          -5.549
REMARK INTER:                  -4.299
REMARK INTRA:                  -1.250
REMARK UNBOUND:                -1.250
REMARK SMILES CCCCCC(=O)CCCCC
REMARK SMILES IDX 6 1 7 2 5 3 4 4 3 5 2 6 1 7 8 8 9 9 10 10 11 11 12 12
REMARK H PARENT
REMARK Flexibility Score: inf
ROOT
ATOM      1  C   UNL     1     118.272 116.415 120.369  1.00  0.00     0.132 C 
ATOM      2  O   UNL     1     119.141 116.391 119.510  1.00  0.00    -0.300 OA
ENDROOT
BRANCH   1   3
ATOM      3  C   UNL     1     117.727 115.118 120.909  1.00  0.00     0.075 C 
BRANCH   3   4
ATOM      4  C   UNL     1     117.099 114.249 119.808  1.00  0.00     0.008 C 
BRANCH   4   5
ATOM      5  C   UNL     1     115.756 114.777 119.261  1.00  0.00     0.000 C 
BRANCH   5   6
ATOM      6  C   UNL     1     114.608 114.807 120.286  1.00  0.00    -0.003 C 
ATOM      7  C   UNL     1     113.266 115.195 119.667  1.00  0.00     0.004 C 
ENDBRANCH   5   6
ENDBRANCH   4   5
ENDBRANCH   3   4
ENDBRANCH   1   3
BRANCH   1   8
ATOM      8  C   UNL     1     117.797 117.737 120.915  1.00  0.00     0.075 C 
BRANCH   8   9
ATOM      9  C   UNL     1     116.573 117.579 121.828  1.00  0.00     0.008 C 
BRANCH   9  10
ATOM     10  C   UNL     1     115.301 118.197 121.223  1.00  0.00     0.000 C 
BRANCH  10  11
ATOM     11  C   UNL     1     115.580 118.961 119.920  1.00  0.00    -0.003 C 
ATOM     12  C   UNL     1     114.735 118.459 118.750  1.00  0.00     0.004 C 
ENDBRANCH  10  11
ENDBRANCH   9  10
ENDBRANCH   8   9
ENDBRANCH   1   8
TORSDOF 8
ENDMDL
MODEL 2
REMARK VINA RESULT:    -2.915      2.198      3.966
REMARK INTER + INTRA:          -5.529
REMARK INTER:                  -4.151
REMARK INTRA:                  -1.378
REMARK UNBOUND:                -1.250
REMARK SMILES CCCCCC(=O)CCCCC
REMARK SMILES IDX 6 1 7 2 5 3 4 4 3 5 2 6 1 7 8 8 9 9 10 10 11 11 12 12
REMARK H PARENT
REMARK Flexibility Score: inf
ROOT
ATOM      1  C   UNL     1     115.865 117.291 121.674  1.00  0.00     0.132 C 
ATOM      2  O   UNL     1     115.220 118.008 122.424  1.00  0.00    -0.300 OA
ENDROOT
BRANCH   1   3
ATOM      3  C   UNL     1     115.165 116.583 120.543  1.00  0.00     0.075 C 
BRANCH   3   4
ATOM      4  C   UNL     1     114.515 117.566 119.555  1.00  0.00     0.008 C 
BRANCH   4   5
ATOM      5  C   UNL     1     115.446 118.046 118.422  1.00  0.00     0.000 C 
BRANCH   5   6
ATOM      6  C   UNL     1     115.875 119.521 118.518  1.00  0.00    -0.003 C 
ATOM      7  C   UNL     1     115.102 120.299 119.582  1.00  0.00     0.004 C 
ENDBRANCH   5   6
ENDBRANCH   4   5
ENDBRANCH   3   4
ENDBRANCH   1   3
BRANCH   1   8
ATOM      8  C   UNL     1     117.355 117.167 121.855  1.00  0.00     0.075 C 
BRANCH   8   9
ATOM      9  C   UNL     1     118.119 118.287 121.134  1.00  0.00     0.008 C 
BRANCH   9  10
ATOM     10  C   UNL     1     119.024 117.756 120.009  1.00  0.00     0.000 C 
BRANCH  10  11
ATOM     11  C   UNL     1     118.885 116.239 119.809  1.00  0.00    -0.003 C 
ATOM     12  C   UNL     1     118.485 115.866 118.382  1.00  0.00     0.004 C 
ENDBRANCH  10  11
ENDBRANCH   9  10
ENDBRANCH   8   9
ENDBRANCH   1   8
TORSDOF 8
ENDMDL
MODEL 3
REMARK VINA RESULT:    -2.892      0.490      3.546
REMARK INTER + INTRA:          -5.495
REMARK INTER:                  -4.334
REMARK INTRA:                  -1.161
REMARK UNBOUND:                -1.250
REMARK SMILES CCCCCC(=O)CCCCC
REMARK SMILES IDX 6 1 7 2 5 3 4 4 3 5 2 6 1 7 8 8 9 9 10 10 11 11 12 12
REMARK H PARENT
REMARK Flexibility Score: inf
ROOT
ATOM      1  C   UNL     1     118.281 116.609 120.373  1.00  0.00     0.132 C 
ATOM      2  O   UNL     1     119.147 116.611 119.511  1.00  0.00    -0.300 OA
ENDROOT
BRANCH   1   3
ATOM      3  C   UNL     1     117.662 117.913 120.805  1.00  0.00     0.075 C 
BRANCH   3   4
ATOM      4  C   UNL     1     116.420 117.703 121.686  1.00  0.00     0.008 C 
BRANCH   4   5
ATOM      5  C   UNL     1     115.128 118.343 121.137  1.00  0.00     0.000 C 
BRANCH   5   6
ATOM      6  C   UNL     1     115.150 118.654 119.630  1.00  0.00    -0.003 C 
ATOM      7  C   UNL     1     115.026 120.146 119.326  1.00  0.00     0.004 C 
ENDBRANCH   5   6
ENDBRANCH   4   5
ENDBRANCH   3   4
ENDBRANCH   1   3
BRANCH   1   8
ATOM      8  C   UNL     1     117.806 115.301 120.952  1.00  0.00     0.075 C 
BRANCH   8   9
ATOM      9  C   UNL     1     117.267 114.353 119.871  1.00  0.00     0.008 C 
BRANCH   9  10
ATOM     10  C   UNL     1     115.939 114.840 119.266  1.00  0.00     0.000 C 
BRANCH  10  11
ATOM     11  C   UNL     1     114.777 114.773 120.269  1.00  0.00    -0.003 C 
ATOM     12  C   UNL     1     113.457 115.265 119.678  1.00  0.00     0.004 C 
ENDBRANCH  10  11
ENDBRANCH   9  10
ENDBRANCH   8   9
ENDBRANCH   1   8
TORSDOF 8
ENDMDL
MODEL 4
REMARK VINA RESULT:    -2.872      1.585      3.429
REMARK INTER + INTRA:          -5.465
REMARK INTER:                  -4.434
REMARK INTRA:                  -1.032
REMARK UNBOUND:                -1.250
REMARK SMILES CCCCCC(=O)CCCCC
REMARK SMILES IDX 6 1 7 2 5 3 4 4 3 5 2 6 1 7 8 8 9 9 10 10 11 11 12 12
REMARK H PARENT
REMARK Flexibility Score: inf
ROOT
ATOM      1  C   UNL     1     116.035 114.618 119.608  1.00  0.00     0.132 C 
ATOM      2  O   UNL     1     115.705 114.303 118.474  1.00  0.00    -0.300 OA
ENDROOT
BRANCH   1   3
ATOM      3  C   UNL     1     117.451 114.376 120.061  1.00  0.00     0.075 C 
BRANCH   3   4
ATOM      4  C   UNL     1     118.101 115.644 120.639  1.00  0.00     0.008 C 
BRANCH   4   5
ATOM      5  C   UNL     1     118.859 116.504 119.607  1.00  0.00     0.000 C 
BRANCH   5   6
ATOM      6  C   UNL     1     118.689 118.024 119.782  1.00  0.00    -0.003 C 
ATOM      7  C   UNL     1     118.436 118.433 121.232  1.00  0.00     0.004 C 
ENDBRANCH   5   6
ENDBRANCH   4   5
ENDBRANCH   3   4
ENDBRANCH   1   3
BRANCH   1   8
ATOM      8  C   UNL     1     115.039 115.292 120.516  1.00  0.00     0.075 C 
BRANCH   8   9
ATOM      9  C   UNL     1     114.335 116.470 119.828  1.00  0.00     0.008 C 
BRANCH   9  10
ATOM     10  C   UNL     1     114.862 117.834 120.305  1.00  0.00     0.000 C 
BRANCH  10  11
ATOM     11  C   UNL     1     115.000 118.846 119.158  1.00  0.00    -0.003 C 
ATOM     12  C   UNL     1     115.152 120.283 119.653  1.00  0.00     0.004 C 
ENDBRANCH  10  11
ENDBRANCH   9  10
ENDBRANCH   8   9
ENDBRANCH   1   8
TORSDOF 8
ENDMDL
MODEL 5
REMARK VINA RESULT:    -2.867      1.536      3.729
REMARK INTER + INTRA:          -5.457
REMARK INTER:                  -4.124
REMARK INTRA:                  -1.333
REMARK UNBOUND:                -1.250
REMARK SMILES CCCCCC(=O)CCCCC
REMARK SMILES IDX 6 1 7 2 5 3 4 4 3 5 2 6 1 7 8 8 9 9 10 10 11 11 12 12
REMARK H PARENT
REMARK Flexibility Score: inf
ROOT
ATOM      1  C   UNL     1     118.452 117.936 119.949  1.00  0.00     0.132 C 
ATOM      2  O   UNL     1     118.653 118.507 121.010  1.00  0.00    -0.300 OA
ENDROOT
BRANCH   1   3
ATOM      3  C   UNL     1     117.436 118.496 118.988  1.00  0.00     0.075 C 
BRANCH   3   4
ATOM      4  C   UNL     1     116.210 119.077 119.711  1.00  0.00     0.008 C 
BRANCH   4   5
ATOM      5  C   UNL     1     115.254 118.020 120.302  1.00  0.00     0.000 C 
BRANCH   5   6
ATOM      6  C   UNL     1     115.090 118.080 121.831  1.00  0.00    -0.003 C 
ATOM      7  C   UNL     1     115.843 116.966 122.556  1.00  0.00     0.004 C 
ENDBRANCH   5   6
ENDBRANCH   4   5
ENDBRANCH   3   4
ENDBRANCH   1   3
BRANCH   1   8
ATOM      8  C   UNL     1     119.259 116.714 119.593  1.00  0.00     0.075 C 
BRANCH   8   9
ATOM      9  C   UNL     1     118.375 115.569 119.079  1.00  0.00     0.008 C 
BRANCH   9  10
ATOM     10  C   UNL     1     117.729 114.763 120.219  1.00  0.00     0.000 C 
BRANCH  10  11
ATOM     11  C   UNL     1     116.273 114.378 119.915  1.00  0.00    -0.003 C 
ATOM     12  C   UNL     1     115.836 114.783 118.509  1.00  0.00     0.004 C 
ENDBRANCH  10  11
ENDBRANCH   9  10
ENDBRANCH   8   9
ENDBRANCH   1   8
TORSDOF 8
ENDMDL
MODEL 6
REMARK VINA RESULT:    -2.864      1.867      3.149
REMARK INTER + INTRA:          -5.454
REMARK INTER:                  -4.116
REMARK INTRA:                  -1.339
REMARK UNBOUND:                -1.250
REMARK SMILES CCCCCC(=O)CCCCC
REMARK SMILES IDX 6 1 7 2 5 3 4 4 3 5 2 6 1 7 8 8 9 9 10 10 11 11 12 12
REMARK H PARENT
REMARK Flexibility Score: inf
ROOT
ATOM      1  C   UNL     1     116.511 116.107 122.101  1.00  0.00     0.132 C 
ATOM      2  O   UNL     1     115.554 115.401 122.385  1.00  0.00    -0.300 OA
ENDROOT
BRANCH   1   3
ATOM      3  C   UNL     1     117.808 115.465 121.686  1.00  0.00     0.075 C 
BRANCH   3   4
ATOM      4  C   UNL     1     117.746 114.902 120.256  1.00  0.00     0.008 C 
BRANCH   4   5
ATOM      5  C   UNL     1     118.241 115.871 119.163  1.00  0.00     0.000 C 
BRANCH   5   6
ATOM      6  C   UNL     1     119.197 116.971 119.657  1.00  0.00    -0.003 C 
ATOM      7  C   UNL     1     118.748 118.376 119.258  1.00  0.00     0.004 C 
ENDBRANCH   5   6
ENDBRANCH   4   5
ENDBRANCH   3   4
ENDBRANCH   1   3
BRANCH   1   8
ATOM      8  C   UNL     1     116.364 117.607 122.118  1.00  0.00     0.075 C 
BRANCH   8   9
ATOM      9  C   UNL     1     115.005 118.060 121.565  1.00  0.00     0.008 C 
BRANCH   9  10
ATOM     10  C   UNL     1     115.117 118.697 120.170  1.00  0.00     0.000 C 
BRANCH  10  11
ATOM     11  C   UNL     1     115.006 117.662 119.040  1.00  0.00    -0.003 C 
ATOM     12  C   UNL     1     114.040 116.526 119.373  1.00  0.00     0.004 C 
ENDBRANCH  10  11
ENDBRANCH   9  10
ENDBRANCH   8   9
ENDBRANCH   1   8
TORSDOF 8
ENDMDL
MODEL 7
REMARK VINA RESULT:    -2.845      1.357      2.233
REMARK INTER + INTRA:          -5.426
REMARK INTER:                  -4.072
REMARK INTRA:                  -1.354
REMARK UNBOUND:                -1.250
REMARK SMILES CCCCCC(=O)CCCCC
REMARK SMILES IDX 6 1 7 2 5 3 4 4 3 5 2 6 1 7 8 8 9 9 10 10 11 11 12 12
REMARK H PARENT
REMARK Flexibility Score: inf
ROOT
ATOM      1  C   UNL     1     118.499 117.696 119.863  1.00  0.00     0.132 C 
ATOM      2  O   UNL     1     118.666 118.205 120.961  1.00  0.00    -0.300 OA
ENDROOT
BRANCH   1   3
ATOM      3  C   UNL     1     118.801 116.232 119.672  1.00  0.00     0.075 C 
BRANCH   3   4
ATOM      4  C   UNL     1     118.203 115.365 120.791  1.00  0.00     0.008 C 
BRANCH   4   5
ATOM      5  C   UNL     1     116.753 114.901 120.539  1.00  0.00     0.000 C 
BRANCH   5   6
ATOM      6  C   UNL     1     116.486 114.353 119.127  1.00  0.00    -0.003 C 
ATOM      7  C   UNL     1     115.087 114.688 118.612  1.00  0.00     0.004 C 
ENDBRANCH   5   6
ENDBRANCH   4   5
ENDBRANCH   3   4
ENDBRANCH   1   3
BRANCH   1   8
ATOM      8  C   UNL     1     117.944 118.523 118.732  1.00  0.00     0.075 C 
BRANCH   8   9
ATOM      9  C   UNL     1     116.441 118.284 118.526  1.00  0.00     0.008 C 
BRANCH   9  10
ATOM     10  C   UNL     1     115.581 118.974 119.599  1.00  0.00     0.000 C 
BRANCH  10  11
ATOM     11  C   UNL     1     114.783 117.971 120.447  1.00  0.00    -0.003 C 
ATOM     12  C   UNL     1     115.186 117.992 121.921  1.00  0.00     0.004 C 
ENDBRANCH  10  11
ENDBRANCH   9  10
ENDBRANCH   8   9
ENDBRANCH   1   8
TORSDOF 8
ENDMDL
MODEL 8
REMARK VINA RESULT:    -2.817      1.834      3.411
REMARK INTER + INTRA:          -5.385
REMARK INTER:                  -4.049
REMARK INTRA:                  -1.336
REMARK UNBOUND:                -1.250
REMARK SMILES CCCCCC(=O)CCCCC
REMARK SMILES IDX 6 1 7 2 5 3 4 4 3 5 2 6 1 7 8 8 9 9 10 10 11 11 12 12
REMARK H PARENT
REMARK Flexibility Score: inf
ROOT
ATOM      1  C   UNL     1     116.343 116.182 121.966  1.00  0.00     0.132 C 
ATOM      2  O   UNL     1     115.493 115.441 122.438  1.00  0.00    -0.300 OA
ENDROOT
BRANCH   1   3
ATOM      3  C   UNL     1     115.999 117.622 121.688  1.00  0.00     0.075 C 
BRANCH   3   4
ATOM      4  C   UNL     1     114.770 117.759 120.773  1.00  0.00     0.008 C 
BRANCH   4   5
ATOM      5  C   UNL     1     115.007 117.326 119.311  1.00  0.00     0.000 C 
BRANCH   5   6
ATOM      6  C   UNL     1     113.984 116.316 118.762  1.00  0.00    -0.003 C 
ATOM      7  C   UNL     1     114.322 114.869 119.121  1.00  0.00     0.004 C 
ENDBRANCH   5   6
ENDBRANCH   4   5
ENDBRANCH   3   4
ENDBRANCH   1   3
BRANCH   1   8
ATOM      8  C   UNL     1     117.735 115.660 121.721  1.00  0.00     0.075 C 
BRANCH   8   9
ATOM      9  C   UNL     1     117.826 114.846 120.423  1.00  0.00     0.008 C 
BRANCH   9  10
ATOM     10  C   UNL     1     118.323 115.684 119.233  1.00  0.00     0.000 C 
BRANCH  10  11
ATOM     11  C   UNL     1     119.179 116.882 119.673  1.00  0.00    -0.003 C 
ATOM     12  C   UNL     1     118.666 118.209 119.118  1.00  0.00     0.004 C 
ENDBRANCH  10  11
ENDBRANCH   9  10
ENDBRANCH   8   9
ENDBRANCH   1   8
TORSDOF 8
ENDMDL
MODEL 9
REMARK VINA RESULT:    -2.810      1.837      4.011
REMARK INTER + INTRA:          -5.375
REMARK INTER:                  -3.993
REMARK INTRA:                  -1.382
REMARK UNBOUND:                -1.250
REMARK SMILES CCCCCC(=O)CCCCC
REMARK SMILES IDX 6 1 7 2 5 3 4 4 3 5 2 6 1 7 8 8 9 9 10 10 11 11 12 12
REMARK H PARENT
REMARK Flexibility Score: inf
ROOT
ATOM      1  C   UNL     1     116.121 117.096 121.959  1.00  0.00     0.132 C 
ATOM      2  O   UNL     1     115.140 117.773 122.230  1.00  0.00    -0.300 OA
ENDROOT
BRANCH   1   3
ATOM      3  C   UNL     1     117.465 117.761 121.819  1.00  0.00     0.075 C 
BRANCH   3   4
ATOM      4  C   UNL     1     117.893 117.904 120.349  1.00  0.00     0.008 C 
BRANCH   4   5
ATOM      5  C   UNL     1     117.033 118.883 119.523  1.00  0.00     0.000 C 
BRANCH   5   6
ATOM      6  C   UNL     1     116.153 118.222 118.447  1.00  0.00    -0.003 C 
ATOM      7  C   UNL     1     114.658 118.361 118.732  1.00  0.00     0.004 C 
ENDBRANCH   5   6
ENDBRANCH   4   5
ENDBRANCH   3   4
ENDBRANCH   1   3
BRANCH   1   8
ATOM      8  C   UNL     1     115.982 115.601 121.822  1.00  0.00     0.075 C 
BRANCH   8   9
ATOM      9  C   UNL     1     115.106 115.211 120.623  1.00  0.00     0.008 C 
BRANCH   9  10
ATOM     10  C   UNL     1     115.932 114.710 119.426  1.00  0.00     0.000 C 
BRANCH  10  11
ATOM     11  C   UNL     1     117.279 114.105 119.851  1.00  0.00    -0.003 C 
ATOM     12  C   UNL     1     118.438 114.564 118.968  1.00  0.00     0.004 C 
ENDBRANCH  10  11
ENDBRANCH   9  10
ENDBRANCH   8   9
ENDBRANCH   1   8
TORSDOF 8
ENDMDL
