MODEL 1
REMARK VINA RESULT:    -4.867      0.000      0.000
REMARK INTER + INTRA:          -6.217
REMARK INTER:                  -5.863
REMARK INTRA:                  -0.353
REMARK UNBOUND:                -0.353
REMARK SMILES NC(=O)C[C@H]([NH3+])C(=O)[O-]
REMARK SMILES IDX 4 1 5 2 6 3 7 7 8 8 9 9 2 10 3 11 1 12
REMARK H PARENT 6 4 6 5 6 6 1 13 1 14
REMARK Flexibility Score: inf
ROOT
ATOM      1  C   UNL     1     127.845 104.965 128.716  1.00  0.00     0.171 C 
ENDROOT
BRANCH   1   2
ATOM      2  C   UNL     1     127.879 103.455 129.040  1.00  0.00     0.237 C 
BRANCH   2   3
ATOM      3  N   UNL     1     127.693 102.635 127.834  1.00  0.00    -0.350 N 
ATOM      4  H   UNL     1     127.581 101.632 128.107  1.00  0.00     0.345 HD
ATOM      5  H   UNL     1     128.535 102.715 127.219  1.00  0.00     0.345 HD
ATOM      6  H   UNL     1     126.848 102.936 127.298  1.00  0.00     0.345 HD
ENDBRANCH   2   3
BRANCH   2   7
ATOM      7  C   UNL     1     126.869 103.098 130.102  1.00  0.00     0.100 C 
ATOM      8  O   UNL     1     125.639 103.143 129.839  1.00  0.00    -0.544 OA
ATOM      9  O   UNL     1     127.284 102.671 131.358  1.00  0.00    -0.544 OA
ENDBRANCH   2   7
ENDBRANCH   1   2
BRANCH   1  10
ATOM     10  C   UNL     1     127.281 105.269 127.356  1.00  0.00     0.223 C 
ATOM     11  O   UNL     1     126.113 104.896 127.065  1.00  0.00    -0.275 OA
ATOM     12  N   UNL     1     128.065 105.960 126.384  1.00  0.00    -0.369 N 
ATOM     13  H   UNL     1     129.037 106.269 126.605  1.00  0.00     0.159 HD
ATOM     14  H   UNL     1     127.673 106.161 125.437  1.00  0.00     0.159 HD
ENDBRANCH   1  10
TORSDOF 4
ENDMDL
MODEL 2
REMARK VINA RESULT:    -4.746      2.016      3.444
REMARK INTER + INTRA:          -6.071
REMARK INTER:                  -5.710
REMARK INTRA:                  -0.361
REMARK UNBOUND:                -0.353
REMARK SMILES NC(=O)C[C@H]([NH3+])C(=O)[O-]
REMARK SMILES IDX 4 1 5 2 6 3 7 7 8 8 9 9 2 10 3 11 1 12
REMARK H PARENT 6 4 6 5 6 6 1 13 1 14
REMARK Flexibility Score: inf
ROOT
ATOM      1  C   UNL     1     126.797 102.665 130.155  1.00  0.00     0.171 C 
ENDROOT
BRANCH   1   2
ATOM      2  C   UNL     1     126.418 102.677 128.658  1.00  0.00     0.237 C 
BRANCH   2   3
ATOM      3  N   UNL     1     127.596 102.860 127.799  1.00  0.00    -0.350 N 
ATOM      4  H   UNL     1     127.329 102.705 126.799  1.00  0.00     0.345 HD
ATOM      5  H   UNL     1     128.332 102.163 128.054  1.00  0.00     0.345 HD
ATOM      6  H   UNL     1     127.990 103.824 127.896  1.00  0.00     0.345 HD
ENDBRANCH   2   3
BRANCH   2   7
ATOM      7  C   UNL     1     125.364 103.714 128.365  1.00  0.00     0.100 C 
ATOM      8  O   UNL     1     124.730 104.250 129.311  1.00  0.00    -0.544 OA
ATOM      9  O   UNL     1     125.117 104.125 127.060  1.00  0.00    -0.544 OA
ENDBRANCH   2   7
ENDBRANCH   1   2
BRANCH   1  10
ATOM     10  C   UNL     1     128.118 103.325 130.439  1.00  0.00     0.223 C 
ATOM     11  O   UNL     1     128.245 104.568 130.277  1.00  0.00    -0.275 OA
ATOM     12  N   UNL     1     129.236 102.551 130.872  1.00  0.00    -0.369 N 
ATOM     13  H   UNL     1     129.152 101.519 131.003  1.00  0.00     0.159 HD
ATOM     14  H   UNL     1     130.155 103.011 131.058  1.00  0.00     0.159 HD
ENDBRANCH   1  10
TORSDOF 4
ENDMDL
MODEL 3
REMARK VINA RESULT:    -4.650      1.887      2.475
REMARK INTER + INTRA:          -5.954
REMARK INTER:                  -5.491
REMARK INTRA:                  -0.463
REMARK UNBOUND:                -0.353
REMARK SMILES NC(=O)C[C@H]([NH3+])C(=O)[O-]
REMARK SMILES IDX 4 1 5 2 6 3 7 7 8 8 9 9 2 10 3 11 1 12
REMARK H PARENT 6 4 6 5 6 6 1 13 1 14
REMARK Flexibility Score: inf
ROOT
ATOM      1  C   UNL     1     127.628 103.902 130.091  1.00  0.00     0.171 C 
ENDROOT
BRANCH   1   2
ATOM      2  C   UNL     1     126.834 102.938 129.183  1.00  0.00     0.237 C 
BRANCH   2   3
ATOM      3  N   UNL     1     127.491 102.750 127.881  1.00  0.00    -0.350 N 
ATOM      4  H   UNL     1     127.055 101.940 127.383  1.00  0.00     0.345 HD
ATOM      5  H   UNL     1     128.505 102.539 128.024  1.00  0.00     0.345 HD
ATOM      6  H   UNL     1     127.399 103.603 127.284  1.00  0.00     0.345 HD
ENDBRANCH   2   3
BRANCH   2   7
ATOM      7  C   UNL     1     125.407 103.394 129.011  1.00  0.00     0.100 C 
ATOM      8  O   UNL     1     124.520 102.993 129.809  1.00  0.00    -0.544 OA
ATOM      9  O   UNL     1     125.067 104.296 128.009  1.00  0.00    -0.544 OA
ENDBRANCH   2   7
ENDBRANCH   1   2
BRANCH   1  10
ATOM     10  C   UNL     1     128.188 105.088 129.353  1.00  0.00     0.223 C 
ATOM     11  O   UNL     1     129.387 105.077 128.968  1.00  0.00    -0.275 OA
ATOM     12  N   UNL     1     127.376 106.235 129.103  1.00  0.00    -0.369 N 
ATOM     13  H   UNL     1     126.382 106.265 129.422  1.00  0.00     0.159 HD
ATOM     14  H   UNL     1     127.771 107.060 128.599  1.00  0.00     0.159 HD
ENDBRANCH   1  10
TORSDOF 4
ENDMDL
MODEL 4
REMARK VINA RESULT:    -4.623      1.897      3.512
REMARK INTER + INTRA:          -5.923
REMARK INTER:                  -5.516
REMARK INTRA:                  -0.407
REMARK UNBOUND:                -0.353
REMARK SMILES NC(=O)C[C@H]([NH3+])C(=O)[O-]
REMARK SMILES IDX 4 1 5 2 6 3 7 7 8 8 9 9 2 10 3 11 1 12
REMARK H PARENT 6 4 6 5 6 6 1 13 1 14
REMARK Flexibility Score: inf
ROOT
ATOM      1  C   UNL     1     128.004 103.665 128.670  1.00  0.00     0.171 C 
ENDROOT
BRANCH   1   2
ATOM      2  C   UNL     1     127.035 104.803 128.282  1.00  0.00     0.237 C 
BRANCH   2   3
ATOM      3  N   UNL     1     127.152 105.952 129.190  1.00  0.00    -0.350 N 
ATOM      4  H   UNL     1     127.624 106.743 128.695  1.00  0.00     0.345 HD
ATOM      5  H   UNL     1     127.734 105.690 130.019  1.00  0.00     0.345 HD
ATOM      6  H   UNL     1     126.212 106.272 129.519  1.00  0.00     0.345 HD
ENDBRANCH   2   3
BRANCH   2   7
ATOM      7  C   UNL     1     125.611 104.311 128.207  1.00  0.00     0.100 C 
ATOM      8  O   UNL     1     125.009 104.296 127.101  1.00  0.00    -0.544 OA
ATOM      9  O   UNL     1     124.969 103.824 129.340  1.00  0.00    -0.544 OA
ENDBRANCH   2   7
ENDBRANCH   1   2
BRANCH   1  10
ATOM     10  C   UNL     1     128.131 103.473 130.156  1.00  0.00     0.223 C 
ATOM     11  O   UNL     1     128.808 104.289 130.837  1.00  0.00    -0.275 OA
ATOM     12  N   UNL     1     127.505 102.364 130.801  1.00  0.00    -0.369 N 
ATOM     13  H   UNL     1     126.947 101.674 130.251  1.00  0.00     0.159 HD
ATOM     14  H   UNL     1     127.604 102.229 131.832  1.00  0.00     0.159 HD
ENDBRANCH   1  10
TORSDOF 4
ENDMDL
MODEL 5
REMARK VINA RESULT:    -4.543      2.455      3.860
REMARK INTER + INTRA:          -5.826
REMARK INTER:                  -5.358
REMARK INTRA:                  -0.468
REMARK UNBOUND:                -0.353
REMARK SMILES NC(=O)C[C@H]([NH3+])C(=O)[O-]
REMARK SMILES IDX 4 1 5 2 6 3 7 7 8 8 9 9 2 10 3 11 1 12
REMARK H PARENT 6 4 6 5 6 6 1 13 1 14
REMARK Flexibility Score: inf
ROOT
ATOM      1  C   UNL     1     128.835 104.799 129.651  1.00  0.00     0.171 C 
ENDROOT
BRANCH   1   2
ATOM      2  C   UNL     1     127.377 105.165 129.299  1.00  0.00     0.237 C 
BRANCH   2   3
ATOM      3  N   UNL     1     126.533 105.257 130.498  1.00  0.00    -0.350 N 
ATOM      4  H   UNL     1     125.535 105.083 130.238  1.00  0.00     0.345 HD
ATOM      5  H   UNL     1     126.602 106.216 130.908  1.00  0.00     0.345 HD
ATOM      6  H   UNL     1     126.821 104.556 131.219  1.00  0.00     0.345 HD
ENDBRANCH   2   3
BRANCH   2   7
ATOM      7  C   UNL     1     126.796 104.201 128.296  1.00  0.00     0.100 C 
ATOM      8  O   UNL     1     127.328 103.073 128.128  1.00  0.00    -0.544 OA
ATOM      9  O   UNL     1     125.644 104.525 127.587  1.00  0.00    -0.544 OA
ENDBRANCH   2   7
ENDBRANCH   1   2
BRANCH   1  10
ATOM     10  C   UNL     1     128.959 104.014 130.928  1.00  0.00     0.223 C 
ATOM     11  O   UNL     1     129.021 104.618 132.032  1.00  0.00    -0.275 OA
ATOM     12  N   UNL     1     129.027 102.588 130.898  1.00  0.00    -0.369 N 
ATOM     13  H   UNL     1     128.986 102.071 129.992  1.00  0.00     0.159 HD
ATOM     14  H   UNL     1     129.123 102.047 131.786  1.00  0.00     0.159 HD
ENDBRANCH   1  10
TORSDOF 4
ENDMDL
MODEL 6
REMARK VINA RESULT:    -4.537      2.018      2.647
REMARK INTER + INTRA:          -5.819
REMARK INTER:                  -5.320
REMARK INTRA:                  -0.499
REMARK UNBOUND:                -0.353
REMARK SMILES NC(=O)C[C@H]([NH3+])C(=O)[O-]
REMARK SMILES IDX 4 1 5 2 6 3 7 7 8 8 9 9 2 10 3 11 1 12
REMARK H PARENT 6 4 6 5 6 6 1 13 1 14
REMARK Flexibility Score: inf
ROOT
ATOM      1  C   UNL     1     125.947 102.916 129.741  1.00  0.00     0.171 C 
ENDROOT
BRANCH   1   2
ATOM      2  C   UNL     1     126.475 103.906 130.802  1.00  0.00     0.237 C 
BRANCH   2   3
ATOM      3  N   UNL     1     126.773 105.222 130.219  1.00  0.00    -0.350 N 
ATOM      4  H   UNL     1     126.077 105.923 130.563  1.00  0.00     0.345 HD
ATOM      5  H   UNL     1     126.701 105.172 129.177  1.00  0.00     0.345 HD
ATOM      6  H   UNL     1     127.733 105.543 130.480  1.00  0.00     0.345 HD
ENDBRANCH   2   3
BRANCH   2   7
ATOM      7  C   UNL     1     127.673 103.347 131.527  1.00  0.00     0.100 C 
ATOM      8  O   UNL     1     128.712 103.044 130.884  1.00  0.00    -0.544 OA
ATOM      9  O   UNL     1     127.663 103.209 132.911  1.00  0.00    -0.544 OA
ENDBRANCH   2   7
ENDBRANCH   1   2
BRANCH   1  10
ATOM     10  C   UNL     1     126.384 103.255 128.342  1.00  0.00     0.223 C 
ATOM     11  O   UNL     1     125.628 103.933 127.597  1.00  0.00    -0.275 OA
ATOM     12  N   UNL     1     127.642 102.797 127.845  1.00  0.00    -0.369 N 
ATOM     13  H   UNL     1     128.277 102.228 128.446  1.00  0.00     0.159 HD
ATOM     14  H   UNL     1     127.937 103.027 126.870  1.00  0.00     0.159 HD
ENDBRANCH   1  10
TORSDOF 4
ENDMDL
MODEL 7
REMARK VINA RESULT:    -4.428      2.406      2.609
REMARK INTER + INTRA:          -5.687
REMARK INTER:                  -5.283
REMARK INTRA:                  -0.405
REMARK UNBOUND:                -0.353
REMARK SMILES NC(=O)C[C@H]([NH3+])C(=O)[O-]
REMARK SMILES IDX 4 1 5 2 6 3 7 7 8 8 9 9 2 10 3 11 1 12
REMARK H PARENT 6 4 6 5 6 6 1 13 1 14
REMARK Flexibility Score: inf
ROOT
ATOM      1  C   UNL     1     128.387 104.607 131.015  1.00  0.00     0.171 C 
ENDROOT
BRANCH   1   2
ATOM      2  C   UNL     1     127.572 103.495 131.711  1.00  0.00     0.237 C 
BRANCH   2   3
ATOM      3  N   UNL     1     127.789 102.185 131.082  1.00  0.00    -0.350 N 
ATOM      4  H   UNL     1     127.714 101.433 131.806  1.00  0.00     0.345 HD
ATOM      5  H   UNL     1     128.747 102.146 130.667  1.00  0.00     0.345 HD
ATOM      6  H   UNL     1     127.083 102.003 130.332  1.00  0.00     0.345 HD
ENDBRANCH   2   3
BRANCH   2   7
ATOM      7  C   UNL     1     126.105 103.839 131.761  1.00  0.00     0.100 C 
ATOM      8  O   UNL     1     125.254 103.029 131.311  1.00  0.00    -0.544 OA
ATOM      9  O   UNL     1     125.675 105.025 132.347  1.00  0.00    -0.544 OA
ENDBRANCH   2   7
ENDBRANCH   1   2
BRANCH   1  10
ATOM     10  C   UNL     1     127.991 104.824 129.581  1.00  0.00     0.223 C 
ATOM     11  O   UNL     1     128.251 103.944 128.718  1.00  0.00    -0.275 OA
ATOM     12  N   UNL     1     127.337 106.030 129.184  1.00  0.00    -0.369 N 
ATOM     13  H   UNL     1     127.120 106.774 129.884  1.00  0.00     0.159 HD
ATOM     14  H   UNL     1     127.072 106.182 128.186  1.00  0.00     0.159 HD
ENDBRANCH   1  10
TORSDOF 4
ENDMDL
MODEL 8
REMARK VINA RESULT:    -4.409      2.903      4.189
REMARK INTER + INTRA:          -5.664
REMARK INTER:                  -5.176
REMARK INTRA:                  -0.488
REMARK UNBOUND:                -0.353
REMARK SMILES NC(=O)C[C@H]([NH3+])C(=O)[O-]
REMARK SMILES IDX 4 1 5 2 6 3 7 7 8 8 9 9 2 10 3 11 1 12
REMARK H PARENT 6 4 6 5 6 6 1 13 1 14
REMARK Flexibility Score: inf
ROOT
ATOM      1  C   UNL     1     126.199 104.110 131.525  1.00  0.00     0.171 C 
ENDROOT
BRANCH   1   2
ATOM      2  C   UNL     1     126.692 103.081 130.484  1.00  0.00     0.237 C 
BRANCH   2   3
ATOM      3  N   UNL     1     127.640 102.124 131.071  1.00  0.00    -0.350 N 
ATOM      4  H   UNL     1     127.333 101.875 132.040  1.00  0.00     0.345 HD
ATOM      5  H   UNL     1     128.590 102.557 131.129  1.00  0.00     0.345 HD
ATOM      6  H   UNL     1     127.697 101.249 130.501  1.00  0.00     0.345 HD
ENDBRANCH   2   3
BRANCH   2   7
ATOM      7  C   UNL     1     127.283 103.761 129.275  1.00  0.00     0.100 C 
ATOM      8  O   UNL     1     127.628 104.970 129.341  1.00  0.00    -0.544 OA
ATOM      9  O   UNL     1     127.498 103.053 128.098  1.00  0.00    -0.544 OA
ENDBRANCH   2   7
ENDBRANCH   1   2
BRANCH   1  10
ATOM     10  C   UNL     1     127.190 104.362 132.627  1.00  0.00     0.223 C 
ATOM     11  O   UNL     1     127.106 103.715 133.705  1.00  0.00    -0.275 OA
ATOM     12  N   UNL     1     128.216 105.342 132.470  1.00  0.00    -0.369 N 
ATOM     13  H   UNL     1     128.295 105.893 131.587  1.00  0.00     0.159 HD
ATOM     14  H   UNL     1     128.896 105.521 133.242  1.00  0.00     0.159 HD
ENDBRANCH   1  10
TORSDOF 4
ENDMDL
MODEL 9
REMARK VINA RESULT:    -4.401      2.796      3.823
REMARK INTER + INTRA:          -5.655
REMARK INTER:                  -5.176
REMARK INTRA:                  -0.479
REMARK UNBOUND:                -0.353
REMARK SMILES NC(=O)C[C@H]([NH3+])C(=O)[O-]
REMARK SMILES IDX 4 1 5 2 6 3 7 7 8 8 9 9 2 10 3 11 1 12
REMARK H PARENT 6 4 6 5 6 6 1 13 1 14
REMARK Flexibility Score: inf
ROOT
ATOM      1  C   UNL     1     126.850 104.302 130.613  1.00  0.00     0.171 C 
ENDROOT
BRANCH   1   2
ATOM      2  C   UNL     1     125.629 103.670 129.911  1.00  0.00     0.237 C 
BRANCH   2   3
ATOM      3  N   UNL     1     125.052 102.574 130.702  1.00  0.00    -0.350 N 
ATOM      4  H   UNL     1     125.027 102.846 131.712  1.00  0.00     0.345 HD
ATOM      5  H   UNL     1     125.647 101.719 130.608  1.00  0.00     0.345 HD
ATOM      6  H   UNL     1     124.080 102.350 130.389  1.00  0.00     0.345 HD
ENDBRANCH   2   3
BRANCH   2   7
ATOM      7  C   UNL     1     125.972 103.212 128.516  1.00  0.00     0.100 C 
ATOM      8  O   UNL     1     125.055 102.991 127.683  1.00  0.00    -0.544 OA
ATOM      9  O   UNL     1     127.299 103.077 128.121  1.00  0.00    -0.544 OA
ENDBRANCH   2   7
ENDBRANCH   1   2
BRANCH   1  10
ATOM     10  C   UNL     1     127.672 103.307 131.386  1.00  0.00     0.223 C 
ATOM     11  O   UNL     1     127.386 103.058 132.587  1.00  0.00    -0.275 OA
ATOM     12  N   UNL     1     128.787 102.658 130.776  1.00  0.00    -0.369 N 
ATOM     13  H   UNL     1     129.043 102.859 129.784  1.00  0.00     0.159 HD
ATOM     14  H   UNL     1     129.361 101.975 131.319  1.00  0.00     0.159 HD
ENDBRANCH   1  10
TORSDOF 4
ENDMDL
