MODEL 1
REMARK VINA RESULT:    -4.689      0.000      0.000
REMARK INTER + INTRA:          -8.449
REMARK INTER:                  -7.020
REMARK INTRA:                  -1.429
REMARK UNBOUND:                -1.429
REMARK SMILES COC(=O)C1=CO[C@@H](O[C@H]2O[C@H](CO)[C@H](O)[C@H](O)[C@@H]2O)[C@H]2C(CO)=CC[C@@H]12
REMARK SMILES IDX 9 1 8 2 5 3 6 4 27 5 7 6 21 7 26 8 22 9 25 10 3 11 4 12 2 13
REMARK SMILES IDX 1 14 23 15 24 16 10 18 19 19 11 20 17 21 12 22 15 23 20 24
REMARK SMILES IDX 18 26 13 28 14 29 16 31
REMARK H PARENT 24 17 20 25 18 27 14 30 16 32
REMARK Flexibility Score: inf
ROOT
ATOM      1  O   UNL     1      -0.873  11.748  34.343  1.00  0.00    -0.310 OA
ENDROOT
BRANCH   1   2
ATOM      2  C   UNL     1       0.063  12.218  33.394  1.00  0.00     0.316 C 
ATOM      3  C   UNL     1       1.727  14.019  31.967  1.00  0.00     0.076 C 
ATOM      4  C   UNL     1       1.950  13.763  33.266  1.00  0.00     0.202 C 
ATOM      5  C   UNL     1       0.354  13.761  31.349  1.00  0.00     0.047 C 
ATOM      6  O   UNL     1       1.006  13.077  34.024  1.00  0.00    -0.471 OA
ATOM      7  C   UNL     1      -0.645  12.973  32.249  1.00  0.00     0.094 C 
ATOM      8  C   UNL     1      -0.348  15.105  31.070  1.00  0.00     0.037 C 
ATOM      9  C   UNL     1      -1.622  14.022  32.705  1.00  0.00    -0.039 C 
ATOM     10  C   UNL     1      -1.445  15.170  32.068  1.00  0.00    -0.024 C 
BRANCH   3  11
ATOM     11  C   UNL     1       2.788  14.632  31.131  1.00  0.00     0.337 C 
ATOM     12  O   UNL     1       3.424  13.936  30.291  1.00  0.00    -0.246 OA
BRANCH  11  13
ATOM     13  O   UNL     1       3.076  15.994  31.273  1.00  0.00    -0.466 OA
ATOM     14  C   UNL     1       3.010  16.910  30.188  1.00  0.00     0.282 C 
ENDBRANCH  11  13
ENDBRANCH   3  11
BRANCH   9  15
ATOM     15  C   UNL     1      -2.830  13.769  33.565  1.00  0.00     0.187 C 
BRANCH  15  16
ATOM     16  O   UNL     1      -3.494  12.624  33.109  1.00  0.00    -0.392 OA
ATOM     17  H   UNL     1      -4.031  12.911  32.325  1.00  0.00     0.211 HD
ENDBRANCH  15  16
ENDBRANCH   9  15
ENDBRANCH   1   2
BRANCH   1  18
ATOM     18  C   UNL     1      -0.544  10.445  34.809  1.00  0.00     0.286 C 
ATOM     19  C   UNL     1      -0.875   9.384  33.729  1.00  0.00     0.202 C 
ATOM     20  O   UNL     1      -1.232  10.173  36.023  1.00  0.00    -0.341 OA
ATOM     21  C   UNL     1      -2.401   9.226  33.553  1.00  0.00     0.179 C 
ATOM     22  C   UNL     1      -2.641  10.218  35.853  1.00  0.00     0.178 C 
ATOM     23  C   UNL     1      -3.115   9.090  34.910  1.00  0.00     0.177 C 
BRANCH  19  24
ATOM     24  O   UNL     1      -0.261   8.149  34.011  1.00  0.00    -0.385 OA
ATOM     25  H   UNL     1      -0.929   7.429  33.881  1.00  0.00     0.211 HD
ENDBRANCH  19  24
BRANCH  21  26
ATOM     26  O   UNL     1      -2.695   8.118  32.741  1.00  0.00    -0.387 OA
ATOM     27  H   UNL     1      -2.160   8.221  31.911  1.00  0.00     0.211 HD
ENDBRANCH  21  26
BRANCH  22  28
ATOM     28  C   UNL     1      -3.302  10.116  37.237  1.00  0.00     0.191 C 
BRANCH  28  29
ATOM     29  O   UNL     1      -4.571   9.525  37.147  1.00  0.00    -0.394 OA
ATOM     30  H   UNL     1      -5.165  10.033  37.760  1.00  0.00     0.210 HD
ENDBRANCH  28  29
ENDBRANCH  22  28
BRANCH  23  31
ATOM     31  O   UNL     1      -2.853   7.835  35.489  1.00  0.00    -0.387 OA
ATOM     32  H   UNL     1      -2.144   7.972  36.171  1.00  0.00     0.211 HD
ENDBRANCH  23  31
ENDBRANCH   1  18
TORSDOF 11
ENDMDL
MODEL 2
REMARK VINA RESULT:    -4.623      8.969     11.462
REMARK INTER + INTRA:          -8.350
REMARK INTER:                  -6.906
REMARK INTRA:                  -1.443
REMARK UNBOUND:                -1.429
REMARK SMILES COC(=O)C1=CO[C@@H](O[C@H]2O[C@H](CO)[C@H](O)[C@H](O)[C@@H]2O)[C@H]2C(CO)=CC[C@@H]12
REMARK SMILES IDX 9 1 8 2 5 3 6 4 27 5 7 6 21 7 26 8 22 9 25 10 3 11 4 12 2 13
REMARK SMILES IDX 1 14 23 15 24 16 10 18 19 19 11 20 17 21 12 22 15 23 20 24
REMARK SMILES IDX 18 26 13 28 14 29 16 31
REMARK H PARENT 24 17 20 25 18 27 14 30 16 32
REMARK Flexibility Score: inf
ROOT
ATOM      1  O   UNL     1       6.612   5.495  31.956  1.00  0.00    -0.310 OA
ENDROOT
BRANCH   1   2
ATOM      2  C   UNL     1       6.231   5.820  33.278  1.00  0.00     0.316 C 
ATOM      3  C   UNL     1       5.574   7.392  35.546  1.00  0.00     0.076 C 
ATOM      4  C   UNL     1       4.797   7.409  34.453  1.00  0.00     0.202 C 
ATOM      5  C   UNL     1       7.032   6.944  35.456  1.00  0.00     0.047 C 
ATOM      6  O   UNL     1       5.235   6.836  33.262  1.00  0.00    -0.471 OA
ATOM      7  C   UNL     1       7.447   6.295  34.100  1.00  0.00     0.094 C 
ATOM      8  C   UNL     1       7.960   8.166  35.604  1.00  0.00     0.037 C 
ATOM      9  C   UNL     1       8.275   7.358  33.432  1.00  0.00    -0.039 C 
ATOM     10  C   UNL     1       8.536   8.367  34.252  1.00  0.00    -0.024 C 
BRANCH   3  11
ATOM     11  C   UNL     1       5.054   7.885  36.844  1.00  0.00     0.337 C 
ATOM     12  O   UNL     1       5.167   7.185  37.888  1.00  0.00    -0.246 OA
BRANCH  11  13
ATOM     13  O   UNL     1       4.440   9.141  36.908  1.00  0.00    -0.466 OA
ATOM     14  C   UNL     1       5.178  10.353  37.007  1.00  0.00     0.282 C 
ENDBRANCH  11  13
ENDBRANCH   3  11
BRANCH   9  15
ATOM     15  C   UNL     1       8.966   7.214  32.104  1.00  0.00     0.187 C 
BRANCH  15  16
ATOM     16  O   UNL     1       8.170   7.782  31.102  1.00  0.00    -0.392 OA
ATOM     17  H   UNL     1       7.668   8.520  31.534  1.00  0.00     0.211 HD
ENDBRANCH  15  16
ENDBRANCH   9  15
ENDBRANCH   1   2
BRANCH   1  18
ATOM     18  C   UNL     1       6.433   4.111  31.679  1.00  0.00     0.286 C 
ATOM     19  C   UNL     1       7.743   3.331  31.956  1.00  0.00     0.202 C 
ATOM     20  O   UNL     1       6.004   3.935  30.336  1.00  0.00    -0.341 OA
ATOM     21  C   UNL     1       8.826   3.674  30.910  1.00  0.00     0.179 C 
ATOM     22  C   UNL     1       6.956   4.432  29.407  1.00  0.00     0.178 C 
ATOM     23  C   UNL     1       8.266   3.617  29.477  1.00  0.00     0.177 C 
BRANCH  19  24
ATOM     24  O   UNL     1       7.515   1.943  32.021  1.00  0.00    -0.385 OA
ATOM     25  H   UNL     1       7.185   1.637  31.139  1.00  0.00     0.211 HD
ENDBRANCH  19  24
BRANCH  21  26
ATOM     26  O   UNL     1       9.926   2.808  31.032  1.00  0.00    -0.387 OA
ATOM     27  H   UNL     1      10.550   3.032  30.292  1.00  0.00     0.211 HD
ENDBRANCH  21  26
BRANCH  22  28
ATOM     28  C   UNL     1       6.335   4.388  28.002  1.00  0.00     0.191 C 
BRANCH  28  29
ATOM     29  O   UNL     1       7.295   4.050  27.037  1.00  0.00    -0.394 OA
ATOM     30  H   UNL     1       6.810   3.954  26.175  1.00  0.00     0.210 HD
ENDBRANCH  28  29
ENDBRANCH  22  28
BRANCH  23  31
ATOM     31  O   UNL     1       8.029   2.287  29.085  1.00  0.00    -0.387 OA
ATOM     32  H   UNL     1       8.916   1.866  28.934  1.00  0.00     0.211 HD
ENDBRANCH  23  31
ENDBRANCH   1  18
TORSDOF 11
ENDMDL
MODEL 3
REMARK VINA RESULT:    -4.493      1.427      2.000
REMARK INTER + INTRA:          -8.155
REMARK INTER:                  -6.742
REMARK INTRA:                  -1.413
REMARK UNBOUND:                -1.429
REMARK SMILES COC(=O)C1=CO[C@@H](O[C@H]2O[C@H](CO)[C@H](O)[C@H](O)[C@@H]2O)[C@H]2C(CO)=CC[C@@H]12
REMARK SMILES IDX 9 1 8 2 5 3 6 4 27 5 7 6 21 7 26 8 22 9 25 10 3 11 4 12 2 13
REMARK SMILES IDX 1 14 23 15 24 16 10 18 19 19 11 20 17 21 12 22 15 23 20 24
REMARK SMILES IDX 18 26 13 28 14 29 16 31
REMARK H PARENT 24 17 20 25 18 27 14 30 16 32
REMARK Flexibility Score: inf
ROOT
ATOM      1  O   UNL     1       0.022  11.617  34.051  1.00  0.00    -0.310 OA
ENDROOT
BRANCH   1   2
ATOM      2  C   UNL     1       0.843  12.266  33.101  1.00  0.00     0.316 C 
ATOM      3  C   UNL     1       2.135  14.362  31.692  1.00  0.00     0.076 C 
ATOM      4  C   UNL     1       2.420  14.127  32.982  1.00  0.00     0.202 C 
ATOM      5  C   UNL     1       0.821  13.873  31.085  1.00  0.00     0.047 C 
ATOM      6  O   UNL     1       1.626  13.268  33.738  1.00  0.00    -0.471 OA
ATOM      7  C   UNL     1      -0.006  12.901  31.981  1.00  0.00     0.094 C 
ATOM      8  C   UNL     1      -0.115  15.073  30.842  1.00  0.00     0.037 C 
ATOM      9  C   UNL     1      -1.148  13.749  32.469  1.00  0.00    -0.039 C 
ATOM     10  C   UNL     1      -1.190  14.922  31.854  1.00  0.00    -0.024 C 
BRANCH   3  11
ATOM     11  C   UNL     1       3.056  15.170  30.856  1.00  0.00     0.337 C 
ATOM     12  O   UNL     1       3.661  14.648  29.879  1.00  0.00    -0.246 OA
BRANCH  11  13
ATOM     13  O   UNL     1       3.244  16.525  31.153  1.00  0.00    -0.466 OA
ATOM     14  C   UNL     1       2.662  17.569  30.382  1.00  0.00     0.282 C 
ENDBRANCH  11  13
ENDBRANCH   3  11
BRANCH   9  15
ATOM     15  C   UNL     1      -2.277  13.267  33.339  1.00  0.00     0.187 C 
BRANCH  15  16
ATOM     16  O   UNL     1      -2.673  11.991  32.921  1.00  0.00    -0.392 OA
ATOM     17  H   UNL     1      -3.328  12.131  32.189  1.00  0.00     0.211 HD
ENDBRANCH  15  16
ENDBRANCH   9  15
ENDBRANCH   1   2
BRANCH   1  18
ATOM     18  C   UNL     1       0.432  10.274  34.275  1.00  0.00     0.286 C 
ATOM     19  C   UNL     1      -0.770   9.309  34.119  1.00  0.00     0.202 C 
ATOM     20  O   UNL     1       1.024  10.153  35.561  1.00  0.00    -0.341 OA
ATOM     21  C   UNL     1      -1.774   9.478  35.281  1.00  0.00     0.179 C 
ATOM     22  C   UNL     1       0.114  10.496  36.596  1.00  0.00     0.178 C 
ATOM     23  C   UNL     1      -1.061   9.495  36.646  1.00  0.00     0.177 C 
BRANCH  19  24
ATOM     24  O   UNL     1      -0.348   7.971  33.998  1.00  0.00    -0.385 OA
ATOM     25  H   UNL     1      -0.845   7.424  34.658  1.00  0.00     0.211 HD
ENDBRANCH  19  24
BRANCH  21  26
ATOM     26  O   UNL     1      -2.740   8.458  35.255  1.00  0.00    -0.387 OA
ATOM     27  H   UNL     1      -3.070   8.353  36.186  1.00  0.00     0.211 HD
ENDBRANCH  21  26
BRANCH  22  28
ATOM     28  C   UNL     1       0.882  10.535  37.927  1.00  0.00     0.191 C 
BRANCH  28  29
ATOM     29  O   UNL     1       1.857   9.527  37.976  1.00  0.00    -0.394 OA
ATOM     30  H   UNL     1       1.401   8.679  37.733  1.00  0.00     0.210 HD
ENDBRANCH  28  29
ENDBRANCH  22  28
BRANCH  23  31
ATOM     31  O   UNL     1      -0.589   8.213  36.979  1.00  0.00    -0.387 OA
ATOM     32  H   UNL     1      -1.217   7.837  37.651  1.00  0.00     0.211 HD
ENDBRANCH  23  31
ENDBRANCH   1  18
TORSDOF 11
ENDMDL
MODEL 4
REMARK VINA RESULT:    -4.467      8.104     10.090
REMARK INTER + INTRA:          -8.116
REMARK INTER:                  -6.685
REMARK INTRA:                  -1.431
REMARK UNBOUND:                -1.429
REMARK SMILES COC(=O)C1=CO[C@@H](O[C@H]2O[C@H](CO)[C@H](O)[C@H](O)[C@@H]2O)[C@H]2C(CO)=CC[C@@H]12
REMARK SMILES IDX 9 1 8 2 5 3 6 4 27 5 7 6 21 7 26 8 22 9 25 10 3 11 4 12 2 13
REMARK SMILES IDX 1 14 23 15 24 16 10 18 19 19 11 20 17 21 12 22 15 23 20 24
REMARK SMILES IDX 18 26 13 28 14 29 16 31
REMARK H PARENT 24 17 20 25 18 27 14 30 16 32
REMARK Flexibility Score: inf
ROOT
ATOM      1  O   UNL     1       6.541   7.579  34.432  1.00  0.00    -0.310 OA
ENDROOT
BRANCH   1   2
ATOM      2  C   UNL     1       6.367   6.830  33.246  1.00  0.00     0.316 C 
ATOM      3  C   UNL     1       6.897   4.957  31.181  1.00  0.00     0.076 C 
ATOM      4  C   UNL     1       6.674   4.545  32.439  1.00  0.00     0.202 C 
ATOM      5  C   UNL     1       7.346   6.391  30.901  1.00  0.00     0.047 C 
ATOM      6  O   UNL     1       6.654   5.458  33.490  1.00  0.00    -0.471 OA
ATOM      7  C   UNL     1       7.280   7.360  32.121  1.00  0.00     0.094 C 
ATOM      8  C   UNL     1       8.829   6.395  30.479  1.00  0.00     0.037 C 
ATOM      9  C   UNL     1       8.720   7.537  32.517  1.00  0.00    -0.039 C 
ATOM     10  C   UNL     1       9.545   7.003  31.628  1.00  0.00    -0.024 C 
BRANCH   3  11
ATOM     11  C   UNL     1       6.788   4.005  30.050  1.00  0.00     0.337 C 
ATOM     12  O   UNL     1       7.304   2.855  30.128  1.00  0.00    -0.246 OA
BRANCH  11  13
ATOM     13  O   UNL     1       6.100   4.386  28.893  1.00  0.00    -0.466 OA
ATOM     14  C   UNL     1       6.731   4.492  27.623  1.00  0.00     0.282 C 
ENDBRANCH  11  13
ENDBRANCH   3  11
BRANCH   9  15
ATOM     15  C   UNL     1       9.213   8.430  33.623  1.00  0.00     0.187 C 
BRANCH  15  16
ATOM     16  O   UNL     1       9.416   7.668  34.779  1.00  0.00    -0.392 OA
ATOM     17  H   UNL     1       8.689   7.920  35.406  1.00  0.00     0.211 HD
ENDBRANCH  15  16
ENDBRANCH   9  15
ENDBRANCH   1   2
BRANCH   1  18
ATOM     18  C   UNL     1       5.760   7.063  35.502  1.00  0.00     0.286 C 
ATOM     19  C   UNL     1       4.250   7.247  35.207  1.00  0.00     0.202 C 
ATOM     20  O   UNL     1       6.126   7.695  36.721  1.00  0.00    -0.341 OA
ATOM     21  C   UNL     1       3.846   8.736  35.278  1.00  0.00     0.179 C 
ATOM     22  C   UNL     1       5.906   9.097  36.676  1.00  0.00     0.178 C 
ATOM     23  C   UNL     1       4.400   9.412  36.545  1.00  0.00     0.177 C 
BRANCH  19  24
ATOM     24  O   UNL     1       3.455   6.460  36.063  1.00  0.00    -0.385 OA
ATOM     25  H   UNL     1       3.266   5.598  35.612  1.00  0.00     0.211 HD
ENDBRANCH  19  24
BRANCH  21  26
ATOM     26  O   UNL     1       2.449   8.875  35.229  1.00  0.00    -0.387 OA
ATOM     27  H   UNL     1       2.157   8.524  34.348  1.00  0.00     0.211 HD
ENDBRANCH  21  26
BRANCH  22  28
ATOM     28  C   UNL     1       6.509   9.725  37.943  1.00  0.00     0.191 C 
BRANCH  28  29
ATOM     29  O   UNL     1       6.334   8.887  39.054  1.00  0.00    -0.394 OA
ATOM     30  H   UNL     1       5.686   8.186  38.782  1.00  0.00     0.210 HD
ENDBRANCH  28  29
ENDBRANCH  22  28
BRANCH  23  31
ATOM     31  O   UNL     1       3.713   8.968  37.689  1.00  0.00    -0.387 OA
ATOM     32  H   UNL     1       4.152   9.390  38.474  1.00  0.00     0.211 HD
ENDBRANCH  23  31
ENDBRANCH   1  18
TORSDOF 11
ENDMDL
MODEL 5
REMARK VINA RESULT:    -4.453      1.728      3.267
REMARK INTER + INTRA:          -8.094
REMARK INTER:                  -6.417
REMARK INTRA:                  -1.677
REMARK UNBOUND:                -1.429
REMARK SMILES COC(=O)C1=CO[C@@H](O[C@H]2O[C@H](CO)[C@H](O)[C@H](O)[C@@H]2O)[C@H]2C(CO)=CC[C@@H]12
REMARK SMILES IDX 9 1 8 2 5 3 6 4 27 5 7 6 21 7 26 8 22 9 25 10 3 11 4 12 2 13
REMARK SMILES IDX 1 14 23 15 24 16 10 18 19 19 11 20 17 21 12 22 15 23 20 24
REMARK SMILES IDX 18 26 13 28 14 29 16 31
REMARK H PARENT 24 17 20 25 18 27 14 30 16 32
REMARK Flexibility Score: inf
ROOT
ATOM      1  O   UNL     1      -0.816  10.874  34.310  1.00  0.00    -0.310 OA
ENDROOT
BRANCH   1   2
ATOM      2  C   UNL     1      -0.553  11.990  33.483  1.00  0.00     0.316 C 
ATOM      3  C   UNL     1       0.830  13.719  31.710  1.00  0.00     0.076 C 
ATOM      4  C   UNL     1       0.458  12.491  31.318  1.00  0.00     0.202 C 
ATOM      5  C   UNL     1       0.967  14.052  33.195  1.00  0.00     0.047 C 
ATOM      6  O   UNL     1      -0.000  11.560  32.245  1.00  0.00    -0.471 OA
ATOM      7  C   UNL     1       0.417  12.971  34.174  1.00  0.00     0.094 C 
ATOM      8  C   UNL     1       2.459  14.186  33.560  1.00  0.00     0.037 C 
ATOM      9  C   UNL     1       1.657  12.331  34.735  1.00  0.00    -0.039 C 
ATOM     10  C   UNL     1       2.752  12.991  34.388  1.00  0.00    -0.024 C 
BRANCH   3  11
ATOM     11  C   UNL     1       1.192  14.749  30.707  1.00  0.00     0.337 C 
ATOM     12  O   UNL     1       0.341  15.602  30.328  1.00  0.00    -0.246 OA
BRANCH  11  13
ATOM     13  O   UNL     1       2.490  14.776  30.184  1.00  0.00    -0.466 OA
ATOM     14  C   UNL     1       3.353  15.897  30.330  1.00  0.00     0.282 C 
ENDBRANCH  11  13
ENDBRANCH   3  11
BRANCH   9  15
ATOM     15  C   UNL     1       1.679  11.247  35.778  1.00  0.00     0.187 C 
BRANCH  15  16
ATOM     16  O   UNL     1       2.091  10.045  35.192  1.00  0.00    -0.392 OA
ATOM     17  H   UNL     1       1.600   9.975  34.333  1.00  0.00     0.211 HD
ENDBRANCH  15  16
ENDBRANCH   9  15
ENDBRANCH   1   2
BRANCH   1  18
ATOM     18  C   UNL     1      -1.110   9.709  33.548  1.00  0.00     0.286 C 
ATOM     19  C   UNL     1      -2.638   9.455  33.518  1.00  0.00     0.202 C 
ATOM     20  O   UNL     1      -0.413   8.591  34.080  1.00  0.00    -0.341 OA
ATOM     21  C   UNL     1      -3.155   9.004  34.902  1.00  0.00     0.179 C 
ATOM     22  C   UNL     1      -0.790   8.323  35.422  1.00  0.00     0.178 C 
ATOM     23  C   UNL     1      -2.272   7.895  35.501  1.00  0.00     0.177 C 
BRANCH  19  24
ATOM     24  O   UNL     1      -2.990   8.531  32.514  1.00  0.00    -0.385 OA
ATOM     25  H   UNL     1      -3.978   8.489  32.458  1.00  0.00     0.211 HD
ENDBRANCH  19  24
BRANCH  21  26
ATOM     26  O   UNL     1      -4.487   8.566  34.816  1.00  0.00    -0.387 OA
ATOM     27  H   UNL     1      -5.022   9.336  34.490  1.00  0.00     0.211 HD
ENDBRANCH  21  26
BRANCH  22  28
ATOM     28  C   UNL     1       0.144   7.239  35.983  1.00  0.00     0.191 C 
BRANCH  28  29
ATOM     29  O   UNL     1       1.357   7.204  35.279  1.00  0.00    -0.394 OA
ATOM     30  H   UNL     1       1.880   6.446  35.650  1.00  0.00     0.210 HD
ENDBRANCH  28  29
ENDBRANCH  22  28
BRANCH  23  31
ATOM     31  O   UNL     1      -2.461   6.682  34.817  1.00  0.00    -0.387 OA
ATOM     32  H   UNL     1      -1.808   6.665  34.069  1.00  0.00     0.211 HD
ENDBRANCH  23  31
ENDBRANCH   1  18
TORSDOF 11
ENDMDL
MODEL 6
REMARK VINA RESULT:    -4.430      8.439     11.192
REMARK INTER + INTRA:          -8.060
REMARK INTER:                  -6.258
REMARK INTRA:                  -1.803
REMARK UNBOUND:                -1.429
REMARK SMILES COC(=O)C1=CO[C@@H](O[C@H]2O[C@H](CO)[C@H](O)[C@H](O)[C@@H]2O)[C@H]2C(CO)=CC[C@@H]12
REMARK SMILES IDX 9 1 8 2 5 3 6 4 27 5 7 6 21 7 26 8 22 9 25 10 3 11 4 12 2 13
REMARK SMILES IDX 1 14 23 15 24 16 10 18 19 19 11 20 17 21 12 22 15 23 20 24
REMARK SMILES IDX 18 26 13 28 14 29 16 31
REMARK H PARENT 24 17 20 25 18 27 14 30 16 32
REMARK Flexibility Score: inf
ROOT
ATOM      1  O   UNL     1       7.377   5.626  33.024  1.00  0.00    -0.310 OA
ENDROOT
BRANCH   1   2
ATOM      2  C   UNL     1       6.455   5.891  34.062  1.00  0.00     0.316 C 
ATOM      3  C   UNL     1       4.753   7.352  35.800  1.00  0.00     0.076 C 
ATOM      4  C   UNL     1       4.496   7.287  34.484  1.00  0.00     0.202 C 
ATOM      5  C   UNL     1       6.160   7.080  36.330  1.00  0.00     0.047 C 
ATOM      6  O   UNL     1       5.445   6.781  33.601  1.00  0.00    -0.471 OA
ATOM      7  C   UNL     1       7.165   6.498  35.289  1.00  0.00     0.094 C 
ATOM      8  C   UNL     1       6.802   8.402  36.795  1.00  0.00     0.037 C 
ATOM      9  C   UNL     1       8.068   7.659  34.975  1.00  0.00    -0.039 C 
ATOM     10  C   UNL     1       7.855   8.683  35.789  1.00  0.00    -0.024 C 
BRANCH   3  11
ATOM     11  C   UNL     1       3.695   7.766  36.751  1.00  0.00     0.337 C 
ATOM     12  O   UNL     1       3.456   7.080  37.784  1.00  0.00    -0.246 OA
BRANCH  11  13
ATOM     13  O   UNL     1       2.963   8.933  36.502  1.00  0.00    -0.466 OA
ATOM     14  C   UNL     1       3.539  10.231  36.572  1.00  0.00     0.282 C 
ENDBRANCH  11  13
ENDBRANCH   3  11
BRANCH   9  15
ATOM     15  C   UNL     1       9.254   7.611  34.052  1.00  0.00     0.187 C 
BRANCH  15  16
ATOM     16  O   UNL     1       8.937   8.262  32.854  1.00  0.00    -0.392 OA
ATOM     17  H   UNL     1       9.758   8.231  32.298  1.00  0.00     0.211 HD
ENDBRANCH  15  16
ENDBRANCH   9  15
ENDBRANCH   1   2
BRANCH   1  18
ATOM     18  C   UNL     1       6.774   5.729  31.741  1.00  0.00     0.286 C 
ATOM     19  C   UNL     1       6.329   4.332  31.239  1.00  0.00     0.202 C 
ATOM     20  O   UNL     1       7.673   6.340  30.827  1.00  0.00    -0.341 OA
ATOM     21  C   UNL     1       7.549   3.452  30.889  1.00  0.00     0.179 C 
ATOM     22  C   UNL     1       8.866   5.585  30.673  1.00  0.00     0.178 C 
ATOM     23  C   UNL     1       8.567   4.216  30.024  1.00  0.00     0.177 C 
BRANCH  19  24
ATOM     24  O   UNL     1       5.440   4.431  30.151  1.00  0.00    -0.385 OA
ATOM     25  H   UNL     1       4.959   3.569  30.059  1.00  0.00     0.211 HD
ENDBRANCH  19  24
BRANCH  21  26
ATOM     26  O   UNL     1       7.143   2.278  30.232  1.00  0.00    -0.387 OA
ATOM     27  H   UNL     1       6.154   2.320  30.156  1.00  0.00     0.211 HD
ENDBRANCH  21  26
BRANCH  22  28
ATOM     28  C   UNL     1       9.858   6.406  29.835  1.00  0.00     0.191 C 
BRANCH  28  29
ATOM     29  O   UNL     1      10.514   7.363  30.624  1.00  0.00    -0.394 OA
ATOM     30  H   UNL     1      11.064   6.861  31.282  1.00  0.00     0.210 HD
ENDBRANCH  28  29
ENDBRANCH  22  28
BRANCH  23  31
ATOM     31  O   UNL     1       8.076   4.398  28.718  1.00  0.00    -0.387 OA
ATOM     32  H   UNL     1       7.474   3.632  28.525  1.00  0.00     0.211 HD
ENDBRANCH  23  31
ENDBRANCH   1  18
TORSDOF 11
ENDMDL
MODEL 7
REMARK VINA RESULT:    -4.415      8.305      9.704
REMARK INTER + INTRA:          -8.038
REMARK INTER:                  -6.524
REMARK INTRA:                  -1.514
REMARK UNBOUND:                -1.429
REMARK SMILES COC(=O)C1=CO[C@@H](O[C@H]2O[C@H](CO)[C@H](O)[C@H](O)[C@@H]2O)[C@H]2C(CO)=CC[C@@H]12
REMARK SMILES IDX 9 1 8 2 5 3 6 4 27 5 7 6 21 7 26 8 22 9 25 10 3 11 4 12 2 13
REMARK SMILES IDX 1 14 23 15 24 16 10 18 19 19 11 20 17 21 12 22 15 23 20 24
REMARK SMILES IDX 18 26 13 28 14 29 16 31
REMARK H PARENT 24 17 20 25 18 27 14 30 16 32
REMARK Flexibility Score: inf
ROOT
ATOM      1  O   UNL     1      -0.905  12.361  41.660  1.00  0.00    -0.310 OA
ENDROOT
BRANCH   1   2
ATOM      2  C   UNL     1       0.321  11.672  41.523  1.00  0.00     0.316 C 
ATOM      3  C   UNL     1       3.094  11.109  41.736  1.00  0.00     0.076 C 
ATOM      4  C   UNL     1       2.323  11.180  42.833  1.00  0.00     0.202 C 
ATOM      5  C   UNL     1       2.656  11.778  40.434  1.00  0.00     0.047 C 
ATOM      6  O   UNL     1       1.029  11.688  42.757  1.00  0.00    -0.471 OA
ATOM      7  C   UNL     1       1.189  12.306  40.416  1.00  0.00     0.094 C 
ATOM      8  C   UNL     1       3.524  13.026  40.176  1.00  0.00     0.037 C 
ATOM      9  C   UNL     1       1.345  13.799  40.525  1.00  0.00    -0.039 C 
ATOM     10  C   UNL     1       2.610  14.173  40.403  1.00  0.00    -0.024 C 
BRANCH   3  11
ATOM     11  C   UNL     1       4.420  10.448  41.794  1.00  0.00     0.337 C 
ATOM     12  O   UNL     1       4.891  10.050  42.895  1.00  0.00    -0.246 OA
BRANCH  11  13
ATOM     13  O   UNL     1       5.148  10.260  40.613  1.00  0.00    -0.466 OA
ATOM     14  C   UNL     1       5.398   8.973  40.062  1.00  0.00     0.282 C 
ENDBRANCH  11  13
ENDBRANCH   3  11
BRANCH   9  15
ATOM     15  C   UNL     1       0.216  14.793  40.500  1.00  0.00     0.187 C 
BRANCH  15  16
ATOM     16  O   UNL     1       0.071  15.363  41.770  1.00  0.00    -0.392 OA
ATOM     17  H   UNL     1      -0.906  15.424  41.934  1.00  0.00     0.211 HD
ENDBRANCH  15  16
ENDBRANCH   9  15
ENDBRANCH   1   2
BRANCH   1  18
ATOM     18  C   UNL     1      -1.290  12.490  43.023  1.00  0.00     0.286 C 
ATOM     19  C   UNL     1      -2.213  11.316  43.437  1.00  0.00     0.202 C 
ATOM     20  O   UNL     1      -1.927  13.742  43.233  1.00  0.00    -0.341 OA
ATOM     21  C   UNL     1      -3.596  11.429  42.759  1.00  0.00     0.179 C 
ATOM     22  C   UNL     1      -3.103  13.876  42.448  1.00  0.00     0.178 C 
ATOM     23  C   UNL     1      -4.172  12.851  42.884  1.00  0.00     0.177 C 
BRANCH  19  24
ATOM     24  O   UNL     1      -2.335  11.223  44.837  1.00  0.00    -0.385 OA
ATOM     25  H   UNL     1      -3.279  11.398  45.082  1.00  0.00     0.211 HD
ENDBRANCH  19  24
BRANCH  21  26
ATOM     26  O   UNL     1      -4.494  10.495  43.304  1.00  0.00    -0.387 OA
ATOM     27  H   UNL     1      -5.367  10.958  43.396  1.00  0.00     0.211 HD
ENDBRANCH  21  26
BRANCH  22  28
ATOM     28  C   UNL     1      -3.614  15.319  42.578  1.00  0.00     0.191 C 
BRANCH  28  29
ATOM     29  O   UNL     1      -3.379  15.823  43.867  1.00  0.00    -0.394 OA
ATOM     30  H   UNL     1      -2.544  16.358  43.815  1.00  0.00     0.210 HD
ENDBRANCH  28  29
ENDBRANCH  22  28
BRANCH  23  31
ATOM     31  O   UNL     1      -4.579  13.110  44.205  1.00  0.00    -0.387 OA
ATOM     32  H   UNL     1      -4.356  14.058  44.396  1.00  0.00     0.211 HD
ENDBRANCH  23  31
ENDBRANCH   1  18
TORSDOF 11
ENDMDL
MODEL 8
REMARK VINA RESULT:    -4.387      2.222      4.527
REMARK INTER + INTRA:          -7.996
REMARK INTER:                  -6.310
REMARK INTRA:                  -1.686
REMARK UNBOUND:                -1.429
REMARK SMILES COC(=O)C1=CO[C@@H](O[C@H]2O[C@H](CO)[C@H](O)[C@H](O)[C@@H]2O)[C@H]2C(CO)=CC[C@@H]12
REMARK SMILES IDX 9 1 8 2 5 3 6 4 27 5 7 6 21 7 26 8 22 9 25 10 3 11 4 12 2 13
REMARK SMILES IDX 1 14 23 15 24 16 10 18 19 19 11 20 17 21 12 22 15 23 20 24
REMARK SMILES IDX 18 26 13 28 14 29 16 31
REMARK H PARENT 24 17 20 25 18 27 14 30 16 32
REMARK Flexibility Score: inf
ROOT
ATOM      1  O   UNL     1      -2.266   9.037  34.467  1.00  0.00    -0.310 OA
ENDROOT
BRANCH   1   2
ATOM      2  C   UNL     1      -1.701  10.318  34.275  1.00  0.00     0.316 C 
ATOM      3  C   UNL     1       0.099  12.326  33.394  1.00  0.00     0.076 C 
ATOM      4  C   UNL     1      -0.623  11.618  32.511  1.00  0.00     0.202 C 
ATOM      5  C   UNL     1       0.352  11.786  34.801  1.00  0.00     0.047 C 
ATOM      6  O   UNL     1      -1.319  10.482  32.914  1.00  0.00    -0.471 OA
ATOM      7  C   UNL     1      -0.475  10.523  35.189  1.00  0.00     0.094 C 
ATOM      8  C   UNL     1       1.823  11.344  34.929  1.00  0.00     0.037 C 
ATOM      9  C   UNL     1       0.532   9.407  35.141  1.00  0.00    -0.039 C 
ATOM     10  C   UNL     1       1.767   9.863  34.991  1.00  0.00    -0.024 C 
BRANCH   3  11
ATOM     11  C   UNL     1       0.730  13.606  32.991  1.00  0.00     0.337 C 
ATOM     12  O   UNL     1       0.318  14.701  33.465  1.00  0.00    -0.246 OA
BRANCH  11  13
ATOM     13  O   UNL     1       1.797  13.593  32.086  1.00  0.00    -0.466 OA
ATOM     14  C   UNL     1       1.690  14.112  30.766  1.00  0.00     0.282 C 
ENDBRANCH  11  13
ENDBRANCH   3  11
BRANCH   9  15
ATOM     15  C   UNL     1       0.252   7.970  35.487  1.00  0.00     0.187 C 
BRANCH  15  16
ATOM     16  O   UNL     1       0.035   7.242  34.311  1.00  0.00    -0.392 OA
ATOM     17  H   UNL     1      -0.873   7.489  33.997  1.00  0.00     0.211 HD
ENDBRANCH  15  16
ENDBRANCH   9  15
ENDBRANCH   1   2
BRANCH   1  18
ATOM     18  C   UNL     1      -3.080   8.647  33.368  1.00  0.00     0.286 C 
ATOM     19  C   UNL     1      -4.560   9.022  33.632  1.00  0.00     0.202 C 
ATOM     20  O   UNL     1      -2.938   7.254  33.127  1.00  0.00    -0.341 OA
ATOM     21  C   UNL     1      -5.170   8.137  34.741  1.00  0.00     0.179 C 
ATOM     22  C   UNL     1      -3.342   6.480  34.247  1.00  0.00     0.178 C 
ATOM     23  C   UNL     1      -4.854   6.647  34.512  1.00  0.00     0.177 C 
BRANCH  19  24
ATOM     24  O   UNL     1      -5.327   8.965  32.452  1.00  0.00    -0.385 OA
ATOM     25  H   UNL     1      -4.724   8.754  31.695  1.00  0.00     0.211 HD
ENDBRANCH  19  24
BRANCH  21  26
ATOM     26  O   UNL     1      -6.559   8.328  34.822  1.00  0.00    -0.387 OA
ATOM     27  H   UNL     1      -6.983   7.535  34.400  1.00  0.00     0.211 HD
ENDBRANCH  21  26
BRANCH  22  28
ATOM     28  C   UNL     1      -2.972   5.011  33.983  1.00  0.00     0.191 C 
BRANCH  28  29
ATOM     29  O   UNL     1      -1.627   4.891  33.603  1.00  0.00    -0.394 OA
ATOM     30  H   UNL     1      -1.499   5.485  32.817  1.00  0.00     0.210 HD
ENDBRANCH  28  29
ENDBRANCH  22  28
BRANCH  23  31
ATOM     31  O   UNL     1      -5.594   6.141  33.429  1.00  0.00    -0.387 OA
ATOM     32  H   UNL     1      -5.273   6.609  32.614  1.00  0.00     0.211 HD
ENDBRANCH  23  31
ENDBRANCH   1  18
TORSDOF 11
ENDMDL
MODEL 9
REMARK VINA RESULT:    -4.284     10.106     12.538
REMARK INTER + INTRA:          -7.842
REMARK INTER:                  -6.100
REMARK INTRA:                  -1.742
REMARK UNBOUND:                -1.429
REMARK SMILES COC(=O)C1=CO[C@@H](O[C@H]2O[C@H](CO)[C@H](O)[C@H](O)[C@@H]2O)[C@H]2C(CO)=CC[C@@H]12
REMARK SMILES IDX 9 1 8 2 5 3 6 4 27 5 7 6 21 7 26 8 22 9 25 10 3 11 4 12 2 13
REMARK SMILES IDX 1 14 23 15 24 16 10 18 19 19 11 20 17 21 12 22 15 23 20 24
REMARK SMILES IDX 18 26 13 28 14 29 16 31
REMARK H PARENT 24 17 20 25 18 27 14 30 16 32
REMARK Flexibility Score: inf
ROOT
ATOM      1  O   UNL     1       8.386   5.155  32.679  1.00  0.00    -0.310 OA
ENDROOT
BRANCH   1   2
ATOM      2  C   UNL     1       8.622   5.343  34.060  1.00  0.00     0.316 C 
ATOM      3  C   UNL     1       8.132   5.438  36.853  1.00  0.00     0.076 C 
ATOM      4  C   UNL     1       8.091   4.272  36.190  1.00  0.00     0.202 C 
ATOM      5  C   UNL     1       7.960   6.761  36.109  1.00  0.00     0.047 C 
ATOM      6  O   UNL     1       8.091   4.248  34.798  1.00  0.00    -0.471 OA
ATOM      7  C   UNL     1       7.988   6.660  34.553  1.00  0.00     0.094 C 
ATOM      8  C   UNL     1       6.579   7.364  36.436  1.00  0.00     0.037 C 
ATOM      9  C   UNL     1       6.549   6.847  34.156  1.00  0.00    -0.039 C 
ATOM     10  C   UNL     1       5.798   7.217  35.184  1.00  0.00    -0.024 C 
BRANCH   3  11
ATOM     11  C   UNL     1       8.265   5.456  38.330  1.00  0.00     0.337 C 
ATOM     12  O   UNL     1       9.367   5.748  38.871  1.00  0.00    -0.246 OA
BRANCH  11  13
ATOM     13  O   UNL     1       7.154   5.155  39.125  1.00  0.00    -0.466 OA
ATOM     14  C   UNL     1       6.663   6.037  40.126  1.00  0.00     0.282 C 
ENDBRANCH  11  13
ENDBRANCH   3  11
BRANCH   9  15
ATOM     15  C   UNL     1       6.037   6.886  32.743  1.00  0.00     0.187 C 
BRANCH  15  16
ATOM     16  O   UNL     1       5.348   5.699  32.465  1.00  0.00    -0.392 OA
ATOM     17  H   UNL     1       5.724   5.355  31.614  1.00  0.00     0.211 HD
ENDBRANCH  15  16
ENDBRANCH   9  15
ENDBRANCH   1   2
BRANCH   1  18
ATOM     18  C   UNL     1       8.329   3.776  32.335  1.00  0.00     0.286 C 
ATOM     19  C   UNL     1       9.716   3.282  31.853  1.00  0.00     0.202 C 
ATOM     20  O   UNL     1       7.334   3.562  31.343  1.00  0.00    -0.341 OA
ATOM     21  C   UNL     1      10.075   3.884  30.477  1.00  0.00     0.179 C 
ATOM     22  C   UNL     1       7.612   4.284  30.152  1.00  0.00     0.178 C 
ATOM     23  C   UNL     1       8.904   3.763  29.485  1.00  0.00     0.177 C 
BRANCH  19  24
ATOM     24  O   UNL     1       9.785   1.875  31.830  1.00  0.00    -0.385 OA
ATOM     25  H   UNL     1      10.649   1.610  31.425  1.00  0.00     0.211 HD
ENDBRANCH  19  24
BRANCH  21  26
ATOM     26  O   UNL     1      11.221   3.267  29.948  1.00  0.00    -0.387 OA
ATOM     27  H   UNL     1      11.082   3.197  28.967  1.00  0.00     0.211 HD
ENDBRANCH  21  26
BRANCH  22  28
ATOM     28  C   UNL     1       6.401   4.161  29.214  1.00  0.00     0.191 C 
BRANCH  28  29
ATOM     29  O   UNL     1       5.201   4.138  29.941  1.00  0.00    -0.394 OA
ATOM     30  H   UNL     1       4.509   3.764  29.335  1.00  0.00     0.210 HD
ENDBRANCH  28  29
ENDBRANCH  22  28
BRANCH  23  31
ATOM     31  O   UNL     1       8.732   2.429  29.076  1.00  0.00    -0.387 OA
ATOM     32  H   UNL     1       8.462   1.911  29.879  1.00  0.00     0.211 HD
ENDBRANCH  23  31
ENDBRANCH   1  18
TORSDOF 11
ENDMDL
