MODEL 1
REMARK VINA RESULT:    14.689      0.000      0.000
REMARK INTER + INTRA:          17.512
REMARK INTER:                  17.695
REMARK INTRA:                  -0.182
REMARK UNBOUND:                -0.182
REMARK SMILES O=c1c(O)c(-c2ccc(O)cc2O)oc2cc(O)cc(O)c12
REMARK SMILES IDX 5 1 3 2 2 3 1 4 22 5 20 6 19 7 17 8 16 9 15 10 14 11 6 12
REMARK SMILES IDX 8 13 7 14 9 15 11 16 12 17 10 18 13 20 4 22 21 24 18 26
REMARK H PARENT 10 19 13 21 4 23 21 25 18 27
REMARK Flexibility Score: inf
ROOT
ATOM      1  C   UNL     1      28.592  59.098   4.274  1.00  0.00     0.184 A 
ATOM      2  C   UNL     1      27.211  59.339   4.400  1.00  0.00     0.208 A 
ATOM      3  C   UNL     1      26.767  60.658   4.584  1.00  0.00     0.238 A 
ATOM      4  O   UNL     1      25.531  60.887   4.687  1.00  0.00    -0.285 OA
ATOM      5  C   UNL     1      27.709  61.705   4.659  1.00  0.00     0.111 A 
ATOM      6  C   UNL     1      27.345  63.060   4.846  1.00  0.00     0.134 A 
ATOM      7  C   UNL     1      28.343  64.044   4.920  1.00  0.00     0.093 A 
ATOM      8  C   UNL     1      29.692  63.701   4.810  1.00  0.00     0.123 A 
ATOM      9  C   UNL     1      30.057  62.364   4.624  1.00  0.00     0.094 A 
ATOM     10  C   UNL     1      29.079  61.368   4.547  1.00  0.00     0.146 A 
ATOM     11  O   UNL     1      29.452  60.107   4.366  1.00  0.00    -0.451 OA
ENDROOT
BRANCH   1  12
ATOM     12  C   UNL     1      29.125  57.736   4.067  1.00  0.00     0.063 A 
ATOM     13  C   UNL     1      29.027  55.629   2.858  1.00  0.00     0.047 A 
ATOM     14  C   UNL     1      28.551  56.924   3.076  1.00  0.00     0.020 A 
ATOM     15  C   UNL     1      30.076  55.125   3.636  1.00  0.00     0.119 A 
ATOM     16  C   UNL     1      30.638  55.918   4.640  1.00  0.00     0.093 A 
ATOM     17  C   UNL     1      30.162  57.218   4.870  1.00  0.00     0.130 A 
BRANCH  15  18
ATOM     18  O   UNL     1      30.561  53.837   3.425  1.00  0.00    -0.508 OA
ATOM     19  H   UNL     1      30.825  53.236   4.197  1.00  0.00     0.293 HD
ENDBRANCH  15  18
BRANCH  17  20
ATOM     20  O   UNL     1      30.699  57.981   5.907  1.00  0.00    -0.507 OA
ATOM     21  H   UNL     1      31.097  58.898   5.741  1.00  0.00     0.293 HD
ENDBRANCH  17  20
ENDBRANCH   1  12
BRANCH   2  22
ATOM     22  O   UNL     1      26.307  58.274   4.367  1.00  0.00    -0.502 OA
ATOM     23  H   UNL     1      26.142  57.679   5.170  1.00  0.00     0.293 HD
ENDBRANCH   2  22
BRANCH   6  24
ATOM     24  O   UNL     1      26.006  63.436   4.962  1.00  0.00    -0.507 OA
ATOM     25  H   UNL     1      25.481  63.285   5.815  1.00  0.00     0.293 HD
ENDBRANCH   6  24
BRANCH   8  26
ATOM     26  O   UNL     1      30.662  64.697   4.887  1.00  0.00    -0.508 OA
ATOM     27  H   UNL     1      31.379  64.795   4.176  1.00  0.00     0.293 HD
ENDBRANCH   8  26
TORSDOF 6
ENDMDL
MODEL 2
REMARK VINA RESULT:    15.038      3.289      8.938
REMARK INTER + INTRA:          17.933
REMARK INTER:                  18.102
REMARK INTRA:                  -0.170
REMARK UNBOUND:                -0.182
REMARK SMILES O=c1c(O)c(-c2ccc(O)cc2O)oc2cc(O)cc(O)c12
REMARK SMILES IDX 5 1 3 2 2 3 1 4 22 5 20 6 19 7 17 8 16 9 15 10 14 11 6 12
REMARK SMILES IDX 8 13 7 14 9 15 11 16 12 17 10 18 13 20 4 22 21 24 18 26
REMARK H PARENT 10 19 13 21 4 23 21 25 18 27
REMARK Flexibility Score: inf
ROOT
ATOM      1  C   UNL     1      27.600  65.697   5.124  1.00  0.00     0.184 A 
ATOM      2  C   UNL     1      28.962  65.467   4.860  1.00  0.00     0.208 A 
ATOM      3  C   UNL     1      29.398  64.151   4.643  1.00  0.00     0.238 A 
ATOM      4  O   UNL     1      30.615  63.934   4.395  1.00  0.00    -0.285 OA
ATOM      5  C   UNL     1      28.470  63.090   4.714  1.00  0.00     0.111 A 
ATOM      6  C   UNL     1      28.827  61.736   4.512  1.00  0.00     0.134 A 
ATOM      7  C   UNL     1      27.847  60.736   4.608  1.00  0.00     0.093 A 
ATOM      8  C   UNL     1      26.523  61.064   4.902  1.00  0.00     0.123 A 
ATOM      9  C   UNL     1      26.163  62.401   5.103  1.00  0.00     0.094 A 
ATOM     10  C   UNL     1      27.124  63.411   5.009  1.00  0.00     0.146 A 
ATOM     11  O   UNL     1      26.756  64.673   5.200  1.00  0.00    -0.451 OA
ENDROOT
BRANCH   1  12
ATOM     12  C   UNL     1      27.073  67.059   5.350  1.00  0.00     0.063 A 
ATOM     13  C   UNL     1      26.955  69.383   4.647  1.00  0.00     0.047 A 
ATOM     14  C   UNL     1      27.430  68.083   4.459  1.00  0.00     0.020 A 
ATOM     15  C   UNL     1      26.127  69.679   5.736  1.00  0.00     0.119 A 
ATOM     16  C   UNL     1      25.785  68.671   6.642  1.00  0.00     0.093 A 
ATOM     17  C   UNL     1      26.263  67.364   6.464  1.00  0.00     0.130 A 
BRANCH  15  18
ATOM     18  O   UNL     1      25.644  70.971   5.930  1.00  0.00    -0.508 OA
ATOM     19  H   UNL     1      25.320  71.538   5.156  1.00  0.00     0.293 HD
ENDBRANCH  15  18
BRANCH  17  20
ATOM     20  O   UNL     1      25.955  66.378   7.402  1.00  0.00    -0.507 OA
ATOM     21  H   UNL     1      26.607  66.116   8.132  1.00  0.00     0.293 HD
ENDBRANCH  17  20
ENDBRANCH   1  12
BRANCH   2  22
ATOM     22  O   UNL     1      29.864  66.535   4.842  1.00  0.00    -0.502 OA
ATOM     23  H   UNL     1      30.858  66.402   4.697  1.00  0.00     0.293 HD
ENDBRANCH   2  22
BRANCH   6  24
ATOM     24  O   UNL     1      30.144  61.376   4.218  1.00  0.00    -0.507 OA
ATOM     25  H   UNL     1      30.568  60.541   4.606  1.00  0.00     0.293 HD
ENDBRANCH   6  24
BRANCH   8  26
ATOM     26  O   UNL     1      25.569  60.052   4.992  1.00  0.00    -0.508 OA
ATOM     27  H   UNL     1      25.837  59.076   5.054  1.00  0.00     0.293 HD
ENDBRANCH   8  26
TORSDOF 6
ENDMDL
MODEL 3
REMARK VINA RESULT:    16.215      4.386      7.288
REMARK INTER + INTRA:          19.350
REMARK INTER:                  19.730
REMARK INTRA:                  -0.380
REMARK UNBOUND:                -0.182
REMARK SMILES O=c1c(O)c(-c2ccc(O)cc2O)oc2cc(O)cc(O)c12
REMARK SMILES IDX 5 1 3 2 2 3 1 4 22 5 20 6 19 7 17 8 16 9 15 10 14 11 6 12
REMARK SMILES IDX 8 13 7 14 9 15 11 16 12 17 10 18 13 20 4 22 21 24 18 26
REMARK H PARENT 10 19 13 21 4 23 21 25 18 27
REMARK Flexibility Score: inf
ROOT
ATOM      1  C   UNL     1      27.119  66.060   5.284  1.00  0.00     0.184 A 
ATOM      2  C   UNL     1      26.336  66.408   6.399  1.00  0.00     0.208 A 
ATOM      3  C   UNL     1      26.058  67.764   6.636  1.00  0.00     0.238 A 
ATOM      4  O   UNL     1      25.348  68.088   7.627  1.00  0.00    -0.285 OA
ATOM      5  C   UNL     1      26.584  68.744   5.767  1.00  0.00     0.111 A 
ATOM      6  C   UNL     1      26.355  70.130   5.937  1.00  0.00     0.134 A 
ATOM      7  C   UNL     1      26.920  71.044   5.034  1.00  0.00     0.093 A 
ATOM      8  C   UNL     1      27.707  70.599   3.970  1.00  0.00     0.123 A 
ATOM      9  C   UNL     1      27.937  69.230   3.797  1.00  0.00     0.094 A 
ATOM     10  C   UNL     1      27.382  68.304   4.684  1.00  0.00     0.146 A 
ATOM     11  O   UNL     1      27.611  67.010   4.495  1.00  0.00    -0.451 OA
ENDROOT
BRANCH   1  12
ATOM     12  C   UNL     1      27.438  64.652   4.971  1.00  0.00     0.063 A 
ATOM     13  C   UNL     1      26.661  62.439   4.329  1.00  0.00     0.047 A 
ATOM     14  C   UNL     1      26.395  63.778   4.625  1.00  0.00     0.020 A 
ATOM     15  C   UNL     1      27.973  61.953   4.387  1.00  0.00     0.119 A 
ATOM     16  C   UNL     1      29.015  62.810   4.753  1.00  0.00     0.093 A 
ATOM     17  C   UNL     1      28.755  64.155   5.058  1.00  0.00     0.130 A 
BRANCH  15  18
ATOM     18  O   UNL     1      28.251  60.621   4.090  1.00  0.00    -0.508 OA
ATOM     19  H   UNL     1      29.003  60.364   3.462  1.00  0.00     0.293 HD
ENDBRANCH  15  18
BRANCH  17  20
ATOM     20  O   UNL     1      29.797  64.987   5.469  1.00  0.00    -0.507 OA
ATOM     21  H   UNL     1      30.309  65.562   4.810  1.00  0.00     0.293 HD
ENDBRANCH  17  20
ENDBRANCH   1  12
BRANCH   2  22
ATOM     22  O   UNL     1      25.868  65.417   7.266  1.00  0.00    -0.502 OA
ATOM     23  H   UNL     1      25.037  65.540   7.831  1.00  0.00     0.293 HD
ENDBRANCH   2  22
BRANCH   6  24
ATOM     24  O   UNL     1      25.573  70.606   6.991  1.00  0.00    -0.507 OA
ATOM     25  H   UNL     1      25.982  70.873   7.879  1.00  0.00     0.293 HD
ENDBRANCH   6  24
BRANCH   8  26
ATOM     26  O   UNL     1      28.257  71.528   3.089  1.00  0.00    -0.508 OA
ATOM     27  H   UNL     1      29.169  71.384   2.668  1.00  0.00     0.293 HD
ENDBRANCH   8  26
TORSDOF 6
ENDMDL
