MODEL 1
REMARK VINA RESULT:    -4.316      0.000      0.000
REMARK INTER + INTRA:          -4.870
REMARK INTER:                  -4.694
REMARK INTRA:                  -0.175
REMARK UNBOUND:                -0.175
REMARK SMILES Cc1ccc(C(C)C)c(O)c1
REMARK SMILES IDX 1 1 2 2 11 3 9 4 5 5 4 6 3 7 10 8 6 10 7 11 8 12
REMARK H PARENT 10 9
REMARK Flexibility Score: inf
ROOT
ATOM      1  C   UNL     1     -33.330 -18.901 -28.653  1.00  0.00     0.044 C 
ATOM      2  C   UNL     1     -32.373 -18.953 -29.808  1.00  0.00    -0.047 A 
ATOM      3  C   UNL     1     -32.852 -18.937 -31.123  1.00  0.00     0.049 A 
ATOM      4  C   UNL     1     -31.972 -19.009 -32.210  1.00  0.00     0.119 A 
ATOM      5  C   UNL     1     -30.578 -19.170 -31.984  1.00  0.00    -0.004 A 
ATOM      6  C   UNL     1     -30.110 -19.153 -30.652  1.00  0.00     0.008 A 
ATOM      7  C   UNL     1     -30.998 -19.064 -29.580  1.00  0.00     0.004 A 
ENDROOT
BRANCH   4   8
ATOM      8  O   UNL     1     -32.525 -18.900 -33.489  1.00  0.00    -0.508 OA
ATOM      9  H   UNL     1     -31.997 -18.663 -34.317  1.00  0.00     0.293 HD
ENDBRANCH   4   8
BRANCH   5  10
ATOM     10  C   UNL     1     -29.591 -19.289 -33.144  1.00  0.00     0.017 C 
ATOM     11  C   UNL     1     -29.564 -20.690 -33.780  1.00  0.00     0.012 C 
ATOM     12  C   UNL     1     -28.189 -18.875 -32.689  1.00  0.00     0.012 C 
ENDBRANCH   5  10
TORSDOF 2
ENDMDL
MODEL 2
REMARK VINA RESULT:    -4.166      1.870      2.565
REMARK INTER + INTRA:          -4.706
REMARK INTER:                  -4.519
REMARK INTRA:                  -0.187
REMARK UNBOUND:                -0.175
REMARK SMILES Cc1ccc(C(C)C)c(O)c1
REMARK SMILES IDX 1 1 2 2 11 3 9 4 5 5 4 6 3 7 10 8 6 10 7 11 8 12
REMARK H PARENT 10 9
REMARK Flexibility Score: inf
ROOT
ATOM      1  C   UNL     1     -34.119 -18.904 -28.613  1.00  0.00     0.044 C 
ATOM      2  C   UNL     1     -32.982 -19.267 -29.523  1.00  0.00    -0.047 A 
ATOM      3  C   UNL     1     -31.874 -19.962 -29.025  1.00  0.00     0.049 A 
ATOM      4  C   UNL     1     -30.795 -20.286 -29.856  1.00  0.00     0.119 A 
ATOM      5  C   UNL     1     -30.785 -19.848 -31.209  1.00  0.00    -0.004 A 
ATOM      6  C   UNL     1     -31.925 -19.176 -31.701  1.00  0.00     0.008 A 
ATOM      7  C   UNL     1     -33.000 -18.875 -30.864  1.00  0.00     0.004 A 
ENDROOT
BRANCH   4   8
ATOM      8  O   UNL     1     -29.768 -21.056 -29.302  1.00  0.00    -0.508 OA
ATOM      9  H   UNL     1     -29.308 -20.844 -28.428  1.00  0.00     0.293 HD
ENDBRANCH   4   8
BRANCH   5  10
ATOM     10  C   UNL     1     -29.610 -20.151 -32.137  1.00  0.00     0.017 C 
ATOM     11  C   UNL     1     -28.655 -18.959 -32.319  1.00  0.00     0.012 C 
ATOM     12  C   UNL     1     -30.122 -20.646 -33.492  1.00  0.00     0.012 C 
ENDBRANCH   5  10
TORSDOF 2
ENDMDL
MODEL 3
REMARK VINA RESULT:    -3.440      2.385      3.931
REMARK INTER + INTRA:          -3.917
REMARK INTER:                  -4.117
REMARK INTRA:                   0.200
REMARK UNBOUND:                -0.175
REMARK SMILES Cc1ccc(C(C)C)c(O)c1
REMARK SMILES IDX 1 1 2 2 11 3 9 4 5 5 4 6 3 7 10 8 6 10 7 11 8 12
REMARK H PARENT 10 9
REMARK Flexibility Score: inf
ROOT
ATOM      1  C   UNL     1     -31.955 -22.445 -34.888  1.00  0.00     0.044 C 
ATOM      2  C   UNL     1     -31.231 -21.495 -33.979  1.00  0.00    -0.047 A 
ATOM      3  C   UNL     1     -30.245 -20.643 -34.490  1.00  0.00     0.049 A 
ATOM      4  C   UNL     1     -29.544 -19.769 -33.651  1.00  0.00     0.119 A 
ATOM      5  C   UNL     1     -29.781 -19.788 -32.249  1.00  0.00    -0.004 A 
ATOM      6  C   UNL     1     -30.801 -20.632 -31.756  1.00  0.00     0.008 A 
ATOM      7  C   UNL     1     -31.503 -21.485 -32.608  1.00  0.00     0.004 A 
ENDROOT
BRANCH   4   8
ATOM      8  O   UNL     1     -28.638 -18.891 -34.253  1.00  0.00    -0.508 OA
ATOM      9  H   UNL     1     -27.712 -19.154 -34.561  1.00  0.00     0.293 HD
ENDBRANCH   4   8
BRANCH   5  10
ATOM     10  C   UNL     1     -29.011 -18.876 -31.297  1.00  0.00     0.017 C 
ATOM     11  C   UNL     1     -27.493 -18.875 -31.547  1.00  0.00     0.012 C 
ATOM     12  C   UNL     1     -29.319 -19.248 -29.844  1.00  0.00     0.012 C 
ENDBRANCH   5  10
TORSDOF 2
ENDMDL
MODEL 4
REMARK VINA RESULT:    -3.014      2.206      4.332
REMARK INTER + INTRA:          -3.453
REMARK INTER:                  -3.665
REMARK INTRA:                   0.211
REMARK UNBOUND:                -0.175
REMARK SMILES Cc1ccc(C(C)C)c(O)c1
REMARK SMILES IDX 1 1 2 2 11 3 9 4 5 5 4 6 3 7 10 8 6 10 7 11 8 12
REMARK H PARENT 10 9
REMARK Flexibility Score: inf
ROOT
ATOM      1  C   UNL     1     -31.976 -22.216 -35.100  1.00  0.00     0.044 C 
ATOM      2  C   UNL     1     -31.734 -21.354 -33.896  1.00  0.00    -0.047 A 
ATOM      3  C   UNL     1     -31.199 -21.908 -32.727  1.00  0.00     0.049 A 
ATOM      4  C   UNL     1     -30.989 -21.121 -31.588  1.00  0.00     0.119 A 
ATOM      5  C   UNL     1     -31.387 -19.756 -31.586  1.00  0.00    -0.004 A 
ATOM      6  C   UNL     1     -31.896 -19.207 -32.783  1.00  0.00     0.008 A 
ATOM      7  C   UNL     1     -32.082 -20.000 -33.916  1.00  0.00     0.004 A 
ENDROOT
BRANCH   4   8
ATOM      8  O   UNL     1     -30.371 -21.732 -30.492  1.00  0.00    -0.508 OA
ATOM      9  H   UNL     1     -30.692 -22.588 -30.065  1.00  0.00     0.293 HD
ENDBRANCH   4   8
BRANCH   5  10
ATOM     10  C   UNL     1     -31.208 -18.875 -30.351  1.00  0.00     0.017 C 
ATOM     11  C   UNL     1     -29.775 -18.888 -29.795  1.00  0.00     0.012 C 
ATOM     12  C   UNL     1     -32.213 -19.276 -29.267  1.00  0.00     0.012 C 
ENDBRANCH   5  10
TORSDOF 2
ENDMDL
MODEL 5
REMARK VINA RESULT:    -2.959      2.097      3.452
REMARK INTER + INTRA:          -3.394
REMARK INTER:                  -3.212
REMARK INTRA:                  -0.182
REMARK UNBOUND:                -0.175
REMARK SMILES Cc1ccc(C(C)C)c(O)c1
REMARK SMILES IDX 1 1 2 2 11 3 9 4 5 5 4 6 3 7 10 8 6 10 7 11 8 12
REMARK H PARENT 10 9
REMARK Flexibility Score: inf
ROOT
ATOM      1  C   UNL     1     -28.501 -18.928 -29.671  1.00  0.00     0.044 C 
ATOM      2  C   UNL     1     -29.288 -19.426 -30.848  1.00  0.00    -0.047 A 
ATOM      3  C   UNL     1     -28.809 -19.236 -32.150  1.00  0.00     0.049 A 
ATOM      4  C   UNL     1     -29.543 -19.674 -33.258  1.00  0.00     0.119 A 
ATOM      5  C   UNL     1     -30.826 -20.258 -33.073  1.00  0.00    -0.004 A 
ATOM      6  C   UNL     1     -31.280 -20.469 -31.753  1.00  0.00     0.008 A 
ATOM      7  C   UNL     1     -30.528 -20.043 -30.658  1.00  0.00     0.004 A 
ENDROOT
BRANCH   4   8
ATOM      8  O   UNL     1     -28.953 -19.524 -34.517  1.00  0.00    -0.508 OA
ATOM      9  H   UNL     1     -27.957 -19.536 -34.682  1.00  0.00     0.293 HD
ENDBRANCH   4   8
BRANCH   5  10
ATOM     10  C   UNL     1     -31.673 -20.714 -34.259  1.00  0.00     0.017 C 
ATOM     11  C   UNL     1     -33.015 -19.970 -34.373  1.00  0.00     0.012 C 
ATOM     12  C   UNL     1     -31.898 -22.227 -34.197  1.00  0.00     0.012 C 
ENDBRANCH   5  10
TORSDOF 2
ENDMDL
MODEL 6
REMARK VINA RESULT:    -2.886      1.978      3.805
REMARK INTER + INTRA:          -3.314
REMARK INTER:                  -3.385
REMARK INTRA:                   0.072
REMARK UNBOUND:                -0.175
REMARK SMILES Cc1ccc(C(C)C)c(O)c1
REMARK SMILES IDX 1 1 2 2 11 3 9 4 5 5 4 6 3 7 10 8 6 10 7 11 8 12
REMARK H PARENT 10 9
REMARK Flexibility Score: inf
ROOT
ATOM      1  C   UNL     1     -32.601 -22.315 -35.341  1.00  0.00     0.044 C 
ATOM      2  C   UNL     1     -31.752 -21.466 -34.439  1.00  0.00    -0.047 A 
ATOM      3  C   UNL     1     -32.349 -20.624 -33.493  1.00  0.00     0.049 A 
ATOM      4  C   UNL     1     -31.571 -19.809 -32.663  1.00  0.00     0.119 A 
ATOM      5  C   UNL     1     -30.158 -19.778 -32.821  1.00  0.00    -0.004 A 
ATOM      6  C   UNL     1     -29.572 -20.656 -33.759  1.00  0.00     0.008 A 
ATOM      7  C   UNL     1     -30.360 -21.475 -34.568  1.00  0.00     0.004 A 
ENDROOT
BRANCH   4   8
ATOM      8  O   UNL     1     -32.240 -19.064 -31.687  1.00  0.00    -0.508 OA
ATOM      9  H   UNL     1     -31.778 -18.523 -30.970  1.00  0.00     0.293 HD
ENDBRANCH   4   8
BRANCH   5  10
ATOM     10  C   UNL     1     -29.278 -18.875 -31.959  1.00  0.00     0.017 C 
ATOM     11  C   UNL     1     -27.798 -18.889 -32.376  1.00  0.00     0.012 C 
ATOM     12  C   UNL     1     -29.428 -19.247 -30.481  1.00  0.00     0.012 C 
ENDBRANCH   5  10
TORSDOF 2
ENDMDL
MODEL 7
REMARK VINA RESULT:    -2.677      2.546      3.703
REMARK INTER + INTRA:          -3.087
REMARK INTER:                  -2.904
REMARK INTRA:                  -0.183
REMARK UNBOUND:                -0.175
REMARK SMILES Cc1ccc(C(C)C)c(O)c1
REMARK SMILES IDX 1 1 2 2 11 3 9 4 5 5 4 6 3 7 10 8 6 10 7 11 8 12
REMARK H PARENT 10 9
REMARK Flexibility Score: inf
ROOT
ATOM      1  C   UNL     1     -29.357 -18.875 -30.311  1.00  0.00     0.044 C 
ATOM      2  C   UNL     1     -30.093 -19.633 -31.377  1.00  0.00    -0.047 A 
ATOM      3  C   UNL     1     -30.451 -20.971 -31.172  1.00  0.00     0.049 A 
ATOM      4  C   UNL     1     -31.116 -21.698 -32.167  1.00  0.00     0.119 A 
ATOM      5  C   UNL     1     -31.373 -21.099 -33.431  1.00  0.00    -0.004 A 
ATOM      6  C   UNL     1     -31.032 -19.741 -33.608  1.00  0.00     0.008 A 
ATOM      7  C   UNL     1     -30.385 -19.024 -32.601  1.00  0.00     0.004 A 
ENDROOT
BRANCH   4   8
ATOM      8  O   UNL     1     -31.515 -23.000 -31.851  1.00  0.00    -0.508 OA
ATOM      9  H   UNL     1     -30.896 -23.710 -31.488  1.00  0.00     0.293 HD
ENDBRANCH   4   8
BRANCH   5  10
ATOM     10  C   UNL     1     -32.063 -21.871 -34.554  1.00  0.00     0.017 C 
ATOM     11  C   UNL     1     -31.128 -22.206 -35.728  1.00  0.00     0.012 C 
ATOM     12  C   UNL     1     -33.293 -21.103 -35.045  1.00  0.00     0.012 C 
ENDBRANCH   5  10
TORSDOF 2
ENDMDL
MODEL 8
REMARK VINA RESULT:    -2.642      2.199      3.127
REMARK INTER + INTRA:          -3.049
REMARK INTER:                  -2.867
REMARK INTRA:                  -0.182
REMARK UNBOUND:                -0.175
REMARK SMILES Cc1ccc(C(C)C)c(O)c1
REMARK SMILES IDX 1 1 2 2 11 3 9 4 5 5 4 6 3 7 10 8 6 10 7 11 8 12
REMARK H PARENT 10 9
REMARK Flexibility Score: inf
ROOT
ATOM      1  C   UNL     1     -31.039 -18.994 -30.112  1.00  0.00     0.044 C 
ATOM      2  C   UNL     1     -31.300 -19.641 -31.441  1.00  0.00    -0.047 A 
ATOM      3  C   UNL     1     -32.169 -19.040 -32.360  1.00  0.00     0.049 A 
ATOM      4  C   UNL     1     -32.441 -19.644 -33.593  1.00  0.00     0.119 A 
ATOM      5  C   UNL     1     -31.886 -20.918 -33.897  1.00  0.00    -0.004 A 
ATOM      6  C   UNL     1     -30.988 -21.493 -32.972  1.00  0.00     0.008 A 
ATOM      7  C   UNL     1     -30.714 -20.870 -31.754  1.00  0.00     0.004 A 
ENDROOT
BRANCH   4   8
ATOM      8  O   UNL     1     -33.251 -18.937 -34.488  1.00  0.00    -0.508 OA
ATOM      9  H   UNL     1     -33.805 -18.132 -34.236  1.00  0.00     0.293 HD
ENDBRANCH   4   8
BRANCH   5  10
ATOM     10  C   UNL     1     -32.189 -21.625 -35.217  1.00  0.00     0.017 C 
ATOM     11  C   UNL     1     -32.935 -22.957 -35.037  1.00  0.00     0.012 C 
ATOM     12  C   UNL     1     -30.897 -21.832 -36.013  1.00  0.00     0.012 C 
ENDBRANCH   5  10
TORSDOF 2
ENDMDL
