MODEL 1
REMARK VINA RESULT:    -3.421      0.000      0.000
REMARK INTER + INTRA:          -5.455
REMARK INTER:                  -5.221
REMARK INTRA:                  -0.234
REMARK UNBOUND:                -0.234
REMARK SMILES CC1=CCC[C@@H](C)C(=O)C[C@@H](C(C)C)C(=O)C1
REMARK SMILES IDX 8 1 9 2 6 3 7 4 5 5 4 6 3 7 2 8 1 9 10 11 11 12 15 13 16 14
REMARK SMILES IDX 17 15 12 17 13 18 14 19
REMARK H PARENT
REMARK Flexibility Score: 70.00
ROOT
ATOM      1  C   UNL     1       1.104  26.915  66.686  1.00  0.00     0.136 C 
ATOM      2  O   UNL     1       0.119  26.918  65.958  1.00  0.00    -0.299 OA
ENDROOT
BRANCH   1   3
ATOM      3  C   UNL     1       0.967  26.419  68.118  1.00  0.00     0.053 C 
ATOM      4  C   UNL     1      -0.299  25.567  68.298  1.00  0.00     0.016 C 
BRANCH   3   5
ATOM      5  C   UNL     1       1.013  27.567  69.158  1.00  0.00     0.015 C 
BRANCH   5   6
ATOM      6  C   UNL     1       2.200  27.498  70.150  1.00  0.00     0.028 C 
BRANCH   6   7
ATOM      7  C   UNL     1       3.065  28.732  70.095  1.00  0.00    -0.028 C 
ATOM      8  C   UNL     1       4.277  28.809  69.490  1.00  0.00    -0.070 CG0
ATOM      9  C   UNL     1       4.988  30.139  69.500  1.00  0.00     0.039 C 
ATOM     10  G   UNL     1       4.969  27.617  68.842  1.00  0.00     0.000 G0
ENDBRANCH   6   7
ENDBRANCH   5   6
ENDBRANCH   3   5
ENDBRANCH   1   3
BRANCH   1  11
ATOM     11  C   UNL     1       2.425  27.331  66.079  1.00  0.00     0.087 C 
BRANCH  11  12
ATOM     12  C   UNL     1       3.692  26.647  66.665  1.00  0.00     0.066 C 
BRANCH  12  13
ATOM     13  C   UNL     1       4.706  27.581  67.335  1.00  0.00     0.140 C 
ATOM     14  O   UNL     1       5.320  28.356  66.613  1.00  0.00    -0.299 OA
BRANCH  13  15
ATOM     15  C   UNL     1       4.993  27.634  68.821  1.00  0.00     0.106 CG0
ATOM     16  G   UNL     1       4.264  28.798  69.478  1.00  0.00     0.000 G0
ENDBRANCH  13  15
ENDBRANCH  12  13
BRANCH  12  17
ATOM     17  C   UNL     1       4.422  25.755  65.607  1.00  0.00    -0.006 C 
ATOM     18  C   UNL     1       3.609  25.556  64.318  1.00  0.00     0.008 C 
ATOM     19  C   UNL     1       4.862  24.396  66.176  1.00  0.00     0.008 C 
ENDBRANCH  12  17
ENDBRANCH  11  12
ENDBRANCH   1  11
TORSDOF 1
ENDMDL
MODEL 2
REMARK VINA RESULT:    -3.421     11.167     12.451
REMARK INTER + INTRA:          -5.454
REMARK INTER:                  -5.564
REMARK INTRA:                   0.110
REMARK UNBOUND:                -0.234
REMARK SMILES CC1=CCC[C@@H](C)C(=O)C[C@@H](C(C)C)C(=O)C1
REMARK SMILES IDX 8 1 9 2 6 3 7 4 5 5 4 6 3 7 2 8 1 9 10 11 11 12 15 13 16 14
REMARK SMILES IDX 17 15 12 17 13 18 14 19
REMARK H PARENT
REMARK Flexibility Score: 70.00
ROOT
ATOM      1  C   UNL     1      -7.215  20.926  63.927  1.00  0.00     0.136 C 
ATOM      2  O   UNL     1      -6.801  19.900  64.454  1.00  0.00    -0.299 OA
ENDROOT
BRANCH   1   3
ATOM      3  C   UNL     1      -7.971  21.941  64.771  1.00  0.00     0.053 C 
ATOM      4  C   UNL     1      -8.901  21.250  65.780  1.00  0.00     0.016 C 
BRANCH   3   5
ATOM      5  C   UNL     1      -8.751  22.970  63.915  1.00  0.00     0.015 C 
BRANCH   5   6
ATOM      6  C   UNL     1      -8.208  24.419  63.986  1.00  0.00     0.028 C 
BRANCH   6   7
ATOM      7  C   UNL     1      -8.485  25.197  62.724  1.00  0.00    -0.028 C 
ATOM      8  C   UNL     1      -7.615  25.350  61.695  1.00  0.00    -0.070 CG0
ATOM      9  C   UNL     1      -8.076  26.132  60.491  1.00  0.00     0.039 C 
ATOM     10  G   UNL     1      -6.192  24.809  61.712  1.00  0.00     0.000 G0
ENDBRANCH   6   7
ENDBRANCH   5   6
ENDBRANCH   3   5
ENDBRANCH   1   3
BRANCH   1  11
ATOM     11  C   UNL     1      -6.868  21.155  62.473  1.00  0.00     0.087 C 
BRANCH  11  12
ATOM     12  C   UNL     1      -5.744  22.194  62.194  1.00  0.00     0.066 C 
BRANCH  12  13
ATOM     13  C   UNL     1      -6.127  23.362  61.280  1.00  0.00     0.140 C 
ATOM     14  O   UNL     1      -6.425  23.098  60.123  1.00  0.00    -0.299 OA
BRANCH  13  15
ATOM     15  C   UNL     1      -6.185  24.816  61.701  1.00  0.00     0.106 CG0
ATOM     16  G   UNL     1      -7.618  25.331  61.694  1.00  0.00     0.000 G0
ENDBRANCH  13  15
ENDBRANCH  12  13
BRANCH  12  17
ATOM     17  C   UNL     1      -4.438  21.519  61.661  1.00  0.00    -0.006 C 
ATOM     18  C   UNL     1      -4.706  20.404  60.637  1.00  0.00     0.008 C 
ATOM     19  C   UNL     1      -3.532  21.000  62.790  1.00  0.00     0.008 C 
ENDBRANCH  12  17
ENDBRANCH  11  12
ENDBRANCH   1  11
TORSDOF 1
ENDMDL
MODEL 3
REMARK VINA RESULT:    -3.206      2.250      4.436
REMARK INTER + INTRA:          -5.127
REMARK INTER:                  -5.024
REMARK INTRA:                  -0.103
REMARK UNBOUND:                -0.234
REMARK SMILES CC1=CCC[C@@H](C)C(=O)C[C@@H](C(C)C)C(=O)C1
REMARK SMILES IDX 8 1 9 2 6 3 7 4 5 5 4 6 3 7 2 8 1 9 10 11 11 12 15 13 16 14
REMARK SMILES IDX 17 15 12 17 13 18 14 19
REMARK H PARENT
REMARK Flexibility Score: 70.00
ROOT
ATOM      1  C   UNL     1      -0.118  28.094  68.140  1.00  0.00     0.136 C 
ATOM      2  O   UNL     1      -0.423  28.996  67.369  1.00  0.00    -0.299 OA
ENDROOT
BRANCH   1   3
ATOM      3  C   UNL     1      -0.134  26.655  67.643  1.00  0.00     0.053 C 
ATOM      4  C   UNL     1      -0.021  25.659  68.807  1.00  0.00     0.016 C 
BRANCH   3   5
ATOM      5  C   UNL     1       0.950  26.379  66.571  1.00  0.00     0.015 C 
BRANCH   5   6
ATOM      6  C   UNL     1       2.404  26.383  67.101  1.00  0.00     0.028 C 
BRANCH   6   7
ATOM      7  C   UNL     1       3.109  27.689  66.831  1.00  0.00    -0.028 C 
ATOM      8  C   UNL     1       3.716  28.457  67.769  1.00  0.00    -0.070 CG0
ATOM      9  C   UNL     1       4.407  29.717  67.311  1.00  0.00     0.039 C 
ATOM     10  G   UNL     1       3.701  28.134  69.257  1.00  0.00     0.000 G0
ENDBRANCH   6   7
ENDBRANCH   5   6
ENDBRANCH   3   5
ENDBRANCH   1   3
BRANCH   1  11
ATOM     11  C   UNL     1       0.343  28.483  69.526  1.00  0.00     0.087 C 
BRANCH  11  12
ATOM     12  C   UNL     1       1.442  29.581  69.598  1.00  0.00     0.066 C 
BRANCH  12  13
ATOM     13  C   UNL     1       2.832  29.107  70.034  1.00  0.00     0.140 C 
ATOM     14  O   UNL     1       3.271  29.543  71.090  1.00  0.00    -0.299 OA
BRANCH  13  15
ATOM     15  C   UNL     1       3.697  28.125  69.271  1.00  0.00     0.106 CG0
ATOM     16  G   UNL     1       3.712  28.450  67.784  1.00  0.00     0.000 G0
ENDBRANCH  13  15
ENDBRANCH  12  13
BRANCH  12  17
ATOM     17  C   UNL     1       1.003  30.796  70.481  1.00  0.00    -0.006 C 
ATOM     18  C   UNL     1      -0.398  30.628  71.091  1.00  0.00     0.008 C 
ATOM     19  C   UNL     1       1.105  32.139  69.739  1.00  0.00     0.008 C 
ENDBRANCH  12  17
ENDBRANCH  11  12
ENDBRANCH   1  11
TORSDOF 1
ENDMDL
MODEL 4
REMARK VINA RESULT:    -3.158      2.114      4.421
REMARK INTER + INTRA:          -5.054
REMARK INTER:                  -4.815
REMARK INTRA:                  -0.239
REMARK UNBOUND:                -0.234
REMARK SMILES CC1=CCC[C@@H](C)C(=O)C[C@@H](C(C)C)C(=O)C1
REMARK SMILES IDX 8 1 9 2 6 3 7 4 5 5 4 6 3 7 2 8 1 9 10 11 11 12 15 13 16 14
REMARK SMILES IDX 17 15 12 17 13 18 14 19
REMARK H PARENT
REMARK Flexibility Score: 70.00
ROOT
ATOM      1  C   UNL     1       0.390  27.944  70.213  1.00  0.00     0.136 C 
ATOM      2  O   UNL     1      -0.402  28.648  70.828  1.00  0.00    -0.299 OA
ENDROOT
BRANCH   1   3
ATOM      3  C   UNL     1      -0.143  26.834  69.319  1.00  0.00     0.053 C 
ATOM      4  C   UNL     1       0.618  25.518  69.544  1.00  0.00     0.016 C 
BRANCH   3   5
ATOM      5  C   UNL     1      -0.145  27.222  67.819  1.00  0.00     0.015 C 
BRANCH   5   6
ATOM      6  C   UNL     1       0.530  26.193  66.880  1.00  0.00     0.028 C 
BRANCH   6   7
ATOM      7  C   UNL     1       1.518  26.837  65.940  1.00  0.00    -0.028 C 
ATOM      8  C   UNL     1       2.796  27.164  66.255  1.00  0.00    -0.070 CG0
ATOM      9  C   UNL     1       3.657  27.768  65.174  1.00  0.00     0.039 C 
ATOM     10  G   UNL     1       3.388  26.991  67.647  1.00  0.00     0.000 G0
ENDBRANCH   6   7
ENDBRANCH   5   6
ENDBRANCH   3   5
ENDBRANCH   1   3
BRANCH   1  11
ATOM     11  C   UNL     1       1.859  28.286  70.319  1.00  0.00     0.087 C 
BRANCH  11  12
ATOM     12  C   UNL     1       2.467  29.067  69.120  1.00  0.00     0.066 C 
BRANCH  12  13
ATOM     13  C   UNL     1       3.572  28.342  68.343  1.00  0.00     0.140 C 
ATOM     14  O   UNL     1       4.669  28.882  68.288  1.00  0.00    -0.299 OA
BRANCH  13  15
ATOM     15  C   UNL     1       3.419  27.001  67.655  1.00  0.00     0.106 CG0
ATOM     16  G   UNL     1       2.794  27.162  66.276  1.00  0.00     0.000 G0
ENDBRANCH  13  15
ENDBRANCH  12  13
BRANCH  12  17
ATOM     17  C   UNL     1       2.968  30.489  69.536  1.00  0.00    -0.006 C 
ATOM     18  C   UNL     1       3.176  30.638  71.052  1.00  0.00     0.008 C 
ATOM     19  C   UNL     1       2.065  31.616  69.007  1.00  0.00     0.008 C 
ENDBRANCH  12  17
ENDBRANCH  11  12
ENDBRANCH   1  11
TORSDOF 1
ENDMDL
MODEL 5
REMARK VINA RESULT:    -2.998      3.599      6.037
REMARK INTER + INTRA:          -4.810
REMARK INTER:                  -4.708
REMARK INTRA:                  -0.101
REMARK UNBOUND:                -0.234
REMARK SMILES CC1=CCC[C@@H](C)C(=O)C[C@@H](C(C)C)C(=O)C1
REMARK SMILES IDX 8 1 9 2 6 3 7 4 5 5 4 6 3 7 2 8 1 9 10 11 11 12 15 13 16 14
REMARK SMILES IDX 17 15 12 17 13 18 14 19
REMARK H PARENT
REMARK Flexibility Score: 70.00
ROOT
ATOM      1  C   UNL     1       3.747  24.915  62.552  1.00  0.00     0.136 C 
ATOM      2  O   UNL     1       4.761  24.389  62.109  1.00  0.00    -0.299 OA
ENDROOT
BRANCH   1   3
ATOM      3  C   UNL     1       2.388  24.356  62.159  1.00  0.00     0.053 C 
ATOM      4  C   UNL     1       2.475  22.860  61.814  1.00  0.00     0.016 C 
BRANCH   3   5
ATOM      5  C   UNL     1       1.722  25.150  61.007  1.00  0.00     0.015 C 
BRANCH   5   6
ATOM      6  C   UNL     1       1.138  26.524  61.418  1.00  0.00     0.028 C 
BRANCH   6   7
ATOM      7  C   UNL     1       0.053  26.397  62.459  1.00  0.00    -0.028 C 
ATOM      8  C   UNL     1       0.122  26.885  63.722  1.00  0.00    -0.070 CG0
ATOM      9  C   UNL     1      -1.077  26.699  64.617  1.00  0.00     0.039 C 
ATOM     10  G   UNL     1       1.357  27.572  64.290  1.00  0.00     0.000 G0
ENDBRANCH   6   7
ENDBRANCH   5   6
ENDBRANCH   3   5
ENDBRANCH   1   3
BRANCH   1  11
ATOM     11  C   UNL     1       3.920  26.048  63.538  1.00  0.00     0.087 C 
BRANCH  11  12
ATOM     12  C   UNL     1       3.311  25.822  64.951  1.00  0.00     0.066 C 
BRANCH  12  13
ATOM     13  C   UNL     1       2.068  26.654  65.284  1.00  0.00     0.140 C 
ATOM     14  O   UNL     1       1.634  26.587  66.426  1.00  0.00    -0.299 OA
BRANCH  13  15
ATOM     15  C   UNL     1       1.347  27.568  64.315  1.00  0.00     0.106 CG0
ATOM     16  G   UNL     1       0.109  26.891  63.742  1.00  0.00     0.000 G0
ENDBRANCH  13  15
ENDBRANCH  12  13
BRANCH  12  17
ATOM     17  C   UNL     1       4.375  25.995  66.085  1.00  0.00    -0.006 C 
ATOM     18  C   UNL     1       5.537  26.922  65.690  1.00  0.00     0.008 C 
ATOM     19  C   UNL     1       4.916  24.653  66.605  1.00  0.00     0.008 C 
ENDBRANCH  12  17
ENDBRANCH  11  12
ENDBRANCH   1  11
TORSDOF 1
ENDMDL
MODEL 6
REMARK VINA RESULT:    -2.981      2.930      4.509
REMARK INTER + INTRA:          -4.782
REMARK INTER:                  -4.427
REMARK INTRA:                  -0.356
REMARK UNBOUND:                -0.234
REMARK SMILES CC1=CCC[C@@H](C)C(=O)C[C@@H](C(C)C)C(=O)C1
REMARK SMILES IDX 8 1 9 2 6 3 7 4 5 5 4 6 3 7 2 8 1 9 10 11 11 12 15 13 16 14
REMARK SMILES IDX 17 15 12 17 13 18 14 19
REMARK H PARENT
REMARK Flexibility Score: 70.00
ROOT
ATOM      1  C   UNL     1       0.122  27.871  66.931  1.00  0.00     0.136 C 
ATOM      2  O   UNL     1      -0.401  28.632  67.736  1.00  0.00    -0.299 OA
ENDROOT
BRANCH   1   3
ATOM      3  C   UNL     1       0.679  26.542  67.419  1.00  0.00     0.053 C 
ATOM      4  C   UNL     1      -0.120  26.004  68.617  1.00  0.00     0.016 C 
BRANCH   3   5
ATOM      5  C   UNL     1       2.191  26.610  67.749  1.00  0.00     0.015 C 
BRANCH   5   6
ATOM      6  C   UNL     1       3.117  25.958  66.693  1.00  0.00     0.028 C 
BRANCH   6   7
ATOM      7  C   UNL     1       3.994  26.969  65.997  1.00  0.00    -0.028 C 
ATOM      8  C   UNL     1       3.914  27.297  64.684  1.00  0.00    -0.070 CG0
ATOM      9  C   UNL     1       4.849  28.361  64.165  1.00  0.00     0.039 C 
ATOM     10  G   UNL     1       2.963  26.622  63.706  1.00  0.00     0.000 G0
ENDBRANCH   6   7
ENDBRANCH   5   6
ENDBRANCH   3   5
ENDBRANCH   1   3
BRANCH   1  11
ATOM     11  C   UNL     1       0.102  28.272  65.473  1.00  0.00     0.087 C 
BRANCH  11  12
ATOM     12  C   UNL     1       0.414  27.144  64.449  1.00  0.00     0.066 C 
BRANCH  12  13
ATOM     13  C   UNL     1       1.646  27.368  63.566  1.00  0.00     0.140 C 
ATOM     14  O   UNL     1       1.569  28.228  62.699  1.00  0.00    -0.299 OA
BRANCH  13  15
ATOM     15  C   UNL     1       2.958  26.620  63.694  1.00  0.00     0.106 CG0
ATOM     16  G   UNL     1       3.885  27.309  64.685  1.00  0.00     0.000 G0
ENDBRANCH  13  15
ENDBRANCH  12  13
BRANCH  12  17
ATOM     17  C   UNL     1      -0.821  26.808  63.549  1.00  0.00    -0.006 C 
ATOM     18  C   UNL     1      -1.841  27.955  63.467  1.00  0.00     0.008 C 
ATOM     19  C   UNL     1      -1.518  25.500  63.960  1.00  0.00     0.008 C 
ENDBRANCH  12  17
ENDBRANCH  11  12
ENDBRANCH   1  11
TORSDOF 1
ENDMDL
MODEL 7
REMARK VINA RESULT:    -2.965      7.933      9.288
REMARK INTER + INTRA:          -4.759
REMARK INTER:                  -4.589
REMARK INTRA:                  -0.170
REMARK UNBOUND:                -0.234
REMARK SMILES CC1=CCC[C@@H](C)C(=O)C[C@@H](C(C)C)C(=O)C1
REMARK SMILES IDX 8 1 9 2 6 3 7 4 5 5 4 6 3 7 2 8 1 9 10 11 11 12 15 13 16 14
REMARK SMILES IDX 17 15 12 17 13 18 14 19
REMARK H PARENT
REMARK Flexibility Score: 70.00
ROOT
ATOM      1  C   UNL     1       5.301  31.896  62.180  1.00  0.00     0.136 C 
ATOM      2  O   UNL     1       5.919  30.954  62.659  1.00  0.00    -0.299 OA
ENDROOT
BRANCH   1   3
ATOM      3  C   UNL     1       3.782  31.831  62.115  1.00  0.00     0.053 C 
ATOM      4  C   UNL     1       3.274  30.391  62.286  1.00  0.00     0.016 C 
BRANCH   3   5
ATOM      5  C   UNL     1       3.209  32.470  60.825  1.00  0.00     0.015 C 
BRANCH   5   6
ATOM      6  C   UNL     1       2.343  33.733  61.053  1.00  0.00     0.028 C 
BRANCH   6   7
ATOM      7  C   UNL     1       2.424  34.234  62.473  1.00  0.00    -0.028 C 
ATOM      8  C   UNL     1       3.282  35.186  62.917  1.00  0.00    -0.070 CG0
ATOM      9  C   UNL     1       3.196  35.592  64.366  1.00  0.00     0.039 C 
ATOM     10  G   UNL     1       4.346  35.831  62.040  1.00  0.00     0.000 G0
ENDBRANCH   6   7
ENDBRANCH   5   6
ENDBRANCH   3   5
ENDBRANCH   1   3
BRANCH   1  11
ATOM     11  C   UNL     1       6.094  33.113  61.759  1.00  0.00     0.087 C 
BRANCH  11  12
ATOM     12  C   UNL     1       6.338  34.184  62.859  1.00  0.00     0.066 C 
BRANCH  12  13
ATOM     13  C   UNL     1       5.749  35.571  62.583  1.00  0.00     0.140 C 
ATOM     14  O   UNL     1       6.462  36.541  62.804  1.00  0.00    -0.299 OA
BRANCH  13  15
ATOM     15  C   UNL     1       4.360  35.836  62.039  1.00  0.00     0.106 CG0
ATOM     16  G   UNL     1       3.296  35.200  62.923  1.00  0.00     0.000 G0
ENDBRANCH  13  15
ENDBRANCH  12  13
BRANCH  12  17
ATOM     17  C   UNL     1       7.854  34.323  63.219  1.00  0.00    -0.006 C 
ATOM     18  C   UNL     1       8.765  33.425  62.365  1.00  0.00     0.008 C 
ATOM     19  C   UNL     1       8.134  34.098  64.715  1.00  0.00     0.008 C 
ENDBRANCH  12  17
ENDBRANCH  11  12
ENDBRANCH   1  11
TORSDOF 1
ENDMDL
MODEL 8
REMARK VINA RESULT:    -2.944      1.956      4.037
REMARK INTER + INTRA:          -4.727
REMARK INTER:                  -4.364
REMARK INTRA:                  -0.363
REMARK UNBOUND:                -0.234
REMARK SMILES CC1=CCC[C@@H](C)C(=O)C[C@@H](C(C)C)C(=O)C1
REMARK SMILES IDX 8 1 9 2 6 3 7 4 5 5 4 6 3 7 2 8 1 9 10 11 11 12 15 13 16 14
REMARK SMILES IDX 17 15 12 17 13 18 14 19
REMARK H PARENT
REMARK Flexibility Score: 70.00
ROOT
ATOM      1  C   UNL     1       3.519  26.002  65.661  1.00  0.00     0.136 C 
ATOM      2  O   UNL     1       4.094  24.936  65.474  1.00  0.00    -0.299 OA
ENDROOT
BRANCH   1   3
ATOM      3  C   UNL     1       3.679  27.120  64.643  1.00  0.00     0.053 C 
ATOM      4  C   UNL     1       3.409  26.622  63.215  1.00  0.00     0.016 C 
BRANCH   3   5
ATOM      5  C   UNL     1       5.058  27.821  64.732  1.00  0.00     0.015 C 
BRANCH   5   6
ATOM      6  C   UNL     1       5.504  28.197  66.167  1.00  0.00     0.028 C 
BRANCH   6   7
ATOM      7  C   UNL     1       5.012  29.561  66.581  1.00  0.00    -0.028 C 
ATOM      8  C   UNL     1       4.138  29.802  67.589  1.00  0.00    -0.070 CG0
ATOM      9  C   UNL     1       3.786  31.237  67.890  1.00  0.00     0.039 C 
ATOM     10  G   UNL     1       3.470  28.702  68.401  1.00  0.00     0.000 G0
ENDBRANCH   6   7
ENDBRANCH   5   6
ENDBRANCH   3   5
ENDBRANCH   1   3
BRANCH   1  11
ATOM     11  C   UNL     1       2.610  26.104  66.865  1.00  0.00     0.087 C 
BRANCH  11  12
ATOM     12  C   UNL     1       1.680  27.349  66.915  1.00  0.00     0.066 C 
BRANCH  12  13
ATOM     13  C   UNL     1       2.063  28.428  67.934  1.00  0.00     0.140 C 
ATOM     14  O   UNL     1       1.159  29.106  68.403  1.00  0.00    -0.299 OA
BRANCH  13  15
ATOM     15  C   UNL     1       3.470  28.707  68.421  1.00  0.00     0.106 CG0
ATOM     16  G   UNL     1       4.134  29.792  67.583  1.00  0.00     0.000 G0
ENDBRANCH  13  15
ENDBRANCH  12  13
BRANCH  12  17
ATOM     17  C   UNL     1       0.179  26.956  67.110  1.00  0.00    -0.006 C 
ATOM     18  C   UNL     1      -0.027  25.854  68.163  1.00  0.00     0.008 C 
ATOM     19  C   UNL     1      -0.512  26.570  65.791  1.00  0.00     0.008 C 
ENDBRANCH  12  17
ENDBRANCH  11  12
ENDBRANCH   1  11
TORSDOF 1
ENDMDL
MODEL 9
REMARK VINA RESULT:    -2.868      3.240      5.289
REMARK INTER + INTRA:          -4.611
REMARK INTER:                  -4.361
REMARK INTRA:                  -0.250
REMARK UNBOUND:                -0.234
REMARK SMILES CC1=CCC[C@@H](C)C(=O)C[C@@H](C(C)C)C(=O)C1
REMARK SMILES IDX 8 1 9 2 6 3 7 4 5 5 4 6 3 7 2 8 1 9 10 11 11 12 15 13 16 14
REMARK SMILES IDX 17 15 12 17 13 18 14 19
REMARK H PARENT
REMARK Flexibility Score: 70.00
ROOT
ATOM      1  C   UNL     1       1.571  26.637  67.187  1.00  0.00     0.136 C 
ATOM      2  O   UNL     1       1.492  26.545  68.406  1.00  0.00    -0.299 OA
ENDROOT
BRANCH   1   3
ATOM      3  C   UNL     1       0.622  27.571  66.451  1.00  0.00     0.053 C 
ATOM      4  C   UNL     1      -0.280  28.340  67.429  1.00  0.00     0.016 C 
BRANCH   3   5
ATOM      5  C   UNL     1      -0.223  26.842  65.376  1.00  0.00     0.015 C 
BRANCH   5   6
ATOM      6  C   UNL     1       0.176  27.153  63.913  1.00  0.00     0.028 C 
BRANCH   6   7
ATOM      7  C   UNL     1       0.419  25.902  63.107  1.00  0.00    -0.028 C 
ATOM      8  C   UNL     1       1.626  25.497  62.639  1.00  0.00    -0.070 CG0
ATOM      9  C   UNL     1       1.688  24.195  61.881  1.00  0.00     0.039 C 
ATOM     10  G   UNL     1       2.905  26.307  62.805  1.00  0.00     0.000 G0
ENDBRANCH   6   7
ENDBRANCH   5   6
ENDBRANCH   3   5
ENDBRANCH   1   3
BRANCH   1  11
ATOM     11  C   UNL     1       2.678  25.872  66.497  1.00  0.00     0.087 C 
BRANCH  11  12
ATOM     12  C   UNL     1       3.477  26.653  65.415  1.00  0.00     0.066 C 
BRANCH  12  13
ATOM     13  C   UNL     1       3.647  25.943  64.068  1.00  0.00     0.140 C 
ATOM     14  O   UNL     1       4.424  24.999  64.023  1.00  0.00    -0.299 OA
BRANCH  13  15
ATOM     15  C   UNL     1       2.914  26.306  62.793  1.00  0.00     0.106 CG0
ATOM     16  G   UNL     1       1.627  25.504  62.655  1.00  0.00     0.000 G0
ENDBRANCH  13  15
ENDBRANCH  12  13
BRANCH  12  17
ATOM     17  C   UNL     1       4.874  27.121  65.940  1.00  0.00    -0.006 C 
ATOM     18  C   UNL     1       5.415  26.249  67.085  1.00  0.00     0.008 C 
ATOM     19  C   UNL     1       4.893  28.605  66.344  1.00  0.00     0.008 C 
ENDBRANCH  12  17
ENDBRANCH  11  12
ENDBRANCH   1  11
TORSDOF 1
ENDMDL
