MODEL 1
REMARK VINA RESULT:    24.273      0.000      0.000
REMARK INTER + INTRA:          28.250
REMARK INTER:                  28.530
REMARK INTRA:                  -0.280
REMARK UNBOUND:                -0.280
REMARK SMILES O=c1cc(-c2ccc(O)c(O)c2)oc2cc(O)cc(O)c12
REMARK SMILES IDX 4 1 3 2 2 3 1 4 21 5 19 6 18 7 16 8 15 9 14 10 13 11 5 12
REMARK SMILES IDX 6 13 7 14 8 15 12 16 10 17 9 18 11 20 20 22 17 24
REMARK H PARENT 9 19 11 21 20 23 17 25
REMARK Flexibility Score: inf
ROOT
ATOM      1  C   UNL     1      16.323  52.703  24.168  1.00  0.00     0.138 A 
ATOM      2  C   UNL     1      16.624  51.730  23.205  1.00  0.00     0.100 A 
ATOM      3  C   UNL     1      17.160  50.506  23.605  1.00  0.00     0.197 A 
ATOM      4  O   UNL     1      17.472  49.675  22.713  1.00  0.00    -0.289 OA
ATOM      5  C   UNL     1      17.362  50.242  24.981  1.00  0.00     0.107 A 
ATOM      6  C   UNL     1      17.872  49.016  25.509  1.00  0.00     0.134 A 
ATOM      7  C   UNL     1      18.121  48.908  26.883  1.00  0.00     0.093 A 
ATOM      8  C   UNL     1      17.826  49.960  27.755  1.00  0.00     0.123 A 
ATOM      9  C   UNL     1      17.283  51.141  27.256  1.00  0.00     0.094 A 
ATOM     10  C   UNL     1      17.054  51.293  25.886  1.00  0.00     0.146 A 
ATOM     11  O   UNL     1      16.552  52.443  25.450  1.00  0.00    -0.456 OA
ENDROOT
BRANCH   1  12
ATOM     12  C   UNL     1      15.748  54.022  23.798  1.00  0.00     0.021 A 
ATOM     13  C   UNL     1      14.752  54.639  24.576  1.00  0.00     0.016 A 
ATOM     14  C   UNL     1      14.224  55.875  24.197  1.00  0.00     0.051 A 
ATOM     15  C   UNL     1      14.669  56.518  23.038  1.00  0.00     0.157 A 
ATOM     16  C   UNL     1      16.185  54.663  22.626  1.00  0.00     0.062 A 
ATOM     17  C   UNL     1      15.661  55.902  22.240  1.00  0.00     0.158 A 
BRANCH  15  18
ATOM     18  O   UNL     1      14.101  57.753  22.719  1.00  0.00    -0.504 OA
ATOM     19  H   UNL     1      13.147  57.874  22.409  1.00  0.00     0.293 HD
ENDBRANCH  15  18
BRANCH  17  20
ATOM     20  O   UNL     1      16.151  56.481  21.068  1.00  0.00    -0.504 OA
ATOM     21  H   UNL     1      16.024  56.087  20.147  1.00  0.00     0.293 HD
ENDBRANCH  17  20
ENDBRANCH   1  12
BRANCH   6  22
ATOM     22  O   UNL     1      18.125  47.876  24.740  1.00  0.00    -0.507 OA
ATOM     23  H   UNL     1      18.289  47.873  23.745  1.00  0.00     0.293 HD
ENDBRANCH   6  22
BRANCH   8  24
ATOM     24  O   UNL     1      18.063  49.837  29.122  1.00  0.00    -0.508 OA
ATOM     25  H   UNL     1      17.333  50.005  29.804  1.00  0.00     0.293 HD
ENDBRANCH   8  24
TORSDOF 5
ENDMDL
MODEL 2
REMARK VINA RESULT:    26.611      1.372      7.376
REMARK INTER + INTRA:          30.998
REMARK INTER:                  31.265
REMARK INTRA:                  -0.267
REMARK UNBOUND:                -0.280
REMARK SMILES O=c1cc(-c2ccc(O)c(O)c2)oc2cc(O)cc(O)c12
REMARK SMILES IDX 4 1 3 2 2 3 1 4 21 5 19 6 18 7 16 8 15 9 14 10 13 11 5 12
REMARK SMILES IDX 6 13 7 14 8 15 12 16 10 17 9 18 11 20 20 22 17 24
REMARK H PARENT 9 19 11 21 20 23 17 25
REMARK Flexibility Score: inf
ROOT
ATOM      1  C   UNL     1      16.134  52.852  24.567  1.00  0.00     0.138 A 
ATOM      2  C   UNL     1      15.093  53.531  25.216  1.00  0.00     0.100 A 
ATOM      3  C   UNL     1      14.634  54.743  24.702  1.00  0.00     0.197 A 
ATOM      4  O   UNL     1      13.737  55.355  25.337  1.00  0.00    -0.289 OA
ATOM      5  C   UNL     1      15.198  55.262  23.511  1.00  0.00     0.107 A 
ATOM      6  C   UNL     1      14.787  56.473  22.875  1.00  0.00     0.134 A 
ATOM      7  C   UNL     1      15.487  56.935  21.754  1.00  0.00     0.093 A 
ATOM      8  C   UNL     1      16.546  56.201  21.211  1.00  0.00     0.123 A 
ATOM      9  C   UNL     1      16.921  54.994  21.794  1.00  0.00     0.094 A 
ATOM     10  C   UNL     1      16.266  54.523  22.934  1.00  0.00     0.146 A 
ATOM     11  O   UNL     1      16.668  53.376  23.470  1.00  0.00    -0.456 OA
ENDROOT
BRANCH   1  12
ATOM     12  C   UNL     1      16.659  51.557  25.069  1.00  0.00     0.021 A 
ATOM     13  C   UNL     1      16.653  50.397  24.273  1.00  0.00     0.016 A 
ATOM     14  C   UNL     1      17.145  49.191  24.776  1.00  0.00     0.051 A 
ATOM     15  C   UNL     1      17.645  49.111  26.079  1.00  0.00     0.157 A 
ATOM     16  C   UNL     1      17.150  51.472  26.383  1.00  0.00     0.062 A 
ATOM     17  C   UNL     1      17.646  50.266  26.894  1.00  0.00     0.158 A 
BRANCH  15  18
ATOM     18  O   UNL     1      18.124  47.875  26.519  1.00  0.00    -0.504 OA
ATOM     19  H   UNL     1      18.583  47.731  27.407  1.00  0.00     0.293 HD
ENDBRANCH  15  18
BRANCH  17  20
ATOM     20  O   UNL     1      18.125  50.262  28.206  1.00  0.00    -0.504 OA
ATOM     21  H   UNL     1      17.718  50.799  28.958  1.00  0.00     0.293 HD
ENDBRANCH  17  20
ENDBRANCH   1  12
BRANCH   6  22
ATOM     22  O   UNL     1      13.694  57.242  23.286  1.00  0.00    -0.507 OA
ATOM     23  H   UNL     1      12.985  57.614  22.673  1.00  0.00     0.293 HD
ENDBRANCH   6  22
BRANCH   8  24
ATOM     24  O   UNL     1      17.225  56.662  20.086  1.00  0.00    -0.508 OA
ATOM     25  H   UNL     1      18.213  56.885  20.117  1.00  0.00     0.293 HD
ENDBRANCH   8  24
TORSDOF 5
ENDMDL
