MODEL 1
REMARK VINA RESULT:    -6.893      0.000      0.000
REMARK INTER + INTRA:          -7.497
REMARK INTER:                  -7.497
REMARK INTRA:                   0.000
REMARK UNBOUND:                 0.000
REMARK SMILES Cc1cc(O)c2c(c1)C(=O)c1cc(O)cc(O)c1C2=O
REMARK SMILES IDX 1 1 2 2 8 3 7 4 6 5 4 6 3 7 19 8 20 9 18 10 11 11 9 12 10 13
REMARK SMILES IDX 12 14 13 15 15 16 16 17 5 18 17 20 14 22
REMARK H PARENT 5 19 17 21 14 23
REMARK Flexibility Score: inf
ROOT
ATOM      1  C   UNL     1     -44.128  35.239  -8.396  1.00  0.00     0.044 C 
ATOM      2  C   UNL     1     -44.239  35.322  -6.902  1.00  0.00    -0.047 A 
ATOM      3  C   UNL     1     -43.298  34.681  -6.090  1.00  0.00     0.016 A 
ATOM      4  C   UNL     1     -43.411  34.724  -4.689  1.00  0.00     0.038 A 
ATOM      5  C   UNL     1     -44.496  35.401  -4.093  1.00  0.00     0.076 A 
ATOM      6  C   UNL     1     -45.452  36.037  -4.919  1.00  0.00     0.127 A 
ATOM      7  C   UNL     1     -45.320  35.985  -6.312  1.00  0.00     0.050 A 
ATOM      8  C   UNL     1     -44.623  35.404  -2.612  1.00  0.00     0.201 C 
ATOM      9  O   UNL     1     -45.735  35.674  -2.085  1.00  0.00    -0.288 OA
ATOM     10  C   UNL     1     -43.477  34.976  -1.762  1.00  0.00     0.076 A 
ATOM     11  C   UNL     1     -42.428  34.242  -2.367  1.00  0.00     0.041 A 
ATOM     12  C   UNL     1     -42.402  34.057  -3.836  1.00  0.00     0.194 C 
ATOM     13  O   UNL     1     -41.504  33.343  -4.365  1.00  0.00    -0.289 OA
ATOM     14  C   UNL     1     -41.405  33.697  -1.570  1.00  0.00     0.059 A 
ATOM     15  C   UNL     1     -41.404  33.886  -0.190  1.00  0.00     0.120 A 
ATOM     16  C   UNL     1     -42.409  34.649   0.408  1.00  0.00     0.093 A 
ATOM     17  C   UNL     1     -43.423  35.225  -0.363  1.00  0.00     0.131 A 
ENDROOT
BRANCH   6  18
ATOM     18  O   UNL     1     -46.529  36.726  -4.360  1.00  0.00    -0.507 OA
ATOM     19  H   UNL     1     -46.832  37.623  -4.720  1.00  0.00     0.293 HD
ENDBRANCH   6  18
BRANCH  17  20
ATOM     20  O   UNL     1     -44.327  36.062   0.296  1.00  0.00    -0.507 OA
ATOM     21  H   UNL     1     -45.209  36.356  -0.097  1.00  0.00     0.293 HD
ENDBRANCH  17  20
BRANCH  15  22
ATOM     22  O   UNL     1     -40.389  33.321   0.580  1.00  0.00    -0.508 OA
ATOM     23  H   UNL     1     -39.443  33.683   0.559  1.00  0.00     0.293 HD
ENDBRANCH  15  22
TORSDOF 3
ENDMDL
MODEL 2
REMARK VINA RESULT:    -6.761      1.802      6.096
REMARK INTER + INTRA:          -7.354
REMARK INTER:                  -7.354
REMARK INTRA:                   0.000
REMARK UNBOUND:                 0.000
REMARK SMILES Cc1cc(O)c2c(c1)C(=O)c1cc(O)cc(O)c1C2=O
REMARK SMILES IDX 1 1 2 2 8 3 7 4 6 5 4 6 3 7 19 8 20 9 18 10 11 11 9 12 10 13
REMARK SMILES IDX 12 14 13 15 15 16 16 17 5 18 17 20 14 22
REMARK H PARENT 5 19 17 21 14 23
REMARK Flexibility Score: inf
ROOT
ATOM      1  C   UNL     1     -44.122  38.330   2.367  1.00  0.00     0.044 C 
ATOM      2  C   UNL     1     -43.556  37.252   1.488  1.00  0.00    -0.047 A 
ATOM      3  C   UNL     1     -43.999  37.117   0.168  1.00  0.00     0.016 A 
ATOM      4  C   UNL     1     -43.501  36.090  -0.654  1.00  0.00     0.038 A 
ATOM      5  C   UNL     1     -42.561  35.173  -0.139  1.00  0.00     0.076 A 
ATOM      6  C   UNL     1     -42.126  35.306   1.200  1.00  0.00     0.127 A 
ATOM      7  C   UNL     1     -42.632  36.337   2.001  1.00  0.00     0.050 A 
ATOM      8  C   UNL     1     -42.074  34.070  -1.009  1.00  0.00     0.201 C 
ATOM      9  O   UNL     1     -41.537  33.058  -0.485  1.00  0.00    -0.288 OA
ATOM     10  C   UNL     1     -42.326  34.107  -2.477  1.00  0.00     0.076 A 
ATOM     11  C   UNL     1     -43.318  34.990  -2.967  1.00  0.00     0.041 A 
ATOM     12  C   UNL     1     -43.963  35.963  -2.055  1.00  0.00     0.194 C 
ATOM     13  O   UNL     1     -44.897  36.700  -2.479  1.00  0.00    -0.289 OA
ATOM     14  C   UNL     1     -43.684  34.948  -4.324  1.00  0.00     0.059 A 
ATOM     15  C   UNL     1     -43.068  34.055  -5.198  1.00  0.00     0.120 A 
ATOM     16  C   UNL     1     -42.054  33.215  -4.732  1.00  0.00     0.093 A 
ATOM     17  C   UNL     1     -41.652  33.255  -3.394  1.00  0.00     0.131 A 
ENDROOT
BRANCH   6  18
ATOM     18  O   UNL     1     -41.187  34.423   1.734  1.00  0.00    -0.507 OA
ATOM     19  H   UNL     1     -40.511  33.947   1.150  1.00  0.00     0.293 HD
ENDBRANCH   6  18
BRANCH  17  20
ATOM     20  O   UNL     1     -40.559  32.461  -3.033  1.00  0.00    -0.507 OA
ATOM     21  H   UNL     1     -40.644  31.563  -2.581  1.00  0.00     0.293 HD
ENDBRANCH  17  20
BRANCH  15  22
ATOM     22  O   UNL     1     -43.460  34.020  -6.534  1.00  0.00    -0.508 OA
ATOM     23  H   UNL     1     -43.336  34.819  -7.145  1.00  0.00     0.293 HD
ENDBRANCH  15  22
TORSDOF 3
ENDMDL
MODEL 3
REMARK VINA RESULT:    -6.712      1.751      4.014
REMARK INTER + INTRA:          -7.300
REMARK INTER:                  -7.300
REMARK INTRA:                   0.000
REMARK UNBOUND:                 0.000
REMARK SMILES Cc1cc(O)c2c(c1)C(=O)c1cc(O)cc(O)c1C2=O
REMARK SMILES IDX 1 1 2 2 8 3 7 4 6 5 4 6 3 7 19 8 20 9 18 10 11 11 9 12 10 13
REMARK SMILES IDX 12 14 13 15 15 16 16 17 5 18 17 20 14 22
REMARK H PARENT 5 19 17 21 14 23
REMARK Flexibility Score: inf
ROOT
ATOM      1  C   UNL     1     -43.678  34.057  -6.643  1.00  0.00     0.044 C 
ATOM      2  C   UNL     1     -43.233  34.211  -5.218  1.00  0.00    -0.047 A 
ATOM      3  C   UNL     1     -43.749  35.243  -4.427  1.00  0.00     0.016 A 
ATOM      4  C   UNL     1     -43.314  35.417  -3.101  1.00  0.00     0.038 A 
ATOM      5  C   UNL     1     -42.331  34.557  -2.567  1.00  0.00     0.076 A 
ATOM      6  C   UNL     1     -41.803  33.524  -3.375  1.00  0.00     0.127 A 
ATOM      7  C   UNL     1     -42.251  33.365  -4.692  1.00  0.00     0.050 A 
ATOM      8  C   UNL     1     -41.853  34.779  -1.177  1.00  0.00     0.201 C 
ATOM      9  O   UNL     1     -40.756  34.280  -0.811  1.00  0.00    -0.288 OA
ATOM     10  C   UNL     1     -42.606  35.682  -0.262  1.00  0.00     0.076 A 
ATOM     11  C   UNL     1     -43.543  36.581  -0.825  1.00  0.00     0.041 A 
ATOM     12  C   UNL     1     -43.876  36.502  -2.266  1.00  0.00     0.194 C 
ATOM     13  O   UNL     1     -44.659  37.350  -2.779  1.00  0.00    -0.289 OA
ATOM     14  C   UNL     1     -44.163  37.546  -0.011  1.00  0.00     0.059 A 
ATOM     15  C   UNL     1     -43.878  37.615   1.351  1.00  0.00     0.120 A 
ATOM     16  C   UNL     1     -42.992  36.700   1.922  1.00  0.00     0.093 A 
ATOM     17  C   UNL     1     -42.381  35.714   1.142  1.00  0.00     0.131 A 
ENDROOT
BRANCH   6  18
ATOM     18  O   UNL     1     -40.840  32.649  -2.871  1.00  0.00    -0.507 OA
ATOM     19  H   UNL     1     -39.893  32.633  -3.231  1.00  0.00     0.293 HD
ENDBRANCH   6  18
BRANCH  17  20
ATOM     20  O   UNL     1     -41.593  34.771   1.808  1.00  0.00    -0.507 OA
ATOM     21  H   UNL     1     -41.032  34.982   2.620  1.00  0.00     0.293 HD
ENDBRANCH  17  20
BRANCH  15  22
ATOM     22  O   UNL     1     -44.493  38.591   2.133  1.00  0.00    -0.508 OA
ATOM     23  H   UNL     1     -44.295  38.678   3.123  1.00  0.00     0.293 HD
ENDBRANCH  15  22
TORSDOF 3
ENDMDL
MODEL 4
REMARK VINA RESULT:    -6.652      2.319      6.034
REMARK INTER + INTRA:          -7.235
REMARK INTER:                  -7.235
REMARK INTRA:                   0.000
REMARK UNBOUND:                 0.000
REMARK SMILES Cc1cc(O)c2c(c1)C(=O)c1cc(O)cc(O)c1C2=O
REMARK SMILES IDX 1 1 2 2 8 3 7 4 6 5 4 6 3 7 19 8 20 9 18 10 11 11 9 12 10 13
REMARK SMILES IDX 12 14 13 15 15 16 16 17 5 18 17 20 14 22
REMARK H PARENT 5 19 17 21 14 23
REMARK Flexibility Score: inf
ROOT
ATOM      1  C   UNL     1     -41.516  34.502   1.430  1.00  0.00     0.044 C 
ATOM      2  C   UNL     1     -42.033  34.453   0.021  1.00  0.00    -0.047 A 
ATOM      3  C   UNL     1     -42.134  35.628  -0.732  1.00  0.00     0.016 A 
ATOM      4  C   UNL     1     -42.648  35.599  -2.041  1.00  0.00     0.038 A 
ATOM      5  C   UNL     1     -43.089  34.378  -2.594  1.00  0.00     0.076 A 
ATOM      6  C   UNL     1     -42.997  33.196  -1.824  1.00  0.00     0.127 A 
ATOM      7  C   UNL     1     -42.479  33.245  -0.524  1.00  0.00     0.050 A 
ATOM      8  C   UNL     1     -43.666  34.371  -3.964  1.00  0.00     0.201 C 
ATOM      9  O   UNL     1     -44.380  33.400  -4.332  1.00  0.00    -0.288 OA
ATOM     10  C   UNL     1     -43.502  35.556  -4.852  1.00  0.00     0.076 A 
ATOM     11  C   UNL     1     -43.120  36.787  -4.267  1.00  0.00     0.041 A 
ATOM     12  C   UNL     1     -42.737  36.844  -2.837  1.00  0.00     0.194 C 
ATOM     13  O   UNL     1     -42.465  37.954  -2.301  1.00  0.00    -0.289 OA
ATOM     14  C   UNL     1     -43.097  37.956  -5.048  1.00  0.00     0.059 A 
ATOM     15  C   UNL     1     -43.431  37.913  -6.399  1.00  0.00     0.120 A 
ATOM     16  C   UNL     1     -43.762  36.694  -6.995  1.00  0.00     0.093 A 
ATOM     17  C   UNL     1     -43.767  35.512  -6.249  1.00  0.00     0.131 A 
ENDROOT
BRANCH   6  18
ATOM     18  O   UNL     1     -43.411  31.971  -2.348  1.00  0.00    -0.507 OA
ATOM     19  H   UNL     1     -44.388  31.770  -2.527  1.00  0.00     0.293 HD
ENDBRANCH   6  18
BRANCH  17  20
ATOM     20  O   UNL     1     -44.002  34.322  -6.941  1.00  0.00    -0.507 OA
ATOM     21  H   UNL     1     -44.746  33.678  -6.714  1.00  0.00     0.293 HD
ENDBRANCH  17  20
BRANCH  15  22
ATOM     22  O   UNL     1     -43.418  39.088  -7.149  1.00  0.00    -0.508 OA
ATOM     23  H   UNL     1     -42.631  39.725  -7.123  1.00  0.00     0.293 HD
ENDBRANCH  15  22
TORSDOF 3
ENDMDL
MODEL 5
REMARK VINA RESULT:    -6.615      1.647      2.990
REMARK INTER + INTRA:          -7.195
REMARK INTER:                  -7.195
REMARK INTRA:                   0.000
REMARK UNBOUND:                 0.000
REMARK SMILES Cc1cc(O)c2c(c1)C(=O)c1cc(O)cc(O)c1C2=O
REMARK SMILES IDX 1 1 2 2 8 3 7 4 6 5 4 6 3 7 19 8 20 9 18 10 11 11 9 12 10 13
REMARK SMILES IDX 12 14 13 15 15 16 16 17 5 18 17 20 14 22
REMARK H PARENT 5 19 17 21 14 23
REMARK Flexibility Score: inf
ROOT
ATOM      1  C   UNL     1     -47.284  34.864  -6.557  1.00  0.00     0.044 C 
ATOM      2  C   UNL     1     -45.957  34.973  -5.865  1.00  0.00    -0.047 A 
ATOM      3  C   UNL     1     -45.859  34.728  -4.491  1.00  0.00     0.016 A 
ATOM      4  C   UNL     1     -44.627  34.860  -3.825  1.00  0.00     0.038 A 
ATOM      5  C   UNL     1     -43.482  35.266  -4.542  1.00  0.00     0.076 A 
ATOM      6  C   UNL     1     -43.590  35.525  -5.928  1.00  0.00     0.127 A 
ATOM      7  C   UNL     1     -44.824  35.385  -6.573  1.00  0.00     0.050 A 
ATOM      8  C   UNL     1     -42.197  35.439  -3.816  1.00  0.00     0.201 C 
ATOM      9  O   UNL     1     -41.278  36.128  -4.336  1.00  0.00    -0.288 OA
ATOM     10  C   UNL     1     -42.038  34.902  -2.435  1.00  0.00     0.076 A 
ATOM     11  C   UNL     1     -43.205  34.561  -1.709  1.00  0.00     0.041 A 
ATOM     12  C   UNL     1     -44.528  34.584  -2.374  1.00  0.00     0.194 C 
ATOM     13  O   UNL     1     -45.573  34.347  -1.705  1.00  0.00    -0.289 OA
ATOM     14  C   UNL     1     -43.103  34.191  -0.356  1.00  0.00     0.059 A 
ATOM     15  C   UNL     1     -41.862  34.140   0.274  1.00  0.00     0.120 A 
ATOM     16  C   UNL     1     -40.703  34.429  -0.449  1.00  0.00     0.093 A 
ATOM     17  C   UNL     1     -40.772  34.774  -1.801  1.00  0.00     0.131 A 
ENDROOT
BRANCH   6  18
ATOM     18  O   UNL     1     -42.472  35.914  -6.668  1.00  0.00    -0.507 OA
ATOM     19  H   UNL     1     -42.558  36.466  -7.513  1.00  0.00     0.293 HD
ENDBRANCH   6  18
BRANCH  17  20
ATOM     20  O   UNL     1     -39.561  34.941  -2.479  1.00  0.00    -0.507 OA
ATOM     21  H   UNL     1     -39.027  34.179  -2.870  1.00  0.00     0.293 HD
ENDBRANCH  17  20
BRANCH  15  22
ATOM     22  O   UNL     1     -41.789  33.788   1.621  1.00  0.00    -0.508 OA
ATOM     23  H   UNL     1     -40.899  33.654   2.086  1.00  0.00     0.293 HD
ENDBRANCH  15  22
TORSDOF 3
ENDMDL
MODEL 6
REMARK VINA RESULT:    -6.592      1.803      3.586
REMARK INTER + INTRA:          -7.171
REMARK INTER:                  -7.171
REMARK INTRA:                   0.000
REMARK UNBOUND:                 0.000
REMARK SMILES Cc1cc(O)c2c(c1)C(=O)c1cc(O)cc(O)c1C2=O
REMARK SMILES IDX 1 1 2 2 8 3 7 4 6 5 4 6 3 7 19 8 20 9 18 10 11 11 9 12 10 13
REMARK SMILES IDX 12 14 13 15 15 16 16 17 5 18 17 20 14 22
REMARK H PARENT 5 19 17 21 14 23
REMARK Flexibility Score: inf
ROOT
ATOM      1  C   UNL     1     -48.431  37.280  -3.623  1.00  0.00     0.044 C 
ATOM      2  C   UNL     1     -47.138  36.530  -3.487  1.00  0.00    -0.047 A 
ATOM      3  C   UNL     1     -46.442  36.542  -2.273  1.00  0.00     0.016 A 
ATOM      4  C   UNL     1     -45.213  35.871  -2.144  1.00  0.00     0.038 A 
ATOM      5  C   UNL     1     -44.662  35.198  -3.254  1.00  0.00     0.076 A 
ATOM      6  C   UNL     1     -45.362  35.200  -4.483  1.00  0.00     0.127 A 
ATOM      7  C   UNL     1     -46.586  35.871  -4.590  1.00  0.00     0.050 A 
ATOM      8  C   UNL     1     -43.343  34.527  -3.112  1.00  0.00     0.201 C 
ATOM      9  O   UNL     1     -42.677  34.243  -4.143  1.00  0.00    -0.288 OA
ATOM     10  C   UNL     1     -42.760  34.301  -1.760  1.00  0.00     0.076 A 
ATOM     11  C   UNL     1     -43.286  35.034  -0.669  1.00  0.00     0.041 A 
ATOM     12  C   UNL     1     -44.491  35.875  -0.852  1.00  0.00     0.194 C 
ATOM     13  O   UNL     1     -44.916  36.583   0.104  1.00  0.00    -0.289 OA
ATOM     14  C   UNL     1     -42.667  34.956   0.591  1.00  0.00     0.059 A 
ATOM     15  C   UNL     1     -41.548  34.148   0.782  1.00  0.00     0.120 A 
ATOM     16  C   UNL     1     -41.052  33.385  -0.277  1.00  0.00     0.093 A 
ATOM     17  C   UNL     1     -41.664  33.423  -1.533  1.00  0.00     0.131 A 
ENDROOT
BRANCH   6  18
ATOM     18  O   UNL     1     -44.850  34.531  -5.595  1.00  0.00    -0.507 OA
ATOM     19  H   UNL     1     -45.244  33.656  -5.920  1.00  0.00     0.293 HD
ENDBRANCH   6  18
BRANCH  17  20
ATOM     20  O   UNL     1     -41.175  32.549  -2.507  1.00  0.00    -0.507 OA
ATOM     21  H   UNL     1     -40.199  32.311  -2.609  1.00  0.00     0.293 HD
ENDBRANCH  17  20
BRANCH  15  22
ATOM     22  O   UNL     1     -40.941  34.101   2.036  1.00  0.00    -0.508 OA
ATOM     23  H   UNL     1     -40.449  34.901   2.418  1.00  0.00     0.293 HD
ENDBRANCH  15  22
TORSDOF 3
ENDMDL
MODEL 7
REMARK VINA RESULT:    -6.570      1.797      6.148
REMARK INTER + INTRA:          -7.147
REMARK INTER:                  -7.147
REMARK INTRA:                   0.000
REMARK UNBOUND:                 0.000
REMARK SMILES Cc1cc(O)c2c(c1)C(=O)c1cc(O)cc(O)c1C2=O
REMARK SMILES IDX 1 1 2 2 8 3 7 4 6 5 4 6 3 7 19 8 20 9 18 10 11 11 9 12 10 13
REMARK SMILES IDX 12 14 13 15 15 16 16 17 5 18 17 20 14 22
REMARK H PARENT 5 19 17 21 14 23
REMARK Flexibility Score: inf
ROOT
ATOM      1  C   UNL     1     -42.786  37.235   2.069  1.00  0.00     0.044 C 
ATOM      2  C   UNL     1     -42.770  36.417   0.810  1.00  0.00    -0.047 A 
ATOM      3  C   UNL     1     -43.221  36.970  -0.394  1.00  0.00     0.016 A 
ATOM      4  C   UNL     1     -43.242  36.203  -1.572  1.00  0.00     0.038 A 
ATOM      5  C   UNL     1     -42.825  34.855  -1.539  1.00  0.00     0.076 A 
ATOM      6  C   UNL     1     -42.383  34.297  -0.317  1.00  0.00     0.127 A 
ATOM      7  C   UNL     1     -42.367  35.078   0.845  1.00  0.00     0.050 A 
ATOM      8  C   UNL     1     -42.891  34.046  -2.784  1.00  0.00     0.201 C 
ATOM      9  O   UNL     1     -42.876  32.788  -2.709  1.00  0.00    -0.288 OA
ATOM     10  C   UNL     1     -43.092  34.714  -4.101  1.00  0.00     0.076 A 
ATOM     11  C   UNL     1     -43.571  36.046  -4.113  1.00  0.00     0.041 A 
ATOM     12  C   UNL     1     -43.706  36.799  -2.845  1.00  0.00     0.194 C 
ATOM     13  O   UNL     1     -44.200  37.961  -2.852  1.00  0.00    -0.289 OA
ATOM     14  C   UNL     1     -43.911  36.657  -5.333  1.00  0.00     0.059 A 
ATOM     15  C   UNL     1     -43.765  35.969  -6.536  1.00  0.00     0.120 A 
ATOM     16  C   UNL     1     -43.248  34.672  -6.536  1.00  0.00     0.093 A 
ATOM     17  C   UNL     1     -42.877  34.050  -5.340  1.00  0.00     0.131 A 
ENDROOT
BRANCH   6  18
ATOM     18  O   UNL     1     -41.951  32.972  -0.255  1.00  0.00    -0.507 OA
ATOM     19  H   UNL     1     -41.193  32.630  -0.833  1.00  0.00     0.293 HD
ENDBRANCH   6  18
BRANCH  17  20
ATOM     20  O   UNL     1     -42.267  32.796  -5.436  1.00  0.00    -0.507 OA
ATOM     21  H   UNL     1     -42.775  31.935  -5.574  1.00  0.00     0.293 HD
ENDBRANCH  17  20
BRANCH  15  22
ATOM     22  O   UNL     1     -44.125  36.589  -7.731  1.00  0.00    -0.508 OA
ATOM     23  H   UNL     1     -44.747  36.141  -8.394  1.00  0.00     0.293 HD
ENDBRANCH  15  22
TORSDOF 3
ENDMDL
MODEL 8
REMARK VINA RESULT:    -6.466      2.475      3.841
REMARK INTER + INTRA:          -7.033
REMARK INTER:                  -7.033
REMARK INTRA:                   0.000
REMARK UNBOUND:                 0.000
REMARK SMILES Cc1cc(O)c2c(c1)C(=O)c1cc(O)cc(O)c1C2=O
REMARK SMILES IDX 1 1 2 2 8 3 7 4 6 5 4 6 3 7 19 8 20 9 18 10 11 11 9 12 10 13
REMARK SMILES IDX 12 14 13 15 15 16 16 17 5 18 17 20 14 22
REMARK H PARENT 5 19 17 21 14 23
REMARK Flexibility Score: inf
ROOT
ATOM      1  C   UNL     1     -44.563  35.397  -8.985  1.00  0.00     0.044 C 
ATOM      2  C   UNL     1     -44.000  35.379  -7.593  1.00  0.00    -0.047 A 
ATOM      3  C   UNL     1     -43.915  36.563  -6.853  1.00  0.00     0.016 A 
ATOM      4  C   UNL     1     -43.359  36.564  -5.562  1.00  0.00     0.038 A 
ATOM      5  C   UNL     1     -42.860  35.364  -5.013  1.00  0.00     0.076 A 
ATOM      6  C   UNL     1     -42.936  34.172  -5.770  1.00  0.00     0.127 A 
ATOM      7  C   UNL     1     -43.496  34.192  -7.053  1.00  0.00     0.050 A 
ATOM      8  C   UNL     1     -42.240  35.389  -3.662  1.00  0.00     0.201 C 
ATOM      9  O   UNL     1     -41.483  34.446  -3.309  1.00  0.00    -0.288 OA
ATOM     10  C   UNL     1     -42.416  36.576  -2.779  1.00  0.00     0.076 A 
ATOM     11  C   UNL     1     -42.857  37.788  -3.362  1.00  0.00     0.041 A 
ATOM     12  C   UNL     1     -43.287  37.818  -4.779  1.00  0.00     0.194 C 
ATOM     13  O   UNL     1     -43.613  38.914  -5.315  1.00  0.00    -0.289 OA
ATOM     14  C   UNL     1     -42.895  38.963  -2.590  1.00  0.00     0.059 A 
ATOM     15  C   UNL     1     -42.517  38.944  -1.250  1.00  0.00     0.120 A 
ATOM     16  C   UNL     1     -42.127  37.742  -0.655  1.00  0.00     0.093 A 
ATOM     17  C   UNL     1     -42.105  36.554  -1.391  1.00  0.00     0.131 A 
ENDROOT
BRANCH   6  18
ATOM     18  O   UNL     1     -42.464  32.967  -5.249  1.00  0.00    -0.507 OA
ATOM     19  H   UNL     1     -42.541  32.745  -4.263  1.00  0.00     0.293 HD
ENDBRANCH   6  18
BRANCH  17  20
ATOM     20  O   UNL     1     -41.808  35.379  -0.697  1.00  0.00    -0.507 OA
ATOM     21  H   UNL     1     -41.060  35.298  -0.023  1.00  0.00     0.293 HD
ENDBRANCH  17  20
BRANCH  15  22
ATOM     22  O   UNL     1     -42.546  40.125  -0.510  1.00  0.00    -0.508 OA
ATOM     23  H   UNL     1     -41.887  40.297   0.240  1.00  0.00     0.293 HD
ENDBRANCH  15  22
TORSDOF 3
ENDMDL
MODEL 9
REMARK VINA RESULT:    -6.280      2.076      3.936
REMARK INTER + INTRA:          -6.830
REMARK INTER:                  -6.830
REMARK INTRA:                   0.000
REMARK UNBOUND:                 0.000
REMARK SMILES Cc1cc(O)c2c(c1)C(=O)c1cc(O)cc(O)c1C2=O
REMARK SMILES IDX 1 1 2 2 8 3 7 4 6 5 4 6 3 7 19 8 20 9 18 10 11 11 9 12 10 13
REMARK SMILES IDX 12 14 13 15 15 16 16 17 5 18 17 20 14 22
REMARK H PARENT 5 19 17 21 14 23
REMARK Flexibility Score: inf
ROOT
ATOM      1  C   UNL     1     -49.248  37.524  -3.202  1.00  0.00     0.044 C 
ATOM      2  C   UNL     1     -48.030  36.746  -3.607  1.00  0.00    -0.047 A 
ATOM      3  C   UNL     1     -46.868  36.804  -2.830  1.00  0.00     0.016 A 
ATOM      4  C   UNL     1     -45.710  36.106  -3.218  1.00  0.00     0.038 A 
ATOM      5  C   UNL     1     -45.710  35.358  -4.414  1.00  0.00     0.076 A 
ATOM      6  C   UNL     1     -46.883  35.314  -5.203  1.00  0.00     0.127 A 
ATOM      7  C   UNL     1     -48.026  36.013  -4.798  1.00  0.00     0.050 A 
ATOM      8  C   UNL     1     -44.466  34.659  -4.831  1.00  0.00     0.201 C 
ATOM      9  O   UNL     1     -44.328  34.301  -6.031  1.00  0.00    -0.288 OA
ATOM     10  C   UNL     1     -43.344  34.489  -3.866  1.00  0.00     0.076 A 
ATOM     11  C   UNL     1     -43.330  35.295  -2.702  1.00  0.00     0.041 A 
ATOM     12  C   UNL     1     -44.490  36.159  -2.382  1.00  0.00     0.194 C 
ATOM     13  O   UNL     1     -44.445  36.929  -1.382  1.00  0.00    -0.289 OA
ATOM     14  C   UNL     1     -42.216  35.266  -1.844  1.00  0.00     0.059 A 
ATOM     15  C   UNL     1     -41.130  34.439  -2.119  1.00  0.00     0.120 A 
ATOM     16  C   UNL     1     -41.157  33.606  -3.239  1.00  0.00     0.093 A 
ATOM     17  C   UNL     1     -42.263  33.594  -4.094  1.00  0.00     0.131 A 
ENDROOT
BRANCH   6  18
ATOM     18  O   UNL     1     -46.919  34.572  -6.384  1.00  0.00    -0.507 OA
ATOM     19  H   UNL     1     -46.716  34.991  -7.284  1.00  0.00     0.293 HD
ENDBRANCH   6  18
BRANCH  17  20
ATOM     20  O   UNL     1     -42.258  32.655  -5.130  1.00  0.00    -0.507 OA
ATOM     21  H   UNL     1     -42.971  32.603  -5.843  1.00  0.00     0.293 HD
ENDBRANCH  17  20
BRANCH  15  22
ATOM     22  O   UNL     1     -40.029  34.442  -1.264  1.00  0.00    -0.508 OA
ATOM     23  H   UNL     1     -39.926  33.749  -0.532  1.00  0.00     0.293 HD
ENDBRANCH  15  22
TORSDOF 3
ENDMDL
