MODEL 1
REMARK VINA RESULT:    -5.163      0.000      0.000
REMARK INTER + INTRA:         -10.520
REMARK INTER:                  -9.086
REMARK INTRA:                  -1.434
REMARK UNBOUND:                -1.434
REMARK SMILES CCCCCCCCCCCCCCC(=O)[O-]
REMARK SMILES IDX 9 1 10 2 11 3 12 4 13 5 14 6 15 7 16 8 17 9 8 10 7 11 6 12
REMARK SMILES IDX 5 13 4 14 3 15 2 16 1 17
REMARK H PARENT
REMARK Flexibility Score: inf
ROOT
ATOM      1  C   UNL     1      -3.256  11.898  -7.250  1.00  0.00     0.000 C 
ENDROOT
BRANCH   1   2
ATOM      2  C   UNL     1      -2.963  10.499  -7.813  1.00  0.00     0.000 C 
BRANCH   2   3
ATOM      3  C   UNL     1      -1.680  10.506  -8.659  1.00  0.00     0.000 C 
BRANCH   3   4
ATOM      4  C   UNL     1      -0.825  11.769  -8.443  1.00  0.00     0.000 C 
BRANCH   4   5
ATOM      5  C   UNL     1       0.686  11.515  -8.273  1.00  0.00     0.006 C 
BRANCH   5   6
ATOM      6  C   UNL     1       1.126  10.069  -8.547  1.00  0.00     0.053 C 
BRANCH   6   7
ATOM      7  C   UNL     1       2.600   9.971  -8.798  1.00  0.00     0.041 C 
ATOM      8  O   UNL     1       3.418  10.448  -7.968  1.00  0.00    -0.550 OA
ATOM      9  O   UNL     1       3.070   9.325  -9.935  1.00  0.00    -0.550 OA
ENDBRANCH   6   7
ENDBRANCH   5   6
ENDBRANCH   4   5
ENDBRANCH   3   4
ENDBRANCH   2   3
ENDBRANCH   1   2
BRANCH   1  10
ATOM     10  C   UNL     1      -4.672  12.386  -7.589  1.00  0.00     0.000 C 
BRANCH  10  11
ATOM     11  C   UNL     1      -4.832  12.749  -9.077  1.00  0.00    -0.000 C 
BRANCH  11  12
ATOM     12  C   UNL     1      -6.207  12.350  -9.638  1.00  0.00    -0.000 C 
BRANCH  12  13
ATOM     13  C   UNL     1      -6.146  11.079 -10.498  1.00  0.00    -0.000 C 
BRANCH  13  14
ATOM     14  C   UNL     1      -4.747  10.892 -11.104  1.00  0.00    -0.000 C 
BRANCH  14  15
ATOM     15  C   UNL     1      -4.280   9.426 -11.095  1.00  0.00    -0.000 C 
BRANCH  15  16
ATOM     16  C   UNL     1      -5.392   8.393 -10.840  1.00  0.00    -0.003 C 
ATOM     17  C   UNL     1      -4.980   6.967 -11.208  1.00  0.00     0.004 C 
ENDBRANCH  15  16
ENDBRANCH  14  15
ENDBRANCH  13  14
ENDBRANCH  12  13
ENDBRANCH  11  12
ENDBRANCH  10  11
ENDBRANCH   1  10
TORSDOF 13
ENDMDL
MODEL 2
REMARK VINA RESULT:    -5.009      0.894      1.775
REMARK INTER + INTRA:         -10.250
REMARK INTER:                  -8.864
REMARK INTRA:                  -1.386
REMARK UNBOUND:                -1.434
REMARK SMILES CCCCCCCCCCCCCCC(=O)[O-]
REMARK SMILES IDX 9 1 10 2 11 3 12 4 13 5 14 6 15 7 16 8 17 9 8 10 7 11 6 12
REMARK SMILES IDX 5 13 4 14 3 15 2 16 1 17
REMARK H PARENT
REMARK Flexibility Score: inf
ROOT
ATOM      1  C   UNL     1      -3.871  12.688  -8.239  1.00  0.00     0.000 C 
ENDROOT
BRANCH   1   2
ATOM      2  C   UNL     1      -3.807  11.316  -7.549  1.00  0.00     0.000 C 
BRANCH   2   3
ATOM      3  C   UNL     1      -2.446  10.644  -7.789  1.00  0.00     0.000 C 
BRANCH   3   4
ATOM      4  C   UNL     1      -1.620  11.337  -8.889  1.00  0.00     0.000 C 
BRANCH   4   5
ATOM      5  C   UNL     1      -0.101  11.392  -8.630  1.00  0.00     0.006 C 
BRANCH   5   6
ATOM      6  C   UNL     1       0.545  10.031  -8.330  1.00  0.00     0.053 C 
BRANCH   6   7
ATOM      7  C   UNL     1       2.025  10.052  -8.561  1.00  0.00     0.041 C 
ATOM      8  O   UNL     1       2.519   9.484  -9.570  1.00  0.00    -0.550 OA
ATOM      9  O   UNL     1       2.857  10.729  -7.677  1.00  0.00    -0.550 OA
ENDBRANCH   6   7
ENDBRANCH   5   6
ENDBRANCH   4   5
ENDBRANCH   3   4
ENDBRANCH   2   3
ENDBRANCH   1   2
BRANCH   1  10
ATOM     10  C   UNL     1      -5.060  12.809  -9.204  1.00  0.00     0.000 C 
BRANCH  10  11
ATOM     11  C   UNL     1      -5.635  11.439  -9.609  1.00  0.00    -0.000 C 
BRANCH  11  12
ATOM     12  C   UNL     1      -5.222  11.022 -11.030  1.00  0.00    -0.000 C 
BRANCH  12  13
ATOM     13  C   UNL     1      -4.273   9.814 -11.038  1.00  0.00    -0.000 C 
BRANCH  13  14
ATOM     14  C   UNL     1      -4.783   8.709 -10.100  1.00  0.00    -0.000 C 
BRANCH  14  15
ATOM     15  C   UNL     1      -5.942   7.897 -10.704  1.00  0.00    -0.000 C 
BRANCH  15  16
ATOM     16  C   UNL     1      -5.522   6.605 -11.427  1.00  0.00    -0.003 C 
ATOM     17  C   UNL     1      -6.456   5.429 -11.143  1.00  0.00     0.004 C 
ENDBRANCH  15  16
ENDBRANCH  14  15
ENDBRANCH  13  14
ENDBRANCH  12  13
ENDBRANCH  11  12
ENDBRANCH  10  11
ENDBRANCH   1  10
TORSDOF 13
ENDMDL
MODEL 3
REMARK VINA RESULT:    -5.005      1.293      1.832
REMARK INTER + INTRA:         -10.244
REMARK INTER:                  -8.997
REMARK INTRA:                  -1.247
REMARK UNBOUND:                -1.434
REMARK SMILES CCCCCCCCCCCCCCC(=O)[O-]
REMARK SMILES IDX 9 1 10 2 11 3 12 4 13 5 14 6 15 7 16 8 17 9 8 10 7 11 6 12
REMARK SMILES IDX 5 13 4 14 3 15 2 16 1 17
REMARK H PARENT
REMARK Flexibility Score: inf
ROOT
ATOM      1  C   UNL     1      -3.228  10.020  -9.132  1.00  0.00     0.000 C 
ENDROOT
BRANCH   1   2
ATOM      2  C   UNL     1      -2.220  10.505  -8.079  1.00  0.00     0.000 C 
BRANCH   2   3
ATOM      3  C   UNL     1      -1.251  11.534  -8.680  1.00  0.00     0.000 C 
BRANCH   3   4
ATOM      4  C   UNL     1      -0.197  12.027  -7.672  1.00  0.00     0.000 C 
BRANCH   4   5
ATOM      5  C   UNL     1       0.968  11.051  -7.413  1.00  0.00     0.006 C 
BRANCH   5   6
ATOM      6  C   UNL     1       1.338  10.165  -8.612  1.00  0.00     0.053 C 
BRANCH   6   7
ATOM      7  C   UNL     1       2.822  10.038  -8.776  1.00  0.00     0.041 C 
ATOM      8  O   UNL     1       3.597  10.440  -7.869  1.00  0.00    -0.550 OA
ATOM      9  O   UNL     1       3.347   9.446  -9.918  1.00  0.00    -0.550 OA
ENDBRANCH   6   7
ENDBRANCH   5   6
ENDBRANCH   4   5
ENDBRANCH   3   4
ENDBRANCH   2   3
ENDBRANCH   1   2
BRANCH   1  10
ATOM     10  C   UNL     1      -3.448  11.045 -10.255  1.00  0.00     0.000 C 
BRANCH  10  11
ATOM     11  C   UNL     1      -4.657  10.699 -11.143  1.00  0.00    -0.000 C 
BRANCH  11  12
ATOM     12  C   UNL     1      -5.957  11.357 -10.654  1.00  0.00    -0.000 C 
BRANCH  12  13
ATOM     13  C   UNL     1      -7.125  10.363 -10.566  1.00  0.00    -0.000 C 
BRANCH  13  14
ATOM     14  C   UNL     1      -6.910   9.364  -9.419  1.00  0.00    -0.000 C 
BRANCH  14  15
ATOM     15  C   UNL     1      -6.976   7.898  -9.880  1.00  0.00    -0.000 C 
BRANCH  15  16
ATOM     16  C   UNL     1      -5.618   7.176  -9.945  1.00  0.00    -0.003 C 
ATOM     17  C   UNL     1      -5.120   6.966 -11.375  1.00  0.00     0.004 C 
ENDBRANCH  15  16
ENDBRANCH  14  15
ENDBRANCH  13  14
ENDBRANCH  12  13
ENDBRANCH  11  12
ENDBRANCH  10  11
ENDBRANCH   1  10
TORSDOF 13
ENDMDL
MODEL 4
REMARK VINA RESULT:    -4.879      1.408      2.631
REMARK INTER + INTRA:         -10.022
REMARK INTER:                  -8.216
REMARK INTRA:                  -1.805
REMARK UNBOUND:                -1.434
REMARK SMILES CCCCCCCCCCCCCCC(=O)[O-]
REMARK SMILES IDX 9 1 10 2 11 3 12 4 13 5 14 6 15 7 16 8 17 9 8 10 7 11 6 12
REMARK SMILES IDX 5 13 4 14 3 15 2 16 1 17
REMARK H PARENT
REMARK Flexibility Score: inf
ROOT
ATOM      1  C   UNL     1      -3.198   9.718  -9.564  1.00  0.00     0.000 C 
ENDROOT
BRANCH   1   2
ATOM      2  C   UNL     1      -2.343  10.346  -8.453  1.00  0.00     0.000 C 
BRANCH   2   3
ATOM      3  C   UNL     1      -1.568  11.564  -8.979  1.00  0.00     0.000 C 
BRANCH   3   4
ATOM      4  C   UNL     1      -0.210  11.758  -8.279  1.00  0.00     0.000 C 
BRANCH   4   5
ATOM      5  C   UNL     1       0.429  10.471  -7.720  1.00  0.00     0.006 C 
BRANCH   5   6
ATOM      6  C   UNL     1       1.301   9.703  -8.724  1.00  0.00     0.053 C 
BRANCH   6   7
ATOM      7  C   UNL     1       2.747  10.081  -8.611  1.00  0.00     0.041 C 
ATOM      8  O   UNL     1       3.167  10.688  -7.592  1.00  0.00    -0.550 OA
ATOM      9  O   UNL     1       3.636   9.733  -9.621  1.00  0.00    -0.550 OA
ENDBRANCH   6   7
ENDBRANCH   5   6
ENDBRANCH   4   5
ENDBRANCH   3   4
ENDBRANCH   2   3
ENDBRANCH   1   2
BRANCH   1  10
ATOM     10  C   UNL     1      -3.703  10.755 -10.578  1.00  0.00     0.000 C 
BRANCH  10  11
ATOM     11  C   UNL     1      -5.214  10.636 -10.844  1.00  0.00    -0.000 C 
BRANCH  11  12
ATOM     12  C   UNL     1      -6.019  11.777 -10.200  1.00  0.00    -0.000 C 
BRANCH  12  13
ATOM     13  C   UNL     1      -5.132  12.755  -9.416  1.00  0.00    -0.000 C 
BRANCH  13  14
ATOM     14  C   UNL     1      -5.321  12.574  -7.902  1.00  0.00    -0.000 C 
BRANCH  14  15
ATOM     15  C   UNL     1      -6.466  11.608  -7.551  1.00  0.00    -0.000 C 
BRANCH  15  16
ATOM     16  C   UNL     1      -6.049  10.384  -6.716  1.00  0.00    -0.003 C 
ATOM     17  C   UNL     1      -6.157   9.068  -7.487  1.00  0.00     0.004 C 
ENDBRANCH  15  16
ENDBRANCH  14  15
ENDBRANCH  13  14
ENDBRANCH  12  13
ENDBRANCH  11  12
ENDBRANCH  10  11
ENDBRANCH   1  10
TORSDOF 13
ENDMDL
MODEL 5
REMARK VINA RESULT:    -4.801      3.378      6.571
REMARK INTER + INTRA:          -9.884
REMARK INTER:                  -8.191
REMARK INTRA:                  -1.693
REMARK UNBOUND:                -1.434
REMARK SMILES CCCCCCCCCCCCCCC(=O)[O-]
REMARK SMILES IDX 9 1 10 2 11 3 12 4 13 5 14 6 15 7 16 8 17 9 8 10 7 11 6 12
REMARK SMILES IDX 5 13 4 14 3 15 2 16 1 17
REMARK H PARENT
REMARK Flexibility Score: inf
ROOT
ATOM      1  C   UNL     1      -4.162  12.248  -7.333  1.00  0.00     0.000 C 
ENDROOT
BRANCH   1   2
ATOM      2  C   UNL     1      -4.870  12.749  -8.601  1.00  0.00     0.000 C 
BRANCH   2   3
ATOM      3  C   UNL     1      -5.878  11.708  -9.113  1.00  0.00     0.000 C 
BRANCH   3   4
ATOM      4  C   UNL     1      -5.792  11.488 -10.635  1.00  0.00     0.000 C 
BRANCH   4   5
ATOM      5  C   UNL     1      -4.798  10.398 -11.083  1.00  0.00     0.006 C 
BRANCH   5   6
ATOM      6  C   UNL     1      -4.759   9.157 -10.178  1.00  0.00     0.053 C 
BRANCH   6   7
ATOM      7  C   UNL     1      -5.591   8.039 -10.727  1.00  0.00     0.041 C 
ATOM      8  O   UNL     1      -5.113   7.255 -11.589  1.00  0.00    -0.550 OA
ATOM      9  O   UNL     1      -6.886   7.843 -10.262  1.00  0.00    -0.550 OA
ENDBRANCH   6   7
ENDBRANCH   5   6
ENDBRANCH   4   5
ENDBRANCH   3   4
ENDBRANCH   2   3
ENDBRANCH   1   2
BRANCH   1  10
ATOM     10  C   UNL     1      -2.640  12.455  -7.387  1.00  0.00     0.000 C 
BRANCH  10  11
ATOM     11  C   UNL     1      -2.067  12.266  -8.803  1.00  0.00    -0.000 C 
BRANCH  11  12
ATOM     12  C   UNL     1      -1.683  10.806  -9.095  1.00  0.00    -0.000 C 
BRANCH  12  13
ATOM     13  C   UNL     1      -0.885  10.166  -7.949  1.00  0.00    -0.000 C 
BRANCH  13  14
ATOM     14  C   UNL     1       0.599  10.030  -8.323  1.00  0.00    -0.000 C 
BRANCH  14  15
ATOM     15  C   UNL     1       1.401  11.320  -8.072  1.00  0.00    -0.000 C 
BRANCH  15  16
ATOM     16  C   UNL     1       1.637  11.658  -6.589  1.00  0.00    -0.003 C 
ATOM     17  C   UNL     1       0.855  12.885  -6.123  1.00  0.00     0.004 C 
ENDBRANCH  15  16
ENDBRANCH  14  15
ENDBRANCH  13  14
ENDBRANCH  12  13
ENDBRANCH  11  12
ENDBRANCH  10  11
ENDBRANCH   1  10
TORSDOF 13
ENDMDL
MODEL 6
REMARK VINA RESULT:    -4.791      2.211      2.839
REMARK INTER + INTRA:          -9.866
REMARK INTER:                  -8.713
REMARK INTRA:                  -1.153
REMARK UNBOUND:                -1.434
REMARK SMILES CCCCCCCCCCCCCCC(=O)[O-]
REMARK SMILES IDX 9 1 10 2 11 3 12 4 13 5 14 6 15 7 16 8 17 9 8 10 7 11 6 12
REMARK SMILES IDX 5 13 4 14 3 15 2 16 1 17
REMARK H PARENT
REMARK Flexibility Score: inf
ROOT
ATOM      1  C   UNL     1      -3.120  11.716  -9.380  1.00  0.00     0.000 C 
ENDROOT
BRANCH   1   2
ATOM      2  C   UNL     1      -1.648  11.669  -8.943  1.00  0.00     0.000 C 
BRANCH   2   3
ATOM      3  C   UNL     1      -1.315  10.322  -8.282  1.00  0.00     0.000 C 
BRANCH   3   4
ATOM      4  C   UNL     1       0.186   9.984  -8.332  1.00  0.00     0.000 C 
BRANCH   4   5
ATOM      5  C   UNL     1       1.132  11.202  -8.318  1.00  0.00     0.006 C 
BRANCH   5   6
ATOM      6  C   UNL     1       1.942  11.367  -7.022  1.00  0.00     0.053 C 
BRANCH   6   7
ATOM      7  C   UNL     1       1.206  12.183  -6.004  1.00  0.00     0.041 C 
ATOM      8  O   UNL     1       0.448  13.120  -6.369  1.00  0.00    -0.550 OA
ATOM      9  O   UNL     1       1.333  11.887  -4.652  1.00  0.00    -0.550 OA
ENDBRANCH   6   7
ENDBRANCH   5   6
ENDBRANCH   4   5
ENDBRANCH   3   4
ENDBRANCH   2   3
ENDBRANCH   1   2
BRANCH   1  10
ATOM     10  C   UNL     1      -3.446  10.684 -10.470  1.00  0.00     0.000 C 
BRANCH  10  11
ATOM     11  C   UNL     1      -4.744  11.014 -11.229  1.00  0.00    -0.000 C 
BRANCH  11  12
ATOM     12  C   UNL     1      -5.990  10.932 -10.332  1.00  0.00    -0.000 C 
BRANCH  12  13
ATOM     13  C   UNL     1      -6.599   9.523 -10.295  1.00  0.00    -0.000 C 
BRANCH  13  14
ATOM     14  C   UNL     1      -6.142   8.760  -9.042  1.00  0.00    -0.000 C 
BRANCH  14  15
ATOM     15  C   UNL     1      -5.611   7.350  -9.359  1.00  0.00    -0.000 C 
BRANCH  15  16
ATOM     16  C   UNL     1      -4.714   7.260 -10.606  1.00  0.00    -0.003 C 
ATOM     17  C   UNL     1      -5.294   6.361 -11.698  1.00  0.00     0.004 C 
ENDBRANCH  15  16
ENDBRANCH  14  15
ENDBRANCH  13  14
ENDBRANCH  12  13
ENDBRANCH  11  12
ENDBRANCH  10  11
ENDBRANCH   1  10
TORSDOF 13
ENDMDL
MODEL 7
REMARK VINA RESULT:    -4.778      1.452      2.844
REMARK INTER + INTRA:          -9.844
REMARK INTER:                  -8.455
REMARK INTRA:                  -1.389
REMARK UNBOUND:                -1.434
REMARK SMILES CCCCCCCCCCCCCCC(=O)[O-]
REMARK SMILES IDX 9 1 10 2 11 3 12 4 13 5 14 6 15 7 16 8 17 9 8 10 7 11 6 12
REMARK SMILES IDX 5 13 4 14 3 15 2 16 1 17
REMARK H PARENT
REMARK Flexibility Score: inf
ROOT
ATOM      1  C   UNL     1      -2.180  12.932  -7.737  1.00  0.00     0.000 C 
ENDROOT
BRANCH   1   2
ATOM      2  C   UNL     1      -1.527  11.828  -6.891  1.00  0.00     0.000 C 
BRANCH   2   3
ATOM      3  C   UNL     1      -0.310  12.371  -6.126  1.00  0.00     0.000 C 
BRANCH   3   4
ATOM      4  C   UNL     1       1.024  12.089  -6.843  1.00  0.00     0.000 C 
BRANCH   4   5
ATOM      5  C   UNL     1       0.892  11.488  -8.257  1.00  0.00     0.006 C 
BRANCH   5   6
ATOM      6  C   UNL     1       1.351  10.027  -8.375  1.00  0.00     0.053 C 
BRANCH   6   7
ATOM      7  C   UNL     1       2.749   9.921  -8.903  1.00  0.00     0.041 C 
ATOM      8  O   UNL     1       3.711  10.411  -8.256  1.00  0.00    -0.550 OA
ATOM      9  O   UNL     1       2.992   9.253 -10.098  1.00  0.00    -0.550 OA
ENDBRANCH   6   7
ENDBRANCH   5   6
ENDBRANCH   4   5
ENDBRANCH   3   4
ENDBRANCH   2   3
ENDBRANCH   1   2
BRANCH   1  10
ATOM     10  C   UNL     1      -2.725  12.406  -9.074  1.00  0.00     0.000 C 
BRANCH  10  11
ATOM     11  C   UNL     1      -2.489  10.896  -9.256  1.00  0.00    -0.000 C 
BRANCH  11  12
ATOM     12  C   UNL     1      -3.766  10.142  -9.663  1.00  0.00    -0.000 C 
BRANCH  12  13
ATOM     13  C   UNL     1      -4.253  10.524 -11.069  1.00  0.00    -0.000 C 
BRANCH  13  14
ATOM     14  C   UNL     1      -5.733  10.934 -11.045  1.00  0.00    -0.000 C 
BRANCH  14  15
ATOM     15  C   UNL     1      -6.249  11.233  -9.626  1.00  0.00    -0.000 C 
BRANCH  15  16
ATOM     16  C   UNL     1      -6.373  12.728  -9.283  1.00  0.00    -0.003 C 
ATOM     17  C   UNL     1      -6.140  13.023  -7.801  1.00  0.00     0.004 C 
ENDBRANCH  15  16
ENDBRANCH  14  15
ENDBRANCH  13  14
ENDBRANCH  12  13
ENDBRANCH  11  12
ENDBRANCH  10  11
ENDBRANCH   1  10
TORSDOF 13
ENDMDL
MODEL 8
REMARK VINA RESULT:    -4.726      3.111      6.679
REMARK INTER + INTRA:          -9.752
REMARK INTER:                  -8.400
REMARK INTRA:                  -1.353
REMARK UNBOUND:                -1.434
REMARK SMILES CCCCCCCCCCCCCCC(=O)[O-]
REMARK SMILES IDX 9 1 10 2 11 3 12 4 13 5 14 6 15 7 16 8 17 9 8 10 7 11 6 12
REMARK SMILES IDX 5 13 4 14 3 15 2 16 1 17
REMARK H PARENT
REMARK Flexibility Score: inf
ROOT
ATOM      1  C   UNL     1      -3.091  11.180  -9.993  1.00  0.00     0.000 C 
ENDROOT
BRANCH   1   2
ATOM      2  C   UNL     1      -4.587  11.527  -9.957  1.00  0.00     0.000 C 
BRANCH   2   3
ATOM      3  C   UNL     1      -5.357  10.750 -11.036  1.00  0.00     0.000 C 
BRANCH   3   4
ATOM      4  C   UNL     1      -6.558   9.969 -10.472  1.00  0.00     0.000 C 
BRANCH   4   5
ATOM      5  C   UNL     1      -6.197   8.712  -9.656  1.00  0.00     0.006 C 
BRANCH   5   6
ATOM      6  C   UNL     1      -6.488   7.382 -10.369  1.00  0.00     0.053 C 
BRANCH   6   7
ATOM      7  C   UNL     1      -5.283   6.859 -11.089  1.00  0.00     0.041 C 
ATOM      8  O   UNL     1      -5.411   6.001 -12.002  1.00  0.00    -0.550 OA
ATOM      9  O   UNL     1      -4.019   7.342 -10.772  1.00  0.00    -0.550 OA
ENDBRANCH   6   7
ENDBRANCH   5   6
ENDBRANCH   4   5
ENDBRANCH   3   4
ENDBRANCH   2   3
ENDBRANCH   1   2
BRANCH   1  10
ATOM     10  C   UNL     1      -2.722  10.055  -9.013  1.00  0.00     0.000 C 
BRANCH  10  11
ATOM     11  C   UNL     1      -3.100  10.391  -7.559  1.00  0.00    -0.000 C 
BRANCH  11  12
ATOM     12  C   UNL     1      -1.875  10.471  -6.633  1.00  0.00    -0.000 C 
BRANCH  12  13
ATOM     13  C   UNL     1      -1.200  11.850  -6.667  1.00  0.00    -0.000 C 
BRANCH  13  14
ATOM     14  C   UNL     1       0.319  11.713  -6.857  1.00  0.00    -0.000 C 
BRANCH  14  15
ATOM     15  C   UNL     1       0.712  11.362  -8.303  1.00  0.00    -0.000 C 
BRANCH  15  16
ATOM     16  C   UNL     1       1.464  10.029  -8.465  1.00  0.00    -0.003 C 
ATOM     17  C   UNL     1       2.984  10.191  -8.430  1.00  0.00     0.004 C 
ENDBRANCH  15  16
ENDBRANCH  14  15
ENDBRANCH  13  14
ENDBRANCH  12  13
ENDBRANCH  11  12
ENDBRANCH  10  11
ENDBRANCH   1  10
TORSDOF 13
ENDMDL
MODEL 9
REMARK VINA RESULT:    -4.664      2.103      2.599
REMARK INTER + INTRA:          -9.644
REMARK INTER:                  -7.734
REMARK INTRA:                  -1.910
REMARK UNBOUND:                -1.434
REMARK SMILES CCCCCCCCCCCCCCC(=O)[O-]
REMARK SMILES IDX 9 1 10 2 11 3 12 4 13 5 14 6 15 7 16 8 17 9 8 10 7 11 6 12
REMARK SMILES IDX 5 13 4 14 3 15 2 16 1 17
REMARK H PARENT
REMARK Flexibility Score: inf
ROOT
ATOM      1  C   UNL     1      -5.410  11.618  -7.224  1.00  0.00     0.000 C 
ENDROOT
BRANCH   1   2
ATOM      2  C   UNL     1      -4.286  10.827  -6.538  1.00  0.00     0.000 C 
BRANCH   2   3
ATOM      3  C   UNL     1      -3.474  10.024  -7.566  1.00  0.00     0.000 C 
BRANCH   3   4
ATOM      4  C   UNL     1      -1.971  10.358  -7.536  1.00  0.00     0.000 C 
BRANCH   4   5
ATOM      5  C   UNL     1      -1.443  11.111  -8.773  1.00  0.00     0.006 C 
BRANCH   5   6
ATOM      6  C   UNL     1      -0.232  12.017  -8.501  1.00  0.00     0.053 C 
BRANCH   6   7
ATOM      7  C   UNL     1      -0.442  12.883  -7.297  1.00  0.00     0.041 C 
ATOM      8  O   UNL     1       0.375  12.848  -6.340  1.00  0.00    -0.550 OA
ATOM      9  O   UNL     1      -1.524  13.753  -7.247  1.00  0.00    -0.550 OA
ENDBRANCH   6   7
ENDBRANCH   5   6
ENDBRANCH   4   5
ENDBRANCH   3   4
ENDBRANCH   2   3
ENDBRANCH   1   2
BRANCH   1  10
ATOM     10  C   UNL     1      -4.888  12.848  -7.983  1.00  0.00     0.000 C 
BRANCH  10  11
ATOM     11  C   UNL     1      -5.339  12.869  -9.455  1.00  0.00    -0.000 C 
BRANCH  11  12
ATOM     12  C   UNL     1      -6.406  11.806  -9.762  1.00  0.00    -0.000 C 
BRANCH  12  13
ATOM     13  C   UNL     1      -6.046  10.943 -10.981  1.00  0.00    -0.000 C 
BRANCH  13  14
ATOM     14  C   UNL     1      -4.524  10.763 -11.095  1.00  0.00    -0.000 C 
BRANCH  14  15
ATOM     15  C   UNL     1      -4.088   9.288 -11.026  1.00  0.00    -0.000 C 
BRANCH  15  16
ATOM     16  C   UNL     1      -5.195   8.304 -10.606  1.00  0.00    -0.003 C 
ATOM     17  C   UNL     1      -5.126   6.973 -11.355  1.00  0.00     0.004 C 
ENDBRANCH  15  16
ENDBRANCH  14  15
ENDBRANCH  13  14
ENDBRANCH  12  13
ENDBRANCH  11  12
ENDBRANCH  10  11
ENDBRANCH   1  10
TORSDOF 13
ENDMDL
