MODEL 1
REMARK VINA RESULT:    -6.485      0.000      0.000
REMARK INTER + INTRA:          -9.282
REMARK INTER:                  -8.191
REMARK INTRA:                  -1.091
REMARK UNBOUND:                -1.091
REMARK SMILES O=C(C=Cc1ccc(O)cc1)c1ccc(O)cc1O
REMARK SMILES IDX 4 1 3 2 5 3 6 4 7 5 8 6 11 7 10 8 9 9 2 11 1 12 12 13 18 14
REMARK SMILES IDX 13 15 17 16 14 17 15 18 19 19 16 21
REMARK H PARENT 9 10 19 20 16 22
REMARK Flexibility Score: inf
ROOT
ATOM      1  C   UNL     1      -5.261  -7.981  63.117  1.00  0.00     0.012 C 
ATOM      2  C   UNL     1      -5.098  -7.205  64.200  1.00  0.00     0.053 C 
ENDROOT
BRANCH   1   3
ATOM      3  C   UNL     1      -6.511  -8.669  62.735  1.00  0.00    -0.025 A 
ATOM      4  C   UNL     1      -6.762  -9.993  63.135  1.00  0.00     0.012 A 
ATOM      5  C   UNL     1      -7.973 -10.610  62.809  1.00  0.00     0.047 A 
ATOM      6  C   UNL     1      -8.953  -9.905  62.102  1.00  0.00     0.115 A 
ATOM      7  C   UNL     1      -7.508  -7.956  62.052  1.00  0.00     0.012 A 
ATOM      8  C   UNL     1      -8.719  -8.575  61.727  1.00  0.00     0.047 A 
BRANCH   6   9
ATOM      9  O   UNL     1     -10.156 -10.533  61.782  1.00  0.00    -0.508 OA
ATOM     10  H   UNL     1     -10.961 -10.474  62.393  1.00  0.00     0.293 HD
ENDBRANCH   6   9
ENDBRANCH   1   3
BRANCH   2  11
ATOM     11  C   UNL     1      -6.079  -7.036  65.300  1.00  0.00     0.189 C 
ATOM     12  O   UNL     1      -6.305  -7.973  66.112  1.00  0.00    -0.289 OA
BRANCH  11  13
ATOM     13  C   UNL     1      -6.809  -5.762  65.471  1.00  0.00     0.064 A 
ATOM     14  C   UNL     1      -7.131  -5.253  66.748  1.00  0.00     0.130 A 
ATOM     15  C   UNL     1      -7.221  -5.056  64.328  1.00  0.00     0.020 A 
ATOM     16  C   UNL     1      -7.813  -4.033  66.860  1.00  0.00     0.093 A 
ATOM     17  C   UNL     1      -7.905  -3.845  64.450  1.00  0.00     0.047 A 
ATOM     18  C   UNL     1      -8.200  -3.328  65.713  1.00  0.00     0.119 A 
BRANCH  14  19
ATOM     19  O   UNL     1      -6.799  -5.967  67.898  1.00  0.00    -0.507 OA
ATOM     20  H   UNL     1      -6.260  -6.823  67.856  1.00  0.00     0.293 HD
ENDBRANCH  14  19
BRANCH  18  21
ATOM     21  O   UNL     1      -8.880  -2.116  65.819  1.00  0.00    -0.508 OA
ATOM     22  H   UNL     1      -9.365  -1.710  65.028  1.00  0.00     0.293 HD
ENDBRANCH  18  21
ENDBRANCH  11  13
ENDBRANCH   2  11
TORSDOF 6
ENDMDL
MODEL 2
REMARK VINA RESULT:    -6.431      2.921      4.976
REMARK INTER + INTRA:          -9.213
REMARK INTER:                  -7.939
REMARK INTRA:                  -1.275
REMARK UNBOUND:                -1.091
REMARK SMILES O=C(C=Cc1ccc(O)cc1)c1ccc(O)cc1O
REMARK SMILES IDX 4 1 3 2 5 3 6 4 7 5 8 6 11 7 10 8 9 9 2 11 1 12 12 13 18 14
REMARK SMILES IDX 13 15 17 16 14 17 15 18 19 19 16 21
REMARK H PARENT 9 10 19 20 16 22
REMARK Flexibility Score: inf
ROOT
ATOM      1  C   UNL     1      -9.404  -7.618  65.390  1.00  0.00     0.012 C 
ATOM      2  C   UNL     1      -9.472  -8.603  66.299  1.00  0.00     0.053 C 
ENDROOT
BRANCH   1   3
ATOM      3  C   UNL     1      -8.352  -6.584  65.322  1.00  0.00    -0.025 A 
ATOM      4  C   UNL     1      -7.112  -6.848  64.714  1.00  0.00     0.012 A 
ATOM      5  C   UNL     1      -6.148  -5.841  64.612  1.00  0.00     0.047 A 
ATOM      6  C   UNL     1      -6.419  -4.557  65.095  1.00  0.00     0.115 A 
ATOM      7  C   UNL     1      -8.631  -5.286  65.778  1.00  0.00     0.012 A 
ATOM      8  C   UNL     1      -7.665  -4.280  65.675  1.00  0.00     0.047 A 
BRANCH   6   9
ATOM      9  O   UNL     1      -5.448  -3.563  64.989  1.00  0.00    -0.508 OA
ATOM     10  H   UNL     1      -5.070  -3.104  65.809  1.00  0.00     0.293 HD
ENDBRANCH   6   9
ENDBRANCH   1   3
BRANCH   2  11
ATOM     11  C   UNL     1      -8.611  -8.731  67.502  1.00  0.00     0.189 C 
ATOM     12  O   UNL     1      -8.032  -9.818  67.767  1.00  0.00    -0.289 OA
BRANCH  11  13
ATOM     13  C   UNL     1      -8.410  -7.583  68.411  1.00  0.00     0.064 A 
ATOM     14  C   UNL     1      -7.122  -7.099  68.727  1.00  0.00     0.130 A 
ATOM     15  C   UNL     1      -9.533  -6.978  69.001  1.00  0.00     0.020 A 
ATOM     16  C   UNL     1      -6.982  -5.998  69.585  1.00  0.00     0.093 A 
ATOM     17  C   UNL     1      -9.383  -5.887  69.859  1.00  0.00     0.047 A 
ATOM     18  C   UNL     1      -8.111  -5.391  70.150  1.00  0.00     0.119 A 
BRANCH  14  19
ATOM     19  O   UNL     1      -5.986  -7.724  68.214  1.00  0.00    -0.507 OA
ATOM     20  H   UNL     1      -5.809  -7.772  67.218  1.00  0.00     0.293 HD
ENDBRANCH  14  19
BRANCH  18  21
ATOM     21  O   UNL     1      -7.977  -4.298  71.004  1.00  0.00    -0.508 OA
ATOM     22  H   UNL     1      -8.243  -4.353  71.980  1.00  0.00     0.293 HD
ENDBRANCH  18  21
ENDBRANCH  11  13
ENDBRANCH   2  11
TORSDOF 6
ENDMDL
MODEL 3
REMARK VINA RESULT:    -6.337      2.746      5.186
REMARK INTER + INTRA:          -9.095
REMARK INTER:                  -7.726
REMARK INTRA:                  -1.369
REMARK UNBOUND:                -1.091
REMARK SMILES O=C(C=Cc1ccc(O)cc1)c1ccc(O)cc1O
REMARK SMILES IDX 4 1 3 2 5 3 6 4 7 5 8 6 11 7 10 8 9 9 2 11 1 12 12 13 18 14
REMARK SMILES IDX 13 15 17 16 14 17 15 18 19 19 16 21
REMARK H PARENT 9 10 19 20 16 22
REMARK Flexibility Score: inf
ROOT
ATOM      1  C   UNL     1      -6.617  -8.283  67.430  1.00  0.00     0.012 C 
ATOM      2  C   UNL     1      -6.798  -8.423  66.107  1.00  0.00     0.053 C 
ENDROOT
BRANCH   1   3
ATOM      3  C   UNL     1      -7.536  -7.586  68.352  1.00  0.00    -0.025 A 
ATOM      4  C   UNL     1      -7.273  -6.275  68.787  1.00  0.00     0.012 A 
ATOM      5  C   UNL     1      -8.180  -5.613  69.618  1.00  0.00     0.047 A 
ATOM      6  C   UNL     1      -9.368  -6.242  70.005  1.00  0.00     0.115 A 
ATOM      7  C   UNL     1      -8.742  -8.202  68.719  1.00  0.00     0.012 A 
ATOM      8  C   UNL     1      -9.649  -7.538  69.551  1.00  0.00     0.047 A 
BRANCH   6   9
ATOM      9  O   UNL     1     -10.263  -5.571  70.836  1.00  0.00    -0.508 OA
ATOM     10  H   UNL     1     -10.524  -4.608  70.662  1.00  0.00     0.293 HD
ENDBRANCH   6   9
ENDBRANCH   1   3
BRANCH   2  11
ATOM     11  C   UNL     1      -7.855  -7.760  65.303  1.00  0.00     0.189 C 
ATOM     12  O   UNL     1      -8.714  -8.439  64.680  1.00  0.00    -0.289 OA
BRANCH  11  13
ATOM     13  C   UNL     1      -7.926  -6.285  65.221  1.00  0.00     0.064 A 
ATOM     14  C   UNL     1      -9.051  -5.567  65.679  1.00  0.00     0.130 A 
ATOM     15  C   UNL     1      -6.854  -5.585  64.641  1.00  0.00     0.020 A 
ATOM     16  C   UNL     1      -9.067  -4.167  65.592  1.00  0.00     0.093 A 
ATOM     17  C   UNL     1      -6.882  -4.192  64.554  1.00  0.00     0.047 A 
ATOM     18  C   UNL     1      -7.984  -3.479  65.031  1.00  0.00     0.119 A 
BRANCH  14  19
ATOM     19  O   UNL     1     -10.159  -6.240  66.192  1.00  0.00    -0.507 OA
ATOM     20  H   UNL     1     -10.620  -6.979  65.675  1.00  0.00     0.293 HD
ENDBRANCH  14  19
BRANCH  18  21
ATOM     21  O   UNL     1      -7.995  -2.088  64.941  1.00  0.00    -0.508 OA
ATOM     22  H   UNL     1      -8.186  -1.616  64.065  1.00  0.00     0.293 HD
ENDBRANCH  18  21
ENDBRANCH  11  13
ENDBRANCH   2  11
TORSDOF 6
ENDMDL
MODEL 4
REMARK VINA RESULT:    -6.327      2.173      5.072
REMARK INTER + INTRA:          -9.083
REMARK INTER:                  -7.742
REMARK INTRA:                  -1.340
REMARK UNBOUND:                -1.091
REMARK SMILES O=C(C=Cc1ccc(O)cc1)c1ccc(O)cc1O
REMARK SMILES IDX 4 1 3 2 5 3 6 4 7 5 8 6 11 7 10 8 9 9 2 11 1 12 12 13 18 14
REMARK SMILES IDX 13 15 17 16 14 17 15 18 19 19 16 21
REMARK H PARENT 9 10 19 20 16 22
REMARK Flexibility Score: inf
ROOT
ATOM      1  C   UNL     1      -5.503  -8.337  65.823  1.00  0.00     0.012 C 
ATOM      2  C   UNL     1      -5.420  -9.493  65.146  1.00  0.00     0.053 C 
ENDROOT
BRANCH   1   3
ATOM      3  C   UNL     1      -6.630  -7.384  65.759  1.00  0.00    -0.025 A 
ATOM      4  C   UNL     1      -6.536  -6.199  65.008  1.00  0.00     0.012 A 
ATOM      5  C   UNL     1      -7.630  -5.335  64.915  1.00  0.00     0.047 A 
ATOM      6  C   UNL     1      -8.835  -5.655  65.552  1.00  0.00     0.115 A 
ATOM      7  C   UNL     1      -7.848  -7.716  66.370  1.00  0.00     0.012 A 
ATOM      8  C   UNL     1      -8.942  -6.850  66.276  1.00  0.00     0.047 A 
BRANCH   6   9
ATOM      9  O   UNL     1      -9.917  -4.783  65.453  1.00  0.00    -0.508 OA
ATOM     10  H   UNL     1      -9.945  -3.913  65.970  1.00  0.00     0.293 HD
ENDBRANCH   6   9
ENDBRANCH   1   3
BRANCH   2  11
ATOM     11  C   UNL     1      -6.352  -9.942  64.082  1.00  0.00     0.189 C 
ATOM     12  O   UNL     1      -6.857 -11.095  64.111  1.00  0.00    -0.289 OA
BRANCH  11  13
ATOM     13  C   UNL     1      -6.712  -9.041  62.966  1.00  0.00     0.064 A 
ATOM     14  C   UNL     1      -8.053  -8.701  62.686  1.00  0.00     0.130 A 
ATOM     15  C   UNL     1      -5.690  -8.535  62.144  1.00  0.00     0.020 A 
ATOM     16  C   UNL     1      -8.345  -7.832  61.625  1.00  0.00     0.093 A 
ATOM     17  C   UNL     1      -5.992  -7.675  61.086  1.00  0.00     0.047 A 
ATOM     18  C   UNL     1      -7.316  -7.318  60.825  1.00  0.00     0.119 A 
BRANCH  14  19
ATOM     19  O   UNL     1      -9.093  -9.245  63.439  1.00  0.00    -0.507 OA
ATOM     20  H   UNL     1     -10.004  -8.806  63.484  1.00  0.00     0.293 HD
ENDBRANCH  14  19
BRANCH  18  21
ATOM     21  O   UNL     1      -7.601  -6.456  59.768  1.00  0.00    -0.508 OA
ATOM     22  H   UNL     1      -6.872  -6.112  59.154  1.00  0.00     0.293 HD
ENDBRANCH  18  21
ENDBRANCH  11  13
ENDBRANCH   2  11
TORSDOF 6
ENDMDL
MODEL 5
REMARK VINA RESULT:    -6.324      1.954      2.631
REMARK INTER + INTRA:          -9.079
REMARK INTER:                  -8.009
REMARK INTRA:                  -1.070
REMARK UNBOUND:                -1.091
REMARK SMILES O=C(C=Cc1ccc(O)cc1)c1ccc(O)cc1O
REMARK SMILES IDX 4 1 3 2 5 3 6 4 7 5 8 6 11 7 10 8 9 9 2 11 1 12 12 13 18 14
REMARK SMILES IDX 13 15 17 16 14 17 15 18 19 19 16 21
REMARK H PARENT 9 10 19 20 16 22
REMARK Flexibility Score: inf
ROOT
ATOM      1  C   UNL     1      -8.663  -8.924  64.084  1.00  0.00     0.012 C 
ATOM      2  C   UNL     1      -8.675  -8.352  65.299  1.00  0.00     0.053 C 
ENDROOT
BRANCH   1   3
ATOM      3  C   UNL     1      -7.564  -8.832  63.103  1.00  0.00    -0.025 A 
ATOM      4  C   UNL     1      -7.537  -7.811  62.137  1.00  0.00     0.012 A 
ATOM      5  C   UNL     1      -6.462  -7.709  61.250  1.00  0.00     0.047 A 
ATOM      6  C   UNL     1      -5.394  -8.609  61.332  1.00  0.00     0.115 A 
ATOM      7  C   UNL     1      -6.477  -9.714  63.202  1.00  0.00     0.012 A 
ATOM      8  C   UNL     1      -5.402  -9.610  62.313  1.00  0.00     0.047 A 
BRANCH   6   9
ATOM      9  O   UNL     1      -4.329  -8.496  60.440  1.00  0.00    -0.508 OA
ATOM     10  H   UNL     1      -4.479  -8.280  59.462  1.00  0.00     0.293 HD
ENDBRANCH   6   9
ENDBRANCH   1   3
BRANCH   2  11
ATOM     11  C   UNL     1      -7.673  -7.383  65.808  1.00  0.00     0.189 C 
ATOM     12  O   UNL     1      -6.553  -7.776  66.231  1.00  0.00    -0.289 OA
BRANCH  11  13
ATOM     13  C   UNL     1      -7.965  -5.934  65.824  1.00  0.00     0.064 A 
ATOM     14  C   UNL     1      -7.505  -5.092  66.860  1.00  0.00     0.130 A 
ATOM     15  C   UNL     1      -8.750  -5.388  64.794  1.00  0.00     0.020 A 
ATOM     16  C   UNL     1      -7.797  -3.721  66.825  1.00  0.00     0.093 A 
ATOM     17  C   UNL     1      -9.040  -4.022  64.772  1.00  0.00     0.047 A 
ATOM     18  C   UNL     1      -8.563  -3.185  65.782  1.00  0.00     0.119 A 
BRANCH  14  19
ATOM     19  O   UNL     1      -6.785  -5.618  67.932  1.00  0.00    -0.507 OA
ATOM     20  H   UNL     1      -6.453  -6.575  67.931  1.00  0.00     0.293 HD
ENDBRANCH  14  19
BRANCH  18  21
ATOM     21  O   UNL     1      -8.857  -1.823  65.743  1.00  0.00    -0.508 OA
ATOM     22  H   UNL     1      -9.466  -1.393  66.430  1.00  0.00     0.293 HD
ENDBRANCH  18  21
ENDBRANCH  11  13
ENDBRANCH   2  11
TORSDOF 6
ENDMDL
MODEL 6
REMARK VINA RESULT:    -6.324      2.369      4.472
REMARK INTER + INTRA:          -9.078
REMARK INTER:                  -7.826
REMARK INTRA:                  -1.252
REMARK UNBOUND:                -1.091
REMARK SMILES O=C(C=Cc1ccc(O)cc1)c1ccc(O)cc1O
REMARK SMILES IDX 4 1 3 2 5 3 6 4 7 5 8 6 11 7 10 8 9 9 2 11 1 12 12 13 18 14
REMARK SMILES IDX 13 15 17 16 14 17 15 18 19 19 16 21
REMARK H PARENT 9 10 19 20 16 22
REMARK Flexibility Score: inf
ROOT
ATOM      1  C   UNL     1      -7.461  -3.890  65.059  1.00  0.00     0.012 C 
ATOM      2  C   UNL     1      -8.236  -3.946  66.154  1.00  0.00     0.053 C 
ENDROOT
BRANCH   1   3
ATOM      3  C   UNL     1      -7.235  -5.000  64.111  1.00  0.00    -0.025 A 
ATOM      4  C   UNL     1      -6.153  -5.882  64.271  1.00  0.00     0.012 A 
ATOM      5  C   UNL     1      -5.985  -6.958  63.395  1.00  0.00     0.047 A 
ATOM      6  C   UNL     1      -6.907  -7.177  62.365  1.00  0.00     0.115 A 
ATOM      7  C   UNL     1      -8.174  -5.241  63.096  1.00  0.00     0.012 A 
ATOM      8  C   UNL     1      -8.004  -6.318  62.220  1.00  0.00     0.047 A 
BRANCH   6   9
ATOM      9  O   UNL     1      -6.726  -8.252  61.498  1.00  0.00    -0.508 OA
ATOM     10  H   UNL     1      -5.845  -8.749  61.448  1.00  0.00     0.293 HD
ENDBRANCH   6   9
ENDBRANCH   1   3
BRANCH   2  11
ATOM     11  C   UNL     1      -8.863  -5.171  66.710  1.00  0.00     0.189 C 
ATOM     12  O   UNL     1     -10.051  -5.474  66.423  1.00  0.00    -0.289 OA
BRANCH  11  13
ATOM     13  C   UNL     1      -8.102  -6.066  67.608  1.00  0.00     0.064 A 
ATOM     14  C   UNL     1      -7.829  -7.408  67.266  1.00  0.00     0.130 A 
ATOM     15  C   UNL     1      -7.669  -5.573  68.851  1.00  0.00     0.020 A 
ATOM     16  C   UNL     1      -7.092  -8.215  68.145  1.00  0.00     0.093 A 
ATOM     17  C   UNL     1      -6.942  -6.386  69.722  1.00  0.00     0.047 A 
ATOM     18  C   UNL     1      -6.648  -7.705  69.372  1.00  0.00     0.119 A 
BRANCH  14  19
ATOM     19  O   UNL     1      -8.308  -7.945  66.072  1.00  0.00    -0.507 OA
ATOM     20  H   UNL     1      -9.230  -8.360  66.008  1.00  0.00     0.293 HD
ENDBRANCH  14  19
BRANCH  18  21
ATOM     21  O   UNL     1      -5.917  -8.504  70.250  1.00  0.00    -0.508 OA
ATOM     22  H   UNL     1      -5.064  -8.967  69.960  1.00  0.00     0.293 HD
ENDBRANCH  18  21
ENDBRANCH  11  13
ENDBRANCH   2  11
TORSDOF 6
ENDMDL
MODEL 7
REMARK VINA RESULT:    -6.294      1.931      5.924
REMARK INTER + INTRA:          -9.040
REMARK INTER:                  -7.876
REMARK INTRA:                  -1.164
REMARK UNBOUND:                -1.091
REMARK SMILES O=C(C=Cc1ccc(O)cc1)c1ccc(O)cc1O
REMARK SMILES IDX 4 1 3 2 5 3 6 4 7 5 8 6 11 7 10 8 9 9 2 11 1 12 12 13 18 14
REMARK SMILES IDX 13 15 17 16 14 17 15 18 19 19 16 21
REMARK H PARENT 9 10 19 20 16 22
REMARK Flexibility Score: inf
ROOT
ATOM      1  C   UNL     1      -7.944  -3.914  64.961  1.00  0.00     0.012 C 
ATOM      2  C   UNL     1      -7.249  -4.422  63.931  1.00  0.00     0.053 C 
ENDROOT
BRANCH   1   3
ATOM      3  C   UNL     1      -8.031  -4.505  66.311  1.00  0.00    -0.025 A 
ATOM      4  C   UNL     1      -7.105  -4.167  67.313  1.00  0.00     0.012 A 
ATOM      5  C   UNL     1      -7.234  -4.696  68.600  1.00  0.00     0.047 A 
ATOM      6  C   UNL     1      -8.300  -5.549  68.906  1.00  0.00     0.115 A 
ATOM      7  C   UNL     1      -9.115  -5.337  66.630  1.00  0.00     0.012 A 
ATOM      8  C   UNL     1      -9.243  -5.865  67.919  1.00  0.00     0.047 A 
BRANCH   6   9
ATOM      9  O   UNL     1      -8.416  -6.071  70.193  1.00  0.00    -0.508 OA
ATOM     10  H   UNL     1      -9.293  -6.043  70.698  1.00  0.00     0.293 HD
ENDBRANCH   6   9
ENDBRANCH   1   3
BRANCH   2  11
ATOM     11  C   UNL     1      -6.591  -5.752  63.903  1.00  0.00     0.189 C 
ATOM     12  O   UNL     1      -5.390  -5.884  64.261  1.00  0.00    -0.289 OA
BRANCH  11  13
ATOM     13  C   UNL     1      -7.332  -6.952  63.459  1.00  0.00     0.064 A 
ATOM     14  C   UNL     1      -7.610  -8.022  64.337  1.00  0.00     0.130 A 
ATOM     15  C   UNL     1      -7.743  -7.039  62.118  1.00  0.00     0.020 A 
ATOM     16  C   UNL     1      -8.329  -9.134  63.874  1.00  0.00     0.093 A 
ATOM     17  C   UNL     1      -8.452  -8.154  61.665  1.00  0.00     0.047 A 
ATOM     18  C   UNL     1      -8.751  -9.201  62.540  1.00  0.00     0.119 A 
BRANCH  14  19
ATOM     19  O   UNL     1      -7.153  -7.995  65.654  1.00  0.00    -0.507 OA
ATOM     20  H   UNL     1      -7.464  -7.290  66.311  1.00  0.00     0.293 HD
ENDBRANCH  14  19
BRANCH  18  21
ATOM     21  O   UNL     1      -9.464 -10.304  62.074  1.00  0.00    -0.508 OA
ATOM     22  H   UNL     1      -9.040 -11.223  62.019  1.00  0.00     0.293 HD
ENDBRANCH  18  21
ENDBRANCH  11  13
ENDBRANCH   2  11
TORSDOF 6
ENDMDL
MODEL 8
REMARK VINA RESULT:    -6.255      2.403      6.006
REMARK INTER + INTRA:          -8.992
REMARK INTER:                  -7.947
REMARK INTRA:                  -1.045
REMARK UNBOUND:                -1.091
REMARK SMILES O=C(C=Cc1ccc(O)cc1)c1ccc(O)cc1O
REMARK SMILES IDX 4 1 3 2 5 3 6 4 7 5 8 6 11 7 10 8 9 9 2 11 1 12 12 13 18 14
REMARK SMILES IDX 13 15 17 16 14 17 15 18 19 19 16 21
REMARK H PARENT 9 10 19 20 16 22
REMARK Flexibility Score: inf
ROOT
ATOM      1  C   UNL     1     -10.096  -7.467  66.714  1.00  0.00     0.012 C 
ATOM      2  C   UNL     1      -9.869  -8.461  65.841  1.00  0.00     0.053 C 
ENDROOT
BRANCH   1   3
ATOM      3  C   UNL     1      -9.167  -6.359  67.013  1.00  0.00    -0.025 A 
ATOM      4  C   UNL     1      -8.150  -6.503  67.971  1.00  0.00     0.012 A 
ATOM      5  C   UNL     1      -7.247  -5.462  68.204  1.00  0.00     0.047 A 
ATOM      6  C   UNL     1      -7.337  -4.276  67.466  1.00  0.00     0.115 A 
ATOM      7  C   UNL     1      -9.235  -5.180  66.255  1.00  0.00     0.012 A 
ATOM      8  C   UNL     1      -8.331  -4.139  66.489  1.00  0.00     0.047 A 
BRANCH   6   9
ATOM      9  O   UNL     1      -6.431  -3.245  67.709  1.00  0.00    -0.508 OA
ATOM     10  H   UNL     1      -6.559  -2.324  67.308  1.00  0.00     0.293 HD
ENDBRANCH   6   9
ENDBRANCH   1   3
BRANCH   2  11
ATOM     11  C   UNL     1      -8.584  -8.729  65.150  1.00  0.00     0.189 C 
ATOM     12  O   UNL     1      -7.684  -9.414  65.705  1.00  0.00    -0.289 OA
BRANCH  11  13
ATOM     13  C   UNL     1      -8.333  -8.203  63.791  1.00  0.00     0.064 A 
ATOM     14  C   UNL     1      -8.415  -9.026  62.647  1.00  0.00     0.130 A 
ATOM     15  C   UNL     1      -7.975  -6.852  63.641  1.00  0.00     0.020 A 
ATOM     16  C   UNL     1      -8.181  -8.478  61.377  1.00  0.00     0.093 A 
ATOM     17  C   UNL     1      -7.738  -6.318  62.373  1.00  0.00     0.047 A 
ATOM     18  C   UNL     1      -7.845  -7.125  61.238  1.00  0.00     0.119 A 
BRANCH  14  19
ATOM     19  O   UNL     1      -8.697 -10.385  62.772  1.00  0.00    -0.507 OA
ATOM     20  H   UNL     1      -8.615 -10.867  63.659  1.00  0.00     0.293 HD
ENDBRANCH  14  19
BRANCH  18  21
ATOM     21  O   UNL     1      -7.611  -6.577  59.979  1.00  0.00    -0.508 OA
ATOM     22  H   UNL     1      -7.443  -5.585  59.856  1.00  0.00     0.293 HD
ENDBRANCH  18  21
ENDBRANCH  11  13
ENDBRANCH   2  11
TORSDOF 6
ENDMDL
MODEL 9
REMARK VINA RESULT:    -6.202      2.191      3.973
REMARK INTER + INTRA:          -8.924
REMARK INTER:                  -7.667
REMARK INTRA:                  -1.257
REMARK UNBOUND:                -1.091
REMARK SMILES O=C(C=Cc1ccc(O)cc1)c1ccc(O)cc1O
REMARK SMILES IDX 4 1 3 2 5 3 6 4 7 5 8 6 11 7 10 8 9 9 2 11 1 12 12 13 18 14
REMARK SMILES IDX 13 15 17 16 14 17 15 18 19 19 16 21
REMARK H PARENT 9 10 19 20 16 22
REMARK Flexibility Score: inf
ROOT
ATOM      1  C   UNL     1      -6.126  -5.158  64.618  1.00  0.00     0.012 C 
ATOM      2  C   UNL     1      -6.659  -3.982  64.986  1.00  0.00     0.053 C 
ENDROOT
BRANCH   1   3
ATOM      3  C   UNL     1      -6.766  -6.479  64.781  1.00  0.00    -0.025 A 
ATOM      4  C   UNL     1      -7.788  -6.902  63.914  1.00  0.00     0.012 A 
ATOM      5  C   UNL     1      -8.346  -8.176  64.051  1.00  0.00     0.047 A 
ATOM      6  C   UNL     1      -7.875  -9.047  65.039  1.00  0.00     0.115 A 
ATOM      7  C   UNL     1      -6.276  -7.367  65.751  1.00  0.00     0.012 A 
ATOM      8  C   UNL     1      -6.836  -8.641  65.887  1.00  0.00     0.047 A 
BRANCH   6   9
ATOM      9  O   UNL     1      -8.442 -10.314  65.166  1.00  0.00    -0.508 OA
ATOM     10  H   UNL     1      -8.270 -11.041  64.481  1.00  0.00     0.293 HD
ENDBRANCH   6   9
ENDBRANCH   1   3
BRANCH   2  11
ATOM     11  C   UNL     1      -7.901  -3.805  65.778  1.00  0.00     0.189 C 
ATOM     12  O   UNL     1      -8.752  -2.933  65.458  1.00  0.00    -0.289 OA
BRANCH  11  13
ATOM     13  C   UNL     1      -8.170  -4.654  66.959  1.00  0.00     0.064 A 
ATOM     14  C   UNL     1      -9.326  -5.459  67.050  1.00  0.00     0.130 A 
ATOM     15  C   UNL     1      -7.263  -4.632  68.032  1.00  0.00     0.020 A 
ATOM     16  C   UNL     1      -9.531  -6.258  68.185  1.00  0.00     0.093 A 
ATOM     17  C   UNL     1      -7.479  -5.426  69.160  1.00  0.00     0.047 A 
ATOM     18  C   UNL     1      -8.609  -6.243  69.239  1.00  0.00     0.119 A 
BRANCH  14  19
ATOM     19  O   UNL     1     -10.280  -5.446  66.033  1.00  0.00    -0.507 OA
ATOM     20  H   UNL     1     -11.198  -5.854  66.159  1.00  0.00     0.293 HD
ENDBRANCH  14  19
BRANCH  18  21
ATOM     21  O   UNL     1      -8.809  -7.034  70.369  1.00  0.00    -0.508 OA
ATOM     22  H   UNL     1      -8.117  -7.088  71.107  1.00  0.00     0.293 HD
ENDBRANCH  18  21
ENDBRANCH  11  13
ENDBRANCH   2  11
TORSDOF 6
ENDMDL
