MODEL 1
REMARK VINA RESULT:    -3.591      0.000      0.000
REMARK INTER + INTRA:          -4.642
REMARK INTER:                  -4.535
REMARK INTRA:                  -0.107
REMARK UNBOUND:                -0.107
REMARK SMILES CCCCCCO
REMARK SMILES IDX 4 1 3 2 2 3 1 4 5 5 6 6 7 7
REMARK H PARENT 7 8
REMARK Flexibility Score: inf
ROOT
ATOM      1  C   UNL     1      20.724 -11.446 -48.248  1.00  0.00     0.002 C 
ENDROOT
BRANCH   1   2
ATOM      2  C   UNL     1      21.346 -11.905 -49.580  1.00  0.00    -0.000 C 
BRANCH   2   3
ATOM      3  C   UNL     1      22.172 -13.192 -49.441  1.00  0.00    -0.003 C 
ATOM      4  C   UNL     1      21.999 -13.808 -48.057  1.00  0.00     0.004 C 
ENDBRANCH   2   3
ENDBRANCH   1   2
BRANCH   1   5
ATOM      5  C   UNL     1      20.633  -9.921 -48.061  1.00  0.00     0.028 C 
BRANCH   5   6
ATOM      6  C   UNL     1      20.568  -9.140 -49.379  1.00  0.00     0.156 C 
BRANCH   6   7
ATOM      7  O   UNL     1      21.393  -8.010 -49.316  1.00  0.00    -0.396 OA
ATOM      8  H   UNL     1      20.785  -7.228 -49.256  1.00  0.00     0.210 HD
ENDBRANCH   6   7
ENDBRANCH   5   6
ENDBRANCH   1   5
TORSDOF 5
ENDMDL
MODEL 2
REMARK VINA RESULT:    -3.565     17.157     18.299
REMARK INTER + INTRA:          -4.609
REMARK INTER:                  -4.570
REMARK INTRA:                  -0.039
REMARK UNBOUND:                -0.107
REMARK SMILES CCCCCCO
REMARK SMILES IDX 4 1 3 2 2 3 1 4 5 5 6 6 7 7
REMARK H PARENT 7 8
REMARK Flexibility Score: inf
ROOT
ATOM      1  C   UNL     1      16.672  -4.879 -31.962  1.00  0.00     0.002 C 
ENDROOT
BRANCH   1   2
ATOM      2  C   UNL     1      16.077  -5.245 -33.334  1.00  0.00    -0.000 C 
BRANCH   2   3
ATOM      3  C   UNL     1      15.337  -6.592 -33.323  1.00  0.00    -0.003 C 
ATOM      4  C   UNL     1      15.629  -7.389 -34.591  1.00  0.00     0.004 C 
ENDBRANCH   2   3
ENDBRANCH   1   2
BRANCH   1   5
ATOM      5  C   UNL     1      18.011  -4.121 -32.012  1.00  0.00     0.028 C 
BRANCH   5   6
ATOM      6  C   UNL     1      18.573  -3.770 -30.630  1.00  0.00     0.156 C 
BRANCH   6   7
ATOM      7  O   UNL     1      19.090  -4.915 -30.010  1.00  0.00    -0.396 OA
ATOM      8  H   UNL     1      19.924  -4.629 -29.556  1.00  0.00     0.210 HD
ENDBRANCH   6   7
ENDBRANCH   5   6
ENDBRANCH   1   5
TORSDOF 5
ENDMDL
MODEL 3
REMARK VINA RESULT:    -3.511     11.041     12.892
REMARK INTER + INTRA:          -4.541
REMARK INTER:                  -4.468
REMARK INTRA:                  -0.073
REMARK UNBOUND:                -0.107
REMARK SMILES CCCCCCO
REMARK SMILES IDX 4 1 3 2 2 3 1 4 5 5 6 6 7 7
REMARK H PARENT 7 8
REMARK Flexibility Score: inf
ROOT
ATOM      1  C   UNL     1      15.949   1.605 -48.222  1.00  0.00     0.002 C 
ENDROOT
BRANCH   1   2
ATOM      2  C   UNL     1      15.725   0.111 -47.923  1.00  0.00    -0.000 C 
BRANCH   2   3
ATOM      3  C   UNL     1      15.297  -0.688 -49.163  1.00  0.00    -0.003 C 
ATOM      4  C   UNL     1      16.293  -1.801 -49.469  1.00  0.00     0.004 C 
ENDBRANCH   2   3
ENDBRANCH   1   2
BRANCH   1   5
ATOM      5  C   UNL     1      17.205   2.219 -47.576  1.00  0.00     0.028 C 
BRANCH   5   6
ATOM      6  C   UNL     1      17.417   1.796 -46.118  1.00  0.00     0.156 C 
BRANCH   6   7
ATOM      7  O   UNL     1      18.772   1.528 -45.881  1.00  0.00    -0.396 OA
ATOM      8  H   UNL     1      18.969   0.675 -46.346  1.00  0.00     0.210 HD
ENDBRANCH   6   7
ENDBRANCH   5   6
ENDBRANCH   1   5
TORSDOF 5
ENDMDL
MODEL 4
REMARK VINA RESULT:    -3.436     10.940     12.808
REMARK INTER + INTRA:          -4.447
REMARK INTER:                  -4.361
REMARK INTRA:                  -0.086
REMARK UNBOUND:                -0.107
REMARK SMILES CCCCCCO
REMARK SMILES IDX 4 1 3 2 2 3 1 4 5 5 6 6 7 7
REMARK H PARENT 7 8
REMARK Flexibility Score: inf
ROOT
ATOM      1  C   UNL     1      15.832   0.065 -47.876  1.00  0.00     0.002 C 
ENDROOT
BRANCH   1   2
ATOM      2  C   UNL     1      16.537   1.423 -48.047  1.00  0.00    -0.000 C 
BRANCH   2   3
ATOM      3  C   UNL     1      17.349   1.834 -46.809  1.00  0.00    -0.003 C 
ATOM      4  C   UNL     1      16.494   1.770 -45.547  1.00  0.00     0.004 C 
ENDBRANCH   2   3
ENDBRANCH   1   2
BRANCH   1   5
ATOM      5  C   UNL     1      15.141  -0.476 -49.142  1.00  0.00     0.028 C 
BRANCH   5   6
ATOM      6  C   UNL     1      15.763  -1.771 -49.678  1.00  0.00     0.156 C 
BRANCH   6   7
ATOM      7  O   UNL     1      16.985  -2.024 -49.041  1.00  0.00    -0.396 OA
ATOM      8  H   UNL     1      17.674  -1.537 -49.563  1.00  0.00     0.210 HD
ENDBRANCH   6   7
ENDBRANCH   5   6
ENDBRANCH   1   5
TORSDOF 5
ENDMDL
MODEL 5
REMARK VINA RESULT:    -3.433     10.173     10.687
REMARK INTER + INTRA:          -4.443
REMARK INTER:                  -4.310
REMARK INTRA:                  -0.133
REMARK UNBOUND:                -0.107
REMARK SMILES CCCCCCO
REMARK SMILES IDX 4 1 3 2 2 3 1 4 5 5 6 6 7 7
REMARK H PARENT 7 8
REMARK Flexibility Score: inf
ROOT
ATOM      1  C   UNL     1      26.710  -2.645 -50.123  1.00  0.00     0.002 C 
ENDROOT
BRANCH   1   2
ATOM      2  C   UNL     1      27.997  -1.855 -49.823  1.00  0.00    -0.000 C 
BRANCH   2   3
ATOM      3  C   UNL     1      29.017  -2.665 -49.008  1.00  0.00    -0.003 C 
ATOM      4  C   UNL     1      28.608  -2.742 -47.540  1.00  0.00     0.004 C 
ENDBRANCH   2   3
ENDBRANCH   1   2
BRANCH   1   5
ATOM      5  C   UNL     1      25.400  -1.867 -49.902  1.00  0.00     0.028 C 
BRANCH   5   6
ATOM      6  C   UNL     1      25.126  -1.525 -48.432  1.00  0.00     0.156 C 
BRANCH   6   7
ATOM      7  O   UNL     1      23.957  -2.160 -47.995  1.00  0.00    -0.396 OA
ATOM      8  H   UNL     1      23.658  -1.662 -47.191  1.00  0.00     0.210 HD
ENDBRANCH   6   7
ENDBRANCH   5   6
ENDBRANCH   1   5
TORSDOF 5
ENDMDL
MODEL 6
REMARK VINA RESULT:    -3.410     16.884     17.992
REMARK INTER + INTRA:          -4.414
REMARK INTER:                  -4.324
REMARK INTRA:                  -0.090
REMARK UNBOUND:                -0.107
REMARK SMILES CCCCCCO
REMARK SMILES IDX 4 1 3 2 2 3 1 4 5 5 6 6 7 7
REMARK H PARENT 7 8
REMARK Flexibility Score: inf
ROOT
ATOM      1  C   UNL     1      16.246  -4.942 -33.691  1.00  0.00     0.002 C 
ENDROOT
BRANCH   1   2
ATOM      2  C   UNL     1      15.719  -6.211 -34.387  1.00  0.00    -0.000 C 
BRANCH   2   3
ATOM      3  C   UNL     1      14.579  -6.887 -33.611  1.00  0.00    -0.003 C 
ATOM      4  C   UNL     1      13.263  -6.142 -33.810  1.00  0.00     0.004 C 
ENDBRANCH   2   3
ENDBRANCH   1   2
BRANCH   1   5
ATOM      5  C   UNL     1      16.501  -5.085 -32.179  1.00  0.00     0.028 C 
BRANCH   5   6
ATOM      6  C   UNL     1      17.717  -4.295 -31.681  1.00  0.00     0.156 C 
BRANCH   6   7
ATOM      7  O   UNL     1      18.234  -4.879 -30.519  1.00  0.00    -0.396 OA
ATOM      8  H   UNL     1      18.832  -4.200 -30.112  1.00  0.00     0.210 HD
ENDBRANCH   6   7
ENDBRANCH   5   6
ENDBRANCH   1   5
TORSDOF 5
ENDMDL
MODEL 7
REMARK VINA RESULT:    -3.398      2.694      4.282
REMARK INTER + INTRA:          -4.398
REMARK INTER:                  -4.314
REMARK INTRA:                  -0.084
REMARK UNBOUND:                -0.107
REMARK SMILES CCCCCCO
REMARK SMILES IDX 4 1 3 2 2 3 1 4 5 5 6 6 7 7
REMARK H PARENT 7 8
REMARK Flexibility Score: inf
ROOT
ATOM      1  C   UNL     1      21.062 -12.238 -48.308  1.00  0.00     0.002 C 
ENDROOT
BRANCH   1   2
ATOM      2  C   UNL     1      20.842 -10.941 -49.108  1.00  0.00    -0.000 C 
BRANCH   2   3
ATOM      3  C   UNL     1      20.672  -9.707 -48.209  1.00  0.00    -0.003 C 
ATOM      4  C   UNL     1      20.781 -10.083 -46.735  1.00  0.00     0.004 C 
ENDBRANCH   2   3
ENDBRANCH   1   2
BRANCH   1   5
ATOM      5  C   UNL     1      22.026 -13.249 -48.956  1.00  0.00     0.028 C 
BRANCH   5   6
ATOM      6  C   UNL     1      22.221 -14.529 -48.134  1.00  0.00     0.156 C 
BRANCH   6   7
ATOM      7  O   UNL     1      22.013 -14.270 -46.774  1.00  0.00    -0.396 OA
ATOM      8  H   UNL     1      22.912 -14.266 -46.354  1.00  0.00     0.210 HD
ENDBRANCH   6   7
ENDBRANCH   5   6
ENDBRANCH   1   5
TORSDOF 5
ENDMDL
MODEL 8
REMARK VINA RESULT:    -3.358     13.180     14.128
REMARK INTER + INTRA:          -4.349
REMARK INTER:                  -4.137
REMARK INTRA:                  -0.211
REMARK UNBOUND:                -0.107
REMARK SMILES CCCCCCO
REMARK SMILES IDX 4 1 3 2 2 3 1 4 5 5 6 6 7 7
REMARK H PARENT 7 8
REMARK Flexibility Score: inf
ROOT
ATOM      1  C   UNL     1      16.184   0.891 -47.745  1.00  0.00     0.002 C 
ENDROOT
BRANCH   1   2
ATOM      2  C   UNL     1      14.849   1.496 -48.219  1.00  0.00    -0.000 C 
BRANCH   2   3
ATOM      3  C   UNL     1      14.075   2.191 -47.089  1.00  0.00    -0.003 C 
ATOM      4  C   UNL     1      13.744   1.211 -45.967  1.00  0.00     0.004 C 
ENDBRANCH   2   3
ENDBRANCH   1   2
BRANCH   1   5
ATOM      5  C   UNL     1      17.223   1.912 -47.246  1.00  0.00     0.028 C 
BRANCH   5   6
ATOM      6  C   UNL     1      17.624   1.717 -45.779  1.00  0.00     0.156 C 
BRANCH   6   7
ATOM      7  O   UNL     1      17.350   0.406 -45.370  1.00  0.00    -0.396 OA
ATOM      8  H   UNL     1      18.184   0.068 -44.953  1.00  0.00     0.210 HD
ENDBRANCH   6   7
ENDBRANCH   5   6
ENDBRANCH   1   5
TORSDOF 5
ENDMDL
MODEL 9
REMARK VINA RESULT:    -3.274     16.785     17.893
REMARK INTER + INTRA:          -4.242
REMARK INTER:                  -4.080
REMARK INTRA:                  -0.163
REMARK UNBOUND:                -0.107
REMARK SMILES CCCCCCO
REMARK SMILES IDX 4 1 3 2 2 3 1 4 5 5 6 6 7 7
REMARK H PARENT 7 8
REMARK Flexibility Score: inf
ROOT
ATOM      1  C   UNL     1      12.419  -6.370 -33.125  1.00  0.00     0.002 C 
ENDROOT
BRANCH   1   2
ATOM      2  C   UNL     1      13.925  -6.671 -33.021  1.00  0.00    -0.000 C 
BRANCH   2   3
ATOM      3  C   UNL     1      14.694  -6.321 -34.304  1.00  0.00    -0.003 C 
ATOM      4  C   UNL     1      15.700  -7.412 -34.656  1.00  0.00     0.004 C 
ENDBRANCH   2   3
ENDBRANCH   1   2
BRANCH   1   5
ATOM      5  C   UNL     1      11.990  -5.616 -34.397  1.00  0.00     0.028 C 
BRANCH   5   6
ATOM      6  C   UNL     1      11.373  -4.240 -34.120  1.00  0.00     0.156 C 
BRANCH   6   7
ATOM      7  O   UNL     1      12.360  -3.339 -33.702  1.00  0.00    -0.396 OA
ATOM      8  H   UNL     1      12.104  -2.457 -34.077  1.00  0.00     0.210 HD
ENDBRANCH   6   7
ENDBRANCH   5   6
ENDBRANCH   1   5
TORSDOF 5
ENDMDL
