MODEL 1
REMARK VINA RESULT:    -5.299      0.000      0.000
REMARK INTER + INTRA:          -7.008
REMARK INTER:                  -6.538
REMARK INTRA:                  -0.470
REMARK UNBOUND:                -0.470
REMARK SMILES COC(=O)c1ccccc1C(=O)OC
REMARK SMILES IDX 5 1 6 2 7 3 8 4 9 5 10 6 3 7 4 8 2 9 1 10 11 11 12 12 13 13
REMARK SMILES IDX 14 14
REMARK H PARENT
REMARK Flexibility Score: inf
ROOT
ATOM      1  C   UNL     1     135.370 126.387 136.265  1.00  0.00     0.074 A 
ATOM      2  C   UNL     1     136.115 125.717 135.276  1.00  0.00     0.016 A 
ATOM      3  C   UNL     1     136.218 126.237 133.986  1.00  0.00     0.001 A 
ATOM      4  C   UNL     1     135.580 127.432 133.662  1.00  0.00     0.001 A 
ATOM      5  C   UNL     1     134.818 128.102 134.620  1.00  0.00     0.016 A 
ATOM      6  C   UNL     1     134.683 127.583 135.921  1.00  0.00     0.074 A 
ENDROOT
BRANCH   1   7
ATOM      7  C   UNL     1     135.397 125.841 137.640  1.00  0.00     0.338 C 
ATOM      8  O   UNL     1     134.713 124.822 137.935  1.00  0.00    -0.246 OA
BRANCH   7   9
ATOM      9  O   UNL     1     136.142 126.495 138.628  1.00  0.00    -0.465 OA
ATOM     10  C   UNL     1     135.589 126.870 139.884  1.00  0.00     0.282 C 
ENDBRANCH   7   9
ENDBRANCH   1   7
BRANCH   6  11
ATOM     11  C   UNL     1     133.768 128.275 136.858  1.00  0.00     0.338 C 
ATOM     12  O   UNL     1     134.176 129.274 137.512  1.00  0.00    -0.246 OA
BRANCH  11  13
ATOM     13  O   UNL     1     132.439 127.855 136.976  1.00  0.00    -0.465 OA
ATOM     14  C   UNL     1     131.949 127.167 138.121  1.00  0.00     0.282 C 
ENDBRANCH  11  13
ENDBRANCH   6  11
TORSDOF 4
ENDMDL
MODEL 2
REMARK VINA RESULT:    -5.261      0.160      3.301
REMARK INTER + INTRA:          -6.961
REMARK INTER:                  -6.503
REMARK INTRA:                  -0.458
REMARK UNBOUND:                -0.470
REMARK SMILES COC(=O)c1ccccc1C(=O)OC
REMARK SMILES IDX 5 1 6 2 7 3 8 4 9 5 10 6 3 7 4 8 2 9 1 10 11 11 12 12 13 13
REMARK SMILES IDX 14 14
REMARK H PARENT
REMARK Flexibility Score: inf
ROOT
ATOM      1  C   UNL     1     134.626 127.534 136.018  1.00  0.00     0.074 A 
ATOM      2  C   UNL     1     134.798 128.025 134.711  1.00  0.00     0.016 A 
ATOM      3  C   UNL     1     135.586 127.338 133.787  1.00  0.00     0.001 A 
ATOM      4  C   UNL     1     136.216 126.151 134.153  1.00  0.00     0.001 A 
ATOM      5  C   UNL     1     136.079 125.657 135.451  1.00  0.00     0.016 A 
ATOM      6  C   UNL     1     135.306 126.345 136.404  1.00  0.00     0.074 A 
ENDROOT
BRANCH   1   7
ATOM      7  C   UNL     1     133.687 128.249 136.909  1.00  0.00     0.338 C 
ATOM      8  O   UNL     1     134.088 129.215 137.615  1.00  0.00    -0.246 OA
BRANCH   7   9
ATOM      9  O   UNL     1     132.361 127.813 137.007  1.00  0.00    -0.465 OA
ATOM     10  C   UNL     1     131.850 127.166 138.167  1.00  0.00     0.282 C 
ENDBRANCH   7   9
ENDBRANCH   1   7
BRANCH   6  11
ATOM     11  C   UNL     1     135.293 125.836 137.795  1.00  0.00     0.338 C 
ATOM     12  O   UNL     1     134.670 124.773 138.069  1.00  0.00    -0.246 OA
BRANCH  11  13
ATOM     13  O   UNL     1     136.016 126.501 138.791  1.00  0.00    -0.465 OA
ATOM     14  C   UNL     1     135.466 126.803 140.068  1.00  0.00     0.282 C 
ENDBRANCH  11  13
ENDBRANCH   6  11
TORSDOF 4
ENDMDL
MODEL 3
REMARK VINA RESULT:    -5.082      2.273      4.065
REMARK INTER + INTRA:          -6.740
REMARK INTER:                  -6.455
REMARK INTRA:                  -0.285
REMARK UNBOUND:                -0.470
REMARK SMILES COC(=O)c1ccccc1C(=O)OC
REMARK SMILES IDX 5 1 6 2 7 3 8 4 9 5 10 6 3 7 4 8 2 9 1 10 11 11 12 12 13 13
REMARK SMILES IDX 14 14
REMARK H PARENT
REMARK Flexibility Score: inf
ROOT
ATOM      1  C   UNL     1     134.640 129.101 136.531  1.00  0.00     0.074 A 
ATOM      2  C   UNL     1     134.957 130.342 137.113  1.00  0.00     0.016 A 
ATOM      3  C   UNL     1     135.819 131.232 136.472  1.00  0.00     0.001 A 
ATOM      4  C   UNL     1     136.378 130.898 135.241  1.00  0.00     0.001 A 
ATOM      5  C   UNL     1     136.096 129.663 134.655  1.00  0.00     0.016 A 
ATOM      6  C   UNL     1     135.246 128.742 135.296  1.00  0.00     0.074 A 
ENDROOT
BRANCH   1   7
ATOM      7  C   UNL     1     133.632 128.256 137.208  1.00  0.00     0.338 C 
ATOM      8  O   UNL     1     133.994 127.334 137.990  1.00  0.00    -0.246 OA
BRANCH   7   9
ATOM      9  O   UNL     1     132.273 128.448 136.933  1.00  0.00    -0.465 OA
ATOM     10  C   UNL     1     131.431 129.248 137.754  1.00  0.00     0.282 C 
ENDBRANCH   7   9
ENDBRANCH   1   7
BRANCH   6  11
ATOM     11  C   UNL     1     135.078 127.403 134.684  1.00  0.00     0.338 C 
ATOM     12  O   UNL     1     134.436 127.282 133.605  1.00  0.00    -0.246 OA
BRANCH  11  13
ATOM     13  O   UNL     1     135.677 126.284 135.272  1.00  0.00    -0.465 OA
ATOM     14  C   UNL     1     136.642 125.485 134.598  1.00  0.00     0.282 C 
ENDBRANCH  11  13
ENDBRANCH   6  11
TORSDOF 4
ENDMDL
MODEL 4
REMARK VINA RESULT:    -5.070      2.303      3.721
REMARK INTER + INTRA:          -6.725
REMARK INTER:                  -6.343
REMARK INTRA:                  -0.382
REMARK UNBOUND:                -0.470
REMARK SMILES COC(=O)c1ccccc1C(=O)OC
REMARK SMILES IDX 5 1 6 2 7 3 8 4 9 5 10 6 3 7 4 8 2 9 1 10 11 11 12 12 13 13
REMARK SMILES IDX 14 14
REMARK H PARENT
REMARK Flexibility Score: inf
ROOT
ATOM      1  C   UNL     1     135.445 128.806 135.211  1.00  0.00     0.074 A 
ATOM      2  C   UNL     1     136.154 129.921 134.727  1.00  0.00     0.016 A 
ATOM      3  C   UNL     1     136.180 131.117 135.444  1.00  0.00     0.001 A 
ATOM      4  C   UNL     1     135.501 131.219 136.656  1.00  0.00     0.001 A 
ATOM      5  C   UNL     1     134.773 130.134 137.145  1.00  0.00     0.016 A 
ATOM      6  C   UNL     1     134.716 128.925 136.426  1.00  0.00     0.074 A 
ENDROOT
BRANCH   1   7
ATOM      7  C   UNL     1     135.554 127.537 134.459  1.00  0.00     0.338 C 
ATOM      8  O   UNL     1     134.667 127.215 133.621  1.00  0.00    -0.246 OA
BRANCH   7   9
ATOM      9  O   UNL     1     136.617 126.667 134.723  1.00  0.00    -0.465 OA
ATOM     10  C   UNL     1     136.488 125.252 134.648  1.00  0.00     0.282 C 
ENDBRANCH   7   9
ENDBRANCH   1   7
BRANCH   6  11
ATOM     11  C   UNL     1     133.833 127.850 136.935  1.00  0.00     0.338 C 
ATOM     12  O   UNL     1     132.580 127.993 136.892  1.00  0.00    -0.246 OA
BRANCH  11  13
ATOM     13  O   UNL     1     134.387 126.656 137.411  1.00  0.00    -0.465 OA
ATOM     14  C   UNL     1     135.543 126.621 138.238  1.00  0.00     0.282 C 
ENDBRANCH  11  13
ENDBRANCH   6  11
TORSDOF 4
ENDMDL
MODEL 5
REMARK VINA RESULT:    -4.868      2.455      4.907
REMARK INTER + INTRA:          -6.476
REMARK INTER:                  -6.134
REMARK INTRA:                  -0.342
REMARK UNBOUND:                -0.470
REMARK SMILES COC(=O)c1ccccc1C(=O)OC
REMARK SMILES IDX 5 1 6 2 7 3 8 4 9 5 10 6 3 7 4 8 2 9 1 10 11 11 12 12 13 13
REMARK SMILES IDX 14 14
REMARK H PARENT
REMARK Flexibility Score: inf
ROOT
ATOM      1  C   UNL     1     132.270 127.130 138.469  1.00  0.00     0.074 A 
ATOM      2  C   UNL     1     131.314 126.904 137.461  1.00  0.00     0.016 A 
ATOM      3  C   UNL     1     129.966 127.186 137.679  1.00  0.00     0.001 A 
ATOM      4  C   UNL     1     129.549 127.698 138.906  1.00  0.00     0.001 A 
ATOM      5  C   UNL     1     130.476 127.910 139.927  1.00  0.00     0.016 A 
ATOM      6  C   UNL     1     131.838 127.611 139.735  1.00  0.00     0.074 A 
ENDROOT
BRANCH   1   7
ATOM      7  C   UNL     1     133.695 126.918 138.132  1.00  0.00     0.338 C 
ATOM      8  O   UNL     1     134.408 127.883 137.741  1.00  0.00    -0.246 OA
BRANCH   7   9
ATOM      9  O   UNL     1     134.234 125.628 138.194  1.00  0.00    -0.465 OA
ATOM     10  C   UNL     1     135.386 125.242 137.454  1.00  0.00     0.282 C 
ENDBRANCH   7   9
ENDBRANCH   1   7
BRANCH   6  11
ATOM     11  C   UNL     1     132.753 127.744 140.892  1.00  0.00     0.338 C 
ATOM     12  O   UNL     1     133.115 128.890 141.278  1.00  0.00    -0.246 OA
BRANCH  11  13
ATOM     13  O   UNL     1     133.171 126.606 141.589  1.00  0.00    -0.465 OA
ATOM     14  C   UNL     1     134.520 126.404 141.992  1.00  0.00     0.282 C 
ENDBRANCH  11  13
ENDBRANCH   6  11
TORSDOF 4
ENDMDL
MODEL 6
REMARK VINA RESULT:    -4.862      2.393      4.923
REMARK INTER + INTRA:          -6.469
REMARK INTER:                  -6.103
REMARK INTRA:                  -0.367
REMARK UNBOUND:                -0.470
REMARK SMILES COC(=O)c1ccccc1C(=O)OC
REMARK SMILES IDX 5 1 6 2 7 3 8 4 9 5 10 6 3 7 4 8 2 9 1 10 11 11 12 12 13 13
REMARK SMILES IDX 14 14
REMARK H PARENT
REMARK Flexibility Score: inf
ROOT
ATOM      1  C   UNL     1     131.832 127.614 139.697  1.00  0.00     0.074 A 
ATOM      2  C   UNL     1     130.469 127.896 139.906  1.00  0.00     0.016 A 
ATOM      3  C   UNL     1     129.535 127.701 138.889  1.00  0.00     0.001 A 
ATOM      4  C   UNL     1     129.945 127.223 137.647  1.00  0.00     0.001 A 
ATOM      5  C   UNL     1     131.295 126.959 137.409  1.00  0.00     0.016 A 
ATOM      6  C   UNL     1     132.256 127.169 138.415  1.00  0.00     0.074 A 
ENDROOT
BRANCH   1   7
ATOM      7  C   UNL     1     132.749 127.734 140.852  1.00  0.00     0.338 C 
ATOM      8  O   UNL     1     133.228 128.856 141.172  1.00  0.00    -0.246 OA
BRANCH   7   9
ATOM      9  O   UNL     1     133.127 126.584 141.554  1.00  0.00    -0.465 OA
ATOM     10  C   UNL     1     134.481 126.297 141.882  1.00  0.00     0.282 C 
ENDBRANCH   7   9
ENDBRANCH   1   7
BRANCH   6  11
ATOM     11  C   UNL     1     133.684 126.984 138.068  1.00  0.00     0.338 C 
ATOM     12  O   UNL     1     134.383 127.980 137.734  1.00  0.00    -0.246 OA
BRANCH  11  13
ATOM     13  O   UNL     1     134.270 125.717 138.163  1.00  0.00    -0.465 OA
ATOM     14  C   UNL     1     135.408 125.337 137.400  1.00  0.00     0.282 C 
ENDBRANCH  11  13
ENDBRANCH   6  11
TORSDOF 4
ENDMDL
MODEL 7
REMARK VINA RESULT:    -4.853      2.147      3.304
REMARK INTER + INTRA:          -6.458
REMARK INTER:                  -6.088
REMARK INTRA:                  -0.370
REMARK UNBOUND:                -0.470
REMARK SMILES COC(=O)c1ccccc1C(=O)OC
REMARK SMILES IDX 5 1 6 2 7 3 8 4 9 5 10 6 3 7 4 8 2 9 1 10 11 11 12 12 13 13
REMARK SMILES IDX 14 14
REMARK H PARENT
REMARK Flexibility Score: inf
ROOT
ATOM      1  C   UNL     1     134.115 128.632 136.347  1.00  0.00     0.074 A 
ATOM      2  C   UNL     1     134.572 127.937 135.212  1.00  0.00     0.016 A 
ATOM      3  C   UNL     1     135.549 128.488 134.382  1.00  0.00     0.001 A 
ATOM      4  C   UNL     1     136.085 129.741 134.672  1.00  0.00     0.001 A 
ATOM      5  C   UNL     1     135.631 130.458 135.780  1.00  0.00     0.016 A 
ATOM      6  C   UNL     1     134.631 129.929 136.617  1.00  0.00     0.074 A 
ENDROOT
BRANCH   1   7
ATOM      7  C   UNL     1     133.163 127.941 137.245  1.00  0.00     0.338 C 
ATOM      8  O   UNL     1     133.584 127.144 138.128  1.00  0.00    -0.246 OA
BRANCH   7   9
ATOM      9  O   UNL     1     131.788 128.133 137.071  1.00  0.00    -0.465 OA
ATOM     10  C   UNL     1     130.823 127.168 137.472  1.00  0.00     0.282 C 
ENDBRANCH   7   9
ENDBRANCH   1   7
BRANCH   6  11
ATOM     11  C   UNL     1     134.107 130.785 137.707  1.00  0.00     0.338 C 
ATOM     12  O   UNL     1     134.732 130.862 138.800  1.00  0.00    -0.246 OA
BRANCH  11  13
ATOM     13  O   UNL     1     132.952 131.547 137.505  1.00  0.00    -0.465 OA
ATOM     14  C   UNL     1     131.802 131.435 138.335  1.00  0.00     0.282 C 
ENDBRANCH  11  13
ENDBRANCH   6  11
TORSDOF 4
ENDMDL
MODEL 8
REMARK VINA RESULT:    -4.849      2.169      3.742
REMARK INTER + INTRA:          -6.453
REMARK INTER:                  -6.102
REMARK INTRA:                  -0.351
REMARK UNBOUND:                -0.470
REMARK SMILES COC(=O)c1ccccc1C(=O)OC
REMARK SMILES IDX 5 1 6 2 7 3 8 4 9 5 10 6 3 7 4 8 2 9 1 10 11 11 12 12 13 13
REMARK SMILES IDX 14 14
REMARK H PARENT
REMARK Flexibility Score: inf
ROOT
ATOM      1  C   UNL     1     134.651 129.889 136.685  1.00  0.00     0.074 A 
ATOM      2  C   UNL     1     135.676 130.413 135.877  1.00  0.00     0.016 A 
ATOM      3  C   UNL     1     136.117 129.726 134.746  1.00  0.00     0.001 A 
ATOM      4  C   UNL     1     135.542 128.504 134.404  1.00  0.00     0.001 A 
ATOM      5  C   UNL     1     134.539 127.954 135.202  1.00  0.00     0.016 A 
ATOM      6  C   UNL     1     134.095 128.621 136.360  1.00  0.00     0.074 A 
ENDROOT
BRANCH   1   7
ATOM      7  C   UNL     1     134.154 130.723 137.802  1.00  0.00     0.338 C 
ATOM      8  O   UNL     1     134.596 130.551 138.971  1.00  0.00    -0.246 OA
BRANCH   7   9
ATOM      9  O   UNL     1     133.148 131.666 137.563  1.00  0.00    -0.465 OA
ATOM     10  C   UNL     1     131.920 131.674 138.281  1.00  0.00     0.282 C 
ENDBRANCH   7   9
ENDBRANCH   1   7
BRANCH   6  11
ATOM     11  C   UNL     1     133.114 127.933 137.230  1.00  0.00     0.338 C 
ATOM     12  O   UNL     1     133.517 127.139 138.125  1.00  0.00    -0.246 OA
BRANCH  11  13
ATOM     13  O   UNL     1     131.749 128.205 137.099  1.00  0.00    -0.465 OA
ATOM     14  C   UNL     1     130.744 127.226 137.334  1.00  0.00     0.282 C 
ENDBRANCH  11  13
ENDBRANCH   6  11
TORSDOF 4
ENDMDL
MODEL 9
REMARK VINA RESULT:    -4.752      2.495      4.956
REMARK INTER + INTRA:          -6.333
REMARK INTER:                  -5.994
REMARK INTRA:                  -0.339
REMARK UNBOUND:                -0.470
REMARK SMILES COC(=O)c1ccccc1C(=O)OC
REMARK SMILES IDX 5 1 6 2 7 3 8 4 9 5 10 6 3 7 4 8 2 9 1 10 11 11 12 12 13 13
REMARK SMILES IDX 14 14
REMARK H PARENT
REMARK Flexibility Score: inf
ROOT
ATOM      1  C   UNL     1     132.331 127.140 138.561  1.00  0.00     0.074 A 
ATOM      2  C   UNL     1     131.423 127.069 137.488  1.00  0.00     0.016 A 
ATOM      3  C   UNL     1     130.074 127.369 137.673  1.00  0.00     0.001 A 
ATOM      4  C   UNL     1     129.608 127.746 138.931  1.00  0.00     0.001 A 
ATOM      5  C   UNL     1     130.486 127.802 140.015  1.00  0.00     0.016 A 
ATOM      6  C   UNL     1     131.847 127.481 139.854  1.00  0.00     0.074 A 
ENDROOT
BRANCH   1   7
ATOM      7  C   UNL     1     133.765 126.919 138.270  1.00  0.00     0.338 C 
ATOM      8  O   UNL     1     134.536 127.901 138.090  1.00  0.00    -0.246 OA
BRANCH   7   9
ATOM      9  O   UNL     1     134.249 125.613 138.139  1.00  0.00    -0.465 OA
ATOM     10  C   UNL     1     135.414 125.299 137.385  1.00  0.00     0.282 C 
ENDBRANCH   7   9
ENDBRANCH   1   7
BRANCH   6  11
ATOM     11  C   UNL     1     132.704 127.443 141.062  1.00  0.00     0.338 C 
ATOM     12  O   UNL     1     133.085 126.334 141.526  1.00  0.00    -0.246 OA
BRANCH  11  13
ATOM     13  O   UNL     1     133.135 128.636 141.652  1.00  0.00    -0.465 OA
ATOM     14  C   UNL     1     133.483 129.787 140.893  1.00  0.00     0.282 C 
ENDBRANCH  11  13
ENDBRANCH   6  11
TORSDOF 4
ENDMDL
