MODEL 1
REMARK VINA RESULT:    -3.921      0.000      0.000
REMARK INTER + INTRA:          -8.969
REMARK INTER:                  -7.130
REMARK INTRA:                  -1.839
REMARK UNBOUND:                -1.839
REMARK SMILES CCCCCCCCCCCCCCCC(=O)[O-]
REMARK SMILES IDX 9 1 10 2 11 3 12 4 13 5 14 6 15 7 16 8 17 9 18 10 8 11 7 12
REMARK SMILES IDX 6 13 5 14 4 15 3 16 2 17 1 18
REMARK H PARENT
REMARK Flexibility Score: inf
ROOT
ATOM      1  C   UNL     1       9.413 -16.692  -3.336  1.00  0.00     0.000 C 
ENDROOT
BRANCH   1   2
ATOM      2  C   UNL     1      10.210 -15.376  -3.278  1.00  0.00     0.000 C 
BRANCH   2   3
ATOM      3  C   UNL     1      10.651 -14.816  -4.645  1.00  0.00     0.000 C 
BRANCH   3   4
ATOM      4  C   UNL     1      12.170 -14.606  -4.810  1.00  0.00     0.000 C 
BRANCH   4   5
ATOM      5  C   UNL     1      13.041 -15.317  -3.759  1.00  0.00     0.000 C 
BRANCH   5   6
ATOM      6  C   UNL     1      13.583 -16.667  -4.249  1.00  0.00     0.006 C 
BRANCH   6   7
ATOM      7  C   UNL     1      14.940 -16.979  -3.608  1.00  0.00     0.053 C 
BRANCH   7   8
ATOM      8  C   UNL     1      15.453 -18.300  -4.084  1.00  0.00     0.041 C 
ATOM      9  O   UNL     1      14.724 -19.046  -4.791  1.00  0.00    -0.550 OA
ATOM     10  O   UNL     1      16.717 -18.733  -3.706  1.00  0.00    -0.550 OA
ENDBRANCH   7   8
ENDBRANCH   6   7
ENDBRANCH   5   6
ENDBRANCH   4   5
ENDBRANCH   3   4
ENDBRANCH   2   3
ENDBRANCH   1   2
BRANCH   1  11
ATOM     11  C   UNL     1       9.863 -17.709  -2.274  1.00  0.00     0.000 C 
BRANCH  11  12
ATOM     12  C   UNL     1      10.207 -19.085  -2.873  1.00  0.00    -0.000 C 
BRANCH  12  13
ATOM     13  C   UNL     1      11.426 -19.105  -3.816  1.00  0.00    -0.000 C 
BRANCH  13  14
ATOM     14  C   UNL     1      11.119 -19.486  -5.279  1.00  0.00    -0.000 C 
BRANCH  14  15
ATOM     15  C   UNL     1      11.146 -18.315  -6.278  1.00  0.00    -0.000 C 
BRANCH  15  16
ATOM     16  C   UNL     1       9.742 -17.914  -6.764  1.00  0.00    -0.000 C 
BRANCH  16  17
ATOM     17  C   UNL     1       9.295 -18.717  -7.996  1.00  0.00    -0.003 C 
ATOM     18  C   UNL     1       7.849 -18.429  -8.398  1.00  0.00     0.004 C 
ENDBRANCH  16  17
ENDBRANCH  15  16
ENDBRANCH  14  15
ENDBRANCH  13  14
ENDBRANCH  12  13
ENDBRANCH  11  12
ENDBRANCH   1  11
TORSDOF 14
ENDMDL
MODEL 2
REMARK VINA RESULT:    -3.831      2.140      5.565
REMARK INTER + INTRA:          -8.807
REMARK INTER:                  -7.468
REMARK INTRA:                  -1.339
REMARK UNBOUND:                -1.839
REMARK SMILES CCCCCCCCCCCCCCCC(=O)[O-]
REMARK SMILES IDX 9 1 10 2 11 3 12 4 13 5 14 6 15 7 16 8 17 9 18 10 8 11 7 12
REMARK SMILES IDX 6 13 5 14 4 15 3 16 2 17 1 18
REMARK H PARENT
REMARK Flexibility Score: inf
ROOT
ATOM      1  C   UNL     1      11.087 -14.724  -4.513  1.00  0.00     0.000 C 
ENDROOT
BRANCH   1   2
ATOM      2  C   UNL     1      10.442 -15.322  -3.249  1.00  0.00     0.000 C 
BRANCH   2   3
ATOM      3  C   UNL     1       9.639 -16.619  -3.474  1.00  0.00     0.000 C 
BRANCH   3   4
ATOM      4  C   UNL     1       9.854 -17.717  -2.413  1.00  0.00     0.000 C 
BRANCH   4   5
ATOM      5  C   UNL     1      10.467 -19.025  -2.948  1.00  0.00     0.000 C 
BRANCH   5   6
ATOM      6  C   UNL     1      11.435 -18.795  -4.117  1.00  0.00     0.006 C 
BRANCH   6   7
ATOM      7  C   UNL     1      11.022 -19.617  -5.341  1.00  0.00     0.053 C 
BRANCH   7   8
ATOM      8  C   UNL     1      10.724 -18.720  -6.499  1.00  0.00     0.041 C 
ATOM      9  O   UNL     1      11.009 -17.494  -6.442  1.00  0.00    -0.550 OA
ATOM     10  O   UNL     1      10.084 -19.224  -7.624  1.00  0.00    -0.550 OA
ENDBRANCH   7   8
ENDBRANCH   6   7
ENDBRANCH   5   6
ENDBRANCH   4   5
ENDBRANCH   3   4
ENDBRANCH   2   3
ENDBRANCH   1   2
BRANCH   1  11
ATOM     11  C   UNL     1      12.571 -15.096  -4.658  1.00  0.00     0.000 C 
BRANCH  11  12
ATOM     12  C   UNL     1      13.218 -15.504  -3.322  1.00  0.00    -0.000 C 
BRANCH  12  13
ATOM     13  C   UNL     1      14.359 -16.534  -3.432  1.00  0.00    -0.000 C 
BRANCH  13  14
ATOM     14  C   UNL     1      14.214 -17.556  -4.578  1.00  0.00    -0.000 C 
BRANCH  14  15
ATOM     15  C   UNL     1      15.206 -18.731  -4.535  1.00  0.00    -0.000 C 
BRANCH  15  16
ATOM     16  C   UNL     1      16.445 -18.434  -3.671  1.00  0.00    -0.000 C 
BRANCH  16  17
ATOM     17  C   UNL     1      17.516 -19.531  -3.783  1.00  0.00    -0.003 C 
ATOM     18  C   UNL     1      17.414 -20.574  -2.671  1.00  0.00     0.004 C 
ENDBRANCH  16  17
ENDBRANCH  15  16
ENDBRANCH  14  15
ENDBRANCH  13  14
ENDBRANCH  12  13
ENDBRANCH  11  12
ENDBRANCH   1  11
TORSDOF 14
ENDMDL
MODEL 3
REMARK VINA RESULT:    -3.765      2.097      4.227
REMARK INTER + INTRA:          -8.686
REMARK INTER:                  -7.202
REMARK INTRA:                  -1.484
REMARK UNBOUND:                -1.839
REMARK SMILES CCCCCCCCCCCCCCCC(=O)[O-]
REMARK SMILES IDX 9 1 10 2 11 3 12 4 13 5 14 6 15 7 16 8 17 9 18 10 8 11 7 12
REMARK SMILES IDX 6 13 5 14 4 15 3 16 2 17 1 18
REMARK H PARENT
REMARK Flexibility Score: inf
ROOT
ATOM      1  C   UNL     1      13.314 -15.660  -3.125  1.00  0.00     0.000 C 
ENDROOT
BRANCH   1   2
ATOM      2  C   UNL     1      14.547 -16.515  -3.470  1.00  0.00     0.000 C 
BRANCH   2   3
ATOM      3  C   UNL     1      14.302 -17.628  -4.510  1.00  0.00     0.000 C 
BRANCH   3   4
ATOM      4  C   UNL     1      15.296 -18.805  -4.458  1.00  0.00     0.000 C 
BRANCH   4   5
ATOM      5  C   UNL     1      16.629 -18.499  -3.751  1.00  0.00     0.000 C 
BRANCH   5   6
ATOM      6  C   UNL     1      17.580 -19.704  -3.724  1.00  0.00     0.006 C 
BRANCH   6   7
ATOM      7  C   UNL     1      17.536 -20.407  -2.364  1.00  0.00     0.053 C 
BRANCH   7   8
ATOM      8  C   UNL     1      17.375 -21.883  -2.542  1.00  0.00     0.041 C 
ATOM      9  O   UNL     1      17.655 -22.423  -3.645  1.00  0.00    -0.550 OA
ATOM     10  O   UNL     1      16.868 -22.657  -1.507  1.00  0.00    -0.550 OA
ENDBRANCH   7   8
ENDBRANCH   6   7
ENDBRANCH   5   6
ENDBRANCH   4   5
ENDBRANCH   3   4
ENDBRANCH   2   3
ENDBRANCH   1   2
BRANCH   1  11
ATOM     11  C   UNL     1      12.311 -15.563  -4.286  1.00  0.00     0.000 C 
BRANCH  11  12
ATOM     12  C   UNL     1      10.889 -15.206  -3.818  1.00  0.00    -0.000 C 
BRANCH  12  13
ATOM     13  C   UNL     1       9.894 -16.383  -3.782  1.00  0.00    -0.000 C 
BRANCH  13  14
ATOM     14  C   UNL     1       9.988 -17.285  -2.534  1.00  0.00    -0.000 C 
BRANCH  14  15
ATOM     15  C   UNL     1      10.239 -18.775  -2.824  1.00  0.00    -0.000 C 
BRANCH  15  16
ATOM     16  C   UNL     1      11.417 -19.005  -3.787  1.00  0.00    -0.000 C 
BRANCH  16  17
ATOM     17  C   UNL     1      10.968 -19.594  -5.134  1.00  0.00    -0.003 C 
ATOM     18  C   UNL     1      11.151 -18.620  -6.297  1.00  0.00     0.004 C 
ENDBRANCH  16  17
ENDBRANCH  15  16
ENDBRANCH  14  15
ENDBRANCH  13  14
ENDBRANCH  12  13
ENDBRANCH  11  12
ENDBRANCH   1  11
TORSDOF 14
ENDMDL
MODEL 4
REMARK VINA RESULT:    -3.756      3.297      6.679
REMARK INTER + INTRA:          -8.670
REMARK INTER:                  -7.586
REMARK INTRA:                  -1.083
REMARK UNBOUND:                -1.839
REMARK SMILES CCCCCCCCCCCCCCCC(=O)[O-]
REMARK SMILES IDX 9 1 10 2 11 3 12 4 13 5 14 6 15 7 16 8 17 9 18 10 8 11 7 12
REMARK SMILES IDX 6 13 5 14 4 15 3 16 2 17 1 18
REMARK H PARENT
REMARK Flexibility Score: inf
ROOT
ATOM      1  C   UNL     1      13.627 -17.436  -4.277  1.00  0.00     0.000 C 
ENDROOT
BRANCH   1   2
ATOM      2  C   UNL     1      13.054 -18.810  -4.668  1.00  0.00     0.000 C 
BRANCH   2   3
ATOM      3  C   UNL     1      11.514 -18.893  -4.697  1.00  0.00     0.000 C 
BRANCH   3   4
ATOM      4  C   UNL     1      10.838 -19.048  -3.321  1.00  0.00     0.000 C 
BRANCH   4   5
ATOM      5  C   UNL     1      10.227 -17.755  -2.749  1.00  0.00     0.000 C 
BRANCH   5   6
ATOM      6  C   UNL     1       9.854 -16.740  -3.839  1.00  0.00     0.006 C 
BRANCH   6   7
ATOM      7  C   UNL     1      10.541 -15.393  -3.593  1.00  0.00     0.053 C 
BRANCH   7   8
ATOM      8  C   UNL     1      11.062 -14.829  -4.876  1.00  0.00     0.041 C 
ATOM      9  O   UNL     1      11.410 -13.620  -4.942  1.00  0.00    -0.550 OA
ATOM     10  O   UNL     1      11.117 -15.623  -6.013  1.00  0.00    -0.550 OA
ENDBRANCH   7   8
ENDBRANCH   6   7
ENDBRANCH   5   6
ENDBRANCH   4   5
ENDBRANCH   3   4
ENDBRANCH   2   3
ENDBRANCH   1   2
BRANCH   1  11
ATOM     11  C   UNL     1      15.118 -17.495  -3.905  1.00  0.00     0.000 C 
BRANCH  11  12
ATOM     12  C   UNL     1      15.737 -18.886  -4.138  1.00  0.00    -0.000 C 
BRANCH  12  13
ATOM     13  C   UNL     1      17.253 -18.983  -3.875  1.00  0.00    -0.000 C 
BRANCH  13  14
ATOM     14  C   UNL     1      17.659 -19.908  -2.710  1.00  0.00    -0.000 C 
BRANCH  14  15
ATOM     15  C   UNL     1      17.232 -21.379  -2.866  1.00  0.00    -0.000 C 
BRANCH  15  16
ATOM     16  C   UNL     1      17.256 -22.151  -1.535  1.00  0.00    -0.000 C 
BRANCH  16  17
ATOM     17  C   UNL     1      16.867 -23.628  -1.705  1.00  0.00    -0.003 C 
ATOM     18  C   UNL     1      15.450 -23.808  -2.250  1.00  0.00     0.004 C 
ENDBRANCH  16  17
ENDBRANCH  15  16
ENDBRANCH  14  15
ENDBRANCH  13  14
ENDBRANCH  12  13
ENDBRANCH  11  12
ENDBRANCH   1  11
TORSDOF 14
ENDMDL
MODEL 5
REMARK VINA RESULT:    -3.753      2.833      5.201
REMARK INTER + INTRA:          -8.665
REMARK INTER:                  -7.530
REMARK INTRA:                  -1.135
REMARK UNBOUND:                -1.839
REMARK SMILES CCCCCCCCCCCCCCCC(=O)[O-]
REMARK SMILES IDX 9 1 10 2 11 3 12 4 13 5 14 6 15 7 16 8 17 9 18 10 8 11 7 12
REMARK SMILES IDX 6 13 5 14 4 15 3 16 2 17 1 18
REMARK H PARENT
REMARK Flexibility Score: inf
ROOT
ATOM      1  C   UNL     1      13.365 -18.222  -4.560  1.00  0.00     0.000 C 
ENDROOT
BRANCH   1   2
ATOM      2  C   UNL     1      14.761 -18.845  -4.751  1.00  0.00     0.000 C 
BRANCH   2   3
ATOM      3  C   UNL     1      15.830 -18.379  -3.742  1.00  0.00     0.000 C 
BRANCH   3   4
ATOM      4  C   UNL     1      17.206 -19.060  -3.882  1.00  0.00     0.000 C 
BRANCH   4   5
ATOM      5  C   UNL     1      17.656 -19.871  -2.653  1.00  0.00     0.000 C 
BRANCH   5   6
ATOM      6  C   UNL     1      17.843 -21.364  -2.961  1.00  0.00     0.006 C 
BRANCH   6   7
ATOM      7  C   UNL     1      16.978 -22.227  -2.037  1.00  0.00     0.053 C 
BRANCH   7   8
ATOM      8  C   UNL     1      16.373 -23.364  -2.797  1.00  0.00     0.041 C 
ATOM      9  O   UNL     1      16.923 -23.787  -3.848  1.00  0.00    -0.550 OA
ATOM     10  O   UNL     1      15.175 -23.924  -2.374  1.00  0.00    -0.550 OA
ENDBRANCH   7   8
ENDBRANCH   6   7
ENDBRANCH   5   6
ENDBRANCH   4   5
ENDBRANCH   3   4
ENDBRANCH   2   3
ENDBRANCH   1   2
BRANCH   1  11
ATOM     11  C   UNL     1      12.301 -18.852  -5.472  1.00  0.00     0.000 C 
BRANCH  11  12
ATOM     12  C   UNL     1      10.941 -19.025  -4.772  1.00  0.00    -0.000 C 
BRANCH  12  13
ATOM     13  C   UNL     1      10.974 -18.914  -3.235  1.00  0.00    -0.000 C 
BRANCH  13  14
ATOM     14  C   UNL     1      10.045 -17.840  -2.634  1.00  0.00    -0.000 C 
BRANCH  14  15
ATOM     15  C   UNL     1       9.678 -16.687  -3.586  1.00  0.00    -0.000 C 
BRANCH  15  16
ATOM     16  C   UNL     1      10.583 -15.455  -3.406  1.00  0.00    -0.000 C 
BRANCH  16  17
ATOM     17  C   UNL     1      11.386 -15.125  -4.674  1.00  0.00    -0.003 C 
ATOM     18  C   UNL     1      11.467 -13.624  -4.951  1.00  0.00     0.004 C 
ENDBRANCH  16  17
ENDBRANCH  15  16
ENDBRANCH  14  15
ENDBRANCH  13  14
ENDBRANCH  12  13
ENDBRANCH  11  12
ENDBRANCH   1  11
TORSDOF 14
ENDMDL
MODEL 6
REMARK VINA RESULT:    -3.734      2.866      5.310
REMARK INTER + INTRA:          -8.629
REMARK INTER:                  -7.280
REMARK INTRA:                  -1.350
REMARK UNBOUND:                -1.839
REMARK SMILES CCCCCCCCCCCCCCCC(=O)[O-]
REMARK SMILES IDX 9 1 10 2 11 3 12 4 13 5 14 6 15 7 16 8 17 9 18 10 8 11 7 12
REMARK SMILES IDX 6 13 5 14 4 15 3 16 2 17 1 18
REMARK H PARENT
REMARK Flexibility Score: inf
ROOT
ATOM      1  C   UNL     1      13.959 -17.255  -4.579  1.00  0.00     0.000 C 
ENDROOT
BRANCH   1   2
ATOM      2  C   UNL     1      14.844 -18.503  -4.409  1.00  0.00     0.000 C 
BRANCH   2   3
ATOM      3  C   UNL     1      16.168 -18.269  -3.653  1.00  0.00     0.000 C 
BRANCH   3   4
ATOM      4  C   UNL     1      17.277 -19.303  -3.935  1.00  0.00     0.000 C 
BRANCH   4   5
ATOM      5  C   UNL     1      17.846 -20.001  -2.686  1.00  0.00     0.000 C 
BRANCH   5   6
ATOM      6  C   UNL     1      18.008 -21.516  -2.871  1.00  0.00     0.006 C 
BRANCH   6   7
ATOM      7  C   UNL     1      17.035 -22.286  -1.973  1.00  0.00     0.053 C 
BRANCH   7   8
ATOM      8  C   UNL     1      16.381 -23.393  -2.737  1.00  0.00     0.041 C 
ATOM      9  O   UNL     1      16.883 -23.799  -3.818  1.00  0.00    -0.550 OA
ATOM     10  O   UNL     1      15.191 -23.944  -2.281  1.00  0.00    -0.550 OA
ENDBRANCH   7   8
ENDBRANCH   6   7
ENDBRANCH   5   6
ENDBRANCH   4   5
ENDBRANCH   3   4
ENDBRANCH   2   3
ENDBRANCH   1   2
BRANCH   1  11
ATOM     11  C   UNL     1      14.072 -16.278  -3.398  1.00  0.00     0.000 C 
BRANCH  11  12
ATOM     12  C   UNL     1      12.938 -15.237  -3.373  1.00  0.00    -0.000 C 
BRANCH  12  13
ATOM     13  C   UNL     1      11.958 -15.304  -4.562  1.00  0.00    -0.000 C 
BRANCH  13  14
ATOM     14  C   UNL     1      10.472 -15.460  -4.180  1.00  0.00    -0.000 C 
BRANCH  14  15
ATOM     15  C   UNL     1       9.926 -16.897  -4.256  1.00  0.00    -0.000 C 
BRANCH  15  16
ATOM     16  C   UNL     1      10.323 -17.752  -3.040  1.00  0.00    -0.000 C 
BRANCH  16  17
ATOM     17  C   UNL     1      10.929 -19.105  -3.446  1.00  0.00    -0.003 C 
ATOM     18  C   UNL     1      11.157 -19.224  -4.952  1.00  0.00     0.004 C 
ENDBRANCH  16  17
ENDBRANCH  15  16
ENDBRANCH  14  15
ENDBRANCH  13  14
ENDBRANCH  12  13
ENDBRANCH  11  12
ENDBRANCH   1  11
TORSDOF 14
ENDMDL
MODEL 7
REMARK VINA RESULT:    -3.632      2.821      6.147
REMARK INTER + INTRA:          -8.443
REMARK INTER:                  -7.344
REMARK INTRA:                  -1.099
REMARK UNBOUND:                -1.839
REMARK SMILES CCCCCCCCCCCCCCCC(=O)[O-]
REMARK SMILES IDX 9 1 10 2 11 3 12 4 13 5 14 6 15 7 16 8 17 9 18 10 8 11 7 12
REMARK SMILES IDX 6 13 5 14 4 15 3 16 2 17 1 18
REMARK H PARENT
REMARK Flexibility Score: inf
ROOT
ATOM      1  C   UNL     1      14.187 -16.447  -3.836  1.00  0.00     0.000 C 
ENDROOT
BRANCH   1   2
ATOM      2  C   UNL     1      12.950 -15.679  -3.338  1.00  0.00     0.000 C 
BRANCH   2   3
ATOM      3  C   UNL     1      12.417 -14.600  -4.302  1.00  0.00     0.000 C 
BRANCH   3   4
ATOM      4  C   UNL     1      11.033 -14.892  -4.914  1.00  0.00     0.000 C 
BRANCH   4   5
ATOM      5  C   UNL     1      11.017 -16.003  -5.981  1.00  0.00     0.000 C 
BRANCH   5   6
ATOM      6  C   UNL     1      10.304 -17.276  -5.504  1.00  0.00     0.006 C 
BRANCH   6   7
ATOM      7  C   UNL     1       9.809 -17.120  -4.063  1.00  0.00     0.053 C 
BRANCH   7   8
ATOM      8  C   UNL     1      10.295 -18.254  -3.217  1.00  0.00     0.041 C 
ATOM      9  O   UNL     1      10.075 -18.259  -1.976  1.00  0.00    -0.550 OA
ATOM     10  O   UNL     1      11.035 -19.281  -3.788  1.00  0.00    -0.550 OA
ENDBRANCH   7   8
ENDBRANCH   6   7
ENDBRANCH   5   6
ENDBRANCH   4   5
ENDBRANCH   3   4
ENDBRANCH   2   3
ENDBRANCH   1   2
BRANCH   1  11
ATOM     11  C   UNL     1      13.839 -17.827  -4.418  1.00  0.00     0.000 C 
BRANCH  11  12
ATOM     12  C   UNL     1      15.079 -18.712  -4.641  1.00  0.00    -0.000 C 
BRANCH  12  13
ATOM     13  C   UNL     1      16.277 -18.408  -3.720  1.00  0.00    -0.000 C 
BRANCH  13  14
ATOM     14  C   UNL     1      17.481 -19.360  -3.872  1.00  0.00    -0.000 C 
BRANCH  14  15
ATOM     15  C   UNL     1      17.874 -20.124  -2.595  1.00  0.00    -0.000 C 
BRANCH  15  16
ATOM     16  C   UNL     1      17.998 -21.641  -2.822  1.00  0.00    -0.000 C 
BRANCH  16  17
ATOM     17  C   UNL     1      17.035 -22.448  -1.938  1.00  0.00    -0.003 C 
ATOM     18  C   UNL     1      16.011 -23.242  -2.748  1.00  0.00     0.004 C 
ENDBRANCH  16  17
ENDBRANCH  15  16
ENDBRANCH  14  15
ENDBRANCH  13  14
ENDBRANCH  12  13
ENDBRANCH  11  12
ENDBRANCH   1  11
TORSDOF 14
ENDMDL
MODEL 8
REMARK VINA RESULT:    -3.446      2.626      6.062
REMARK INTER + INTRA:          -8.106
REMARK INTER:                  -6.908
REMARK INTRA:                  -1.198
REMARK UNBOUND:                -1.839
REMARK SMILES CCCCCCCCCCCCCCCC(=O)[O-]
REMARK SMILES IDX 9 1 10 2 11 3 12 4 13 5 14 6 15 7 16 8 17 9 18 10 8 11 7 12
REMARK SMILES IDX 6 13 5 14 4 15 3 16 2 17 1 18
REMARK H PARENT
REMARK Flexibility Score: inf
ROOT
ATOM      1  C   UNL     1      13.539 -15.490  -3.052  1.00  0.00     0.000 C 
ENDROOT
BRANCH   1   2
ATOM      2  C   UNL     1      12.436 -15.616  -4.118  1.00  0.00     0.000 C 
BRANCH   2   3
ATOM      3  C   UNL     1      11.016 -15.254  -3.639  1.00  0.00     0.000 C 
BRANCH   3   4
ATOM      4  C   UNL     1      10.120 -16.454  -3.271  1.00  0.00     0.000 C 
BRANCH   4   5
ATOM      5  C   UNL     1      10.874 -17.772  -3.017  1.00  0.00     0.000 C 
BRANCH   5   6
ATOM      6  C   UNL     1      10.422 -18.906  -3.949  1.00  0.00     0.006 C 
BRANCH   6   7
ATOM      7  C   UNL     1      11.355 -19.025  -5.159  1.00  0.00     0.053 C 
BRANCH   7   8
ATOM      8  C   UNL     1      10.706 -18.453  -6.379  1.00  0.00     0.041 C 
ATOM      9  O   UNL     1      10.257 -19.217  -7.275  1.00  0.00    -0.550 OA
ATOM     10  O   UNL     1      10.641 -17.077  -6.552  1.00  0.00    -0.550 OA
ENDBRANCH   7   8
ENDBRANCH   6   7
ENDBRANCH   5   6
ENDBRANCH   4   5
ENDBRANCH   3   4
ENDBRANCH   2   3
ENDBRANCH   1   2
BRANCH   1  11
ATOM     11  C   UNL     1      14.694 -16.481  -3.268  1.00  0.00     0.000 C 
BRANCH  11  12
ATOM     12  C   UNL     1      14.328 -17.623  -4.233  1.00  0.00    -0.000 C 
BRANCH  12  13
ATOM     13  C   UNL     1      15.486 -18.576  -4.592  1.00  0.00    -0.000 C 
BRANCH  13  14
ATOM     14  C   UNL     1      16.581 -18.715  -3.515  1.00  0.00    -0.000 C 
BRANCH  14  15
ATOM     15  C   UNL     1      17.307 -20.071  -3.494  1.00  0.00    -0.000 C 
BRANCH  15  16
ATOM     16  C   UNL     1      17.758 -20.484  -2.081  1.00  0.00    -0.000 C 
BRANCH  16  17
ATOM     17  C   UNL     1      17.402 -21.943  -1.754  1.00  0.00    -0.003 C 
ATOM     18  C   UNL     1      16.549 -22.602  -2.838  1.00  0.00     0.004 C 
ENDBRANCH  16  17
ENDBRANCH  15  16
ENDBRANCH  14  15
ENDBRANCH  13  14
ENDBRANCH  12  13
ENDBRANCH  11  12
ENDBRANCH   1  11
TORSDOF 14
ENDMDL
MODEL 9
REMARK VINA RESULT:    -2.491      1.179      2.638
REMARK INTER + INTRA:          -6.369
REMARK INTER:                  -4.814
REMARK INTRA:                  -1.556
REMARK UNBOUND:                -1.839
REMARK SMILES CCCCCCCCCCCCCCCC(=O)[O-]
REMARK SMILES IDX 9 1 10 2 11 3 12 4 13 5 14 6 15 7 16 8 17 9 18 10 8 11 7 12
REMARK SMILES IDX 6 13 5 14 4 15 3 16 2 17 1 18
REMARK H PARENT
REMARK Flexibility Score: inf
ROOT
ATOM      1  C   UNL     1      11.020 -14.978  -4.866  1.00  0.00     0.000 C 
ENDROOT
BRANCH   1   2
ATOM      2  C   UNL     1      12.557 -15.016  -4.790  1.00  0.00     0.000 C 
BRANCH   2   3
ATOM      3  C   UNL     1      13.135 -15.452  -3.428  1.00  0.00     0.000 C 
BRANCH   3   4
ATOM      4  C   UNL     1      14.207 -16.557  -3.493  1.00  0.00     0.000 C 
BRANCH   4   5
ATOM      5  C   UNL     1      14.039 -17.558  -4.651  1.00  0.00     0.000 C 
BRANCH   5   6
ATOM      6  C   UNL     1      15.138 -18.629  -4.677  1.00  0.00     0.006 C 
BRANCH   6   7
ATOM      7  C   UNL     1      16.116 -18.440  -3.513  1.00  0.00     0.053 C 
BRANCH   7   8
ATOM      8  C   UNL     1      17.379 -19.202  -3.760  1.00  0.00     0.041 C 
ATOM      9  O   UNL     1      17.794 -20.033  -2.910  1.00  0.00    -0.550 OA
ATOM     10  O   UNL     1      18.125 -18.959  -4.905  1.00  0.00    -0.550 OA
ENDBRANCH   7   8
ENDBRANCH   6   7
ENDBRANCH   5   6
ENDBRANCH   4   5
ENDBRANCH   3   4
ENDBRANCH   2   3
ENDBRANCH   1   2
BRANCH   1  11
ATOM     11  C   UNL     1      10.347 -15.341  -3.533  1.00  0.00     0.000 C 
BRANCH  11  12
ATOM     12  C   UNL     1       9.495 -16.621  -3.623  1.00  0.00    -0.000 C 
BRANCH  12  13
ATOM     13  C   UNL     1       9.641 -17.592  -2.434  1.00  0.00    -0.000 C 
BRANCH  13  14
ATOM     14  C   UNL     1      10.281 -18.953  -2.774  1.00  0.00    -0.000 C 
BRANCH  14  15
ATOM     15  C   UNL     1      11.406 -18.902  -3.823  1.00  0.00    -0.000 C 
BRANCH  15  16
ATOM     16  C   UNL     1      10.960 -19.420  -5.201  1.00  0.00    -0.000 C 
BRANCH  16  17
ATOM     17  C   UNL     1      10.945 -18.314  -6.268  1.00  0.00    -0.003 C 
ATOM     18  C   UNL     1       9.841 -18.507  -7.307  1.00  0.00     0.004 C 
ENDBRANCH  16  17
ENDBRANCH  15  16
ENDBRANCH  14  15
ENDBRANCH  13  14
ENDBRANCH  12  13
ENDBRANCH  11  12
ENDBRANCH   1  11
TORSDOF 14
ENDMDL
