MODEL 1
REMARK VINA RESULT:    -5.445      0.000      0.000
REMARK INTER + INTRA:         -11.411
REMARK INTER:                 -10.538
REMARK INTRA:                  -0.872
REMARK UNBOUND:                -0.872
REMARK SMILES CCCCCCCCCCCCCCCCCC(=O)[O-]
REMARK SMILES IDX 10 1 11 2 12 3 13 4 14 5 15 6 16 7 17 8 18 9 19 10 20 11
REMARK SMILES IDX 9 12 8 13 7 14 6 15 5 16 4 17 3 18 2 19 1 20
REMARK H PARENT
REMARK Flexibility Score: inf
ROOT
ATOM      1  C   UNL     1       4.932  41.974  46.916  1.00  0.00     0.000 C 
ENDROOT
BRANCH   1   2
ATOM      2  C   UNL     1       5.702  41.896  48.244  1.00  0.00     0.000 C 
BRANCH   2   3
ATOM      3  C   UNL     1       6.267  40.488  48.468  1.00  0.00     0.000 C 
BRANCH   3   4
ATOM      4  C   UNL     1       7.801  40.509  48.511  1.00  0.00     0.000 C 
BRANCH   4   5
ATOM      5  C   UNL     1       8.443  39.735  47.347  1.00  0.00     0.000 C 
BRANCH   5   6
ATOM      6  C   UNL     1       9.965  39.959  47.222  1.00  0.00     0.000 C 
BRANCH   6   7
ATOM      7  C   UNL     1      10.620  40.262  48.580  1.00  0.00     0.006 C 
BRANCH   7   8
ATOM      8  C   UNL     1      12.148  40.362  48.479  1.00  0.00     0.053 C 
BRANCH   8   9
ATOM      9  C   UNL     1      12.801  39.026  48.665  1.00  0.00     0.041 C 
ATOM     10  O   UNL     1      12.256  38.148  49.385  1.00  0.00    -0.550 OA
ATOM     11  O   UNL     1      13.997  38.740  48.018  1.00  0.00    -0.550 OA
ENDBRANCH   8   9
ENDBRANCH   7   8
ENDBRANCH   6   7
ENDBRANCH   5   6
ENDBRANCH   4   5
ENDBRANCH   3   4
ENDBRANCH   2   3
ENDBRANCH   1   2
BRANCH   1  12
ATOM     12  C   UNL     1       5.858  41.946  45.690  1.00  0.00     0.000 C 
BRANCH  12  13
ATOM     13  C   UNL     1       5.301  42.764  44.512  1.00  0.00    -0.000 C 
BRANCH  13  14
ATOM     14  C   UNL     1       6.366  43.075  43.442  1.00  0.00    -0.000 C 
BRANCH  14  15
ATOM     15  C   UNL     1       7.048  44.448  43.579  1.00  0.00    -0.000 C 
BRANCH  15  16
ATOM     16  C   UNL     1       8.204  44.645  42.582  1.00  0.00    -0.000 C 
BRANCH  16  17
ATOM     17  C   UNL     1       7.700  45.035  41.180  1.00  0.00    -0.000 C 
BRANCH  17  18
ATOM     18  C   UNL     1       7.282  46.518  41.075  1.00  0.00    -0.000 C 
BRANCH  18  19
ATOM     19  C   UNL     1       8.316  47.397  40.351  1.00  0.00    -0.003 C 
ATOM     20  C   UNL     1       9.267  48.109  41.310  1.00  0.00     0.004 C 
ENDBRANCH  18  19
ENDBRANCH  17  18
ENDBRANCH  16  17
ENDBRANCH  15  16
ENDBRANCH  14  15
ENDBRANCH  13  14
ENDBRANCH  12  13
ENDBRANCH   1  12
TORSDOF 16
ENDMDL
MODEL 2
REMARK VINA RESULT:    -5.429      1.806      3.589
REMARK INTER + INTRA:         -11.380
REMARK INTER:                  -9.613
REMARK INTRA:                  -1.767
REMARK UNBOUND:                -0.872
REMARK SMILES CCCCCCCCCCCCCCCCCC(=O)[O-]
REMARK SMILES IDX 10 1 11 2 12 3 13 4 14 5 15 6 16 7 17 8 18 9 19 10 20 11
REMARK SMILES IDX 9 12 8 13 7 14 6 15 5 16 4 17 3 18 2 19 1 20
REMARK H PARENT
REMARK Flexibility Score: inf
ROOT
ATOM      1  C   UNL     1       6.039  42.111  43.955  1.00  0.00     0.000 C 
ENDROOT
BRANCH   1   2
ATOM      2  C   UNL     1       6.225  41.597  45.391  1.00  0.00     0.000 C 
BRANCH   2   3
ATOM      3  C   UNL     1       5.143  42.163  46.320  1.00  0.00     0.000 C 
BRANCH   3   4
ATOM      4  C   UNL     1       5.447  41.832  47.787  1.00  0.00     0.000 C 
BRANCH   4   5
ATOM      5  C   UNL     1       6.311  40.570  47.950  1.00  0.00     0.000 C 
BRANCH   5   6
ATOM      6  C   UNL     1       7.589  40.799  48.784  1.00  0.00     0.000 C 
BRANCH   6   7
ATOM      7  C   UNL     1       8.834  40.190  48.116  1.00  0.00     0.006 C 
BRANCH   7   8
ATOM      8  C   UNL     1      10.050  40.185  49.051  1.00  0.00     0.053 C 
BRANCH   8   9
ATOM      9  C   UNL     1      11.072  39.178  48.619  1.00  0.00     0.041 C 
ATOM     10  O   UNL     1      11.093  38.763  47.431  1.00  0.00    -0.550 OA
ATOM     11  O   UNL     1      12.022  38.720  49.524  1.00  0.00    -0.550 OA
ENDBRANCH   8   9
ENDBRANCH   7   8
ENDBRANCH   6   7
ENDBRANCH   5   6
ENDBRANCH   4   5
ENDBRANCH   3   4
ENDBRANCH   2   3
ENDBRANCH   1   2
BRANCH   1  12
ATOM     12  C   UNL     1       5.947  43.644  43.880  1.00  0.00     0.000 C 
BRANCH  12  13
ATOM     13  C   UNL     1       7.322  44.310  43.702  1.00  0.00    -0.000 C 
BRANCH  13  14
ATOM     14  C   UNL     1       7.470  45.025  42.346  1.00  0.00    -0.000 C 
BRANCH  14  15
ATOM     15  C   UNL     1       7.836  44.113  41.162  1.00  0.00    -0.000 C 
BRANCH  15  16
ATOM     16  C   UNL     1       9.345  44.095  40.862  1.00  0.00    -0.000 C 
BRANCH  16  17
ATOM     17  C   UNL     1       9.922  42.668  40.876  1.00  0.00    -0.000 C 
BRANCH  17  18
ATOM     18  C   UNL     1       9.037  41.662  41.646  1.00  0.00    -0.000 C 
BRANCH  18  19
ATOM     19  C   UNL     1       9.565  41.331  43.051  1.00  0.00    -0.003 C 
ATOM     20  C   UNL     1       9.106  39.963  43.553  1.00  0.00     0.004 C 
ENDBRANCH  18  19
ENDBRANCH  17  18
ENDBRANCH  16  17
ENDBRANCH  15  16
ENDBRANCH  14  15
ENDBRANCH  13  14
ENDBRANCH  12  13
ENDBRANCH   1  12
TORSDOF 16
ENDMDL
MODEL 3
REMARK VINA RESULT:    -5.415      3.286      6.313
REMARK INTER + INTRA:         -11.353
REMARK INTER:                  -9.522
REMARK INTRA:                  -1.831
REMARK UNBOUND:                -0.872
REMARK SMILES CCCCCCCCCCCCCCCCCC(=O)[O-]
REMARK SMILES IDX 10 1 11 2 12 3 13 4 14 5 15 6 16 7 17 8 18 9 19 10 20 11
REMARK SMILES IDX 9 12 8 13 7 14 6 15 5 16 4 17 3 18 2 19 1 20
REMARK H PARENT
REMARK Flexibility Score: inf
ROOT
ATOM      1  C   UNL     1       7.455  46.535  41.541  1.00  0.00     0.000 C 
ENDROOT
BRANCH   1   2
ATOM      2  C   UNL     1       7.468  45.007  41.705  1.00  0.00     0.000 C 
BRANCH   2   3
ATOM      3  C   UNL     1       7.250  44.612  43.170  1.00  0.00     0.000 C 
BRANCH   3   4
ATOM      4  C   UNL     1       6.841  43.137  43.290  1.00  0.00     0.000 C 
BRANCH   4   5
ATOM      5  C   UNL     1       5.627  42.924  44.209  1.00  0.00     0.000 C 
BRANCH   5   6
ATOM      6  C   UNL     1       5.963  42.173  45.514  1.00  0.00     0.000 C 
BRANCH   6   7
ATOM      7  C   UNL     1       4.799  42.206  46.519  1.00  0.00     0.006 C 
BRANCH   7   8
ATOM      8  C   UNL     1       5.287  42.182  47.973  1.00  0.00     0.053 C 
BRANCH   8   9
ATOM      9  C   UNL     1       6.083  40.947  48.268  1.00  0.00     0.041 C 
ATOM     10  O   UNL     1       5.629  39.812  47.964  1.00  0.00    -0.550 OA
ATOM     11  O   UNL     1       7.338  41.052  48.853  1.00  0.00    -0.550 OA
ENDBRANCH   8   9
ENDBRANCH   7   8
ENDBRANCH   6   7
ENDBRANCH   5   6
ENDBRANCH   4   5
ENDBRANCH   3   4
ENDBRANCH   2   3
ENDBRANCH   1   2
BRANCH   1  12
ATOM     12  C   UNL     1       7.903  46.986  40.141  1.00  0.00     0.000 C 
BRANCH  12  13
ATOM     13  C   UNL     1       9.391  47.376  40.095  1.00  0.00    -0.000 C 
BRANCH  13  14
ATOM     14  C   UNL     1       9.997  47.591  41.494  1.00  0.00    -0.000 C 
BRANCH  14  15
ATOM     15  C   UNL     1      11.143  46.632  41.864  1.00  0.00    -0.000 C 
BRANCH  15  16
ATOM     16  C   UNL     1      11.406  45.566  40.785  1.00  0.00    -0.000 C 
BRANCH  16  17
ATOM     17  C   UNL     1      10.939  44.168  41.227  1.00  0.00    -0.000 C 
BRANCH  17  18
ATOM     18  C   UNL     1      10.894  43.998  42.762  1.00  0.00    -0.000 C 
BRANCH  18  19
ATOM     19  C   UNL     1      11.046  42.538  43.222  1.00  0.00    -0.003 C 
ATOM     20  C   UNL     1      10.262  41.556  42.354  1.00  0.00     0.004 C 
ENDBRANCH  18  19
ENDBRANCH  17  18
ENDBRANCH  16  17
ENDBRANCH  15  16
ENDBRANCH  14  15
ENDBRANCH  13  14
ENDBRANCH  12  13
ENDBRANCH   1  12
TORSDOF 16
ENDMDL
MODEL 4
REMARK VINA RESULT:    -5.332      2.474      7.085
REMARK INTER + INTRA:         -11.191
REMARK INTER:                  -9.735
REMARK INTRA:                  -1.456
REMARK UNBOUND:                -0.872
REMARK SMILES CCCCCCCCCCCCCCCCCC(=O)[O-]
REMARK SMILES IDX 10 1 11 2 12 3 13 4 14 5 15 6 16 7 17 8 18 9 19 10 20 11
REMARK SMILES IDX 9 12 8 13 7 14 6 15 5 16 4 17 3 18 2 19 1 20
REMARK H PARENT
REMARK Flexibility Score: inf
ROOT
ATOM      1  C   UNL     1       6.159  41.886  44.851  1.00  0.00     0.000 C 
ENDROOT
BRANCH   1   2
ATOM      2  C   UNL     1       6.168  42.754  43.583  1.00  0.00     0.000 C 
BRANCH   2   3
ATOM      3  C   UNL     1       6.737  44.147  43.878  1.00  0.00     0.000 C 
BRANCH   3   4
ATOM      4  C   UNL     1       7.731  44.578  42.791  1.00  0.00     0.000 C 
BRANCH   4   5
ATOM      5  C   UNL     1       8.945  43.640  42.683  1.00  0.00     0.000 C 
BRANCH   5   6
ATOM      6  C   UNL     1       9.120  43.015  41.283  1.00  0.00     0.000 C 
BRANCH   6   7
ATOM      7  C   UNL     1       9.690  41.588  41.352  1.00  0.00     0.006 C 
BRANCH   7   8
ATOM      8  C   UNL     1       9.114  40.788  42.527  1.00  0.00     0.053 C 
BRANCH   8   9
ATOM      9  C   UNL     1      10.194  40.112  43.316  1.00  0.00     0.041 C 
ATOM     10  O   UNL     1      11.339  39.952  42.817  1.00  0.00    -0.550 OA
ATOM     11  O   UNL     1       9.943  39.684  44.613  1.00  0.00    -0.550 OA
ENDBRANCH   8   9
ENDBRANCH   7   8
ENDBRANCH   6   7
ENDBRANCH   5   6
ENDBRANCH   4   5
ENDBRANCH   3   4
ENDBRANCH   2   3
ENDBRANCH   1   2
BRANCH   1  12
ATOM     12  C   UNL     1       5.331  42.505  45.990  1.00  0.00     0.000 C 
BRANCH  12  13
ATOM     13  C   UNL     1       5.034  41.500  47.116  1.00  0.00    -0.000 C 
BRANCH  13  14
ATOM     14  C   UNL     1       5.606  41.940  48.477  1.00  0.00    -0.000 C 
BRANCH  14  15
ATOM     15  C   UNL     1       6.919  41.251  48.888  1.00  0.00    -0.000 C 
BRANCH  15  16
ATOM     16  C   UNL     1       7.268  40.045  47.997  1.00  0.00    -0.000 C 
BRANCH  16  17
ATOM     17  C   UNL     1       8.636  39.436  48.355  1.00  0.00    -0.000 C 
BRANCH  17  18
ATOM     18  C   UNL     1       9.560  40.419  49.109  1.00  0.00    -0.000 C 
BRANCH  18  19
ATOM     19  C   UNL     1      11.038  40.302  48.704  1.00  0.00    -0.003 C 
ATOM     20  C   UNL     1      11.810  39.292  49.552  1.00  0.00     0.004 C 
ENDBRANCH  18  19
ENDBRANCH  17  18
ENDBRANCH  16  17
ENDBRANCH  15  16
ENDBRANCH  14  15
ENDBRANCH  13  14
ENDBRANCH  12  13
ENDBRANCH   1  12
TORSDOF 16
ENDMDL
MODEL 5
REMARK VINA RESULT:    -5.310      3.819      7.546
REMARK INTER + INTRA:         -11.148
REMARK INTER:                  -9.304
REMARK INTRA:                  -1.845
REMARK UNBOUND:                -0.872
REMARK SMILES CCCCCCCCCCCCCCCCCC(=O)[O-]
REMARK SMILES IDX 10 1 11 2 12 3 13 4 14 5 15 6 16 7 17 8 18 9 19 10 20 11
REMARK SMILES IDX 9 12 8 13 7 14 6 15 5 16 4 17 3 18 2 19 1 20
REMARK H PARENT
REMARK Flexibility Score: inf
ROOT
ATOM      1  C   UNL     1       8.985  39.856  47.633  1.00  0.00     0.000 C 
ENDROOT
BRANCH   1   2
ATOM      2  C   UNL     1       8.082  40.574  48.649  1.00  0.00     0.000 C 
BRANCH   2   3
ATOM      3  C   UNL     1       6.601  40.365  48.308  1.00  0.00     0.000 C 
BRANCH   3   4
ATOM      4  C   UNL     1       5.791  41.643  48.563  1.00  0.00     0.000 C 
BRANCH   4   5
ATOM      5  C   UNL     1       5.120  42.191  47.292  1.00  0.00     0.000 C 
BRANCH   5   6
ATOM      6  C   UNL     1       5.676  41.581  45.988  1.00  0.00     0.000 C 
BRANCH   6   7
ATOM      7  C   UNL     1       5.543  42.543  44.795  1.00  0.00     0.006 C 
BRANCH   7   8
ATOM      8  C   UNL     1       6.603  42.282  43.718  1.00  0.00     0.053 C 
BRANCH   8   9
ATOM      9  C   UNL     1       7.002  43.547  43.020  1.00  0.00     0.041 C 
ATOM     10  O   UNL     1       7.412  43.513  41.830  1.00  0.00    -0.550 OA
ATOM     11  O   UNL     1       6.893  44.767  43.675  1.00  0.00    -0.550 OA
ENDBRANCH   8   9
ENDBRANCH   7   8
ENDBRANCH   6   7
ENDBRANCH   5   6
ENDBRANCH   4   5
ENDBRANCH   3   4
ENDBRANCH   2   3
ENDBRANCH   1   2
BRANCH   1  12
ATOM     12  C   UNL     1       9.905  38.814  48.288  1.00  0.00     0.000 C 
BRANCH  12  13
ATOM     13  C   UNL     1      11.120  39.452  48.982  1.00  0.00    -0.000 C 
BRANCH  13  14
ATOM     14  C   UNL     1      12.456  38.811  48.560  1.00  0.00    -0.000 C 
BRANCH  14  15
ATOM     15  C   UNL     1      13.460  39.770  47.895  1.00  0.00    -0.000 C 
BRANCH  15  16
ATOM     16  C   UNL     1      12.792  41.026  47.309  1.00  0.00    -0.000 C 
BRANCH  16  17
ATOM     17  C   UNL     1      12.819  41.033  45.770  1.00  0.00    -0.000 C 
BRANCH  17  18
ATOM     18  C   UNL     1      11.536  40.450  45.136  1.00  0.00    -0.000 C 
BRANCH  18  19
ATOM     19  C   UNL     1      11.665  38.969  44.744  1.00  0.00    -0.003 C 
ATOM     20  C   UNL     1      10.314  38.291  44.526  1.00  0.00     0.004 C 
ENDBRANCH  18  19
ENDBRANCH  17  18
ENDBRANCH  16  17
ENDBRANCH  15  16
ENDBRANCH  14  15
ENDBRANCH  13  14
ENDBRANCH  12  13
ENDBRANCH   1  12
TORSDOF 16
ENDMDL
MODEL 6
REMARK VINA RESULT:    -5.288      3.130      6.657
REMARK INTER + INTRA:         -11.107
REMARK INTER:                  -9.494
REMARK INTRA:                  -1.613
REMARK UNBOUND:                -0.872
REMARK SMILES CCCCCCCCCCCCCCCCCC(=O)[O-]
REMARK SMILES IDX 10 1 11 2 12 3 13 4 14 5 15 6 16 7 17 8 18 9 19 10 20 11
REMARK SMILES IDX 9 12 8 13 7 14 6 15 5 16 4 17 3 18 2 19 1 20
REMARK H PARENT
REMARK Flexibility Score: inf
ROOT
ATOM      1  C   UNL     1       7.986  44.006  41.328  1.00  0.00     0.000 C 
ENDROOT
BRANCH   1   2
ATOM      2  C   UNL     1       7.495  45.094  42.295  1.00  0.00     0.000 C 
BRANCH   2   3
ATOM      3  C   UNL     1       7.099  44.488  43.646  1.00  0.00     0.000 C 
BRANCH   3   4
ATOM      4  C   UNL     1       6.729  43.005  43.499  1.00  0.00     0.000 C 
BRANCH   4   5
ATOM      5  C   UNL     1       5.437  42.633  44.244  1.00  0.00     0.000 C 
BRANCH   5   6
ATOM      6  C   UNL     1       5.663  42.256  45.723  1.00  0.00     0.000 C 
BRANCH   6   7
ATOM      7  C   UNL     1       6.142  40.803  45.885  1.00  0.00     0.006 C 
BRANCH   7   8
ATOM      8  C   UNL     1       5.729  40.201  47.233  1.00  0.00     0.053 C 
BRANCH   8   9
ATOM      9  C   UNL     1       6.788  40.401  48.275  1.00  0.00     0.041 C 
ATOM     10  O   UNL     1       6.766  41.420  49.015  1.00  0.00    -0.550 OA
ATOM     11  O   UNL     1       7.782  39.447  48.447  1.00  0.00    -0.550 OA
ENDBRANCH   8   9
ENDBRANCH   7   8
ENDBRANCH   6   7
ENDBRANCH   5   6
ENDBRANCH   4   5
ENDBRANCH   3   4
ENDBRANCH   2   3
ENDBRANCH   1   2
BRANCH   1  12
ATOM     12  C   UNL     1       9.374  44.312  40.742  1.00  0.00     0.000 C 
BRANCH  12  13
ATOM     13  C   UNL     1      10.327  43.107  40.824  1.00  0.00    -0.000 C 
BRANCH  13  14
ATOM     14  C   UNL     1       9.604  41.794  41.176  1.00  0.00    -0.000 C 
BRANCH  14  15
ATOM     15  C   UNL     1      10.105  41.093  42.451  1.00  0.00    -0.000 C 
BRANCH  15  16
ATOM     16  C   UNL     1       9.015  40.255  43.144  1.00  0.00    -0.000 C 
BRANCH  16  17
ATOM     17  C   UNL     1       9.609  39.232  44.128  1.00  0.00    -0.000 C 
BRANCH  17  18
ATOM     18  C   UNL     1      11.133  39.390  44.324  1.00  0.00    -0.000 C 
BRANCH  18  19
ATOM     19  C   UNL     1      11.950  38.223  43.746  1.00  0.00    -0.003 C 
ATOM     20  C   UNL     1      13.158  38.686  42.933  1.00  0.00     0.004 C 
ENDBRANCH  18  19
ENDBRANCH  17  18
ENDBRANCH  16  17
ENDBRANCH  15  16
ENDBRANCH  14  15
ENDBRANCH  13  14
ENDBRANCH  12  13
ENDBRANCH   1  12
TORSDOF 16
ENDMDL
MODEL 7
REMARK VINA RESULT:    -5.277      4.130      7.522
REMARK INTER + INTRA:         -11.085
REMARK INTER:                  -9.104
REMARK INTRA:                  -1.982
REMARK UNBOUND:                -0.872
REMARK SMILES CCCCCCCCCCCCCCCCCC(=O)[O-]
REMARK SMILES IDX 10 1 11 2 12 3 13 4 14 5 15 6 16 7 17 8 18 9 19 10 20 11
REMARK SMILES IDX 9 12 8 13 7 14 6 15 5 16 4 17 3 18 2 19 1 20
REMARK H PARENT
REMARK Flexibility Score: inf
ROOT
ATOM      1  C   UNL     1      11.896  39.629  49.780  1.00  0.00     0.000 C 
ENDROOT
BRANCH   1   2
ATOM      2  C   UNL     1      10.688  40.578  49.758  1.00  0.00     0.000 C 
BRANCH   2   3
ATOM      3  C   UNL     1       9.662  40.133  48.709  1.00  0.00     0.000 C 
BRANCH   3   4
ATOM      4  C   UNL     1       8.292  40.773  48.970  1.00  0.00     0.000 C 
BRANCH   4   5
ATOM      5  C   UNL     1       7.249  40.418  47.897  1.00  0.00     0.000 C 
BRANCH   5   6
ATOM      6  C   UNL     1       6.007  41.333  47.915  1.00  0.00     0.000 C 
BRANCH   6   7
ATOM      7  C   UNL     1       5.694  41.913  46.525  1.00  0.00     0.006 C 
BRANCH   7   8
ATOM      8  C   UNL     1       6.248  41.038  45.393  1.00  0.00     0.053 C 
BRANCH   8   9
ATOM      9  C   UNL     1       6.342  41.798  44.105  1.00  0.00     0.041 C 
ATOM     10  O   UNL     1       5.389  42.532  43.730  1.00  0.00    -0.550 OA
ATOM     11  O   UNL     1       7.494  41.718  43.333  1.00  0.00    -0.550 OA
ENDBRANCH   8   9
ENDBRANCH   7   8
ENDBRANCH   6   7
ENDBRANCH   5   6
ENDBRANCH   4   5
ENDBRANCH   3   4
ENDBRANCH   2   3
ENDBRANCH   1   2
BRANCH   1  12
ATOM     12  C   UNL     1      12.188  39.005  48.406  1.00  0.00     0.000 C 
BRANCH  12  13
ATOM     13  C   UNL     1      13.432  39.610  47.734  1.00  0.00    -0.000 C 
BRANCH  13  14
ATOM     14  C   UNL     1      13.125  40.907  46.961  1.00  0.00    -0.000 C 
BRANCH  14  15
ATOM     15  C   UNL     1      13.188  40.784  45.428  1.00  0.00    -0.000 C 
BRANCH  15  16
ATOM     16  C   UNL     1      13.920  39.516  44.957  1.00  0.00    -0.000 C 
BRANCH  16  17
ATOM     17  C   UNL     1      13.054  38.662  44.014  1.00  0.00    -0.000 C 
BRANCH  17  18
ATOM     18  C   UNL     1      11.785  38.102  44.695  1.00  0.00    -0.000 C 
BRANCH  18  19
ATOM     19  C   UNL     1      10.478  38.681  44.128  1.00  0.00    -0.003 C 
ATOM     20  C   UNL     1       9.688  39.486  45.158  1.00  0.00     0.004 C 
ENDBRANCH  18  19
ENDBRANCH  17  18
ENDBRANCH  16  17
ENDBRANCH  15  16
ENDBRANCH  14  15
ENDBRANCH  13  14
ENDBRANCH  12  13
ENDBRANCH   1  12
TORSDOF 16
ENDMDL
MODEL 8
REMARK VINA RESULT:    -5.253      2.593      4.026
REMARK INTER + INTRA:         -11.039
REMARK INTER:                  -8.957
REMARK INTRA:                  -2.082
REMARK UNBOUND:                -0.872
REMARK SMILES CCCCCCCCCCCCCCCCCC(=O)[O-]
REMARK SMILES IDX 10 1 11 2 12 3 13 4 14 5 15 6 16 7 17 8 18 9 19 10 20 11
REMARK SMILES IDX 9 12 8 13 7 14 6 15 5 16 4 17 3 18 2 19 1 20
REMARK H PARENT
REMARK Flexibility Score: inf
ROOT
ATOM      1  C   UNL     1       5.770  41.487  46.102  1.00  0.00     0.000 C 
ENDROOT
BRANCH   1   2
ATOM      2  C   UNL     1       5.598  41.717  47.611  1.00  0.00     0.000 C 
BRANCH   2   3
ATOM      3  C   UNL     1       6.695  40.995  48.403  1.00  0.00     0.000 C 
BRANCH   3   4
ATOM      4  C   UNL     1       7.514  40.069  47.493  1.00  0.00     0.000 C 
BRANCH   4   5
ATOM      5  C   UNL     1       8.077  38.845  48.234  1.00  0.00     0.000 C 
BRANCH   5   6
ATOM      6  C   UNL     1       9.619  38.788  48.251  1.00  0.00     0.000 C 
BRANCH   6   7
ATOM      7  C   UNL     1      10.242  40.096  48.770  1.00  0.00     0.006 C 
BRANCH   7   8
ATOM      8  C   UNL     1      11.649  39.881  49.343  1.00  0.00     0.053 C 
BRANCH   8   9
ATOM      9  C   UNL     1      12.700  39.997  48.281  1.00  0.00     0.041 C 
ATOM     10  O   UNL     1      13.176  38.962  47.743  1.00  0.00    -0.550 OA
ATOM     11  O   UNL     1      13.133  41.250  47.864  1.00  0.00    -0.550 OA
ENDBRANCH   8   9
ENDBRANCH   7   8
ENDBRANCH   6   7
ENDBRANCH   5   6
ENDBRANCH   4   5
ENDBRANCH   3   4
ENDBRANCH   2   3
ENDBRANCH   1   2
BRANCH   1  12
ATOM     12  C   UNL     1       5.297  42.683  45.260  1.00  0.00     0.000 C 
BRANCH  12  13
ATOM     13  C   UNL     1       5.587  42.501  43.761  1.00  0.00    -0.000 C 
BRANCH  13  14
ATOM     14  C   UNL     1       7.093  42.512  43.437  1.00  0.00    -0.000 C 
BRANCH  14  15
ATOM     15  C   UNL     1       7.503  41.684  42.206  1.00  0.00    -0.000 C 
BRANCH  15  16
ATOM     16  C   UNL     1       8.638  40.688  42.504  1.00  0.00    -0.000 C 
BRANCH  16  17
ATOM     17  C   UNL     1       8.690  40.297  43.992  1.00  0.00    -0.000 C 
BRANCH  17  18
ATOM     18  C   UNL     1       9.366  38.929  44.238  1.00  0.00    -0.000 C 
BRANCH  18  19
ATOM     19  C   UNL     1      10.817  39.042  44.731  1.00  0.00    -0.003 C 
ATOM     20  C   UNL     1      11.245  40.483  44.999  1.00  0.00     0.004 C 
ENDBRANCH  18  19
ENDBRANCH  17  18
ENDBRANCH  16  17
ENDBRANCH  15  16
ENDBRANCH  14  15
ENDBRANCH  13  14
ENDBRANCH  12  13
ENDBRANCH   1  12
TORSDOF 16
ENDMDL
MODEL 9
REMARK VINA RESULT:    -5.252      2.004      3.246
REMARK INTER + INTRA:         -11.038
REMARK INTER:                  -9.144
REMARK INTRA:                  -1.894
REMARK UNBOUND:                -0.872
REMARK SMILES CCCCCCCCCCCCCCCCCC(=O)[O-]
REMARK SMILES IDX 10 1 11 2 12 3 13 4 14 5 15 6 16 7 17 8 18 9 19 10 20 11
REMARK SMILES IDX 9 12 8 13 7 14 6 15 5 16 4 17 3 18 2 19 1 20
REMARK H PARENT
REMARK Flexibility Score: inf
ROOT
ATOM      1  C   UNL     1       5.618  42.256  45.867  1.00  0.00     0.000 C 
ENDROOT
BRANCH   1   2
ATOM      2  C   UNL     1       6.344  40.910  45.718  1.00  0.00     0.000 C 
BRANCH   2   3
ATOM      3  C   UNL     1       5.974  39.958  46.863  1.00  0.00     0.000 C 
BRANCH   3   4
ATOM      4  C   UNL     1       6.210  40.619  48.228  1.00  0.00     0.000 C 
BRANCH   4   5
ATOM      5  C   UNL     1       7.700  40.720  48.595  1.00  0.00     0.000 C 
BRANCH   5   6
ATOM      6  C   UNL     1       8.508  39.452  48.251  1.00  0.00     0.000 C 
BRANCH   6   7
ATOM      7  C   UNL     1       9.878  39.786  47.636  1.00  0.00     0.006 C 
BRANCH   7   8
ATOM      8  C   UNL     1       9.870  39.677  46.106  1.00  0.00     0.053 C 
BRANCH   8   9
ATOM      9  C   UNL     1      10.916  38.723  45.616  1.00  0.00     0.041 C 
ATOM     10  O   UNL     1      10.664  37.939  44.663  1.00  0.00    -0.550 OA
ATOM     11  O   UNL     1      12.180  38.720  46.192  1.00  0.00    -0.550 OA
ENDBRANCH   8   9
ENDBRANCH   7   8
ENDBRANCH   6   7
ENDBRANCH   5   6
ENDBRANCH   4   5
ENDBRANCH   3   4
ENDBRANCH   2   3
ENDBRANCH   1   2
BRANCH   1  12
ATOM     12  C   UNL     1       5.216  42.868  44.516  1.00  0.00     0.000 C 
BRANCH  12  13
ATOM     13  C   UNL     1       6.409  43.011  43.555  1.00  0.00    -0.000 C 
BRANCH  13  14
ATOM     14  C   UNL     1       7.107  44.380  43.668  1.00  0.00    -0.000 C 
BRANCH  14  15
ATOM     15  C   UNL     1       7.462  45.045  42.326  1.00  0.00    -0.000 C 
BRANCH  15  16
ATOM     16  C   UNL     1       7.836  44.028  41.232  1.00  0.00    -0.000 C 
BRANCH  16  17
ATOM     17  C   UNL     1       9.354  43.979  40.982  1.00  0.00    -0.000 C 
BRANCH  17  18
ATOM     18  C   UNL     1       9.946  42.558  41.112  1.00  0.00    -0.000 C 
BRANCH  18  19
ATOM     19  C   UNL     1       9.802  41.962  42.522  1.00  0.00    -0.003 C 
ATOM     20  C   UNL     1       9.001  40.661  42.539  1.00  0.00     0.004 C 
ENDBRANCH  18  19
ENDBRANCH  17  18
ENDBRANCH  16  17
ENDBRANCH  15  16
ENDBRANCH  14  15
ENDBRANCH  13  14
ENDBRANCH  12  13
ENDBRANCH   1  12
TORSDOF 16
ENDMDL
