MODEL 1
REMARK VINA RESULT:    -4.061      0.000      0.000
REMARK INTER + INTRA:          -5.481
REMARK INTER:                  -5.248
REMARK INTRA:                  -0.234
REMARK UNBOUND:                -0.234
REMARK SMILES CCO[C@H]1O[C@H](CO)[C@@H](O)[C@@H](O)[C@H]1O
REMARK SMILES IDX 4 1 13 2 11 3 9 4 6 5 5 6 3 7 2 8 1 9 14 10 12 12 7 14 8 15
REMARK SMILES IDX 10 17
REMARK H PARENT 14 11 12 13 8 16 10 18
REMARK Flexibility Score: inf
ROOT
ATOM      1  C   UNL     1       6.704  -8.699   3.146  1.00  0.00     0.281 C 
ATOM      2  C   UNL     1       6.201  -9.348   4.473  1.00  0.00     0.202 C 
ATOM      3  C   UNL     1       6.377  -8.391   5.658  1.00  0.00     0.179 C 
ATOM      4  C   UNL     1       7.864  -8.004   5.751  1.00  0.00     0.177 C 
ATOM      5  C   UNL     1       8.436  -7.584   4.360  1.00  0.00     0.178 C 
ATOM      6  O   UNL     1       7.437  -7.494   3.352  1.00  0.00    -0.341 OA
ENDROOT
BRANCH   1   7
ATOM      7  O   UNL     1       5.586  -8.399   2.326  1.00  0.00    -0.350 OA
BRANCH   7   8
ATOM      8  C   UNL     1       5.638  -9.110   1.102  1.00  0.00     0.160 C 
ATOM      9  C   UNL     1       6.480  -8.348   0.085  1.00  0.00     0.035 C 
ENDBRANCH   7   8
ENDBRANCH   1   7
BRANCH   2  10
ATOM     10  O   UNL     1       4.856  -9.744   4.382  1.00  0.00    -0.385 OA
ATOM     11  H   UNL     1       4.489  -9.322   3.561  1.00  0.00     0.211 HD
ENDBRANCH   2  10
BRANCH   3  12
ATOM     12  O   UNL     1       5.581  -7.246   5.483  1.00  0.00    -0.387 OA
ATOM     13  H   UNL     1       5.306  -6.943   6.388  1.00  0.00     0.211 HD
ENDBRANCH   3  12
BRANCH   5  14
ATOM     14  C   UNL     1       9.660  -8.408   3.908  1.00  0.00     0.191 C 
BRANCH  14  15
ATOM     15  O   UNL     1       9.813  -9.570   4.676  1.00  0.00    -0.394 OA
ATOM     16  H   UNL     1      10.698  -9.494   5.119  1.00  0.00     0.210 HD
ENDBRANCH  14  15
ENDBRANCH   5  14
BRANCH   4  17
ATOM     17  O   UNL     1       8.064  -7.005   6.721  1.00  0.00    -0.387 OA
ATOM     18  H   UNL     1       8.142  -7.449   7.607  1.00  0.00     0.211 HD
ENDBRANCH   4  17
TORSDOF 7
ENDMDL
MODEL 2
REMARK VINA RESULT:    -3.508     14.996     16.921
REMARK INTER + INTRA:          -4.767
REMARK INTER:                  -4.577
REMARK INTRA:                  -0.190
REMARK UNBOUND:                -0.234
REMARK SMILES CCO[C@H]1O[C@H](CO)[C@@H](O)[C@@H](O)[C@H]1O
REMARK SMILES IDX 4 1 13 2 11 3 9 4 6 5 5 6 3 7 2 8 1 9 14 10 12 12 7 14 8 15
REMARK SMILES IDX 10 17
REMARK H PARENT 14 11 12 13 8 16 10 18
REMARK Flexibility Score: inf
ROOT
ATOM      1  C   UNL     1      -2.823  -6.696  -8.409  1.00  0.00     0.281 C 
ATOM      2  C   UNL     1      -3.945  -7.675  -7.940  1.00  0.00     0.202 C 
ATOM      3  C   UNL     1      -5.305  -7.279  -8.527  1.00  0.00     0.179 C 
ATOM      4  C   UNL     1      -5.611  -5.831  -8.106  1.00  0.00     0.177 C 
ATOM      5  C   UNL     1      -4.389  -4.891  -8.352  1.00  0.00     0.178 C 
ATOM      6  O   UNL     1      -3.328  -5.529  -9.051  1.00  0.00    -0.341 OA
ENDROOT
BRANCH   1   7
ATOM      7  O   UNL     1      -1.975  -7.371  -9.325  1.00  0.00    -0.350 OA
BRANCH   7   8
ATOM      8  C   UNL     1      -0.618  -7.287  -8.929  1.00  0.00     0.160 C 
ATOM      9  C   UNL     1      -0.521  -6.844  -7.473  1.00  0.00     0.035 C 
ENDBRANCH   7   8
ENDBRANCH   1   7
BRANCH   2  10
ATOM     10  O   UNL     1      -3.652  -9.006  -8.282  1.00  0.00    -0.385 OA
ATOM     11  H   UNL     1      -3.702  -9.064  -9.273  1.00  0.00     0.211 HD
ENDBRANCH   2  10
BRANCH   3  12
ATOM     12  O   UNL     1      -5.282  -7.390  -9.929  1.00  0.00    -0.387 OA
ATOM     13  H   UNL     1      -5.760  -6.599 -10.290  1.00  0.00     0.211 HD
ENDBRANCH   3  12
BRANCH   5  14
ATOM     14  C   UNL     1      -3.903  -4.148  -7.090  1.00  0.00     0.191 C 
BRANCH  14  15
ATOM     15  O   UNL     1      -4.968  -3.570  -6.387  1.00  0.00    -0.394 OA
ATOM     16  H   UNL     1      -5.745  -3.583  -7.004  1.00  0.00     0.210 HD
ENDBRANCH  14  15
ENDBRANCH   5  14
BRANCH   4  17
ATOM     17  O   UNL     1      -6.772  -5.357  -8.745  1.00  0.00    -0.387 OA
ATOM     18  H   UNL     1      -7.406  -5.053  -8.042  1.00  0.00     0.211 HD
ENDBRANCH   4  17
TORSDOF 7
ENDMDL
MODEL 3
REMARK VINA RESULT:    -3.490      1.779      3.016
REMARK INTER + INTRA:          -4.743
REMARK INTER:                  -4.641
REMARK INTRA:                  -0.103
REMARK UNBOUND:                -0.234
REMARK SMILES CCO[C@H]1O[C@H](CO)[C@@H](O)[C@@H](O)[C@H]1O
REMARK SMILES IDX 4 1 13 2 11 3 9 4 6 5 5 6 3 7 2 8 1 9 14 10 12 12 7 14 8 15
REMARK SMILES IDX 10 17
REMARK H PARENT 14 11 12 13 8 16 10 18
REMARK Flexibility Score: inf
ROOT
ATOM      1  C   UNL     1       8.287  -8.113   3.171  1.00  0.00     0.281 C 
ATOM      2  C   UNL     1       7.747  -9.574   3.064  1.00  0.00     0.202 C 
ATOM      3  C   UNL     1       6.313  -9.673   3.595  1.00  0.00     0.179 C 
ATOM      4  C   UNL     1       6.300  -9.174   5.051  1.00  0.00     0.177 C 
ATOM      5  C   UNL     1       7.059  -7.819   5.201  1.00  0.00     0.178 C 
ATOM      6  O   UNL     1       7.455  -7.262   3.954  1.00  0.00    -0.341 OA
ENDROOT
BRANCH   1   7
ATOM      7  O   UNL     1       8.382  -7.560   1.868  1.00  0.00    -0.350 OA
BRANCH   7   8
ATOM      8  C   UNL     1       9.729  -7.305   1.512  1.00  0.00     0.160 C 
ATOM      9  C   UNL     1       9.843  -7.083   0.008  1.00  0.00     0.035 C 
ENDBRANCH   7   8
ENDBRANCH   1   7
BRANCH   2  10
ATOM     10  O   UNL     1       7.796 -10.053   1.744  1.00  0.00    -0.385 OA
ATOM     11  H   UNL     1       8.757 -10.149   1.511  1.00  0.00     0.211 HD
ENDBRANCH   2  10
BRANCH   3  12
ATOM     12  O   UNL     1       5.445  -8.901   2.803  1.00  0.00    -0.387 OA
ATOM     13  H   UNL     1       4.938  -9.532   2.228  1.00  0.00     0.211 HD
ENDBRANCH   3  12
BRANCH   5  14
ATOM     14  C   UNL     1       8.214  -7.854   6.225  1.00  0.00     0.191 C 
BRANCH  14  15
ATOM     15  O   UNL     1       8.198  -6.730   7.061  1.00  0.00    -0.394 OA
ATOM     16  H   UNL     1       7.243  -6.541   7.252  1.00  0.00     0.210 HD
ENDBRANCH  14  15
ENDBRANCH   5  14
BRANCH   4  17
ATOM     17  O   UNL     1       4.983  -9.093   5.543  1.00  0.00    -0.387 OA
ATOM     18  H   UNL     1       4.831  -8.163   5.858  1.00  0.00     0.211 HD
ENDBRANCH   4  17
TORSDOF 7
ENDMDL
MODEL 4
REMARK VINA RESULT:    -3.448      1.380      3.203
REMARK INTER + INTRA:          -4.690
REMARK INTER:                  -4.572
REMARK INTRA:                  -0.118
REMARK UNBOUND:                -0.234
REMARK SMILES CCO[C@H]1O[C@H](CO)[C@@H](O)[C@@H](O)[C@H]1O
REMARK SMILES IDX 4 1 13 2 11 3 9 4 6 5 5 6 3 7 2 8 1 9 14 10 12 12 7 14 8 15
REMARK SMILES IDX 10 17
REMARK H PARENT 14 11 12 13 8 16 10 18
REMARK Flexibility Score: inf
ROOT
ATOM      1  C   UNL     1       7.140  -8.172   3.165  1.00  0.00     0.281 C 
ATOM      2  C   UNL     1       8.326  -7.414   3.839  1.00  0.00     0.202 C 
ATOM      3  C   UNL     1       9.227  -8.377   4.619  1.00  0.00     0.179 C 
ATOM      4  C   UNL     1       8.364  -9.110   5.662  1.00  0.00     0.177 C 
ATOM      5  C   UNL     1       7.047  -9.664   5.031  1.00  0.00     0.178 C 
ATOM      6  O   UNL     1       7.003  -9.516   3.618  1.00  0.00    -0.341 OA
ENDROOT
BRANCH   1   7
ATOM      7  O   UNL     1       7.346  -8.199   1.762  1.00  0.00    -0.350 OA
BRANCH   7   8
ATOM      8  C   UNL     1       6.409  -9.044   1.118  1.00  0.00     0.160 C 
ATOM      9  C   UNL     1       4.999  -8.490   1.288  1.00  0.00     0.035 C 
ENDBRANCH   7   8
ENDBRANCH   1   7
BRANCH   2  10
ATOM     10  O   UNL     1       9.093  -6.706   2.898  1.00  0.00    -0.385 OA
ATOM     11  H   UNL     1       9.641  -7.378   2.413  1.00  0.00     0.211 HD
ENDBRANCH   2  10
BRANCH   3  12
ATOM     12  O   UNL     1       9.829  -9.299   3.744  1.00  0.00    -0.387 OA
ATOM     13  H   UNL     1      10.437  -8.782   3.153  1.00  0.00     0.211 HD
ENDBRANCH   3  12
BRANCH   5  14
ATOM     14  C   UNL     1       5.761  -9.160   5.719  1.00  0.00     0.191 C 
BRANCH  14  15
ATOM     15  O   UNL     1       5.960  -7.925   6.349  1.00  0.00    -0.394 OA
ATOM     16  H   UNL     1       5.175  -7.786   6.939  1.00  0.00     0.210 HD
ENDBRANCH  14  15
ENDBRANCH   5  14
BRANCH   4  17
ATOM     17  O   UNL     1       9.103 -10.122   6.303  1.00  0.00    -0.387 OA
ATOM     18  H   UNL     1       8.524 -10.528   7.002  1.00  0.00     0.211 HD
ENDBRANCH   4  17
TORSDOF 7
ENDMDL
MODEL 5
REMARK VINA RESULT:    -3.391      1.625      4.143
REMARK INTER + INTRA:          -4.615
REMARK INTER:                  -4.329
REMARK INTRA:                  -0.286
REMARK UNBOUND:                -0.234
REMARK SMILES CCO[C@H]1O[C@H](CO)[C@@H](O)[C@@H](O)[C@H]1O
REMARK SMILES IDX 4 1 13 2 11 3 9 4 6 5 5 6 3 7 2 8 1 9 14 10 12 12 7 14 8 15
REMARK SMILES IDX 10 17
REMARK H PARENT 14 11 12 13 8 16 10 18
REMARK Flexibility Score: inf
ROOT
ATOM      1  C   UNL     1       7.888  -8.213   5.712  1.00  0.00     0.281 C 
ATOM      2  C   UNL     1       6.723  -7.371   5.103  1.00  0.00     0.202 C 
ATOM      3  C   UNL     1       6.181  -8.020   3.824  1.00  0.00     0.179 C 
ATOM      4  C   UNL     1       7.344  -8.173   2.828  1.00  0.00     0.177 C 
ATOM      5  C   UNL     1       8.604  -8.798   3.507  1.00  0.00     0.178 C 
ATOM      6  O   UNL     1       8.359  -9.234   4.838  1.00  0.00    -0.341 OA
ENDROOT
BRANCH   1   7
ATOM      7  O   UNL     1       7.436  -8.830   6.907  1.00  0.00    -0.350 OA
BRANCH   7   8
ATOM      8  C   UNL     1       8.513  -9.382   7.642  1.00  0.00     0.160 C 
ATOM      9  C   UNL     1       9.461  -8.277   8.094  1.00  0.00     0.035 C 
ENDBRANCH   7   8
ENDBRANCH   1   7
BRANCH   2  10
ATOM     10  O   UNL     1       5.675  -7.190   6.022  1.00  0.00    -0.385 OA
ATOM     11  H   UNL     1       5.011  -7.906   5.841  1.00  0.00     0.211 HD
ENDBRANCH   2  10
BRANCH   3  12
ATOM     12  O   UNL     1       5.615  -9.274   4.116  1.00  0.00    -0.387 OA
ATOM     13  H   UNL     1       6.237  -9.736   4.736  1.00  0.00     0.211 HD
ENDBRANCH   3  12
BRANCH   5  14
ATOM     14  C   UNL     1       9.875  -7.929   3.394  1.00  0.00     0.191 C 
BRANCH  14  15
ATOM     15  O   UNL     1       9.570  -6.611   3.030  1.00  0.00    -0.394 OA
ATOM     16  H   UNL     1      10.356  -6.064   3.290  1.00  0.00     0.210 HD
ENDBRANCH  14  15
ENDBRANCH   5  14
BRANCH   4  17
ATOM     17  O   UNL     1       6.943  -8.906   1.696  1.00  0.00    -0.387 OA
ATOM     18  H   UNL     1       7.442  -8.555   0.911  1.00  0.00     0.211 HD
ENDBRANCH   4  17
TORSDOF 7
ENDMDL
MODEL 6
REMARK VINA RESULT:    -3.383     15.274     17.633
REMARK INTER + INTRA:          -4.605
REMARK INTER:                  -4.417
REMARK INTRA:                  -0.189
REMARK UNBOUND:                -0.234
REMARK SMILES CCO[C@H]1O[C@H](CO)[C@@H](O)[C@@H](O)[C@H]1O
REMARK SMILES IDX 4 1 13 2 11 3 9 4 6 5 5 6 3 7 2 8 1 9 14 10 12 12 7 14 8 15
REMARK SMILES IDX 10 17
REMARK H PARENT 14 11 12 13 8 16 10 18
REMARK Flexibility Score: inf
ROOT
ATOM      1  C   UNL     1      -3.798  -5.701  -8.312  1.00  0.00     0.281 C 
ATOM      2  C   UNL     1      -4.420  -5.212  -9.657  1.00  0.00     0.202 C 
ATOM      3  C   UNL     1      -5.947  -5.112  -9.557  1.00  0.00     0.179 C 
ATOM      4  C   UNL     1      -6.497  -6.492  -9.153  1.00  0.00     0.177 C 
ATOM      5  C   UNL     1      -5.706  -7.095  -7.949  1.00  0.00     0.178 C 
ATOM      6  O   UNL     1      -4.768  -6.186  -7.388  1.00  0.00    -0.341 OA
ENDROOT
BRANCH   1   7
ATOM      7  O   UNL     1      -3.110  -4.622  -7.702  1.00  0.00    -0.350 OA
BRANCH   7   8
ATOM      8  C   UNL     1      -1.932  -5.063  -7.050  1.00  0.00     0.160 C 
ATOM      9  C   UNL     1      -1.463  -6.384  -7.649  1.00  0.00     0.035 C 
ENDBRANCH   7   8
ENDBRANCH   1   7
BRANCH   2  10
ATOM     10  O   UNL     1      -3.892  -3.972 -10.056  1.00  0.00    -0.385 OA
ATOM     11  H   UNL     1      -2.903  -4.064 -10.035  1.00  0.00     0.211 HD
ENDBRANCH   2  10
BRANCH   3  12
ATOM     12  O   UNL     1      -6.311  -4.140  -8.608  1.00  0.00    -0.387 OA
ATOM     13  H   UNL     1      -6.877  -3.474  -9.078  1.00  0.00     0.211 HD
ENDBRANCH   3  12
BRANCH   5  14
ATOM     14  C   UNL     1      -5.089  -8.481  -8.233  1.00  0.00     0.191 C 
BRANCH  14  15
ATOM     15  O   UNL     1      -4.422  -8.989  -7.111  1.00  0.00    -0.394 OA
ATOM     16  H   UNL     1      -4.844  -9.864  -6.911  1.00  0.00     0.210 HD
ENDBRANCH  14  15
ENDBRANCH   5  14
BRANCH   4  17
ATOM     17  O   UNL     1      -7.878  -6.426  -8.891  1.00  0.00    -0.387 OA
ATOM     18  H   UNL     1      -8.113  -7.184  -8.294  1.00  0.00     0.211 HD
ENDBRANCH   4  17
TORSDOF 7
ENDMDL
MODEL 7
REMARK VINA RESULT:    -3.370      2.768      4.876
REMARK INTER + INTRA:          -4.588
REMARK INTER:                  -4.230
REMARK INTRA:                  -0.359
REMARK UNBOUND:                -0.234
REMARK SMILES CCO[C@H]1O[C@H](CO)[C@@H](O)[C@@H](O)[C@H]1O
REMARK SMILES IDX 4 1 13 2 11 3 9 4 6 5 5 6 3 7 2 8 1 9 14 10 12 12 7 14 8 15
REMARK SMILES IDX 10 17
REMARK H PARENT 14 11 12 13 8 16 10 18
REMARK Flexibility Score: inf
ROOT
ATOM      1  C   UNL     1       8.228  -8.926  -0.109  1.00  0.00     0.281 C 
ATOM      2  C   UNL     1       7.091  -9.828  -0.681  1.00  0.00     0.202 C 
ATOM      3  C   UNL     1       5.711  -9.222  -0.402  1.00  0.00     0.179 C 
ATOM      4  C   UNL     1       5.565  -9.030   1.118  1.00  0.00     0.177 C 
ATOM      5  C   UNL     1       6.823  -8.339   1.733  1.00  0.00     0.178 C 
ATOM      6  O   UNL     1       7.750  -7.896   0.751  1.00  0.00    -0.341 OA
ENDROOT
BRANCH   1   7
ATOM      7  O   UNL     1       8.918  -8.314  -1.187  1.00  0.00    -0.350 OA
BRANCH   7   8
ATOM      8  C   UNL     1       8.813  -6.903  -1.133  1.00  0.00     0.160 C 
ATOM      9  C   UNL     1       8.269  -6.365  -2.452  1.00  0.00     0.035 C 
ENDBRANCH   7   8
ENDBRANCH   1   7
BRANCH   2  10
ATOM     10  O   UNL     1       7.241 -10.044  -2.061  1.00  0.00    -0.385 OA
ATOM     11  H   UNL     1       8.206 -10.216  -2.220  1.00  0.00     0.211 HD
ENDBRANCH   2  10
BRANCH   3  12
ATOM     12  O   UNL     1       5.574  -7.991  -1.069  1.00  0.00    -0.387 OA
ATOM     13  H   UNL     1       5.750  -7.279  -0.400  1.00  0.00     0.211 HD
ENDBRANCH   3  12
BRANCH   5  14
ATOM     14  C   UNL     1       7.498  -9.150   2.860  1.00  0.00     0.191 C 
BRANCH  14  15
ATOM     15  O   UNL     1       6.637 -10.124   3.383  1.00  0.00    -0.394 OA
ATOM     16  H   UNL     1       6.886 -10.229   4.337  1.00  0.00     0.210 HD
ENDBRANCH  14  15
ENDBRANCH   5  14
BRANCH   4  17
ATOM     17  O   UNL     1       4.382  -8.331   1.425  1.00  0.00    -0.387 OA
ATOM     18  H   UNL     1       4.012  -7.967   0.578  1.00  0.00     0.211 HD
ENDBRANCH   4  17
TORSDOF 7
ENDMDL
MODEL 8
REMARK VINA RESULT:    -3.359      1.698      3.576
REMARK INTER + INTRA:          -4.575
REMARK INTER:                  -4.325
REMARK INTRA:                  -0.250
REMARK UNBOUND:                -0.234
REMARK SMILES CCO[C@H]1O[C@H](CO)[C@@H](O)[C@@H](O)[C@H]1O
REMARK SMILES IDX 4 1 13 2 11 3 9 4 6 5 5 6 3 7 2 8 1 9 14 10 12 12 7 14 8 15
REMARK SMILES IDX 10 17
REMARK H PARENT 14 11 12 13 8 16 10 18
REMARK Flexibility Score: inf
ROOT
ATOM      1  C   UNL     1       8.348  -9.020   3.046  1.00  0.00     0.281 C 
ATOM      2  C   UNL     1       8.164  -7.488   3.277  1.00  0.00     0.202 C 
ATOM      3  C   UNL     1       7.565  -7.205   4.659  1.00  0.00     0.179 C 
ATOM      4  C   UNL     1       6.226  -7.955   4.770  1.00  0.00     0.177 C 
ATOM      5  C   UNL     1       6.358  -9.439   4.302  1.00  0.00     0.178 C 
ATOM      6  O   UNL     1       7.701  -9.819   4.032  1.00  0.00    -0.341 OA
ENDROOT
BRANCH   1   7
ATOM      7  O   UNL     1       9.733  -9.327   3.070  1.00  0.00    -0.350 OA
BRANCH   7   8
ATOM      8  C   UNL     1      10.115 -10.078   1.931  1.00  0.00     0.160 C 
ATOM      9  C   UNL     1       9.008 -10.044   0.883  1.00  0.00     0.035 C 
ENDBRANCH   7   8
ENDBRANCH   1   7
BRANCH   2  10
ATOM     10  O   UNL     1       9.375  -6.789   3.135  1.00  0.00    -0.385 OA
ATOM     11  H   UNL     1       9.812  -6.792   4.026  1.00  0.00     0.211 HD
ENDBRANCH   2  10
BRANCH   3  12
ATOM     12  O   UNL     1       8.449  -7.625   5.669  1.00  0.00    -0.387 OA
ATOM     13  H   UNL     1       7.937  -7.631   6.519  1.00  0.00     0.211 HD
ENDBRANCH   3  12
BRANCH   5  14
ATOM     14  C   UNL     1       5.393  -9.827   3.162  1.00  0.00     0.191 C 
BRANCH  14  15
ATOM     15  O   UNL     1       4.918  -8.700   2.480  1.00  0.00    -0.394 OA
ATOM     16  H   UNL     1       4.723  -8.999   1.554  1.00  0.00     0.210 HD
ENDBRANCH  14  15
ENDBRANCH   5  14
BRANCH   4  17
ATOM     17  O   UNL     1       5.704  -7.862   6.074  1.00  0.00    -0.387 OA
ATOM     18  H   UNL     1       6.019  -7.007   6.470  1.00  0.00     0.211 HD
ENDBRANCH   4  17
TORSDOF 7
ENDMDL
MODEL 9
REMARK VINA RESULT:    -3.242      2.901      6.058
REMARK INTER + INTRA:          -4.423
REMARK INTER:                  -4.276
REMARK INTRA:                  -0.147
REMARK UNBOUND:                -0.234
REMARK SMILES CCO[C@H]1O[C@H](CO)[C@@H](O)[C@@H](O)[C@H]1O
REMARK SMILES IDX 4 1 13 2 11 3 9 4 6 5 5 6 3 7 2 8 1 9 14 10 12 12 7 14 8 15
REMARK SMILES IDX 10 17
REMARK H PARENT 14 11 12 13 8 16 10 18
REMARK Flexibility Score: inf
ROOT
ATOM      1  C   UNL     1       7.545  -8.568   0.994  1.00  0.00     0.281 C 
ATOM      2  C   UNL     1       8.851  -8.608   0.140  1.00  0.00     0.202 C 
ATOM      3  C   UNL     1       8.772  -7.632  -1.039  1.00  0.00     0.179 C 
ATOM      4  C   UNL     1       7.537  -7.993  -1.884  1.00  0.00     0.177 C 
ATOM      5  C   UNL     1       6.270  -8.194  -0.994  1.00  0.00     0.178 C 
ATOM      6  O   UNL     1       6.487  -7.848   0.368  1.00  0.00    -0.341 OA
ENDROOT
BRANCH   1   7
ATOM      7  O   UNL     1       7.825  -7.947   2.238  1.00  0.00    -0.350 OA
BRANCH   7   8
ATOM      8  C   UNL     1       6.844  -8.268   3.208  1.00  0.00     0.160 C 
ATOM      9  C   UNL     1       7.093  -7.478   4.488  1.00  0.00     0.035 C 
ENDBRANCH   7   8
ENDBRANCH   1   7
BRANCH   2  10
ATOM     10  O   UNL     1       9.989  -8.322   0.914  1.00  0.00    -0.385 OA
ATOM     11  H   UNL     1      10.173  -9.131   1.460  1.00  0.00     0.211 HD
ENDBRANCH   2  10
BRANCH   3  12
ATOM     12  O   UNL     1       8.678  -6.309  -0.571  1.00  0.00    -0.387 OA
ATOM     13  H   UNL     1       7.868  -6.260   0.001  1.00  0.00     0.211 HD
ENDBRANCH   3  12
BRANCH   5  14
ATOM     14  C   UNL     1       5.603  -9.577  -1.153  1.00  0.00     0.191 C 
BRANCH  14  15
ATOM     15  O   UNL     1       4.452  -9.506  -1.949  1.00  0.00    -0.394 OA
ATOM     16  H   UNL     1       3.745  -9.107  -1.378  1.00  0.00     0.210 HD
ENDBRANCH  14  15
ENDBRANCH   5  14
BRANCH   4  17
ATOM     17  O   UNL     1       7.320  -7.035  -2.892  1.00  0.00    -0.387 OA
ATOM     18  H   UNL     1       6.774  -6.301  -2.505  1.00  0.00     0.211 HD
ENDBRANCH   4  17
TORSDOF 7
ENDMDL
