MODEL 1
REMARK VINA RESULT:    -4.258      0.000      0.000
REMARK INTER + INTRA:          -6.329
REMARK INTER:                  -6.125
REMARK INTRA:                  -0.205
REMARK UNBOUND:                -0.205
REMARK SMILES CCCCCCCCCO
REMARK SMILES IDX 6 1 5 2 4 3 3 4 2 5 1 6 7 7 8 8 9 9 10 10
REMARK H PARENT 10 11
REMARK Flexibility Score: inf
ROOT
ATOM      1  C   UNL     1      -2.351 -14.942  20.758  1.00  0.00     0.000 C 
ENDROOT
BRANCH   1   2
ATOM      2  C   UNL     1      -2.447 -16.288  20.018  1.00  0.00     0.000 C 
BRANCH   2   3
ATOM      3  C   UNL     1      -2.669 -17.515  20.924  1.00  0.00    -0.000 C 
BRANCH   3   4
ATOM      4  C   UNL     1      -3.955 -18.283  20.588  1.00  0.00    -0.000 C 
BRANCH   4   5
ATOM      5  C   UNL     1      -4.333 -19.242  21.722  1.00  0.00    -0.003 C 
ATOM      6  C   UNL     1      -3.185 -19.403  22.715  1.00  0.00     0.004 C 
ENDBRANCH   4   5
ENDBRANCH   3   4
ENDBRANCH   2   3
ENDBRANCH   1   2
BRANCH   1   7
ATOM      7  C   UNL     1      -1.724 -13.831  19.904  1.00  0.00     0.002 C 
BRANCH   7   8
ATOM      8  C   UNL     1      -0.347 -14.256  19.377  1.00  0.00     0.028 C 
BRANCH   8   9
ATOM      9  C   UNL     1       0.632 -13.078  19.330  1.00  0.00     0.156 C 
BRANCH   9  10
ATOM     10  O   UNL     1       1.941 -13.521  19.087  1.00  0.00    -0.396 OA
ATOM     11  H   UNL     1       2.309 -12.938  18.374  1.00  0.00     0.210 HD
ENDBRANCH   9  10
ENDBRANCH   8   9
ENDBRANCH   7   8
ENDBRANCH   1   7
TORSDOF 8
ENDMDL
MODEL 2
REMARK VINA RESULT:    -4.185      3.605      6.199
REMARK INTER + INTRA:          -6.224
REMARK INTER:                  -5.946
REMARK INTRA:                  -0.278
REMARK UNBOUND:                -0.205
REMARK SMILES CCCCCCCCCO
REMARK SMILES IDX 6 1 5 2 4 3 3 4 2 5 1 6 7 7 8 8 9 9 10 10
REMARK H PARENT 10 11
REMARK Flexibility Score: inf
ROOT
ATOM      1  C   UNL     1      -2.970 -17.721  20.726  1.00  0.00     0.000 C 
ENDROOT
BRANCH   1   2
ATOM      2  C   UNL     1      -2.253 -16.359  20.700  1.00  0.00     0.000 C 
BRANCH   2   3
ATOM      3  C   UNL     1      -1.962 -15.803  19.293  1.00  0.00    -0.000 C 
BRANCH   3   4
ATOM      4  C   UNL     1      -2.053 -14.273  19.222  1.00  0.00    -0.000 C 
BRANCH   4   5
ATOM      5  C   UNL     1      -2.565 -13.691  20.545  1.00  0.00    -0.003 C 
ATOM      6  C   UNL     1      -3.651 -12.646  20.306  1.00  0.00     0.004 C 
ENDBRANCH   4   5
ENDBRANCH   3   4
ENDBRANCH   2   3
ENDBRANCH   1   2
BRANCH   1   7
ATOM      7  C   UNL     1      -3.718 -17.980  22.042  1.00  0.00     0.002 C 
BRANCH   7   8
ATOM      8  C   UNL     1      -4.533 -19.277  21.963  1.00  0.00     0.028 C 
BRANCH   8   9
ATOM      9  C   UNL     1      -4.681 -19.768  20.518  1.00  0.00     0.156 C 
BRANCH   9  10
ATOM     10  O   UNL     1      -5.842 -20.541  20.366  1.00  0.00    -0.396 OA
ATOM     11  H   UNL     1      -6.299 -20.207  19.551  1.00  0.00     0.210 HD
ENDBRANCH   9  10
ENDBRANCH   8   9
ENDBRANCH   7   8
ENDBRANCH   1   7
TORSDOF 8
ENDMDL
MODEL 3
REMARK VINA RESULT:    -4.114      2.464      2.993
REMARK INTER + INTRA:          -6.122
REMARK INTER:                  -5.831
REMARK INTRA:                  -0.291
REMARK UNBOUND:                -0.205
REMARK SMILES CCCCCCCCCO
REMARK SMILES IDX 6 1 5 2 4 3 3 4 2 5 1 6 7 7 8 8 9 9 10 10
REMARK H PARENT 10 11
REMARK Flexibility Score: inf
ROOT
ATOM      1  C   UNL     1      -2.142 -14.494  19.191  1.00  0.00     0.000 C 
ENDROOT
BRANCH   1   2
ATOM      2  C   UNL     1      -1.427 -15.830  19.459  1.00  0.00     0.000 C 
BRANCH   2   3
ATOM      3  C   UNL     1      -1.927 -16.598  20.698  1.00  0.00    -0.000 C 
BRANCH   3   4
ATOM      4  C   UNL     1      -3.173 -17.448  20.413  1.00  0.00    -0.000 C 
BRANCH   4   5
ATOM      5  C   UNL     1      -3.486 -18.376  21.592  1.00  0.00    -0.003 C 
ATOM      6  C   UNL     1      -4.550 -19.405  21.219  1.00  0.00     0.004 C 
ENDBRANCH   4   5
ENDBRANCH   3   4
ENDBRANCH   2   3
ENDBRANCH   1   2
BRANCH   1   7
ATOM      7  C   UNL     1      -1.937 -13.467  20.314  1.00  0.00     0.002 C 
BRANCH   7   8
ATOM      8  C   UNL     1      -3.266 -13.139  21.007  1.00  0.00     0.028 C 
BRANCH   8   9
ATOM      9  C   UNL     1      -3.708 -11.697  20.734  1.00  0.00     0.156 C 
BRANCH   9  10
ATOM     10  O   UNL     1      -4.182 -11.558  19.421  1.00  0.00    -0.396 OA
ATOM     11  H   UNL     1      -3.435 -11.180  18.889  1.00  0.00     0.210 HD
ENDBRANCH   9  10
ENDBRANCH   8   9
ENDBRANCH   7   8
ENDBRANCH   1   7
TORSDOF 8
ENDMDL
MODEL 4
REMARK VINA RESULT:    -3.949      3.589      5.936
REMARK INTER + INTRA:          -5.885
REMARK INTER:                  -5.669
REMARK INTRA:                  -0.215
REMARK UNBOUND:                -0.205
REMARK SMILES CCCCCCCCCO
REMARK SMILES IDX 6 1 5 2 4 3 3 4 2 5 1 6 7 7 8 8 9 9 10 10
REMARK H PARENT 10 11
REMARK Flexibility Score: inf
ROOT
ATOM      1  C   UNL     1      -2.379 -13.153  20.873  1.00  0.00     0.000 C 
ENDROOT
BRANCH   1   2
ATOM      2  C   UNL     1      -3.732 -12.735  20.270  1.00  0.00     0.000 C 
BRANCH   2   3
ATOM      3  C   UNL     1      -3.986 -11.216  20.232  1.00  0.00    -0.000 C 
BRANCH   3   4
ATOM      4  C   UNL     1      -5.469 -10.861  20.053  1.00  0.00    -0.000 C 
BRANCH   4   5
ATOM      5  C   UNL     1      -5.879  -9.727  21.000  1.00  0.00    -0.003 C 
ATOM      6  C   UNL     1      -4.674  -9.177  21.759  1.00  0.00     0.004 C 
ENDBRANCH   4   5
ENDBRANCH   3   4
ENDBRANCH   2   3
ENDBRANCH   1   2
BRANCH   1   7
ATOM      7  C   UNL     1      -1.475 -13.885  19.869  1.00  0.00     0.002 C 
BRANCH   7   8
ATOM      8  C   UNL     1      -2.132 -15.184  19.386  1.00  0.00     0.028 C 
BRANCH   8   9
ATOM      9  C   UNL     1      -1.362 -16.421  19.862  1.00  0.00     0.156 C 
BRANCH   9  10
ATOM     10  O   UNL     1      -0.240 -16.656  19.053  1.00  0.00    -0.396 OA
ATOM     11  H   UNL     1      -0.138 -17.641  18.990  1.00  0.00     0.210 HD
ENDBRANCH   9  10
ENDBRANCH   8   9
ENDBRANCH   7   8
ENDBRANCH   1   7
TORSDOF 8
ENDMDL
MODEL 5
REMARK VINA RESULT:    -3.945      3.128      5.553
REMARK INTER + INTRA:          -5.879
REMARK INTER:                  -5.460
REMARK INTRA:                  -0.419
REMARK UNBOUND:                -0.205
REMARK SMILES CCCCCCCCCO
REMARK SMILES IDX 6 1 5 2 4 3 3 4 2 5 1 6 7 7 8 8 9 9 10 10
REMARK H PARENT 10 11
REMARK Flexibility Score: inf
ROOT
ATOM      1  C   UNL     1      -1.158 -14.150  19.686  1.00  0.00     0.000 C 
ENDROOT
BRANCH   1   2
ATOM      2  C   UNL     1      -1.756 -12.937  20.421  1.00  0.00     0.000 C 
BRANCH   2   3
ATOM      3  C   UNL     1      -2.921 -13.263  21.375  1.00  0.00    -0.000 C 
BRANCH   3   4
ATOM      4  C   UNL     1      -3.978 -12.152  21.432  1.00  0.00    -0.000 C 
BRANCH   4   5
ATOM      5  C   UNL     1      -4.254 -11.585  20.035  1.00  0.00    -0.003 C 
ATOM      6  C   UNL     1      -5.519 -10.731  20.025  1.00  0.00     0.004 C 
ENDBRANCH   4   5
ENDBRANCH   3   4
ENDBRANCH   2   3
ENDBRANCH   1   2
BRANCH   1   7
ATOM      7  C   UNL     1      -2.181 -15.270  19.445  1.00  0.00     0.002 C 
BRANCH   7   8
ATOM      8  C   UNL     1      -1.670 -16.608  19.995  1.00  0.00     0.028 C 
BRANCH   8   9
ATOM      9  C   UNL     1      -2.789 -17.409  20.670  1.00  0.00     0.156 C 
BRANCH   9  10
ATOM     10  O   UNL     1      -3.191 -16.799  21.868  1.00  0.00    -0.396 OA
ATOM     11  H   UNL     1      -2.436 -16.901  22.504  1.00  0.00     0.210 HD
ENDBRANCH   9  10
ENDBRANCH   8   9
ENDBRANCH   7   8
ENDBRANCH   1   7
TORSDOF 8
ENDMDL
MODEL 6
REMARK VINA RESULT:    -3.921      4.691      5.853
REMARK INTER + INTRA:          -5.844
REMARK INTER:                  -5.666
REMARK INTRA:                  -0.178
REMARK UNBOUND:                -0.205
REMARK SMILES CCCCCCCCCO
REMARK SMILES IDX 6 1 5 2 4 3 3 4 2 5 1 6 7 7 8 8 9 9 10 10
REMARK H PARENT 10 11
REMARK Flexibility Score: inf
ROOT
ATOM      1  C   UNL     1      -3.978 -11.940  20.094  1.00  0.00     0.000 C 
ENDROOT
BRANCH   1   2
ATOM      2  C   UNL     1      -3.237 -13.048  20.863  1.00  0.00     0.000 C 
BRANCH   2   3
ATOM      3  C   UNL     1      -1.903 -13.495  20.236  1.00  0.00    -0.000 C 
BRANCH   3   4
ATOM      4  C   UNL     1      -2.067 -14.650  19.239  1.00  0.00    -0.000 C 
BRANCH   4   5
ATOM      5  C   UNL     1      -1.395 -15.925  19.760  1.00  0.00    -0.003 C 
ATOM      6  C   UNL     1      -2.410 -16.854  20.420  1.00  0.00     0.004 C 
ENDBRANCH   4   5
ENDBRANCH   3   4
ENDBRANCH   2   3
ENDBRANCH   1   2
BRANCH   1   7
ATOM      7  C   UNL     1      -4.363 -10.747  20.981  1.00  0.00     0.002 C 
BRANCH   7   8
ATOM      8  C   UNL     1      -5.828 -10.349  20.760  1.00  0.00     0.028 C 
BRANCH   8   9
ATOM      9  C   UNL     1      -6.468  -9.802  22.041  1.00  0.00     0.156 C 
BRANCH   9  10
ATOM     10  O   UNL     1      -7.735 -10.367  22.251  1.00  0.00    -0.396 OA
ATOM     11  H   UNL     1      -8.385  -9.788  21.775  1.00  0.00     0.210 HD
ENDBRANCH   9  10
ENDBRANCH   8   9
ENDBRANCH   7   8
ENDBRANCH   1   7
TORSDOF 8
ENDMDL
MODEL 7
REMARK VINA RESULT:    -3.879      3.173      5.854
REMARK INTER + INTRA:          -5.785
REMARK INTER:                  -5.545
REMARK INTRA:                  -0.240
REMARK UNBOUND:                -0.205
REMARK SMILES CCCCCCCCCO
REMARK SMILES IDX 6 1 5 2 4 3 3 4 2 5 1 6 7 7 8 8 9 9 10 10
REMARK H PARENT 10 11
REMARK Flexibility Score: inf
ROOT
ATOM      1  C   UNL     1      -2.124 -15.785  19.472  1.00  0.00     0.000 C 
ENDROOT
BRANCH   1   2
ATOM      2  C   UNL     1      -1.510 -14.386  19.657  1.00  0.00     0.000 C 
BRANCH   2   3
ATOM      3  C   UNL     1      -2.237 -13.485  20.674  1.00  0.00    -0.000 C 
BRANCH   3   4
ATOM      4  C   UNL     1      -3.570 -12.939  20.146  1.00  0.00    -0.000 C 
BRANCH   4   5
ATOM      5  C   UNL     1      -3.717 -11.447  20.464  1.00  0.00    -0.003 C 
ATOM      6  C   UNL     1      -5.109 -10.939  20.099  1.00  0.00     0.004 C 
ENDBRANCH   4   5
ENDBRANCH   3   4
ENDBRANCH   2   3
ENDBRANCH   1   2
BRANCH   1   7
ATOM      7  C   UNL     1      -2.272 -16.554  20.793  1.00  0.00     0.002 C 
BRANCH   7   8
ATOM      8  C   UNL     1      -3.227 -17.745  20.630  1.00  0.00     0.028 C 
BRANCH   8   9
ATOM      9  C   UNL     1      -3.745 -18.246  21.983  1.00  0.00     0.156 C 
BRANCH   9  10
ATOM     10  O   UNL     1      -3.899 -17.185  22.887  1.00  0.00    -0.396 OA
ATOM     11  H   UNL     1      -3.196 -17.298  23.578  1.00  0.00     0.210 HD
ENDBRANCH   9  10
ENDBRANCH   8   9
ENDBRANCH   7   8
ENDBRANCH   1   7
TORSDOF 8
ENDMDL
MODEL 8
REMARK VINA RESULT:    -3.822      2.877      5.847
REMARK INTER + INTRA:          -5.702
REMARK INTER:                  -5.220
REMARK INTRA:                  -0.482
REMARK UNBOUND:                -0.205
REMARK SMILES CCCCCCCCCO
REMARK SMILES IDX 6 1 5 2 4 3 3 4 2 5 1 6 7 7 8 8 9 9 10 10
REMARK H PARENT 10 11
REMARK Flexibility Score: inf
ROOT
ATOM      1  C   UNL     1      -2.848 -13.394  20.931  1.00  0.00     0.000 C 
ENDROOT
BRANCH   1   2
ATOM      2  C   UNL     1      -3.837 -12.507  20.154  1.00  0.00     0.000 C 
BRANCH   2   3
ATOM      3  C   UNL     1      -3.871 -11.031  20.593  1.00  0.00    -0.000 C 
BRANCH   3   4
ATOM      4  C   UNL     1      -2.739 -10.668  21.564  1.00  0.00    -0.000 C 
BRANCH   4   5
ATOM      5  C   UNL     1      -1.658  -9.838  20.862  1.00  0.00    -0.003 C 
ATOM      6  C   UNL     1      -0.318 -10.569  20.856  1.00  0.00     0.004 C 
ENDBRANCH   4   5
ENDBRANCH   3   4
ENDBRANCH   2   3
ENDBRANCH   1   2
BRANCH   1   7
ATOM      7  C   UNL     1      -1.704 -13.928  20.056  1.00  0.00     0.002 C 
BRANCH   7   8
ATOM      8  C   UNL     1      -2.126 -15.210  19.327  1.00  0.00     0.028 C 
BRANCH   8   9
ATOM      9  C   UNL     1      -1.321 -16.425  19.804  1.00  0.00     0.156 C 
BRANCH   9  10
ATOM     10  O   UNL     1      -0.139 -16.566  19.062  1.00  0.00    -0.396 OA
ATOM     11  H   UNL     1      -0.382 -16.421  18.111  1.00  0.00     0.210 HD
ENDBRANCH   9  10
ENDBRANCH   8   9
ENDBRANCH   7   8
ENDBRANCH   1   7
TORSDOF 8
ENDMDL
MODEL 9
REMARK VINA RESULT:    -3.797      2.039      3.625
REMARK INTER + INTRA:          -5.666
REMARK INTER:                  -5.201
REMARK INTRA:                  -0.465
REMARK UNBOUND:                -0.205
REMARK SMILES CCCCCCCCCO
REMARK SMILES IDX 6 1 5 2 4 3 3 4 2 5 1 6 7 7 8 8 9 9 10 10
REMARK H PARENT 10 11
REMARK Flexibility Score: inf
ROOT
ATOM      1  C   UNL     1      -1.261 -11.418  21.432  1.00  0.00     0.000 C 
ENDROOT
BRANCH   1   2
ATOM      2  C   UNL     1      -2.454 -12.054  20.696  1.00  0.00     0.000 C 
BRANCH   2   3
ATOM      3  C   UNL     1      -2.551 -13.587  20.817  1.00  0.00    -0.000 C 
BRANCH   3   4
ATOM      4  C   UNL     1      -2.188 -14.315  19.516  1.00  0.00    -0.000 C 
BRANCH   4   5
ATOM      5  C   UNL     1      -1.266 -15.508  19.793  1.00  0.00    -0.003 C 
ATOM      6  C   UNL     1      -2.060 -16.720  20.273  1.00  0.00     0.004 C 
ENDBRANCH   4   5
ENDBRANCH   3   4
ENDBRANCH   2   3
ENDBRANCH   1   2
BRANCH   1   7
ATOM      7  C   UNL     1      -0.239 -10.779  20.480  1.00  0.00     0.002 C 
BRANCH   7   8
ATOM      8  C   UNL     1       1.022 -11.647  20.367  1.00  0.00     0.028 C 
BRANCH   8   9
ATOM      9  C   UNL     1       0.992 -12.532  19.116  1.00  0.00     0.156 C 
BRANCH   9  10
ATOM     10  O   UNL     1       1.994 -13.512  19.171  1.00  0.00    -0.396 OA
ATOM     11  H   UNL     1       2.817 -13.096  18.806  1.00  0.00     0.210 HD
ENDBRANCH   9  10
ENDBRANCH   8   9
ENDBRANCH   7   8
ENDBRANCH   1   7
TORSDOF 8
ENDMDL
