MODEL 1
REMARK VINA RESULT:    -9.596      0.000      0.000
REMARK INTER + INTRA:         -10.374
REMARK INTER:                 -10.437
REMARK INTRA:                   0.063
REMARK UNBOUND:                 0.063
REMARK SMILES C[C@@H]1[C@H](C)CC[C@@]2(C(=O)[O-])CC[C@]3(C)C(=CC[C@@H]4[C@]5(C)CC[C@@H](O)C(C)(C)[C@@H]5CC[C@@]43C)[C@@H]12
REMARK SMILES IDX 7 1 6 2 11 3 33 4 5 5 12 6 15 7 2 8 3 9 13 10 16 11 1 12
REMARK SMILES IDX 4 13 14 14 31 15 17 16 18 17 30 18 32 19 19 20 29 21 28 22
REMARK SMILES IDX 21 23 20 24 25 25 22 26 23 27 26 28 27 29 8 30 9 31 10 32
REMARK SMILES IDX 24 33
REMARK H PARENT 24 34
REMARK Flexibility Score: inf
ROOT
ATOM      1  C   UNL     1      15.545  16.224  42.813  1.00  0.00     0.017 C 
ATOM      2  C   UNL     1      17.097  16.276  42.735  1.00  0.00     0.014 C 
ATOM      3  C   UNL     1      15.053  14.924  42.087  1.00  0.00     0.014 C 
ATOM      4  C   UNL     1      15.090  16.298  44.331  1.00  0.00     0.030 C 
ATOM      5  C   UNL     1      17.679  17.532  43.397  1.00  0.00     0.004 C 
ATOM      6  C   UNL     1      15.127  13.616  42.905  1.00  0.00     0.013 C 
ATOM      7  C   UNL     1      15.231  14.910  44.992  1.00  0.00    -0.063 C 
ATOM      8  C   UNL     1      15.762  17.493  45.115  1.00  0.00    -0.003 C 
ATOM      9  C   UNL     1      17.309  17.580  44.884  1.00  0.00    -0.011 C 
ATOM     10  C   UNL     1      14.511  13.729  44.324  1.00  0.00    -0.006 C 
ATOM     11  C   UNL     1      16.191  14.652  45.901  1.00  0.00    -0.027 C 
ATOM     12  C   UNL     1      15.050  18.837  44.836  1.00  0.00     0.008 C 
ATOM     13  C   UNL     1      17.951  18.800  45.564  1.00  0.00     0.008 C 
ATOM     14  C   UNL     1      12.989  14.109  44.198  1.00  0.00     0.017 C 
ATOM     15  C   UNL     1      14.674  12.361  45.189  1.00  0.00    -0.020 C 
ATOM     16  C   UNL     1      17.011  13.416  45.760  1.00  0.00     0.032 C 
ATOM     17  C   UNL     1      16.172  12.113  45.731  1.00  0.00     0.006 C 
ATOM     18  C   UNL     1      14.105  11.122  44.424  1.00  0.00     0.008 C 
ATOM     19  C   UNL     1      13.758  12.492  46.463  1.00  0.00     0.012 C 
ATOM     20  C   UNL     1      17.045  10.820  45.279  1.00  0.00    -0.025 C 
ATOM     21  C   UNL     1      15.134  10.274  43.709  1.00  0.00     0.005 C 
ATOM     22  C   UNL     1      16.131   9.658  44.719  1.00  0.00     0.003 C 
ATOM     23  C   UNL     1      18.126  11.172  44.199  1.00  0.00     0.010 C 
ATOM     24  C   UNL     1      17.802  10.346  46.566  1.00  0.00     0.012 C 
ATOM     25  C   UNL     1      16.906   8.406  44.099  1.00  0.00    -0.006 C 
ATOM     26  C   UNL     1      18.885   9.973  43.610  1.00  0.00     0.033 C 
ATOM     27  C   UNL     1      17.949   8.894  43.052  1.00  0.00     0.120 C 
ATOM     28  C   UNL     1      17.581   7.542  45.210  1.00  0.00     0.014 C 
ATOM     29  C   UNL     1      15.923   7.434  43.375  1.00  0.00     0.014 C 
ENDROOT
BRANCH   1  30
ATOM     30  C   UNL     1      14.936  17.376  42.016  1.00  0.00     0.048 C 
ATOM     31  O   UNL     1      15.594  17.953  41.108  1.00  0.00    -0.550 OA
ATOM     32  O   UNL     1      13.598  17.713  42.183  1.00  0.00    -0.550 OA
ENDBRANCH   1  30
BRANCH  27  33
ATOM     33  O   UNL     1      18.711   7.806  42.588  1.00  0.00    -0.393 OA
ATOM     34  H   UNL     1      19.519   8.183  42.150  1.00  0.00     0.210 HD
ENDBRANCH  27  33
TORSDOF 2
ENDMDL
MODEL 2
REMARK VINA RESULT:    -9.358      2.633      7.953
REMARK INTER + INTRA:         -10.116
REMARK INTER:                 -10.166
REMARK INTRA:                   0.050
REMARK UNBOUND:                 0.063
REMARK SMILES C[C@@H]1[C@H](C)CC[C@@]2(C(=O)[O-])CC[C@]3(C)C(=CC[C@@H]4[C@]5(C)CC[C@@H](O)C(C)(C)[C@@H]5CC[C@@]43C)[C@@H]12
REMARK SMILES IDX 7 1 6 2 11 3 33 4 5 5 12 6 15 7 2 8 3 9 13 10 16 11 1 12
REMARK SMILES IDX 4 13 14 14 31 15 17 16 18 17 30 18 32 19 19 20 29 21 28 22
REMARK SMILES IDX 21 23 20 24 25 25 22 26 23 27 26 28 27 29 8 30 9 31 10 32
REMARK SMILES IDX 24 33
REMARK H PARENT 24 34
REMARK Flexibility Score: inf
ROOT
ATOM      1  C   UNL     1      13.577  13.409  44.658  1.00  0.00     0.017 C 
ATOM      2  C   UNL     1      14.143  13.798  46.054  1.00  0.00     0.014 C 
ATOM      3  C   UNL     1      12.826  14.650  44.063  1.00  0.00     0.014 C 
ATOM      4  C   UNL     1      14.760  12.897  43.734  1.00  0.00     0.030 C 
ATOM      5  C   UNL     1      14.878  12.638  46.736  1.00  0.00     0.004 C 
ATOM      6  C   UNL     1      13.708  15.726  43.393  1.00  0.00     0.013 C 
ATOM      7  C   UNL     1      15.534  14.100  43.152  1.00  0.00    -0.063 C 
ATOM      8  C   UNL     1      15.648  11.792  44.429  1.00  0.00    -0.003 C 
ATOM      9  C   UNL     1      16.070  12.178  45.888  1.00  0.00    -0.011 C 
ATOM     10  C   UNL     1      14.731  15.154  42.377  1.00  0.00    -0.006 C 
ATOM     11  C   UNL     1      16.777  14.410  43.569  1.00  0.00    -0.027 C 
ATOM     12  C   UNL     1      14.987  10.396  44.360  1.00  0.00     0.008 C 
ATOM     13  C   UNL     1      16.849  11.064  46.604  1.00  0.00     0.008 C 
ATOM     14  C   UNL     1      13.956  14.411  41.226  1.00  0.00     0.017 C 
ATOM     15  C   UNL     1      15.698  16.301  41.747  1.00  0.00    -0.020 C 
ATOM     16  C   UNL     1      17.092  15.823  43.921  1.00  0.00     0.032 C 
ATOM     17  C   UNL     1      16.829  16.825  42.769  1.00  0.00     0.006 C 
ATOM     18  C   UNL     1      14.874  17.471  41.119  1.00  0.00     0.008 C 
ATOM     19  C   UNL     1      16.464  15.660  40.530  1.00  0.00     0.012 C 
ATOM     20  C   UNL     1      16.888  18.372  43.262  1.00  0.00    -0.025 C 
ATOM     21  C   UNL     1      14.722  18.698  41.992  1.00  0.00     0.005 C 
ATOM     22  C   UNL     1      16.100  19.334  42.285  1.00  0.00     0.003 C 
ATOM     23  C   UNL     1      16.326  18.562  44.714  1.00  0.00     0.010 C 
ATOM     24  C   UNL     1      18.408  18.752  43.293  1.00  0.00     0.012 C 
ATOM     25  C   UNL     1      15.963  20.851  42.768  1.00  0.00    -0.006 C 
ATOM     26  C   UNL     1      16.206  20.018  45.189  1.00  0.00     0.033 C 
ATOM     27  C   UNL     1      15.404  20.896  44.220  1.00  0.00     0.120 C 
ATOM     28  C   UNL     1      17.323  21.611  42.662  1.00  0.00     0.014 C 
ATOM     29  C   UNL     1      14.983  21.649  41.855  1.00  0.00     0.014 C 
ENDROOT
BRANCH   1  30
ATOM     30  C   UNL     1      12.506  12.331  44.804  1.00  0.00     0.048 C 
ATOM     31  O   UNL     1      12.010  12.060  45.931  1.00  0.00    -0.550 OA
ATOM     32  O   UNL     1      11.961  11.730  43.676  1.00  0.00    -0.550 OA
ENDBRANCH   1  30
BRANCH  27  33
ATOM     33  O   UNL     1      15.389  22.222  44.690  1.00  0.00    -0.393 OA
ATOM     34  H   UNL     1      14.546  22.636  44.366  1.00  0.00     0.210 HD
ENDBRANCH  27  33
TORSDOF 2
ENDMDL
MODEL 3
REMARK VINA RESULT:    -9.123      5.760      8.315
REMARK INTER + INTRA:          -9.860
REMARK INTER:                  -9.998
REMARK INTRA:                   0.138
REMARK UNBOUND:                 0.063
REMARK SMILES C[C@@H]1[C@H](C)CC[C@@]2(C(=O)[O-])CC[C@]3(C)C(=CC[C@@H]4[C@]5(C)CC[C@@H](O)C(C)(C)[C@@H]5CC[C@@]43C)[C@@H]12
REMARK SMILES IDX 7 1 6 2 11 3 33 4 5 5 12 6 15 7 2 8 3 9 13 10 16 11 1 12
REMARK SMILES IDX 4 13 14 14 31 15 17 16 18 17 30 18 32 19 19 20 29 21 28 22
REMARK SMILES IDX 21 23 20 24 25 25 22 26 23 27 26 28 27 29 8 30 9 31 10 32
REMARK SMILES IDX 24 33
REMARK H PARENT 24 34
REMARK Flexibility Score: inf
ROOT
ATOM      1  C   UNL     1      18.517  22.080  43.823  1.00  0.00     0.017 C 
ATOM      2  C   UNL     1      17.346  23.100  43.740  1.00  0.00     0.014 C 
ATOM      3  C   UNL     1      18.339  21.222  45.123  1.00  0.00     0.014 C 
ATOM      4  C   UNL     1      18.547  21.204  42.500  1.00  0.00     0.030 C 
ATOM      5  C   UNL     1      17.443  24.010  42.509  1.00  0.00     0.004 C 
ATOM      6  C   UNL     1      17.338  20.050  45.037  1.00  0.00     0.013 C 
ATOM      7  C   UNL     1      17.485  20.085  42.584  1.00  0.00    -0.063 C 
ATOM      8  C   UNL     1      18.508  22.077  41.185  1.00  0.00    -0.003 C 
ATOM      9  C   UNL     1      17.399  23.182  41.220  1.00  0.00    -0.011 C 
ATOM     10  C   UNL     1      17.541  19.143  43.795  1.00  0.00    -0.006 C 
ATOM     11  C   UNL     1      16.364  20.116  41.839  1.00  0.00    -0.027 C 
ATOM     12  C   UNL     1      19.901  22.652  40.836  1.00  0.00     0.008 C 
ATOM     13  C   UNL     1      17.424  24.098  39.986  1.00  0.00     0.008 C 
ATOM     14  C   UNL     1      18.983  18.515  43.844  1.00  0.00     0.017 C 
ATOM     15  C   UNL     1      16.424  17.964  43.690  1.00  0.00    -0.020 C 
ATOM     16  C   UNL     1      15.051  19.857  42.493  1.00  0.00     0.032 C 
ATOM     17  C   UNL     1      14.975  18.488  43.216  1.00  0.00     0.006 C 
ATOM     18  C   UNL     1      16.352  17.117  45.002  1.00  0.00     0.008 C 
ATOM     19  C   UNL     1      16.909  16.948  42.590  1.00  0.00     0.012 C 
ATOM     20  C   UNL     1      13.663  18.356  44.165  1.00  0.00    -0.025 C 
ATOM     21  C   UNL     1      15.234  17.489  45.952  1.00  0.00     0.005 C 
ATOM     22  C   UNL     1      13.856  17.261  45.290  1.00  0.00     0.003 C 
ATOM     23  C   UNL     1      13.277  19.714  44.849  1.00  0.00     0.010 C 
ATOM     24  C   UNL     1      12.485  17.958  43.212  1.00  0.00     0.012 C 
ATOM     25  C   UNL     1      12.685  17.168  46.373  1.00  0.00    -0.006 C 
ATOM     26  C   UNL     1      12.141  19.633  45.881  1.00  0.00     0.033 C 
ATOM     27  C   UNL     1      12.398  18.578  46.965  1.00  0.00     0.120 C 
ATOM     28  C   UNL     1      11.393  16.535  45.768  1.00  0.00     0.014 C 
ATOM     29  C   UNL     1      13.080  16.227  47.553  1.00  0.00     0.014 C 
ENDROOT
BRANCH   1  30
ATOM     30  C   UNL     1      19.844  22.811  44.010  1.00  0.00     0.048 C 
ATOM     31  O   UNL     1      19.893  23.917  44.613  1.00  0.00    -0.550 OA
ATOM     32  O   UNL     1      21.037  22.202  43.641  1.00  0.00    -0.550 OA
ENDBRANCH   1  30
BRANCH  27  33
ATOM     33  O   UNL     1      11.293  18.520  47.834  1.00  0.00    -0.393 OA
ATOM     34  H   UNL     1      10.495  18.789  47.309  1.00  0.00     0.210 HD
ENDBRANCH  27  33
TORSDOF 2
ENDMDL
MODEL 4
REMARK VINA RESULT:    -8.791      3.490      8.247
REMARK INTER + INTRA:          -9.498
REMARK INTER:                  -9.548
REMARK INTRA:                   0.050
REMARK UNBOUND:                 0.063
REMARK SMILES C[C@@H]1[C@H](C)CC[C@@]2(C(=O)[O-])CC[C@]3(C)C(=CC[C@@H]4[C@]5(C)CC[C@@H](O)C(C)(C)[C@@H]5CC[C@@]43C)[C@@H]12
REMARK SMILES IDX 7 1 6 2 11 3 33 4 5 5 12 6 15 7 2 8 3 9 13 10 16 11 1 12
REMARK SMILES IDX 4 13 14 14 31 15 17 16 18 17 30 18 32 19 19 20 29 21 28 22
REMARK SMILES IDX 21 23 20 24 25 25 22 26 23 27 26 28 27 29 8 30 9 31 10 32
REMARK SMILES IDX 24 33
REMARK H PARENT 24 34
REMARK Flexibility Score: inf
ROOT
ATOM      1  C   UNL     1      13.313  14.190  43.700  1.00  0.00     0.017 C 
ATOM      2  C   UNL     1      12.032  15.032  43.433  1.00  0.00     0.014 C 
ATOM      3  C   UNL     1      14.420  14.633  42.681  1.00  0.00     0.014 C 
ATOM      4  C   UNL     1      13.754  14.366  45.213  1.00  0.00     0.030 C 
ATOM      5  C   UNL     1      10.874  14.654  44.365  1.00  0.00     0.004 C 
ATOM      6  C   UNL     1      15.202  15.916  43.039  1.00  0.00     0.013 C 
ATOM      7  C   UNL     1      14.518  15.697  45.388  1.00  0.00    -0.063 C 
ATOM      8  C   UNL     1      12.569  14.127  46.230  1.00  0.00    -0.003 C 
ATOM      9  C   UNL     1      11.260  14.889  45.830  1.00  0.00    -0.011 C 
ATOM     10  C   UNL     1      15.741  15.936  44.493  1.00  0.00    -0.006 C 
ATOM     11  C   UNL     1      13.975  16.745  46.036  1.00  0.00    -0.027 C 
ATOM     12  C   UNL     1      12.320  12.621  46.476  1.00  0.00     0.008 C 
ATOM     13  C   UNL     1      10.077  14.579  46.760  1.00  0.00     0.008 C 
ATOM     14  C   UNL     1      16.725  14.725  44.696  1.00  0.00     0.017 C 
ATOM     15  C   UNL     1      16.493  17.331  44.863  1.00  0.00    -0.020 C 
ATOM     16  C   UNL     1      14.040  18.097  45.412  1.00  0.00     0.032 C 
ATOM     17  C   UNL     1      15.483  18.567  45.096  1.00  0.00     0.006 C 
ATOM     18  C   UNL     1      17.622  17.671  43.837  1.00  0.00     0.008 C 
ATOM     19  C   UNL     1      17.249  17.116  46.227  1.00  0.00     0.012 C 
ATOM     20  C   UNL     1      15.516  19.890  44.154  1.00  0.00    -0.025 C 
ATOM     21  C   UNL     1      17.244  18.668  42.764  1.00  0.00     0.005 C 
ATOM     22  C   UNL     1      16.893  20.037  43.391  1.00  0.00     0.003 C 
ATOM     23  C   UNL     1      14.354  19.906  43.100  1.00  0.00     0.010 C 
ATOM     24  C   UNL     1      15.293  21.105  45.117  1.00  0.00     0.012 C 
ATOM     25  C   UNL     1      16.965  21.218  42.316  1.00  0.00    -0.006 C 
ATOM     26  C   UNL     1      14.411  21.048  42.073  1.00  0.00     0.033 C 
ATOM     27  C   UNL     1      15.757  21.122  41.341  1.00  0.00     0.120 C 
ATOM     28  C   UNL     1      17.026  22.617  43.005  1.00  0.00     0.014 C 
ATOM     29  C   UNL     1      18.271  21.131  41.468  1.00  0.00     0.014 C 
ENDROOT
BRANCH   1  30
ATOM     30  C   UNL     1      13.053  12.719  43.386  1.00  0.00     0.048 C 
ATOM     31  O   UNL     1      12.042  12.368  42.719  1.00  0.00    -0.550 OA
ATOM     32  O   UNL     1      14.002  11.756  43.710  1.00  0.00    -0.550 OA
ENDBRANCH   1  30
BRANCH  27  33
ATOM     33  O   UNL     1      15.755  22.223  40.465  1.00  0.00    -0.393 OA
ATOM     34  H   UNL     1      16.702  22.492  40.334  1.00  0.00     0.210 HD
ENDBRANCH  27  33
TORSDOF 2
ENDMDL
MODEL 5
REMARK VINA RESULT:    -8.700      1.116      7.853
REMARK INTER + INTRA:          -9.400
REMARK INTER:                  -9.450
REMARK INTRA:                   0.050
REMARK UNBOUND:                 0.063
REMARK SMILES C[C@@H]1[C@H](C)CC[C@@]2(C(=O)[O-])CC[C@]3(C)C(=CC[C@@H]4[C@]5(C)CC[C@@H](O)C(C)(C)[C@@H]5CC[C@@]43C)[C@@H]12
REMARK SMILES IDX 7 1 6 2 11 3 33 4 5 5 12 6 15 7 2 8 3 9 13 10 16 11 1 12
REMARK SMILES IDX 4 13 14 14 31 15 17 16 18 17 30 18 32 19 19 20 29 21 28 22
REMARK SMILES IDX 21 23 20 24 25 25 22 26 23 27 26 28 27 29 8 30 9 31 10 32
REMARK SMILES IDX 24 33
REMARK H PARENT 24 34
REMARK Flexibility Score: inf
ROOT
ATOM      1  C   UNL     1      17.893   9.037  43.402  1.00  0.00     0.017 C 
ATOM      2  C   UNL     1      17.296   9.084  41.966  1.00  0.00     0.014 C 
ATOM      3  C   UNL     1      18.655  10.381  43.668  1.00  0.00     0.014 C 
ATOM      4  C   UNL     1      16.732   8.763  44.447  1.00  0.00     0.030 C 
ATOM      5  C   UNL     1      16.549   7.796  41.597  1.00  0.00     0.004 C 
ATOM      6  C   UNL     1      17.786  11.589  44.081  1.00  0.00     0.013 C 
ATOM      7  C   UNL     1      15.968  10.073  44.742  1.00  0.00    -0.063 C 
ATOM      8  C   UNL     1      15.831   7.527  44.054  1.00  0.00    -0.003 C 
ATOM      9  C   UNL     1      15.377   7.557  42.555  1.00  0.00    -0.011 C 
ATOM     10  C   UNL     1      16.786  11.278  45.226  1.00  0.00    -0.006 C 
ATOM     11  C   UNL     1      14.717  10.279  44.290  1.00  0.00    -0.027 C 
ATOM     12  C   UNL     1      16.496   6.186  44.440  1.00  0.00     0.008 C 
ATOM     13  C   UNL     1      14.585   6.306  42.143  1.00  0.00     0.008 C 
ATOM     14  C   UNL     1      17.587  10.829  46.504  1.00  0.00     0.017 C 
ATOM     15  C   UNL     1      15.831  12.546  45.585  1.00  0.00    -0.020 C 
ATOM     16  C   UNL     1      14.391  11.569  43.618  1.00  0.00     0.032 C 
ATOM     17  C   UNL     1      14.677  12.816  44.492  1.00  0.00     0.006 C 
ATOM     18  C   UNL     1      16.667  13.830  45.898  1.00  0.00     0.008 C 
ATOM     19  C   UNL     1      15.093  12.216  46.936  1.00  0.00     0.012 C 
ATOM     20  C   UNL     1      14.604  14.201  43.646  1.00  0.00    -0.025 C 
ATOM     21  C   UNL     1      16.797  14.812  44.754  1.00  0.00     0.005 C 
ATOM     22  C   UNL     1      15.412  15.365  44.349  1.00  0.00     0.003 C 
ATOM     23  C   UNL     1      15.135  14.037  42.179  1.00  0.00     0.010 C 
ATOM     24  C   UNL     1      13.084  14.567  43.558  1.00  0.00     0.012 C 
ATOM     25  C   UNL     1      15.535  16.722  43.515  1.00  0.00    -0.006 C 
ATOM     26  C   UNL     1      15.241  15.338  41.368  1.00  0.00     0.033 C 
ATOM     27  C   UNL     1      16.063  16.418  42.083  1.00  0.00     0.120 C 
ATOM     28  C   UNL     1      14.177  17.490  43.466  1.00  0.00     0.014 C 
ATOM     29  C   UNL     1      16.533  17.712  44.190  1.00  0.00     0.014 C 
ENDROOT
BRANCH   1  30
ATOM     30  C   UNL     1      18.964   7.951  43.495  1.00  0.00     0.048 C 
ATOM     31  O   UNL     1      19.478   7.459  42.454  1.00  0.00    -0.550 OA
ATOM     32  O   UNL     1      19.487   7.589  44.730  1.00  0.00    -0.550 OA
ENDBRANCH   1  30
BRANCH  27  33
ATOM     33  O   UNL     1      16.065  17.594  41.310  1.00  0.00    -0.393 OA
ATOM     34  H   UNL     1      15.206  17.616  40.812  1.00  0.00     0.210 HD
ENDBRANCH  27  33
TORSDOF 2
ENDMDL
MODEL 6
REMARK VINA RESULT:    -8.600      2.886      4.604
REMARK INTER + INTRA:          -9.291
REMARK INTER:                  -9.496
REMARK INTRA:                   0.205
REMARK UNBOUND:                 0.063
REMARK SMILES C[C@@H]1[C@H](C)CC[C@@]2(C(=O)[O-])CC[C@]3(C)C(=CC[C@@H]4[C@]5(C)CC[C@@H](O)C(C)(C)[C@@H]5CC[C@@]43C)[C@@H]12
REMARK SMILES IDX 7 1 6 2 11 3 33 4 5 5 12 6 15 7 2 8 3 9 13 10 16 11 1 12
REMARK SMILES IDX 4 13 14 14 31 15 17 16 18 17 30 18 32 19 19 20 29 21 28 22
REMARK SMILES IDX 21 23 20 24 25 25 22 26 23 27 26 28 27 29 8 30 9 31 10 32
REMARK SMILES IDX 24 33
REMARK H PARENT 24 34
REMARK Flexibility Score: inf
ROOT
ATOM      1  C   UNL     1      16.552  19.645  42.334  1.00  0.00     0.017 C 
ATOM      2  C   UNL     1      17.836  18.923  42.832  1.00  0.00     0.014 C 
ATOM      3  C   UNL     1      15.720  18.638  41.466  1.00  0.00     0.014 C 
ATOM      4  C   UNL     1      15.745  20.205  43.580  1.00  0.00     0.030 C 
ATOM      5  C   UNL     1      18.737  19.836  43.673  1.00  0.00     0.004 C 
ATOM      6  C   UNL     1      14.841  17.632  42.241  1.00  0.00     0.013 C 
ATOM      7  C   UNL     1      14.928  19.069  44.233  1.00  0.00    -0.063 C 
ATOM      8  C   UNL     1      16.647  21.044  44.568  1.00  0.00    -0.003 C 
ATOM      9  C   UNL     1      17.994  20.327  44.921  1.00  0.00    -0.011 C 
ATOM     10  C   UNL     1      13.958  18.286  43.336  1.00  0.00    -0.006 C 
ATOM     11  C   UNL     1      15.267  18.549  45.428  1.00  0.00    -0.027 C 
ATOM     12  C   UNL     1      16.866  22.488  44.059  1.00  0.00     0.008 C 
ATOM     13  C   UNL     1      18.918  21.184  45.800  1.00  0.00     0.008 C 
ATOM     14  C   UNL     1      12.986  19.325  42.664  1.00  0.00     0.017 C 
ATOM     15  C   UNL     1      13.103  17.194  44.187  1.00  0.00    -0.020 C 
ATOM     16  C   UNL     1      15.323  17.069  45.586  1.00  0.00     0.032 C 
ATOM     17  C   UNL     1      13.992  16.355  45.238  1.00  0.00     0.006 C 
ATOM     18  C   UNL     1      12.255  16.270  43.255  1.00  0.00     0.008 C 
ATOM     19  C   UNL     1      12.039  17.982  45.037  1.00  0.00     0.012 C 
ATOM     20  C   UNL     1      14.160  14.743  45.126  1.00  0.00    -0.025 C 
ATOM     21  C   UNL     1      12.861  14.915  42.959  1.00  0.00     0.005 C 
ATOM     22  C   UNL     1      13.011  14.089  44.258  1.00  0.00     0.003 C 
ATOM     23  C   UNL     1      15.545  14.324  44.521  1.00  0.00     0.010 C 
ATOM     24  C   UNL     1      14.106  14.205  46.596  1.00  0.00     0.012 C 
ATOM     25  C   UNL     1      13.177  12.530  43.953  1.00  0.00    -0.006 C 
ATOM     26  C   UNL     1      15.715  12.823  44.241  1.00  0.00     0.033 C 
ATOM     27  C   UNL     1      14.591  12.251  43.367  1.00  0.00     0.120 C 
ATOM     28  C   UNL     1      12.912  11.666  45.226  1.00  0.00     0.014 C 
ATOM     29  C   UNL     1      12.124  12.042  42.910  1.00  0.00     0.014 C 
ENDROOT
BRANCH   1  30
ATOM     30  C   UNL     1      16.918  20.779  41.380  1.00  0.00     0.048 C 
ATOM     31  O   UNL     1      16.029  21.531  40.897  1.00  0.00    -0.550 OA
ATOM     32  O   UNL     1      18.252  21.088  41.140  1.00  0.00    -0.550 OA
ENDBRANCH   1  30
BRANCH  27  33
ATOM     33  O   UNL     1      14.782  10.866  43.204  1.00  0.00    -0.393 OA
ATOM     34  H   UNL     1      15.493  10.749  42.522  1.00  0.00     0.210 HD
ENDBRANCH  27  33
TORSDOF 2
ENDMDL
MODEL 7
REMARK VINA RESULT:    -8.432      3.489      4.870
REMARK INTER + INTRA:          -9.109
REMARK INTER:                  -9.159
REMARK INTRA:                   0.050
REMARK UNBOUND:                 0.063
REMARK SMILES C[C@@H]1[C@H](C)CC[C@@]2(C(=O)[O-])CC[C@]3(C)C(=CC[C@@H]4[C@]5(C)CC[C@@H](O)C(C)(C)[C@@H]5CC[C@@]43C)[C@@H]12
REMARK SMILES IDX 7 1 6 2 11 3 33 4 5 5 12 6 15 7 2 8 3 9 13 10 16 11 1 12
REMARK SMILES IDX 4 13 14 14 31 15 17 16 18 17 30 18 32 19 19 20 29 21 28 22
REMARK SMILES IDX 21 23 20 24 25 25 22 26 23 27 26 28 27 29 8 30 9 31 10 32
REMARK SMILES IDX 24 33
REMARK H PARENT 24 34
REMARK Flexibility Score: inf
ROOT
ATOM      1  C   UNL     1      14.309  19.140  43.679  1.00  0.00     0.017 C 
ATOM      2  C   UNL     1      15.087  18.336  42.598  1.00  0.00     0.014 C 
ATOM      3  C   UNL     1      12.809  18.683  43.656  1.00  0.00     0.014 C 
ATOM      4  C   UNL     1      15.001  18.929  45.091  1.00  0.00     0.030 C 
ATOM      5  C   UNL     1      16.567  18.730  42.522  1.00  0.00     0.004 C 
ATOM      6  C   UNL     1      12.482  17.375  44.408  1.00  0.00     0.013 C 
ATOM      7  C   UNL     1      14.565  17.576  45.695  1.00  0.00    -0.063 C 
ATOM      8  C   UNL     1      16.559  19.184  45.056  1.00  0.00    -0.003 C 
ATOM      9  C   UNL     1      17.267  18.463  43.859  1.00  0.00    -0.011 C 
ATOM     10  C   UNL     1      13.059  17.318  45.846  1.00  0.00    -0.006 C 
ATOM     11  C   UNL     1      15.412  16.532  45.779  1.00  0.00    -0.027 C 
ATOM     12  C   UNL     1      16.896  20.692  45.115  1.00  0.00     0.008 C 
ATOM     13  C   UNL     1      18.766  18.789  43.762  1.00  0.00     0.008 C 
ATOM     14  C   UNL     1      12.456  18.500  46.693  1.00  0.00     0.017 C 
ATOM     15  C   UNL     1      12.764  15.899  46.585  1.00  0.00    -0.020 C 
ATOM     16  C   UNL     1      14.956  15.189  45.322  1.00  0.00     0.032 C 
ATOM     17  C   UNL     1      13.680  14.687  46.043  1.00  0.00     0.006 C 
ATOM     18  C   UNL     1      11.242  15.545  46.573  1.00  0.00     0.008 C 
ATOM     19  C   UNL     1      13.118  16.073  48.108  1.00  0.00     0.012 C 
ATOM     20  C   UNL     1      13.035  13.378  45.329  1.00  0.00    -0.025 C 
ATOM     21  C   UNL     1      10.810  14.575  45.496  1.00  0.00     0.005 C 
ATOM     22  C   UNL     1      11.504  13.206  45.684  1.00  0.00     0.003 C 
ATOM     23  C   UNL     1      13.187  13.409  43.768  1.00  0.00     0.010 C 
ATOM     24  C   UNL     1      13.859  12.155  45.857  1.00  0.00     0.012 C 
ATOM     25  C   UNL     1      10.739  12.041  44.903  1.00  0.00    -0.006 C 
ATOM     26  C   UNL     1      12.466  12.282  43.013  1.00  0.00     0.033 C 
ATOM     27  C   UNL     1      10.978  12.184  43.371  1.00  0.00     0.120 C 
ATOM     28  C   UNL     1      11.170  10.630  45.413  1.00  0.00     0.014 C 
ATOM     29  C   UNL     1       9.201  12.107  45.153  1.00  0.00     0.014 C 
ENDROOT
BRANCH   1  30
ATOM     30  C   UNL     1      14.277  20.622  43.315  1.00  0.00     0.048 C 
ATOM     31  O   UNL     1      14.560  21.008  42.149  1.00  0.00    -0.550 OA
ATOM     32  O   UNL     1      13.800  21.557  44.227  1.00  0.00    -0.550 OA
ENDBRANCH   1  30
BRANCH  27  33
ATOM     33  O   UNL     1      10.401  11.096  42.690  1.00  0.00    -0.393 OA
ATOM     34  H   UNL     1      10.278  10.369  43.354  1.00  0.00     0.210 HD
ENDBRANCH  27  33
TORSDOF 2
ENDMDL
MODEL 8
REMARK VINA RESULT:    -8.430      2.763      5.285
REMARK INTER + INTRA:          -9.107
REMARK INTER:                  -9.159
REMARK INTRA:                   0.052
REMARK UNBOUND:                 0.063
REMARK SMILES C[C@@H]1[C@H](C)CC[C@@]2(C(=O)[O-])CC[C@]3(C)C(=CC[C@@H]4[C@]5(C)CC[C@@H](O)C(C)(C)[C@@H]5CC[C@@]43C)[C@@H]12
REMARK SMILES IDX 7 1 6 2 11 3 33 4 5 5 12 6 15 7 2 8 3 9 13 10 16 11 1 12
REMARK SMILES IDX 4 13 14 14 31 15 17 16 18 17 30 18 32 19 19 20 29 21 28 22
REMARK SMILES IDX 21 23 20 24 25 25 22 26 23 27 26 28 27 29 8 30 9 31 10 32
REMARK SMILES IDX 24 33
REMARK H PARENT 24 34
REMARK Flexibility Score: inf
ROOT
ATOM      1  C   UNL     1      14.637  20.123  43.547  1.00  0.00     0.017 C 
ATOM      2  C   UNL     1      13.850  20.009  44.884  1.00  0.00     0.014 C 
ATOM      3  C   UNL     1      15.948  19.271  43.668  1.00  0.00     0.014 C 
ATOM      4  C   UNL     1      13.706  19.663  42.347  1.00  0.00     0.030 C 
ATOM      5  C   UNL     1      12.556  20.833  44.877  1.00  0.00     0.004 C 
ATOM      6  C   UNL     1      15.799  17.751  43.439  1.00  0.00     0.013 C 
ATOM      7  C   UNL     1      13.672  18.121  42.267  1.00  0.00    -0.063 C 
ATOM      8  C   UNL     1      12.296  20.373  42.358  1.00  0.00    -0.003 C 
ATOM      9  C   UNL     1      11.614  20.352  43.768  1.00  0.00    -0.011 C 
ATOM     10  C   UNL     1      15.014  17.386  42.152  1.00  0.00    -0.006 C 
ATOM     11  C   UNL     1      12.576  17.419  42.614  1.00  0.00    -0.027 C 
ATOM     12  C   UNL     1      12.365  21.798  41.761  1.00  0.00     0.008 C 
ATOM     13  C   UNL     1      10.288  21.128  43.806  1.00  0.00     0.008 C 
ATOM     14  C   UNL     1      15.772  17.969  40.902  1.00  0.00     0.017 C 
ATOM     15  C   UNL     1      14.806  15.781  41.979  1.00  0.00    -0.020 C 
ATOM     16  C   UNL     1      12.725  16.241  43.514  1.00  0.00     0.032 C 
ATOM     17  C   UNL     1      13.697  15.163  42.973  1.00  0.00     0.006 C 
ATOM     18  C   UNL     1      16.164  15.011  42.050  1.00  0.00     0.008 C 
ATOM     19  C   UNL     1      14.283  15.526  40.517  1.00  0.00     0.012 C 
ATOM     20  C   UNL     1      14.074  14.045  44.090  1.00  0.00    -0.025 C 
ATOM     21  C   UNL     1      16.484  14.383  43.389  1.00  0.00     0.005 C 
ATOM     22  C   UNL     1      15.433  13.309  43.753  1.00  0.00     0.003 C 
ATOM     23  C   UNL     1      14.176  14.650  45.534  1.00  0.00     0.010 C 
ATOM     24  C   UNL     1      12.886  13.025  44.090  1.00  0.00     0.012 C 
ATOM     25  C   UNL     1      15.972  12.306  44.874  1.00  0.00    -0.006 C 
ATOM     26  C   UNL     1      14.680  13.685  46.618  1.00  0.00     0.033 C 
ATOM     27  C   UNL     1      16.017  13.026  46.253  1.00  0.00     0.120 C 
ATOM     28  C   UNL     1      15.111  11.006  44.942  1.00  0.00     0.014 C 
ATOM     29  C   UNL     1      17.416  11.815  44.546  1.00  0.00     0.014 C 
ENDROOT
BRANCH   1  30
ATOM     30  C   UNL     1      15.115  21.557  43.335  1.00  0.00     0.048 C 
ATOM     31  O   UNL     1      15.069  22.400  44.271  1.00  0.00    -0.550 OA
ATOM     32  O   UNL     1      15.739  21.918  42.146  1.00  0.00    -0.550 OA
ENDBRANCH   1  30
BRANCH  27  33
ATOM     33  O   UNL     1      16.382  12.115  47.261  1.00  0.00    -0.393 OA
ATOM     34  H   UNL     1      15.572  11.950  47.811  1.00  0.00     0.210 HD
ENDBRANCH  27  33
TORSDOF 2
ENDMDL
MODEL 9
REMARK VINA RESULT:    -8.418      5.702      8.188
REMARK INTER + INTRA:          -9.093
REMARK INTER:                  -9.396
REMARK INTRA:                   0.303
REMARK UNBOUND:                 0.063
REMARK SMILES C[C@@H]1[C@H](C)CC[C@@]2(C(=O)[O-])CC[C@]3(C)C(=CC[C@@H]4[C@]5(C)CC[C@@H](O)C(C)(C)[C@@H]5CC[C@@]43C)[C@@H]12
REMARK SMILES IDX 7 1 6 2 11 3 33 4 5 5 12 6 15 7 2 8 3 9 13 10 16 11 1 12
REMARK SMILES IDX 4 13 14 14 31 15 17 16 18 17 30 18 32 19 19 20 29 21 28 22
REMARK SMILES IDX 21 23 20 24 25 25 22 26 23 27 26 28 27 29 8 30 9 31 10 32
REMARK SMILES IDX 24 33
REMARK H PARENT 24 34
REMARK Flexibility Score: inf
ROOT
ATOM      1  C   UNL     1      10.720   8.597  43.049  1.00  0.00     0.017 C 
ATOM      2  C   UNL     1      11.007   9.283  44.415  1.00  0.00     0.014 C 
ATOM      3  C   UNL     1      11.772   9.108  42.004  1.00  0.00     0.014 C 
ATOM      4  C   UNL     1      10.744   7.021  43.235  1.00  0.00     0.030 C 
ATOM      5  C   UNL     1      10.011   8.867  45.504  1.00  0.00     0.004 C 
ATOM      6  C   UNL     1      13.158   8.428  42.042  1.00  0.00     0.013 C 
ATOM      7  C   UNL     1      12.203   6.515  43.252  1.00  0.00    -0.063 C 
ATOM      8  C   UNL     1       9.843   6.531  44.435  1.00  0.00    -0.003 C 
ATOM      9  C   UNL     1      10.075   7.355  45.747  1.00  0.00    -0.011 C 
ATOM     10  C   UNL     1      13.095   6.879  42.057  1.00  0.00    -0.006 C 
ATOM     11  C   UNL     1      12.785   6.070  44.382  1.00  0.00    -0.027 C 
ATOM     12  C   UNL     1       8.349   6.463  44.042  1.00  0.00     0.008 C 
ATOM     13  C   UNL     1       9.129   6.947  46.888  1.00  0.00     0.008 C 
ATOM     14  C   UNL     1      12.372   6.378  40.752  1.00  0.00     0.017 C 
ATOM     15  C   UNL     1      14.566   6.193  42.175  1.00  0.00    -0.020 C 
ATOM     16  C   UNL     1      14.144   6.563  44.742  1.00  0.00     0.032 C 
ATOM     17  C   UNL     1      15.211   6.298  43.649  1.00  0.00     0.006 C 
ATOM     18  C   UNL     1      15.536   6.708  41.063  1.00  0.00     0.008 C 
ATOM     19  C   UNL     1      14.400   4.657  41.874  1.00  0.00     0.012 C 
ATOM     20  C   UNL     1      16.597   7.100  43.923  1.00  0.00    -0.025 C 
ATOM     21  C   UNL     1      16.493   7.799  41.492  1.00  0.00     0.005 C 
ATOM     22  C   UNL     1      17.442   7.288  42.600  1.00  0.00     0.003 C 
ATOM     23  C   UNL     1      16.358   8.509  44.570  1.00  0.00     0.010 C 
ATOM     24  C   UNL     1      17.392   6.235  44.961  1.00  0.00     0.012 C 
ATOM     25  C   UNL     1      18.744   8.204  42.735  1.00  0.00    -0.006 C 
ATOM     26  C   UNL     1      17.610   9.388  44.716  1.00  0.00     0.033 C 
ATOM     27  C   UNL     1      18.370   9.563  43.395  1.00  0.00     0.120 C 
ATOM     28  C   UNL     1      19.874   7.480  43.532  1.00  0.00     0.014 C 
ATOM     29  C   UNL     1      19.369   8.508  41.339  1.00  0.00     0.014 C 
ENDROOT
BRANCH   1  30
ATOM     30  C   UNL     1       9.368   9.050  42.503  1.00  0.00     0.048 C 
ATOM     31  O   UNL     1       8.992  10.247  42.621  1.00  0.00    -0.550 OA
ATOM     32  O   UNL     1       8.593   8.182  41.744  1.00  0.00    -0.550 OA
ENDBRANCH   1  30
BRANCH  27  33
ATOM     33  O   UNL     1      19.531  10.326  43.619  1.00  0.00    -0.393 OA
ATOM     34  H   UNL     1      19.235  11.225  43.916  1.00  0.00     0.210 HD
ENDBRANCH  27  33
TORSDOF 2
ENDMDL
