MODEL 1
REMARK VINA RESULT:    -3.294      0.000      0.000
REMARK INTER + INTRA:          -3.299
REMARK INTER:                  -4.065
REMARK INTRA:                   0.765
REMARK UNBOUND:                 0.765
REMARK SMILES CC1=CC=CC(C)(C)CC1=O
REMARK SMILES IDX 1 1 2 2 3 3 10 4 11 5 9 6 4 8 5 9 6 10 7 11 8 12
REMARK H PARENT
REMARK Flexibility Score: 80.00
ROOT
ATOM      1  C   UNL     1      24.520  -4.032  55.382  1.00  0.00     0.048 C 
ATOM      2  C   UNL     1      25.442  -4.116  54.189  1.00  0.00    -0.008 C 
ATOM      3  C   UNL     1      25.280  -3.203  53.207  1.00  0.00     0.007 C 
ENDROOT
BRANCH   2   4
ATOM      4  C   UNL     1      26.505  -5.151  54.229  1.00  0.00     0.159 C 
ATOM      5  O   UNL     1      26.708  -5.774  55.307  1.00  0.00    -0.295 OA
BRANCH   4   6
ATOM      6  C   UNL     1      27.349  -5.514  53.045  1.00  0.00     0.091 CG0
ATOM      7  G   UNL     1      28.153  -4.320  52.482  1.00  0.00     0.000 G0
ENDBRANCH   4   6
ENDBRANCH   2   4
BRANCH   3   8
ATOM      8  C   UNL     1      26.037  -3.017  51.948  1.00  0.00    -0.003 C 
ATOM      9  C   UNL     1      27.252  -3.472  51.617  1.00  0.00    -0.020 C 
BRANCH   9  10
ATOM     10  C   UNL     1      28.152  -4.331  52.473  1.00  0.00    -0.010 CG0
ATOM     11  C   UNL     1      29.277  -4.898  51.578  1.00  0.00     0.016 C 
ATOM     12  C   UNL     1      28.809  -3.471  53.578  1.00  0.00     0.016 C 
ATOM     13  G   UNL     1      27.346  -5.520  53.043  1.00  0.00     0.000 G0
ENDBRANCH   9  10
ENDBRANCH   3   8
TORSDOF 0
ENDMDL
MODEL 2
REMARK VINA RESULT:    -3.275      1.950      3.334
REMARK INTER + INTRA:          -3.275
REMARK INTER:                  -4.045
REMARK INTRA:                   0.770
REMARK UNBOUND:                 0.765
REMARK SMILES CC1=CC=CC(C)(C)CC1=O
REMARK SMILES IDX 1 1 2 2 3 3 10 4 11 5 9 6 4 8 5 9 6 10 7 11 8 12
REMARK H PARENT
REMARK Flexibility Score: 80.00
ROOT
ATOM      1  C   UNL     1      25.761  -4.611  51.141  1.00  0.00     0.048 C 
ATOM      2  C   UNL     1      25.967  -4.192  52.578  1.00  0.00    -0.008 C 
ATOM      3  C   UNL     1      24.938  -3.585  53.206  1.00  0.00     0.007 C 
ENDROOT
BRANCH   2   4
ATOM      4  C   UNL     1      27.263  -4.550  53.207  1.00  0.00     0.159 C 
ATOM      5  O   UNL     1      28.026  -5.358  52.611  1.00  0.00    -0.295 OA
BRANCH   4   6
ATOM      6  C   UNL     1      27.728  -3.991  54.516  1.00  0.00     0.091 CG0
ATOM      7  G   UNL     1      26.773  -4.309  55.689  1.00  0.00     0.000 G0
ENDBRANCH   4   6
ENDBRANCH   2   4
BRANCH   3   8
ATOM      8  C   UNL     1      24.831  -3.092  54.599  1.00  0.00    -0.003 C 
ATOM      9  C   UNL     1      25.586  -3.396  55.663  1.00  0.00    -0.020 C 
BRANCH   9  10
ATOM     10  C   UNL     1      26.777  -4.324  55.682  1.00  0.00    -0.010 CG0
ATOM     11  C   UNL     1      27.545  -4.100  57.004  1.00  0.00     0.016 C 
ATOM     12  C   UNL     1      26.301  -5.795  55.650  1.00  0.00     0.016 C 
ATOM     13  G   UNL     1      27.724  -3.978  54.511  1.00  0.00     0.000 G0
ENDBRANCH   9  10
ENDBRANCH   3   8
TORSDOF 0
ENDMDL
MODEL 3
REMARK VINA RESULT:    -3.104      1.518      1.808
REMARK INTER + INTRA:          -3.064
REMARK INTER:                  -3.816
REMARK INTRA:                   0.751
REMARK UNBOUND:                 0.765
REMARK SMILES CC1=CC=CC(C)(C)CC1=O
REMARK SMILES IDX 1 1 2 2 3 3 10 4 11 5 9 6 4 8 5 9 6 10 7 11 8 12
REMARK H PARENT
REMARK Flexibility Score: 80.00
ROOT
ATOM      1  C   UNL     1      24.626  -3.249  53.820  1.00  0.00     0.048 C 
ATOM      2  C   UNL     1      25.885  -4.034  53.539  1.00  0.00    -0.008 C 
ATOM      3  C   UNL     1      26.059  -4.510  52.287  1.00  0.00     0.007 C 
ENDROOT
BRANCH   2   4
ATOM      4  C   UNL     1      26.868  -4.154  54.645  1.00  0.00     0.159 C 
ATOM      5  O   UNL     1      26.723  -3.432  55.669  1.00  0.00    -0.295 OA
BRANCH   4   6
ATOM      6  C   UNL     1      28.026  -5.104  54.621  1.00  0.00     0.091 CG0
ATOM      7  G   UNL     1      28.998  -4.851  53.447  1.00  0.00     0.000 G0
ENDBRANCH   4   6
ENDBRANCH   2   4
BRANCH   3   8
ATOM      8  C   UNL     1      27.185  -5.280  51.711  1.00  0.00    -0.003 C 
ATOM      9  C   UNL     1      28.435  -5.424  52.173  1.00  0.00    -0.020 C 
BRANCH   9  10
ATOM     10  C   UNL     1      28.994  -4.835  53.446  1.00  0.00    -0.010 CG0
ATOM     11  C   UNL     1      30.327  -5.548  53.766  1.00  0.00     0.016 C 
ATOM     12  C   UNL     1      29.294  -3.331  53.244  1.00  0.00     0.016 C 
ATOM     13  G   UNL     1      28.016  -5.096  54.613  1.00  0.00     0.000 G0
ENDBRANCH   9  10
ENDBRANCH   3   8
TORSDOF 0
ENDMDL
MODEL 4
REMARK VINA RESULT:    -3.098      1.030      1.360
REMARK INTER + INTRA:          -3.057
REMARK INTER:                  -3.816
REMARK INTRA:                   0.759
REMARK UNBOUND:                 0.765
REMARK SMILES CC1=CC=CC(C)(C)CC1=O
REMARK SMILES IDX 1 1 2 2 3 3 10 4 11 5 9 6 4 8 5 9 6 10 7 11 8 12
REMARK H PARENT
REMARK Flexibility Score: 80.00
ROOT
ATOM      1  C   UNL     1      25.213  -5.079  56.888  1.00  0.00     0.048 C 
ATOM      2  C   UNL     1      25.615  -4.670  55.490  1.00  0.00    -0.008 C 
ATOM      3  C   UNL     1      24.836  -3.770  54.853  1.00  0.00     0.007 C 
ENDROOT
BRANCH   2   4
ATOM      4  C   UNL     1      26.881  -5.234  54.960  1.00  0.00     0.159 C 
ATOM      5  O   UNL     1      27.657  -5.838  55.750  1.00  0.00    -0.295 OA
BRANCH   4   6
ATOM      6  C   UNL     1      27.288  -5.140  53.521  1.00  0.00     0.091 CG0
ATOM      7  G   UNL     1      27.443  -3.685  53.025  1.00  0.00     0.000 G0
ENDBRANCH   4   6
ENDBRANCH   2   4
BRANCH   3   8
ATOM      8  C   UNL     1      24.985  -3.166  53.509  1.00  0.00    -0.003 C 
ATOM      9  C   UNL     1      26.070  -3.105  52.726  1.00  0.00    -0.020 C 
BRANCH   9  10
ATOM     10  C   UNL     1      27.431  -3.682  53.033  1.00  0.00    -0.010 CG0
ATOM     11  C   UNL     1      28.258  -3.697  51.727  1.00  0.00     0.016 C 
ATOM     12  C   UNL     1      28.168  -2.782  54.053  1.00  0.00     0.016 C 
ATOM     13  G   UNL     1      27.280  -5.139  53.523  1.00  0.00     0.000 G0
ENDBRANCH   9  10
ENDBRANCH   3   8
TORSDOF 0
ENDMDL
MODEL 5
REMARK VINA RESULT:    -3.065     11.213     12.558
REMARK INTER + INTRA:          -3.016
REMARK INTER:                  -3.755
REMARK INTRA:                   0.739
REMARK UNBOUND:                 0.765
REMARK SMILES CC1=CC=CC(C)(C)CC1=O
REMARK SMILES IDX 1 1 2 2 3 3 10 4 11 5 9 6 4 8 5 9 6 10 7 11 8 12
REMARK H PARENT
REMARK Flexibility Score: 80.00
ROOT
ATOM      1  C   UNL     1      16.741  -0.657  55.488  1.00  0.00     0.048 C 
ATOM      2  C   UNL     1      16.684  -0.056  56.873  1.00  0.00    -0.008 C 
ATOM      3  C   UNL     1      15.466   0.126  57.427  1.00  0.00     0.007 C 
ENDROOT
BRANCH   2   4
ATOM      4  C   UNL     1      17.980   0.216  57.545  1.00  0.00     0.159 C 
ATOM      5  O   UNL     1      19.039  -0.238  57.032  1.00  0.00    -0.295 OA
BRANCH   4   6
ATOM      6  C   UNL     1      18.104   1.020  58.803  1.00  0.00     0.091 CG0
ATOM      7  G   UNL     1      17.318   0.420  59.990  1.00  0.00     0.000 G0
ENDBRANCH   4   6
ENDBRANCH   2   4
BRANCH   3   8
ATOM      8  C   UNL     1      15.097   0.659  58.758  1.00  0.00    -0.003 C 
ATOM      9  C   UNL     1      15.853   0.787  59.857  1.00  0.00    -0.020 C 
BRANCH   9  10
ATOM     10  C   UNL     1      17.314   0.427  59.987  1.00  0.00    -0.010 CG0
ATOM     11  C   UNL     1      17.862   1.084  61.274  1.00  0.00     0.016 C 
ATOM     12  C   UNL     1      17.469  -1.106  60.131  1.00  0.00     0.016 C 
ATOM     13  G   UNL     1      18.099   0.996  58.784  1.00  0.00     0.000 G0
ENDBRANCH   9  10
ENDBRANCH   3   8
TORSDOF 0
ENDMDL
MODEL 6
REMARK VINA RESULT:    -2.989      1.756      3.565
REMARK INTER + INTRA:          -2.923
REMARK INTER:                  -3.674
REMARK INTRA:                   0.752
REMARK UNBOUND:                 0.765
REMARK SMILES CC1=CC=CC(C)(C)CC1=O
REMARK SMILES IDX 1 1 2 2 3 3 10 4 11 5 9 6 4 8 5 9 6 10 7 11 8 12
REMARK H PARENT
REMARK Flexibility Score: 80.00
ROOT
ATOM      1  C   UNL     1      28.953  -5.723  52.437  1.00  0.00     0.048 C 
ATOM      2  C   UNL     1      27.796  -4.825  52.809  1.00  0.00    -0.008 C 
ATOM      3  C   UNL     1      26.706  -4.847  52.013  1.00  0.00     0.007 C 
ENDROOT
BRANCH   2   4
ATOM      4  C   UNL     1      27.923  -4.046  54.067  1.00  0.00     0.159 C 
ATOM      5  O   UNL     1      28.878  -4.306  54.849  1.00  0.00    -0.295 OA
BRANCH   4   6
ATOM      6  C   UNL     1      26.982  -2.949  54.456  1.00  0.00     0.091 CG0
ATOM      7  G   UNL     1      25.516  -3.421  54.590  1.00  0.00     0.000 G0
ENDBRANCH   4   6
ENDBRANCH   2   4
BRANCH   3   8
ATOM      8  C   UNL     1      25.426  -4.111  52.133  1.00  0.00    -0.003 C 
ATOM      9  C   UNL     1      24.896  -3.507  53.204  1.00  0.00    -0.020 C 
BRANCH   9  10
ATOM     10  C   UNL     1      25.516  -3.411  54.578  1.00  0.00    -0.010 CG0
ATOM     11  C   UNL     1      24.750  -2.335  55.382  1.00  0.00     0.016 C 
ATOM     12  C   UNL     1      25.365  -4.759  55.321  1.00  0.00     0.016 C 
ATOM     13  G   UNL     1      26.989  -2.960  54.454  1.00  0.00     0.000 G0
ENDBRANCH   9  10
ENDBRANCH   3   8
TORSDOF 0
ENDMDL
MODEL 7
REMARK VINA RESULT:    -2.975      1.748      2.629
REMARK INTER + INTRA:          -2.905
REMARK INTER:                  -3.670
REMARK INTRA:                   0.765
REMARK UNBOUND:                 0.765
REMARK SMILES CC1=CC=CC(C)(C)CC1=O
REMARK SMILES IDX 1 1 2 2 3 3 10 4 11 5 9 6 4 8 5 9 6 10 7 11 8 12
REMARK H PARENT
REMARK Flexibility Score: 80.00
ROOT
ATOM      1  C   UNL     1      24.284  -3.619  53.687  1.00  0.00     0.048 C 
ATOM      2  C   UNL     1      25.751  -3.955  53.818  1.00  0.00    -0.008 C 
ATOM      3  C   UNL     1      26.084  -5.020  54.580  1.00  0.00     0.007 C 
ENDROOT
BRANCH   2   4
ATOM      4  C   UNL     1      26.706  -3.132  53.034  1.00  0.00     0.159 C 
ATOM      5  O   UNL     1      26.254  -2.354  52.150  1.00  0.00    -0.295 OA
BRANCH   4   6
ATOM      6  C   UNL     1      28.188  -3.162  53.244  1.00  0.00     0.091 CG0
ATOM      7  G   UNL     1      28.810  -4.556  53.007  1.00  0.00     0.000 G0
ENDBRANCH   4   6
ENDBRANCH   2   4
BRANCH   3   8
ATOM      8  C   UNL     1      27.414  -5.601  54.871  1.00  0.00    -0.003 C 
ATOM      9  C   UNL     1      28.571  -5.437  54.215  1.00  0.00    -0.020 C 
BRANCH   9  10
ATOM     10  C   UNL     1      28.797  -4.569  53.000  1.00  0.00    -0.010 CG0
ATOM     11  C   UNL     1      30.321  -4.405  52.799  1.00  0.00     0.016 C 
ATOM     12  C   UNL     1      28.222  -5.261  51.742  1.00  0.00     0.016 C 
ATOM     13  G   UNL     1      28.190  -3.169  53.241  1.00  0.00     0.000 G0
ENDBRANCH   9  10
ENDBRANCH   3   8
TORSDOF 0
ENDMDL
MODEL 8
REMARK VINA RESULT:    -2.972     13.182     14.479
REMARK INTER + INTRA:          -2.902
REMARK INTER:                  -3.666
REMARK INTRA:                   0.764
REMARK UNBOUND:                 0.765
REMARK SMILES CC1=CC=CC(C)(C)CC1=O
REMARK SMILES IDX 1 1 2 2 3 3 10 4 11 5 9 6 4 8 5 9 6 10 7 11 8 12
REMARK H PARENT
REMARK Flexibility Score: 80.00
ROOT
ATOM      1  C   UNL     1      16.035  -4.211  60.497  1.00  0.00     0.048 C 
ATOM      2  C   UNL     1      15.481  -2.813  60.637  1.00  0.00    -0.008 C 
ATOM      3  C   UNL     1      14.531  -2.607  61.575  1.00  0.00     0.007 C 
ENDROOT
BRANCH   2   4
ATOM      4  C   UNL     1      16.082  -1.759  59.782  1.00  0.00     0.159 C 
ATOM      5  O   UNL     1      17.123  -2.030  59.123  1.00  0.00    -0.295 OA
BRANCH   4   6
ATOM      6  C   UNL     1      15.509  -0.382  59.644  1.00  0.00     0.091 CG0
ATOM      7  G   UNL     1      15.397   0.370  60.989  1.00  0.00     0.000 G0
ENDBRANCH   4   6
ENDBRANCH   2   4
BRANCH   3   8
ATOM      8  C   UNL     1      13.828  -1.362  61.959  1.00  0.00    -0.003 C 
ATOM      9  C   UNL     1      14.179  -0.089  61.733  1.00  0.00    -0.020 C 
BRANCH   9  10
ATOM     10  C   UNL     1      15.402   0.385  60.984  1.00  0.00    -0.010 CG0
ATOM     11  C   UNL     1      15.227   1.888  60.671  1.00  0.00     0.016 C 
ATOM     12  C   UNL     1      16.659   0.225  61.871  1.00  0.00     0.016 C 
ATOM     13  G   UNL     1      15.518  -0.376  59.644  1.00  0.00     0.000 G0
ENDBRANCH   9  10
ENDBRANCH   3   8
TORSDOF 0
ENDMDL
MODEL 9
REMARK VINA RESULT:    -2.866     11.366     13.098
REMARK INTER + INTRA:          -2.771
REMARK INTER:                  -3.525
REMARK INTRA:                   0.755
REMARK UNBOUND:                 0.765
REMARK SMILES CC1=CC=CC(C)(C)CC1=O
REMARK SMILES IDX 1 1 2 2 3 3 10 4 11 5 9 6 4 8 5 9 6 10 7 11 8 12
REMARK H PARENT
REMARK Flexibility Score: 80.00
ROOT
ATOM      1  C   UNL     1      21.004  -2.545  61.726  1.00  0.00     0.048 C 
ATOM      2  C   UNL     1      19.516  -2.307  61.830  1.00  0.00    -0.008 C 
ATOM      3  C   UNL     1      19.050  -1.092  61.468  1.00  0.00     0.007 C 
ENDROOT
BRANCH   2   4
ATOM      4  C   UNL     1      18.675  -3.456  62.250  1.00  0.00     0.159 C 
ATOM      5  O   UNL     1      19.197  -4.604  62.305  1.00  0.00    -0.295 OA
BRANCH   4   6
ATOM      6  C   UNL     1      17.232  -3.328  62.630  1.00  0.00     0.091 CG0
ATOM      7  G   UNL     1      16.350  -2.763  61.494  1.00  0.00     0.000 G0
ENDBRANCH   4   6
ENDBRANCH   2   4
BRANCH   3   8
ATOM      8  C   UNL     1      17.662  -0.577  61.436  1.00  0.00    -0.003 C 
ATOM      9  C   UNL     1      16.508  -1.258  61.433  1.00  0.00    -0.020 C 
BRANCH   9  10
ATOM     10  C   UNL     1      16.352  -2.759  61.489  1.00  0.00    -0.010 CG0
ATOM     11  C   UNL     1      14.878  -3.081  61.825  1.00  0.00     0.016 C 
ATOM     12  C   UNL     1      16.672  -3.376  60.107  1.00  0.00     0.016 C 
ATOM     13  G   UNL     1      17.238  -3.332  62.618  1.00  0.00     0.000 G0
ENDBRANCH   9  10
ENDBRANCH   3   8
TORSDOF 0
ENDMDL
