MODEL 1
REMARK VINA RESULT:    -4.190      0.000      0.000
REMARK INTER + INTRA:          -5.101
REMARK INTER:                  -4.802
REMARK INTRA:                  -0.299
REMARK UNBOUND:                -0.299
REMARK SMILES O=C([O-])C=Cc1ccc(O)cc1
REMARK SMILES IDX 6 1 7 2 12 3 8 4 11 5 9 6 5 7 4 8 2 9 1 10 3 11 10 12
REMARK H PARENT 10 13
REMARK Flexibility Score: inf
ROOT
ATOM      1  C   UNL     1      15.763  16.968   7.928  1.00  0.00    -0.025 A 
ATOM      2  C   UNL     1      16.339  15.752   7.523  1.00  0.00     0.012 A 
ATOM      3  C   UNL     1      16.539  17.890   8.646  1.00  0.00     0.012 A 
ATOM      4  C   UNL     1      17.655  15.443   7.878  1.00  0.00     0.047 A 
ATOM      5  C   UNL     1      17.855  17.579   9.001  1.00  0.00     0.047 A 
ATOM      6  C   UNL     1      18.416  16.353   8.620  1.00  0.00     0.115 A 
ENDROOT
BRANCH   1   7
ATOM      7  C   UNL     1      14.392  17.340   7.520  1.00  0.00     0.010 C 
ATOM      8  C   UNL     1      13.272  17.038   8.194  1.00  0.00     0.025 C 
BRANCH   8   9
ATOM      9  C   UNL     1      13.220  16.456   9.549  1.00  0.00     0.064 C 
ATOM     10  O   UNL     1      13.215  17.223  10.548  1.00  0.00    -0.545 OA
ATOM     11  O   UNL     1      13.246  15.083   9.751  1.00  0.00    -0.545 OA
ENDBRANCH   8   9
ENDBRANCH   1   7
BRANCH   6  12
ATOM     12  O   UNL     1      19.725  16.031   8.969  1.00  0.00    -0.508 OA
ATOM     13  H   UNL     1      19.989  15.855   9.931  1.00  0.00     0.293 HD
ENDBRANCH   6  12
TORSDOF 3
ENDMDL
MODEL 2
REMARK VINA RESULT:    -4.170      1.773      4.799
REMARK INTER + INTRA:          -5.078
REMARK INTER:                  -4.815
REMARK INTRA:                  -0.263
REMARK UNBOUND:                -0.299
REMARK SMILES O=C([O-])C=Cc1ccc(O)cc1
REMARK SMILES IDX 6 1 7 2 12 3 8 4 11 5 9 6 5 7 4 8 2 9 1 10 3 11 10 12
REMARK H PARENT 10 13
REMARK Flexibility Score: inf
ROOT
ATOM      1  C   UNL     1      15.189  17.240   8.669  1.00  0.00    -0.025 A 
ATOM      2  C   UNL     1      14.709  17.107   9.984  1.00  0.00     0.012 A 
ATOM      3  C   UNL     1      14.274  17.298   7.607  1.00  0.00     0.012 A 
ATOM      4  C   UNL     1      13.337  16.981  10.224  1.00  0.00     0.047 A 
ATOM      5  C   UNL     1      12.903  17.172   7.850  1.00  0.00     0.047 A 
ATOM      6  C   UNL     1      12.431  17.010   9.159  1.00  0.00     0.115 A 
ENDROOT
BRANCH   1   7
ATOM      7  C   UNL     1      16.629  17.427   8.394  1.00  0.00     0.010 C 
ATOM      8  C   UNL     1      17.521  16.440   8.223  1.00  0.00     0.025 C 
BRANCH   8   9
ATOM      9  C   UNL     1      17.197  15.008   8.086  1.00  0.00     0.064 C 
ATOM     10  O   UNL     1      16.986  14.323   9.122  1.00  0.00    -0.545 OA
ATOM     11  O   UNL     1      17.190  14.380   6.847  1.00  0.00    -0.545 OA
ENDBRANCH   8   9
ENDBRANCH   1   7
BRANCH   6  12
ATOM     12  O   UNL     1      11.068  16.882   9.413  1.00  0.00    -0.508 OA
ATOM     13  H   UNL     1      10.726  16.469  10.273  1.00  0.00     0.293 HD
ENDBRANCH   6  12
TORSDOF 3
ENDMDL
MODEL 3
REMARK VINA RESULT:    -4.146      2.117      3.119
REMARK INTER + INTRA:          -5.051
REMARK INTER:                  -4.803
REMARK INTRA:                  -0.248
REMARK UNBOUND:                -0.299
REMARK SMILES O=C([O-])C=Cc1ccc(O)cc1
REMARK SMILES IDX 6 1 7 2 12 3 8 4 11 5 9 6 5 7 4 8 2 9 1 10 3 11 10 12
REMARK H PARENT 10 13
REMARK Flexibility Score: inf
ROOT
ATOM      1  C   UNL     1      13.022  17.112   9.444  1.00  0.00    -0.025 A 
ATOM      2  C   UNL     1      13.204  17.077   8.050  1.00  0.00     0.012 A 
ATOM      3  C   UNL     1      14.136  17.290  10.278  1.00  0.00     0.012 A 
ATOM      4  C   UNL     1      14.488  17.166   7.505  1.00  0.00     0.047 A 
ATOM      5  C   UNL     1      15.420  17.379   9.730  1.00  0.00     0.047 A 
ATOM      6  C   UNL     1      15.599  17.314   8.342  1.00  0.00     0.115 A 
ENDROOT
BRANCH   1   7
ATOM      7  C   UNL     1      11.670  17.073  10.041  1.00  0.00     0.010 C 
ATOM      8  C   UNL     1      11.088  15.988  10.574  1.00  0.00     0.025 C 
BRANCH   8   9
ATOM      9  C   UNL     1      11.757  14.699  10.835  1.00  0.00     0.064 C 
ATOM     10  O   UNL     1      12.254  14.483  11.972  1.00  0.00    -0.545 OA
ATOM     11  O   UNL     1      11.913  13.747   9.836  1.00  0.00    -0.545 OA
ENDBRANCH   8   9
ENDBRANCH   1   7
BRANCH   6  12
ATOM     12  O   UNL     1      16.873  17.400   7.785  1.00  0.00    -0.508 OA
ATOM     13  H   UNL     1      17.200  18.249   7.339  1.00  0.00     0.293 HD
ENDBRANCH   6  12
TORSDOF 3
ENDMDL
MODEL 4
REMARK VINA RESULT:    -4.113      2.342      5.045
REMARK INTER + INTRA:          -5.013
REMARK INTER:                  -4.771
REMARK INTRA:                  -0.242
REMARK UNBOUND:                -0.299
REMARK SMILES O=C([O-])C=Cc1ccc(O)cc1
REMARK SMILES IDX 6 1 7 2 12 3 8 4 11 5 9 6 5 7 4 8 2 9 1 10 3 11 10 12
REMARK H PARENT 10 13
REMARK Flexibility Score: inf
ROOT
ATOM      1  C   UNL     1      12.565  16.441   9.198  1.00  0.00    -0.025 A 
ATOM      2  C   UNL     1      12.155  15.105   9.053  1.00  0.00     0.012 A 
ATOM      3  C   UNL     1      12.704  16.981  10.486  1.00  0.00     0.012 A 
ATOM      4  C   UNL     1      11.838  14.339  10.179  1.00  0.00     0.047 A 
ATOM      5  C   UNL     1      12.387  16.213  11.610  1.00  0.00     0.047 A 
ATOM      6  C   UNL     1      11.951  14.890  11.459  1.00  0.00     0.115 A 
ENDROOT
BRANCH   1   7
ATOM      7  C   UNL     1      12.956  17.254   8.027  1.00  0.00     0.010 C 
ATOM      8  C   UNL     1      14.216  17.495   7.634  1.00  0.00     0.025 C 
BRANCH   8   9
ATOM      9  C   UNL     1      15.421  16.839   8.177  1.00  0.00     0.064 C 
ATOM     10  O   UNL     1      15.895  15.835   7.584  1.00  0.00    -0.545 OA
ATOM     11  O   UNL     1      16.004  17.261   9.365  1.00  0.00    -0.545 OA
ENDBRANCH   8   9
ENDBRANCH   1   7
BRANCH   6  12
ATOM     12  O   UNL     1      11.631  14.116  12.572  1.00  0.00    -0.508 OA
ATOM     13  H   UNL     1      11.219  14.527  13.402  1.00  0.00     0.293 HD
ENDBRANCH   6  12
TORSDOF 3
ENDMDL
MODEL 5
REMARK VINA RESULT:    -4.104      1.911      2.851
REMARK INTER + INTRA:          -5.003
REMARK INTER:                  -4.742
REMARK INTRA:                  -0.261
REMARK UNBOUND:                -0.299
REMARK SMILES O=C([O-])C=Cc1ccc(O)cc1
REMARK SMILES IDX 6 1 7 2 12 3 8 4 11 5 9 6 5 7 4 8 2 9 1 10 3 11 10 12
REMARK H PARENT 10 13
REMARK Flexibility Score: inf
ROOT
ATOM      1  C   UNL     1      13.394  17.097   9.214  1.00  0.00    -0.025 A 
ATOM      2  C   UNL     1      13.633  17.099   7.829  1.00  0.00     0.012 A 
ATOM      3  C   UNL     1      14.482  17.137  10.100  1.00  0.00     0.012 A 
ATOM      4  C   UNL     1      14.943  17.087   7.341  1.00  0.00     0.047 A 
ATOM      5  C   UNL     1      15.791  17.125   9.609  1.00  0.00     0.047 A 
ATOM      6  C   UNL     1      16.025  17.097   8.227  1.00  0.00     0.115 A 
ENDROOT
BRANCH   1   7
ATOM      7  C   UNL     1      12.020  17.164   9.755  1.00  0.00     0.010 C 
ATOM      8  C   UNL     1      11.290  16.110  10.151  1.00  0.00     0.025 C 
BRANCH   8   9
ATOM      9  C   UNL     1      11.790  14.730  10.301  1.00  0.00     0.064 C 
ATOM     10  O   UNL     1      11.724  13.942   9.321  1.00  0.00    -0.545 OA
ATOM     11  O   UNL     1      12.267  14.259  11.518  1.00  0.00    -0.545 OA
ENDBRANCH   8   9
ENDBRANCH   1   7
BRANCH   6  12
ATOM     12  O   UNL     1      17.325  17.083   7.727  1.00  0.00    -0.508 OA
ATOM     13  H   UNL     1      18.101  16.737   8.278  1.00  0.00     0.293 HD
ENDBRANCH   6  12
TORSDOF 3
ENDMDL
MODEL 6
REMARK VINA RESULT:    -4.081      1.499      4.722
REMARK INTER + INTRA:          -4.976
REMARK INTER:                  -4.700
REMARK INTRA:                  -0.276
REMARK UNBOUND:                -0.299
REMARK SMILES O=C([O-])C=Cc1ccc(O)cc1
REMARK SMILES IDX 6 1 7 2 12 3 8 4 11 5 9 6 5 7 4 8 2 9 1 10 3 11 10 12
REMARK H PARENT 10 13
REMARK Flexibility Score: inf
ROOT
ATOM      1  C   UNL     1      15.911  15.684   8.479  1.00  0.00    -0.025 A 
ATOM      2  C   UNL     1      15.610  16.659   7.512  1.00  0.00     0.012 A 
ATOM      3  C   UNL     1      14.952  15.365   9.454  1.00  0.00     0.012 A 
ATOM      4  C   UNL     1      14.390  17.340   7.553  1.00  0.00     0.047 A 
ATOM      5  C   UNL     1      13.733  16.048   9.493  1.00  0.00     0.047 A 
ATOM      6  C   UNL     1      13.450  17.039   8.544  1.00  0.00     0.115 A 
ENDROOT
BRANCH   1   7
ATOM      7  C   UNL     1      17.171  14.914   8.425  1.00  0.00     0.010 C 
ATOM      8  C   UNL     1      18.344  15.306   8.945  1.00  0.00     0.025 C 
BRANCH   8   9
ATOM      9  C   UNL     1      18.542  16.474   9.824  1.00  0.00     0.064 C 
ATOM     10  O   UNL     1      19.226  17.447   9.410  1.00  0.00    -0.545 OA
ATOM     11  O   UNL     1      18.051  16.497  11.124  1.00  0.00    -0.545 OA
ENDBRANCH   8   9
ENDBRANCH   1   7
BRANCH   6  12
ATOM     12  O   UNL     1      12.239  17.727   8.574  1.00  0.00    -0.508 OA
ATOM     13  H   UNL     1      11.587  17.685   7.800  1.00  0.00     0.293 HD
ENDBRANCH   6  12
TORSDOF 3
ENDMDL
MODEL 7
REMARK VINA RESULT:    -3.964      2.403      5.179
REMARK INTER + INTRA:          -4.842
REMARK INTER:                  -4.555
REMARK INTRA:                  -0.288
REMARK UNBOUND:                -0.299
REMARK SMILES O=C([O-])C=Cc1ccc(O)cc1
REMARK SMILES IDX 6 1 7 2 12 3 8 4 11 5 9 6 5 7 4 8 2 9 1 10 3 11 10 12
REMARK H PARENT 10 13
REMARK Flexibility Score: inf
ROOT
ATOM      1  C   UNL     1      18.171  17.457  10.458  1.00  0.00    -0.025 A 
ATOM      2  C   UNL     1      17.009  17.676  11.217  1.00  0.00     0.012 A 
ATOM      3  C   UNL     1      18.082  17.431   9.057  1.00  0.00     0.012 A 
ATOM      4  C   UNL     1      15.769  17.813  10.585  1.00  0.00     0.047 A 
ATOM      5  C   UNL     1      16.841  17.568   8.427  1.00  0.00     0.047 A 
ATOM      6  C   UNL     1      15.681  17.757   9.190  1.00  0.00     0.115 A 
ENDROOT
BRANCH   1   7
ATOM      7  C   UNL     1      19.499  17.362  11.099  1.00  0.00     0.010 C 
ATOM      8  C   UNL     1      20.048  16.238  11.585  1.00  0.00     0.025 C 
BRANCH   8   9
ATOM      9  C   UNL     1      19.518  14.875  11.394  1.00  0.00     0.064 C 
ATOM     10  O   UNL     1      18.705  14.408  12.234  1.00  0.00    -0.545 OA
ATOM     11  O   UNL     1      19.947  14.069  10.347  1.00  0.00    -0.545 OA
ENDBRANCH   8   9
ENDBRANCH   1   7
BRANCH   6  12
ATOM     12  O   UNL     1      14.440  17.893   8.573  1.00  0.00    -0.508 OA
ATOM     13  H   UNL     1      13.616  17.426   8.933  1.00  0.00     0.293 HD
ENDBRANCH   6  12
TORSDOF 3
ENDMDL
MODEL 8
REMARK VINA RESULT:    -3.960      2.428      5.342
REMARK INTER + INTRA:          -4.838
REMARK INTER:                  -4.555
REMARK INTRA:                  -0.282
REMARK UNBOUND:                -0.299
REMARK SMILES O=C([O-])C=Cc1ccc(O)cc1
REMARK SMILES IDX 6 1 7 2 12 3 8 4 11 5 9 6 5 7 4 8 2 9 1 10 3 11 10 12
REMARK H PARENT 10 13
REMARK Flexibility Score: inf
ROOT
ATOM      1  C   UNL     1      13.865  15.727  10.334  1.00  0.00    -0.025 A 
ATOM      2  C   UNL     1      12.602  15.344   9.852  1.00  0.00     0.012 A 
ATOM      3  C   UNL     1      13.945  16.626  11.409  1.00  0.00     0.012 A 
ATOM      4  C   UNL     1      11.440  15.893  10.403  1.00  0.00     0.047 A 
ATOM      5  C   UNL     1      12.782  17.174  11.958  1.00  0.00     0.047 A 
ATOM      6  C   UNL     1      11.526  16.811  11.454  1.00  0.00     0.115 A 
ENDROOT
BRANCH   1   7
ATOM      7  C   UNL     1      15.104  15.122   9.804  1.00  0.00     0.010 C 
ATOM      8  C   UNL     1      15.838  15.612   8.794  1.00  0.00     0.025 C 
BRANCH   8   9
ATOM      9  C   UNL     1      15.651  16.933   8.163  1.00  0.00     0.064 C 
ATOM     10  O   UNL     1      14.963  17.021   7.112  1.00  0.00    -0.545 OA
ATOM     11  O   UNL     1      16.273  18.070   8.662  1.00  0.00    -0.545 OA
ENDBRANCH   8   9
ENDBRANCH   1   7
BRANCH   6  12
ATOM     12  O   UNL     1      10.361  17.351  11.993  1.00  0.00    -0.508 OA
ATOM     13  H   UNL     1      10.270  17.531  12.986  1.00  0.00     0.293 HD
ENDBRANCH   6  12
TORSDOF 3
ENDMDL
MODEL 9
REMARK VINA RESULT:    -3.911      4.607      6.500
REMARK INTER + INTRA:          -4.782
REMARK INTER:                  -4.543
REMARK INTRA:                  -0.239
REMARK UNBOUND:                -0.299
REMARK SMILES O=C([O-])C=Cc1ccc(O)cc1
REMARK SMILES IDX 6 1 7 2 12 3 8 4 11 5 9 6 5 7 4 8 2 9 1 10 3 11 10 12
REMARK H PARENT 10 13
REMARK Flexibility Score: inf
ROOT
ATOM      1  C   UNL     1      14.066  16.514  12.136  1.00  0.00    -0.025 A 
ATOM      2  C   UNL     1      13.412  17.735  11.898  1.00  0.00     0.012 A 
ATOM      3  C   UNL     1      13.318  15.326  12.150  1.00  0.00     0.012 A 
ATOM      4  C   UNL     1      12.024  17.771  11.731  1.00  0.00     0.047 A 
ATOM      5  C   UNL     1      11.930  15.365  11.983  1.00  0.00     0.047 A 
ATOM      6  C   UNL     1      11.280  16.588  11.775  1.00  0.00     0.115 A 
ENDROOT
BRANCH   1   7
ATOM      7  C   UNL     1      15.536  16.443  12.263  1.00  0.00     0.010 C 
ATOM      8  C   UNL     1      16.235  16.735  13.370  1.00  0.00     0.025 C 
BRANCH   8   9
ATOM      9  C   UNL     1      15.657  16.988  14.704  1.00  0.00     0.064 C 
ATOM     10  O   UNL     1      15.181  18.125  14.963  1.00  0.00    -0.545 OA
ATOM     11  O   UNL     1      15.691  16.026  15.705  1.00  0.00    -0.545 OA
ENDBRANCH   8   9
ENDBRANCH   1   7
BRANCH   6  12
ATOM     12  O   UNL     1       9.898  16.639  11.609  1.00  0.00    -0.508 OA
ATOM     13  H   UNL     1       9.349  17.410  11.972  1.00  0.00     0.293 HD
ENDBRANCH   6  12
TORSDOF 3
ENDMDL
