MODEL 1
REMARK VINA RESULT:    -3.112      0.000      0.000
REMARK INTER + INTRA:          -7.616
REMARK INTER:                  -5.477
REMARK INTRA:                  -2.139
REMARK UNBOUND:                -2.139
REMARK SMILES CCCCCCCCCCCCCCC(=O)[O-]
REMARK SMILES IDX 9 1 10 2 11 3 12 4 13 5 14 6 15 7 16 8 17 9 8 10 7 11 6 12
REMARK SMILES IDX 5 13 4 14 3 15 2 16 1 17
REMARK H PARENT
REMARK Flexibility Score: inf
ROOT
ATOM      1  C   UNL     1      15.736   9.327  40.267  1.00  0.00     0.000 C 
ENDROOT
BRANCH   1   2
ATOM      2  C   UNL     1      16.181  10.093  39.003  1.00  0.00     0.000 C 
BRANCH   2   3
ATOM      3  C   UNL     1      17.670   9.878  38.679  1.00  0.00     0.000 C 
BRANCH   3   4
ATOM      4  C   UNL     1      17.918   8.596  37.868  1.00  0.00     0.000 C 
BRANCH   4   5
ATOM      5  C   UNL     1      19.303   8.580  37.200  1.00  0.00     0.006 C 
BRANCH   5   6
ATOM      6  C   UNL     1      20.022   9.917  37.400  1.00  0.00     0.053 C 
BRANCH   6   7
ATOM      7  C   UNL     1      21.448   9.815  36.958  1.00  0.00     0.041 C 
ATOM      8  O   UNL     1      21.722   9.623  35.744  1.00  0.00    -0.550 OA
ATOM      9  O   UNL     1      22.473   9.884  37.893  1.00  0.00    -0.550 OA
ENDBRANCH   6   7
ENDBRANCH   5   6
ENDBRANCH   4   5
ENDBRANCH   3   4
ENDBRANCH   2   3
ENDBRANCH   1   2
BRANCH   1  10
ATOM     10  C   UNL     1      16.547   9.685  41.528  1.00  0.00     0.000 C 
BRANCH  10  11
ATOM     11  C   UNL     1      17.086   8.480  42.321  1.00  0.00    -0.000 C 
BRANCH  11  12
ATOM     12  C   UNL     1      16.928   7.120  41.618  1.00  0.00    -0.000 C 
BRANCH  12  13
ATOM     13  C   UNL     1      18.178   6.710  40.823  1.00  0.00    -0.000 C 
BRANCH  13  14
ATOM     14  C   UNL     1      19.475   6.881  41.631  1.00  0.00    -0.000 C 
BRANCH  14  15
ATOM     15  C   UNL     1      20.602   7.523  40.808  1.00  0.00    -0.000 C 
BRANCH  15  16
ATOM     16  C   UNL     1      20.544   9.052  40.899  1.00  0.00    -0.003 C 
ATOM     17  C   UNL     1      20.522   9.517  42.351  1.00  0.00     0.004 C 
ENDBRANCH  15  16
ENDBRANCH  14  15
ENDBRANCH  13  14
ENDBRANCH  12  13
ENDBRANCH  11  12
ENDBRANCH  10  11
ENDBRANCH   1  10
TORSDOF 13
ENDMDL
MODEL 2
REMARK VINA RESULT:    -3.028     11.294     13.358
REMARK INTER + INTRA:          -7.469
REMARK INTER:                  -5.000
REMARK INTRA:                  -2.469
REMARK UNBOUND:                -2.139
REMARK SMILES CCCCCCCCCCCCCCC(=O)[O-]
REMARK SMILES IDX 9 1 10 2 11 3 12 4 13 5 14 6 15 7 16 8 17 9 8 10 7 11 6 12
REMARK SMILES IDX 5 13 4 14 3 15 2 16 1 17
REMARK H PARENT
REMARK Flexibility Score: inf
ROOT
ATOM      1  C   UNL     1      10.496   8.198  31.753  1.00  0.00     0.000 C 
ENDROOT
BRANCH   1   2
ATOM      2  C   UNL     1      11.204   8.016  33.113  1.00  0.00     0.000 C 
BRANCH   2   3
ATOM      3  C   UNL     1      11.589   6.550  33.383  1.00  0.00     0.000 C 
BRANCH   3   4
ATOM      4  C   UNL     1      10.464   5.763  34.072  1.00  0.00     0.000 C 
BRANCH   4   5
ATOM      5  C   UNL     1      10.179   4.417  33.384  1.00  0.00     0.006 C 
BRANCH   5   6
ATOM      6  C   UNL     1       8.673   4.200  33.212  1.00  0.00     0.053 C 
BRANCH   6   7
ATOM      7  C   UNL     1       8.376   2.751  32.985  1.00  0.00     0.041 C 
ATOM      8  O   UNL     1       7.901   2.049  33.915  1.00  0.00    -0.550 OA
ATOM      9  O   UNL     1       8.670   2.164  31.760  1.00  0.00    -0.550 OA
ENDBRANCH   6   7
ENDBRANCH   5   6
ENDBRANCH   4   5
ENDBRANCH   3   4
ENDBRANCH   2   3
ENDBRANCH   1   2
BRANCH   1  10
ATOM     10  C   UNL     1       8.959   8.249  31.855  1.00  0.00     0.000 C 
BRANCH  10  11
ATOM     11  C   UNL     1       8.213   7.211  30.995  1.00  0.00    -0.000 C 
BRANCH  11  12
ATOM     12  C   UNL     1       9.009   6.677  29.791  1.00  0.00    -0.000 C 
BRANCH  12  13
ATOM     13  C   UNL     1       8.966   5.143  29.680  1.00  0.00    -0.000 C 
BRANCH  13  14
ATOM     14  C   UNL     1      10.367   4.511  29.681  1.00  0.00    -0.000 C 
BRANCH  14  15
ATOM     15  C   UNL     1      11.485   5.555  29.539  1.00  0.00    -0.000 C 
BRANCH  15  16
ATOM     16  C   UNL     1      12.788   5.053  30.173  1.00  0.00    -0.003 C 
ATOM     17  C   UNL     1      12.612   3.656  30.760  1.00  0.00     0.004 C 
ENDBRANCH  15  16
ENDBRANCH  14  15
ENDBRANCH  13  14
ENDBRANCH  12  13
ENDBRANCH  11  12
ENDBRANCH  10  11
ENDBRANCH   1  10
TORSDOF 13
ENDMDL
MODEL 3
REMARK VINA RESULT:    -2.976     10.462     12.300
REMARK INTER + INTRA:          -7.376
REMARK INTER:                  -4.996
REMARK INTRA:                  -2.380
REMARK UNBOUND:                -2.139
REMARK SMILES CCCCCCCCCCCCCCC(=O)[O-]
REMARK SMILES IDX 9 1 10 2 11 3 12 4 13 5 14 6 15 7 16 8 17 9 8 10 7 11 6 12
REMARK SMILES IDX 5 13 4 14 3 15 2 16 1 17
REMARK H PARENT
REMARK Flexibility Score: inf
ROOT
ATOM      1  C   UNL     1       8.190   6.537  30.063  1.00  0.00     0.000 C 
ENDROOT
BRANCH   1   2
ATOM      2  C   UNL     1       8.582   5.465  31.103  1.00  0.00     0.000 C 
BRANCH   2   3
ATOM      3  C   UNL     1       9.072   4.162  30.447  1.00  0.00     0.000 C 
BRANCH   3   4
ATOM      4  C   UNL     1      10.604   4.045  30.439  1.00  0.00     0.000 C 
BRANCH   4   5
ATOM      5  C   UNL     1      11.235   4.640  29.169  1.00  0.00     0.006 C 
BRANCH   5   6
ATOM      6  C   UNL     1      12.453   5.502  29.516  1.00  0.00     0.053 C 
BRANCH   6   7
ATOM      7  C   UNL     1      13.550   4.655  30.079  1.00  0.00     0.041 C 
ATOM      8  O   UNL     1      14.014   4.899  31.224  1.00  0.00    -0.550 OA
ATOM      9  O   UNL     1      14.094   3.627  29.321  1.00  0.00    -0.550 OA
ENDBRANCH   6   7
ENDBRANCH   5   6
ENDBRANCH   4   5
ENDBRANCH   3   4
ENDBRANCH   2   3
ENDBRANCH   1   2
BRANCH   1  10
ATOM     10  C   UNL     1       8.907   7.886  30.261  1.00  0.00     0.000 C 
BRANCH  10  11
ATOM     11  C   UNL     1      10.128   7.845  31.199  1.00  0.00    -0.000 C 
BRANCH  11  12
ATOM     12  C   UNL     1       9.893   8.457  32.592  1.00  0.00    -0.000 C 
BRANCH  12  13
ATOM     13  C   UNL     1      10.582   7.665  33.716  1.00  0.00    -0.000 C 
BRANCH  13  14
ATOM     14  C   UNL     1      11.657   6.700  33.187  1.00  0.00    -0.000 C 
BRANCH  14  15
ATOM     15  C   UNL     1      11.505   5.281  33.754  1.00  0.00    -0.000 C 
BRANCH  15  16
ATOM     16  C   UNL     1      10.237   5.164  34.607  1.00  0.00    -0.003 C 
ATOM     17  C   UNL     1       9.484   3.874  34.301  1.00  0.00     0.004 C 
ENDBRANCH  15  16
ENDBRANCH  14  15
ENDBRANCH  13  14
ENDBRANCH  12  13
ENDBRANCH  11  12
ENDBRANCH  10  11
ENDBRANCH   1  10
TORSDOF 13
ENDMDL
MODEL 4
REMARK VINA RESULT:    -2.972     10.672     12.596
REMARK INTER + INTRA:          -7.369
REMARK INTER:                  -5.126
REMARK INTRA:                  -2.244
REMARK UNBOUND:                -2.139
REMARK SMILES CCCCCCCCCCCCCCC(=O)[O-]
REMARK SMILES IDX 9 1 10 2 11 3 12 4 13 5 14 6 15 7 16 8 17 9 8 10 7 11 6 12
REMARK SMILES IDX 5 13 4 14 3 15 2 16 1 17
REMARK H PARENT
REMARK Flexibility Score: inf
ROOT
ATOM      1  C   UNL     1      10.847   3.847  32.240  1.00  0.00     0.000 C 
ENDROOT
BRANCH   1   2
ATOM      2  C   UNL     1      12.143   4.615  32.578  1.00  0.00     0.000 C 
BRANCH   2   3
ATOM      3  C   UNL     1      12.809   5.221  31.330  1.00  0.00     0.000 C 
BRANCH   3   4
ATOM      4  C   UNL     1      12.293   4.596  30.024  1.00  0.00     0.000 C 
BRANCH   4   5
ATOM      5  C   UNL     1      12.311   5.586  28.848  1.00  0.00     0.006 C 
BRANCH   5   6
ATOM      6  C   UNL     1      13.327   5.156  27.786  1.00  0.00     0.053 C 
BRANCH   6   7
ATOM      7  C   UNL     1      14.232   6.295  27.436  1.00  0.00     0.041 C 
ATOM      8  O   UNL     1      13.942   7.062  26.481  1.00  0.00    -0.550 OA
ATOM      9  O   UNL     1      15.419   6.479  28.132  1.00  0.00    -0.550 OA
ENDBRANCH   6   7
ENDBRANCH   5   6
ENDBRANCH   4   5
ENDBRANCH   3   4
ENDBRANCH   2   3
ENDBRANCH   1   2
BRANCH   1  10
ATOM     10  C   UNL     1       9.625   4.300  33.062  1.00  0.00     0.000 C 
BRANCH  10  11
ATOM     11  C   UNL     1       8.392   4.702  32.230  1.00  0.00    -0.000 C 
BRANCH  11  12
ATOM     12  C   UNL     1       8.707   5.210  30.812  1.00  0.00    -0.000 C 
BRANCH  12  13
ATOM     13  C   UNL     1       8.260   6.664  30.585  1.00  0.00    -0.000 C 
BRANCH  13  14
ATOM     14  C   UNL     1       9.394   7.555  30.051  1.00  0.00    -0.000 C 
BRANCH  14  15
ATOM     15  C   UNL     1      10.439   7.887  31.127  1.00  0.00    -0.000 C 
BRANCH  15  16
ATOM     16  C   UNL     1       9.761   8.295  32.441  1.00  0.00    -0.003 C 
ATOM     17  C   UNL     1      10.586   7.854  33.646  1.00  0.00     0.004 C 
ENDBRANCH  15  16
ENDBRANCH  14  15
ENDBRANCH  13  14
ENDBRANCH  12  13
ENDBRANCH  11  12
ENDBRANCH  10  11
ENDBRANCH   1  10
TORSDOF 13
ENDMDL
MODEL 5
REMARK VINA RESULT:    -2.962     10.584     12.444
REMARK INTER + INTRA:          -7.352
REMARK INTER:                  -5.193
REMARK INTRA:                  -2.160
REMARK UNBOUND:                -2.139
REMARK SMILES CCCCCCCCCCCCCCC(=O)[O-]
REMARK SMILES IDX 9 1 10 2 11 3 12 4 13 5 14 6 15 7 16 8 17 9 8 10 7 11 6 12
REMARK SMILES IDX 5 13 4 14 3 15 2 16 1 17
REMARK H PARENT
REMARK Flexibility Score: inf
ROOT
ATOM      1  C   UNL     1       8.658   5.656  29.729  1.00  0.00     0.000 C 
ENDROOT
BRANCH   1   2
ATOM      2  C   UNL     1       9.092   4.222  30.105  1.00  0.00     0.000 C 
BRANCH   2   3
ATOM      3  C   UNL     1      10.622   4.068  30.164  1.00  0.00     0.000 C 
BRANCH   3   4
ATOM      4  C   UNL     1      11.353   5.104  29.296  1.00  0.00     0.000 C 
BRANCH   4   5
ATOM      5  C   UNL     1      12.810   5.321  29.738  1.00  0.00     0.006 C 
BRANCH   5   6
ATOM      6  C   UNL     1      13.784   4.684  28.742  1.00  0.00     0.053 C 
BRANCH   6   7
ATOM      7  C   UNL     1      14.678   5.725  28.147  1.00  0.00     0.041 C 
ATOM      8  O   UNL     1      15.874   5.825  28.527  1.00  0.00    -0.550 OA
ATOM      9  O   UNL     1      14.178   6.617  27.206  1.00  0.00    -0.550 OA
ENDBRANCH   6   7
ENDBRANCH   5   6
ENDBRANCH   4   5
ENDBRANCH   3   4
ENDBRANCH   2   3
ENDBRANCH   1   2
BRANCH   1  10
ATOM     10  C   UNL     1       7.875   6.379  30.841  1.00  0.00     0.000 C 
BRANCH  10  11
ATOM     11  C   UNL     1       8.535   7.667  31.372  1.00  0.00    -0.000 C 
BRANCH  11  12
ATOM     12  C   UNL     1      10.022   7.828  31.010  1.00  0.00    -0.000 C 
BRANCH  12  13
ATOM     13  C   UNL     1      10.865   8.367  32.178  1.00  0.00    -0.000 C 
BRANCH  13  14
ATOM     14  C   UNL     1      10.898   7.405  33.377  1.00  0.00    -0.000 C 
BRANCH  14  15
ATOM     15  C   UNL     1      11.914   6.267  33.192  1.00  0.00    -0.000 C 
BRANCH  15  16
ATOM     16  C   UNL     1      11.358   4.944  33.731  1.00  0.00    -0.003 C 
ATOM     17  C   UNL     1       9.833   4.943  33.725  1.00  0.00     0.004 C 
ENDBRANCH  15  16
ENDBRANCH  14  15
ENDBRANCH  13  14
ENDBRANCH  12  13
ENDBRANCH  11  12
ENDBRANCH  10  11
ENDBRANCH   1  10
TORSDOF 13
ENDMDL
MODEL 6
REMARK VINA RESULT:    -2.949     10.235     12.335
REMARK INTER + INTRA:          -7.328
REMARK INTER:                  -5.089
REMARK INTRA:                  -2.239
REMARK UNBOUND:                -2.139
REMARK SMILES CCCCCCCCCCCCCCC(=O)[O-]
REMARK SMILES IDX 9 1 10 2 11 3 12 4 13 5 14 6 15 7 16 8 17 9 8 10 7 11 6 12
REMARK SMILES IDX 5 13 4 14 3 15 2 16 1 17
REMARK H PARENT
REMARK Flexibility Score: inf
ROOT
ATOM      1  C   UNL     1      10.721   8.293  31.888  1.00  0.00     0.000 C 
ENDROOT
BRANCH   1   2
ATOM      2  C   UNL     1      11.284   8.074  33.309  1.00  0.00     0.000 C 
BRANCH   2   3
ATOM      3  C   UNL     1      10.992   6.661  33.845  1.00  0.00     0.000 C 
BRANCH   3   4
ATOM      4  C   UNL     1      12.267   5.820  34.014  1.00  0.00     0.000 C 
BRANCH   4   5
ATOM      5  C   UNL     1      12.013   4.509  34.776  1.00  0.00     0.006 C 
BRANCH   5   6
ATOM      6  C   UNL     1      10.528   4.356  35.119  1.00  0.00     0.053 C 
BRANCH   6   7
ATOM      7  C   UNL     1      10.311   4.515  36.591  1.00  0.00     0.041 C 
ATOM      8  O   UNL     1      10.975   3.824  37.407  1.00  0.00    -0.550 OA
ATOM      9  O   UNL     1       9.342   5.392  37.060  1.00  0.00    -0.550 OA
ENDBRANCH   6   7
ENDBRANCH   5   6
ENDBRANCH   4   5
ENDBRANCH   3   4
ENDBRANCH   2   3
ENDBRANCH   1   2
BRANCH   1  10
ATOM     10  C   UNL     1       9.186   8.191  31.805  1.00  0.00     0.000 C 
BRANCH  10  11
ATOM     11  C   UNL     1       8.653   7.231  30.725  1.00  0.00    -0.000 C 
BRANCH  11  12
ATOM     12  C   UNL     1       7.878   6.016  31.265  1.00  0.00    -0.000 C 
BRANCH  12  13
ATOM     13  C   UNL     1       8.793   4.829  31.610  1.00  0.00    -0.000 C 
BRANCH  13  14
ATOM     14  C   UNL     1       9.787   4.501  30.483  1.00  0.00    -0.000 C 
BRANCH  14  15
ATOM     15  C   UNL     1      11.179   4.129  31.014  1.00  0.00    -0.000 C 
BRANCH  15  16
ATOM     16  C   UNL     1      12.235   5.131  30.532  1.00  0.00    -0.003 C 
ATOM     17  C   UNL     1      11.765   5.869  29.283  1.00  0.00     0.004 C 
ENDBRANCH  15  16
ENDBRANCH  14  15
ENDBRANCH  13  14
ENDBRANCH  12  13
ENDBRANCH  11  12
ENDBRANCH  10  11
ENDBRANCH   1  10
TORSDOF 13
ENDMDL
MODEL 7
REMARK VINA RESULT:    -2.942      3.398      5.172
REMARK INTER + INTRA:          -7.316
REMARK INTER:                  -4.987
REMARK INTRA:                  -2.328
REMARK UNBOUND:                -2.139
REMARK SMILES CCCCCCCCCCCCCCC(=O)[O-]
REMARK SMILES IDX 9 1 10 2 11 3 12 4 13 5 14 6 15 7 16 8 17 9 8 10 7 11 6 12
REMARK SMILES IDX 5 13 4 14 3 15 2 16 1 17
REMARK H PARENT
REMARK Flexibility Score: inf
ROOT
ATOM      1  C   UNL     1      18.609   7.229  37.621  1.00  0.00     0.000 C 
ENDROOT
BRANCH   1   2
ATOM      2  C   UNL     1      18.722   6.079  36.597  1.00  0.00     0.000 C 
BRANCH   2   3
ATOM      3  C   UNL     1      20.150   5.922  36.045  1.00  0.00     0.000 C 
BRANCH   3   4
ATOM      4  C   UNL     1      20.247   6.273  34.552  1.00  0.00     0.000 C 
BRANCH   4   5
ATOM      5  C   UNL     1      21.700   6.440  34.079  1.00  0.00     0.006 C 
BRANCH   5   6
ATOM      6  C   UNL     1      21.845   7.673  33.182  1.00  0.00     0.053 C 
BRANCH   6   7
ATOM      7  C   UNL     1      22.549   7.316  31.911  1.00  0.00     0.041 C 
ATOM      8  O   UNL     1      23.091   8.213  31.214  1.00  0.00    -0.550 OA
ATOM      9  O   UNL     1      22.564   5.998  31.471  1.00  0.00    -0.550 OA
ENDBRANCH   6   7
ENDBRANCH   5   6
ENDBRANCH   4   5
ENDBRANCH   3   4
ENDBRANCH   2   3
ENDBRANCH   1   2
BRANCH   1  10
ATOM     10  C   UNL     1      18.595   8.631  36.981  1.00  0.00     0.000 C 
BRANCH  10  11
ATOM     11  C   UNL     1      19.790   9.530  37.352  1.00  0.00    -0.000 C 
BRANCH  11  12
ATOM     12  C   UNL     1      20.881   9.635  36.272  1.00  0.00    -0.000 C 
BRANCH  12  13
ATOM     13  C   UNL     1      22.239   9.086  36.739  1.00  0.00    -0.000 C 
BRANCH  13  14
ATOM     14  C   UNL     1      22.281   8.821  38.253  1.00  0.00    -0.000 C 
BRANCH  14  15
ATOM     15  C   UNL     1      22.654   7.369  38.588  1.00  0.00    -0.000 C 
BRANCH  15  16
ATOM     16  C   UNL     1      21.587   6.720  39.477  1.00  0.00    -0.003 C 
ATOM     17  C   UNL     1      20.953   7.743  40.414  1.00  0.00     0.004 C 
ENDBRANCH  15  16
ENDBRANCH  14  15
ENDBRANCH  13  14
ENDBRANCH  12  13
ENDBRANCH  11  12
ENDBRANCH  10  11
ENDBRANCH   1  10
TORSDOF 13
ENDMDL
MODEL 8
REMARK VINA RESULT:    -2.918      1.642      2.650
REMARK INTER + INTRA:          -7.274
REMARK INTER:                  -5.424
REMARK INTRA:                  -1.849
REMARK UNBOUND:                -2.139
REMARK SMILES CCCCCCCCCCCCCCC(=O)[O-]
REMARK SMILES IDX 9 1 10 2 11 3 12 4 13 5 14 6 15 7 16 8 17 9 8 10 7 11 6 12
REMARK SMILES IDX 5 13 4 14 3 15 2 16 1 17
REMARK H PARENT
REMARK Flexibility Score: inf
ROOT
ATOM      1  C   UNL     1      17.273   8.960  39.652  1.00  0.00     0.000 C 
ENDROOT
BRANCH   1   2
ATOM      2  C   UNL     1      16.837   9.527  38.284  1.00  0.00     0.000 C 
BRANCH   2   3
ATOM      3  C   UNL     1      17.233   8.608  37.114  1.00  0.00     0.000 C 
BRANCH   3   4
ATOM      4  C   UNL     1      18.598   7.935  37.328  1.00  0.00     0.000 C 
BRANCH   4   5
ATOM      5  C   UNL     1      19.696   8.533  36.434  1.00  0.00     0.006 C 
BRANCH   5   6
ATOM      6  C   UNL     1      20.336   9.756  37.096  1.00  0.00     0.053 C 
BRANCH   6   7
ATOM      7  C   UNL     1      21.825   9.613  37.133  1.00  0.00     0.041 C 
ATOM      8  O   UNL     1      22.487  10.121  38.075  1.00  0.00    -0.550 OA
ATOM      9  O   UNL     1      22.486   8.961  36.100  1.00  0.00    -0.550 OA
ENDBRANCH   6   7
ENDBRANCH   5   6
ENDBRANCH   4   5
ENDBRANCH   3   4
ENDBRANCH   2   3
ENDBRANCH   1   2
BRANCH   1  10
ATOM     10  C   UNL     1      18.185   9.907  40.456  1.00  0.00     0.000 C 
BRANCH  10  11
ATOM     11  C   UNL     1      18.965   9.243  41.606  1.00  0.00    -0.000 C 
BRANCH  11  12
ATOM     12  C   UNL     1      20.462   9.019  41.327  1.00  0.00    -0.000 C 
BRANCH  12  13
ATOM     13  C   UNL     1      20.717   7.922  40.280  1.00  0.00    -0.000 C 
BRANCH  13  14
ATOM     14  C   UNL     1      20.951   6.542  40.915  1.00  0.00    -0.000 C 
BRANCH  14  15
ATOM     15  C   UNL     1      21.830   5.633  40.042  1.00  0.00    -0.000 C 
BRANCH  15  16
ATOM     16  C   UNL     1      22.132   6.295  38.693  1.00  0.00    -0.003 C 
ATOM     17  C   UNL     1      21.757   5.378  37.533  1.00  0.00     0.004 C 
ENDBRANCH  15  16
ENDBRANCH  14  15
ENDBRANCH  13  14
ENDBRANCH  12  13
ENDBRANCH  11  12
ENDBRANCH  10  11
ENDBRANCH   1  10
TORSDOF 13
ENDMDL
MODEL 9
REMARK VINA RESULT:    -2.907     11.003     12.792
REMARK INTER + INTRA:          -7.255
REMARK INTER:                  -5.185
REMARK INTRA:                  -2.071
REMARK UNBOUND:                -2.139
REMARK SMILES CCCCCCCCCCCCCCC(=O)[O-]
REMARK SMILES IDX 9 1 10 2 11 3 12 4 13 5 14 6 15 7 16 8 17 9 8 10 7 11 6 12
REMARK SMILES IDX 5 13 4 14 3 15 2 16 1 17
REMARK H PARENT
REMARK Flexibility Score: inf
ROOT
ATOM      1  C   UNL     1       9.028   8.234  31.931  1.00  0.00     0.000 C 
ENDROOT
BRANCH   1   2
ATOM      2  C   UNL     1       8.624   7.825  30.498  1.00  0.00     0.000 C 
BRANCH   2   3
ATOM      3  C   UNL     1       8.370   6.313  30.368  1.00  0.00     0.000 C 
BRANCH   3   4
ATOM      4  C   UNL     1       9.262   5.654  29.304  1.00  0.00     0.000 C 
BRANCH   4   5
ATOM      5  C   UNL     1      10.624   5.215  29.866  1.00  0.00     0.006 C 
BRANCH   5   6
ATOM      6  C   UNL     1      11.738   6.156  29.398  1.00  0.00     0.053 C 
BRANCH   6   7
ATOM      7  C   UNL     1      12.715   5.422  28.534  1.00  0.00     0.041 C 
ATOM      8  O   UNL     1      13.952   5.596  28.690  1.00  0.00    -0.550 OA
ATOM      9  O   UNL     1      12.258   4.584  27.525  1.00  0.00    -0.550 OA
ENDBRANCH   6   7
ENDBRANCH   5   6
ENDBRANCH   4   5
ENDBRANCH   3   4
ENDBRANCH   2   3
ENDBRANCH   1   2
BRANCH   1  10
ATOM     10  C   UNL     1      10.548   8.393  32.127  1.00  0.00     0.000 C 
BRANCH  10  11
ATOM     11  C   UNL     1      11.104   7.794  33.433  1.00  0.00    -0.000 C 
BRANCH  11  12
ATOM     12  C   UNL     1      11.363   6.278  33.390  1.00  0.00    -0.000 C 
BRANCH  12  13
ATOM     13  C   UNL     1      10.368   5.477  34.245  1.00  0.00    -0.000 C 
BRANCH  13  14
ATOM     14  C   UNL     1       9.358   4.687  33.395  1.00  0.00    -0.000 C 
BRANCH  14  15
ATOM     15  C   UNL     1       9.836   3.260  33.087  1.00  0.00    -0.000 C 
BRANCH  15  16
ATOM     16  C   UNL     1       8.717   2.436  32.439  1.00  0.00    -0.003 C 
ATOM     17  C   UNL     1       9.012   2.168  30.967  1.00  0.00     0.004 C 
ENDBRANCH  15  16
ENDBRANCH  14  15
ENDBRANCH  13  14
ENDBRANCH  12  13
ENDBRANCH  11  12
ENDBRANCH  10  11
ENDBRANCH   1  10
TORSDOF 13
ENDMDL
