MODEL 1
REMARK VINA RESULT:    -5.938      0.000      0.000
REMARK INTER + INTRA:          -5.938
REMARK INTER:                  -5.938
REMARK INTRA:                   0.000
REMARK UNBOUND:                 0.000
REMARK SMILES O=c1ccc2ccccc2o1
REMARK SMILES IDX 7 1 8 2 9 3 10 4 5 5 6 6 4 7 3 8 2 9 1 10 11 11
REMARK H PARENT
REMARK Flexibility Score: inf
ROOT
ATOM      1  C   UNL     1      25.683 -34.118   2.828  1.00  0.00     0.001 A 
ATOM      2  C   UNL     1      25.006 -33.566   3.922  1.00  0.00     0.004 A 
ATOM      3  C   UNL     1      23.981 -32.636   3.719  1.00  0.00     0.048 A 
ATOM      4  C   UNL     1      23.630 -32.252   2.420  1.00  0.00     0.138 A 
ATOM      5  C   UNL     1      24.312 -32.809   1.315  1.00  0.00     0.018 A 
ATOM      6  C   UNL     1      25.339 -33.742   1.525  1.00  0.00     0.012 A 
ATOM      7  C   UNL     1      23.938 -32.408   0.029  1.00  0.00     0.019 A 
ATOM      8  C   UNL     1      22.910 -31.477  -0.125  1.00  0.00     0.094 A 
ATOM      9  C   UNL     1      22.280 -30.968   1.015  1.00  0.00     0.336 A 
ATOM     10  O   UNL     1      21.350 -30.127   0.897  1.00  0.00    -0.246 OA
ATOM     11  O   UNL     1      22.654 -31.367   2.228  1.00  0.00    -0.423 OA
ENDROOT
TORSDOF 0
ENDMDL
MODEL 2
REMARK VINA RESULT:    -5.683     18.728     20.257
REMARK INTER + INTRA:          -5.683
REMARK INTER:                  -5.683
REMARK INTRA:                   0.000
REMARK UNBOUND:                 0.000
REMARK SMILES O=c1ccc2ccccc2o1
REMARK SMILES IDX 7 1 8 2 9 3 10 4 5 5 6 6 4 7 3 8 2 9 1 10 11 11
REMARK H PARENT
REMARK Flexibility Score: inf
ROOT
ATOM      1  C   UNL     1      20.180 -18.472 -12.519  1.00  0.00     0.001 A 
ATOM      2  C   UNL     1      20.472 -17.264 -13.161  1.00  0.00     0.004 A 
ATOM      3  C   UNL     1      21.307 -16.324 -12.549  1.00  0.00     0.048 A 
ATOM      4  C   UNL     1      21.854 -16.590 -11.289  1.00  0.00     0.138 A 
ATOM      5  C   UNL     1      21.561 -17.810 -10.639  1.00  0.00     0.018 A 
ATOM      6  C   UNL     1      20.723 -18.748 -11.259  1.00  0.00     0.012 A 
ATOM      7  C   UNL     1      22.123 -18.048  -9.381  1.00  0.00     0.019 A 
ATOM      8  C   UNL     1      22.951 -17.082  -8.808  1.00  0.00     0.094 A 
ATOM      9  C   UNL     1      23.197 -15.897  -9.509  1.00  0.00     0.336 A 
ATOM     10  O   UNL     1      23.941 -15.014  -9.009  1.00  0.00    -0.246 OA
ATOM     11  O   UNL     1      22.651 -15.695 -10.706  1.00  0.00    -0.423 OA
ENDROOT
TORSDOF 0
ENDMDL
MODEL 3
REMARK VINA RESULT:    -5.383     19.222     20.793
REMARK INTER + INTRA:          -5.383
REMARK INTER:                  -5.383
REMARK INTRA:                   0.000
REMARK UNBOUND:                 0.000
REMARK SMILES O=c1ccc2ccccc2o1
REMARK SMILES IDX 7 1 8 2 9 3 10 4 5 5 6 6 4 7 3 8 2 9 1 10 11 11
REMARK H PARENT
REMARK Flexibility Score: inf
ROOT
ATOM      1  C   UNL     1      20.109 -18.182 -13.133  1.00  0.00     0.001 A 
ATOM      2  C   UNL     1      20.348 -18.981 -12.010  1.00  0.00     0.004 A 
ATOM      3  C   UNL     1      21.040 -18.462 -10.910  1.00  0.00     0.048 A 
ATOM      4  C   UNL     1      21.496 -17.140 -10.931  1.00  0.00     0.138 A 
ATOM      5  C   UNL     1      21.256 -16.332 -12.065  1.00  0.00     0.018 A 
ATOM      6  C   UNL     1      20.561 -16.858 -13.164  1.00  0.00     0.012 A 
ATOM      7  C   UNL     1      21.723 -15.014 -12.057  1.00  0.00     0.019 A 
ATOM      8  C   UNL     1      22.409 -14.539 -10.938  1.00  0.00     0.094 A 
ATOM      9  C   UNL     1      22.611 -15.396  -9.852  1.00  0.00     0.336 A 
ATOM     10  O   UNL     1      23.226 -14.986  -8.833  1.00  0.00    -0.246 OA
ATOM     11  O   UNL     1      22.154 -16.646  -9.884  1.00  0.00    -0.423 OA
ENDROOT
TORSDOF 0
ENDMDL
MODEL 4
REMARK VINA RESULT:    -5.297     17.258     18.570
REMARK INTER + INTRA:          -5.297
REMARK INTER:                  -5.297
REMARK INTRA:                   0.000
REMARK UNBOUND:                 0.000
REMARK SMILES O=c1ccc2ccccc2o1
REMARK SMILES IDX 7 1 8 2 9 3 10 4 5 5 6 6 4 7 3 8 2 9 1 10 11 11
REMARK H PARENT
REMARK Flexibility Score: inf
ROOT
ATOM      1  C   UNL     1      20.658 -20.986 -11.875  1.00  0.00     0.001 A 
ATOM      2  C   UNL     1      21.797 -21.608 -11.354  1.00  0.00     0.004 A 
ATOM      3  C   UNL     1      22.764 -20.856 -10.679  1.00  0.00     0.048 A 
ATOM      4  C   UNL     1      22.595 -19.476 -10.523  1.00  0.00     0.138 A 
ATOM      5  C   UNL     1      21.444 -18.846 -11.048  1.00  0.00     0.018 A 
ATOM      6  C   UNL     1      20.478 -19.606 -11.724  1.00  0.00     0.012 A 
ATOM      7  C   UNL     1      21.301 -17.466 -10.876  1.00  0.00     0.019 A 
ATOM      8  C   UNL     1      22.292 -16.756 -10.195  1.00  0.00     0.094 A 
ATOM      9  C   UNL     1      23.404 -17.446  -9.703  1.00  0.00     0.336 A 
ATOM     10  O   UNL     1      24.308 -16.823  -9.086  1.00  0.00    -0.246 OA
ATOM     11  O   UNL     1      23.515 -18.761  -9.879  1.00  0.00    -0.423 OA
ENDROOT
TORSDOF 0
ENDMDL
MODEL 5
REMARK VINA RESULT:    -5.267     18.181     19.157
REMARK INTER + INTRA:          -5.267
REMARK INTER:                  -5.267
REMARK INTRA:                   0.000
REMARK UNBOUND:                 0.000
REMARK SMILES O=c1ccc2ccccc2o1
REMARK SMILES IDX 7 1 8 2 9 3 10 4 5 5 6 6 4 7 3 8 2 9 1 10 11 11
REMARK H PARENT
REMARK Flexibility Score: inf
ROOT
ATOM      1  C   UNL     1      21.361 -20.039 -11.574  1.00  0.00     0.001 A 
ATOM      2  C   UNL     1      20.565 -18.931 -11.882  1.00  0.00     0.004 A 
ATOM      3  C   UNL     1      20.874 -17.673 -11.353  1.00  0.00     0.048 A 
ATOM      4  C   UNL     1      21.981 -17.520 -10.512  1.00  0.00     0.138 A 
ATOM      5  C   UNL     1      22.787 -18.639 -10.201  1.00  0.00     0.018 A 
ATOM      6  C   UNL     1      22.472 -19.897 -10.735  1.00  0.00     0.012 A 
ATOM      7  C   UNL     1      23.887 -18.454  -9.359  1.00  0.00     0.019 A 
ATOM      8  C   UNL     1      24.157 -17.181  -8.854  1.00  0.00     0.094 A 
ATOM      9  C   UNL     1      23.316 -16.121  -9.205  1.00  0.00     0.336 A 
ATOM     10  O   UNL     1      23.543 -14.965  -8.760  1.00  0.00    -0.246 OA
ATOM     11  O   UNL     1      22.275 -16.322 -10.009  1.00  0.00    -0.423 OA
ENDROOT
TORSDOF 0
ENDMDL
MODEL 6
REMARK VINA RESULT:    -5.215     18.745     20.958
REMARK INTER + INTRA:          -5.215
REMARK INTER:                  -5.215
REMARK INTRA:                   0.000
REMARK UNBOUND:                 0.000
REMARK SMILES O=c1ccc2ccccc2o1
REMARK SMILES IDX 7 1 8 2 9 3 10 4 5 5 6 6 4 7 3 8 2 9 1 10 11 11
REMARK H PARENT
REMARK Flexibility Score: inf
ROOT
ATOM      1  C   UNL     1      20.753 -14.740 -13.297  1.00  0.00     0.001 A 
ATOM      2  C   UNL     1      21.334 -13.932 -12.313  1.00  0.00     0.004 A 
ATOM      3  C   UNL     1      21.821 -14.502 -11.132  1.00  0.00     0.048 A 
ATOM      4  C   UNL     1      21.728 -15.883 -10.931  1.00  0.00     0.138 A 
ATOM      5  C   UNL     1      21.142 -16.700 -11.924  1.00  0.00     0.018 A 
ATOM      6  C   UNL     1      20.656 -16.122 -13.107  1.00  0.00     0.012 A 
ATOM      7  C   UNL     1      21.064 -18.077 -11.695  1.00  0.00     0.019 A 
ATOM      8  C   UNL     1      21.563 -18.601 -10.502  1.00  0.00     0.094 A 
ATOM      9  C   UNL     1      22.129 -17.732  -9.564  1.00  0.00     0.336 A 
ATOM     10  O   UNL     1      22.585 -18.186  -8.482  1.00  0.00    -0.246 OA
ATOM     11  O   UNL     1      22.193 -16.425  -9.807  1.00  0.00    -0.423 OA
ENDROOT
TORSDOF 0
ENDMDL
MODEL 7
REMARK VINA RESULT:    -5.183     17.576     18.478
REMARK INTER + INTRA:          -5.183
REMARK INTER:                  -5.183
REMARK INTRA:                   0.000
REMARK UNBOUND:                 0.000
REMARK SMILES O=c1ccc2ccccc2o1
REMARK SMILES IDX 7 1 8 2 9 3 10 4 5 5 6 6 4 7 3 8 2 9 1 10 11 11
REMARK H PARENT
REMARK Flexibility Score: inf
ROOT
ATOM      1  C   UNL     1      22.854 -16.421  -9.335  1.00  0.00     0.001 A 
ATOM      2  C   UNL     1      23.853 -17.314  -8.933  1.00  0.00     0.004 A 
ATOM      3  C   UNL     1      23.809 -18.650  -9.343  1.00  0.00     0.048 A 
ATOM      4  C   UNL     1      22.764 -19.099 -10.158  1.00  0.00     0.138 A 
ATOM      5  C   UNL     1      21.755 -18.198 -10.566  1.00  0.00     0.018 A 
ATOM      6  C   UNL     1      21.805 -16.858 -10.151  1.00  0.00     0.012 A 
ATOM      7  C   UNL     1      20.725 -18.674 -11.381  1.00  0.00     0.019 A 
ATOM      8  C   UNL     1      20.722 -20.016 -11.766  1.00  0.00     0.094 A 
ATOM      9  C   UNL     1      21.754 -20.850 -11.324  1.00  0.00     0.336 A 
ATOM     10  O   UNL     1      21.769 -22.063 -11.661  1.00  0.00    -0.246 OA
ATOM     11  O   UNL     1      22.724 -20.371 -10.550  1.00  0.00    -0.423 OA
ENDROOT
TORSDOF 0
ENDMDL
MODEL 8
REMARK VINA RESULT:    -5.149     16.966     18.244
REMARK INTER + INTRA:          -5.149
REMARK INTER:                  -5.149
REMARK INTRA:                   0.000
REMARK UNBOUND:                 0.000
REMARK SMILES O=c1ccc2ccccc2o1
REMARK SMILES IDX 7 1 8 2 9 3 10 4 5 5 6 6 4 7 3 8 2 9 1 10 11 11
REMARK H PARENT
REMARK Flexibility Score: inf
ROOT
ATOM      1  C   UNL     1      23.457 -16.301  -9.006  1.00  0.00     0.001 A 
ATOM      2  C   UNL     1      22.130 -16.453  -9.423  1.00  0.00     0.004 A 
ATOM      3  C   UNL     1      21.706 -17.655  -9.999  1.00  0.00     0.048 A 
ATOM      4  C   UNL     1      22.610 -18.711 -10.161  1.00  0.00     0.138 A 
ATOM      5  C   UNL     1      23.950 -18.559  -9.740  1.00  0.00     0.018 A 
ATOM      6  C   UNL     1      24.369 -17.351  -9.162  1.00  0.00     0.012 A 
ATOM      7  C   UNL     1      24.830 -19.632  -9.913  1.00  0.00     0.019 A 
ATOM      8  C   UNL     1      24.362 -20.812 -10.492  1.00  0.00     0.094 A 
ATOM      9  C   UNL     1      23.023 -20.891 -10.886  1.00  0.00     0.336 A 
ATOM     10  O   UNL     1      22.582 -21.947 -11.410  1.00  0.00    -0.246 OA
ATOM     11  O   UNL     1      22.206 -19.855 -10.708  1.00  0.00    -0.423 OA
ENDROOT
TORSDOF 0
ENDMDL
