MODEL 1
REMARK VINA RESULT:    -5.128      0.000      0.000
REMARK INTER + INTRA:         -10.834
REMARK INTER:                  -9.325
REMARK INTRA:                  -1.509
REMARK UNBOUND:                -1.509
REMARK SMILES CCCCCCCCCCCCCC[C@@H](C)C(=O)[O-]
REMARK SMILES IDX 9 1 10 2 11 3 12 4 13 5 14 6 15 7 16 8 17 9 18 10 19 11 8 12
REMARK SMILES IDX 7 13 6 14 5 15 4 16 3 17 2 18 1 19
REMARK H PARENT
REMARK Flexibility Score: inf
ROOT
ATOM      1  C   UNL     1      13.106 -21.527 -14.908  1.00  0.00     0.000 C 
ENDROOT
BRANCH   1   2
ATOM      2  C   UNL     1      11.802 -20.860 -15.375  1.00  0.00     0.000 C 
BRANCH   2   3
ATOM      3  C   UNL     1      11.873 -19.324 -15.323  1.00  0.00     0.000 C 
BRANCH   3   4
ATOM      4  C   UNL     1      11.087 -18.737 -14.140  1.00  0.00     0.000 C 
BRANCH   4   5
ATOM      5  C   UNL     1      11.862 -18.822 -12.812  1.00  0.00     0.001 C 
BRANCH   5   6
ATOM      6  C   UNL     1      12.606 -17.519 -12.457  1.00  0.00     0.009 C 
BRANCH   6   7
ATOM      7  C   UNL     1      14.140 -17.602 -12.642  1.00  0.00     0.032 C 
ATOM      8  C   UNL     1      14.610 -19.061 -12.611  1.00  0.00     0.014 C 
BRANCH   7   9
ATOM      9  C   UNL     1      14.591 -16.964 -13.928  1.00  0.00     0.044 C 
ATOM     10  O   UNL     1      15.793 -17.047 -14.300  1.00  0.00    -0.550 OA
ATOM     11  O   UNL     1      13.687 -16.243 -14.698  1.00  0.00    -0.550 OA
ENDBRANCH   7   9
ENDBRANCH   6   7
ENDBRANCH   5   6
ENDBRANCH   4   5
ENDBRANCH   3   4
ENDBRANCH   2   3
ENDBRANCH   1   2
BRANCH   1  12
ATOM     12  C   UNL     1      12.857 -22.691 -13.932  1.00  0.00     0.000 C 
BRANCH  12  13
ATOM     13  C   UNL     1      11.413 -23.214 -13.996  1.00  0.00    -0.000 C 
BRANCH  13  14
ATOM     14  C   UNL     1      11.341 -24.747 -14.109  1.00  0.00    -0.000 C 
BRANCH  14  15
ATOM     15  C   UNL     1      12.725 -25.409 -14.022  1.00  0.00    -0.000 C 
BRANCH  15  16
ATOM     16  C   UNL     1      12.686 -26.909 -14.368  1.00  0.00    -0.000 C 
BRANCH  16  17
ATOM     17  C   UNL     1      14.030 -27.410 -14.939  1.00  0.00    -0.000 C 
BRANCH  17  18
ATOM     18  C   UNL     1      15.143 -26.348 -14.911  1.00  0.00    -0.003 C 
ATOM     19  C   UNL     1      16.268 -26.684 -13.935  1.00  0.00     0.004 C 
ENDBRANCH  17  18
ENDBRANCH  16  17
ENDBRANCH  15  16
ENDBRANCH  14  15
ENDBRANCH  13  14
ENDBRANCH  12  13
ENDBRANCH   1  12
TORSDOF 14
ENDMDL
MODEL 2
REMARK VINA RESULT:    -5.025      2.901      6.717
REMARK INTER + INTRA:         -10.647
REMARK INTER:                  -8.539
REMARK INTRA:                  -2.107
REMARK UNBOUND:                -1.509
REMARK SMILES CCCCCCCCCCCCCC[C@@H](C)C(=O)[O-]
REMARK SMILES IDX 9 1 10 2 11 3 12 4 13 5 14 6 15 7 16 8 17 9 18 10 19 11 8 12
REMARK SMILES IDX 7 13 6 14 5 15 4 16 3 17 2 18 1 19
REMARK H PARENT
REMARK Flexibility Score: inf
ROOT
ATOM      1  C   UNL     1      11.536 -19.440 -12.231  1.00  0.00     0.000 C 
ENDROOT
BRANCH   1   2
ATOM      2  C   UNL     1      11.307 -18.490 -13.417  1.00  0.00     0.000 C 
BRANCH   2   3
ATOM      3  C   UNL     1      11.112 -19.242 -14.746  1.00  0.00     0.000 C 
BRANCH   3   4
ATOM      4  C   UNL     1      12.442 -19.529 -15.460  1.00  0.00     0.000 C 
BRANCH   4   5
ATOM      5  C   UNL     1      12.877 -21.001 -15.335  1.00  0.00     0.001 C 
BRANCH   5   6
ATOM      6  C   UNL     1      11.709 -21.956 -15.019  1.00  0.00     0.009 C 
BRANCH   6   7
ATOM      7  C   UNL     1      11.951 -22.858 -13.786  1.00  0.00     0.032 C 
ATOM      8  C   UNL     1      10.964 -24.032 -13.773  1.00  0.00     0.014 C 
BRANCH   7   9
ATOM      9  C   UNL     1      13.357 -23.393 -13.743  1.00  0.00     0.044 C 
ATOM     10  O   UNL     1      13.655 -24.465 -14.336  1.00  0.00    -0.550 OA
ATOM     11  O   UNL     1      14.331 -22.723 -13.013  1.00  0.00    -0.550 OA
ENDBRANCH   7   9
ENDBRANCH   6   7
ENDBRANCH   5   6
ENDBRANCH   4   5
ENDBRANCH   3   4
ENDBRANCH   2   3
ENDBRANCH   1   2
BRANCH   1  12
ATOM     12  C   UNL     1      10.688 -19.064 -11.002  1.00  0.00     0.000 C 
BRANCH  12  13
ATOM     13  C   UNL     1      11.324 -17.939 -10.169  1.00  0.00    -0.000 C 
BRANCH  13  14
ATOM     14  C   UNL     1      12.856 -18.054 -10.089  1.00  0.00    -0.000 C 
BRANCH  14  15
ATOM     15  C   UNL     1      13.569 -16.796 -10.609  1.00  0.00    -0.000 C 
BRANCH  15  16
ATOM     16  C   UNL     1      14.842 -17.127 -11.410  1.00  0.00    -0.000 C 
BRANCH  16  17
ATOM     17  C   UNL     1      14.642 -16.933 -12.928  1.00  0.00    -0.000 C 
BRANCH  17  18
ATOM     18  C   UNL     1      15.385 -17.974 -13.784  1.00  0.00    -0.003 C 
ATOM     19  C   UNL     1      15.444 -19.353 -13.132  1.00  0.00     0.004 C 
ENDBRANCH  17  18
ENDBRANCH  16  17
ENDBRANCH  15  16
ENDBRANCH  14  15
ENDBRANCH  13  14
ENDBRANCH  12  13
ENDBRANCH   1  12
TORSDOF 14
ENDMDL
MODEL 3
REMARK VINA RESULT:    -4.977      3.397      7.678
REMARK INTER + INTRA:         -10.560
REMARK INTER:                  -8.912
REMARK INTRA:                  -1.647
REMARK UNBOUND:                -1.509
REMARK SMILES CCCCCCCCCCCCCC[C@@H](C)C(=O)[O-]
REMARK SMILES IDX 9 1 10 2 11 3 12 4 13 5 14 6 15 7 16 8 17 9 18 10 19 11 8 12
REMARK SMILES IDX 7 13 6 14 5 15 4 16 3 17 2 18 1 19
REMARK H PARENT
REMARK Flexibility Score: inf
ROOT
ATOM      1  C   UNL     1      12.592 -20.167 -16.075  1.00  0.00     0.000 C 
ENDROOT
BRANCH   1   2
ATOM      2  C   UNL     1      11.650 -20.163 -14.859  1.00  0.00     0.000 C 
BRANCH   2   3
ATOM      3  C   UNL     1      12.107 -21.135 -13.756  1.00  0.00     0.000 C 
BRANCH   3   4
ATOM      4  C   UNL     1      13.152 -22.144 -14.256  1.00  0.00     0.000 C 
BRANCH   4   5
ATOM      5  C   UNL     1      12.697 -23.605 -14.082  1.00  0.00     0.001 C 
BRANCH   5   6
ATOM      6  C   UNL     1      13.767 -24.502 -13.428  1.00  0.00     0.009 C 
BRANCH   6   7
ATOM      7  C   UNL     1      13.646 -25.998 -13.802  1.00  0.00     0.032 C 
ATOM      8  C   UNL     1      12.248 -26.306 -14.354  1.00  0.00     0.014 C 
BRANCH   7   9
ATOM      9  C   UNL     1      14.680 -26.416 -14.812  1.00  0.00     0.044 C 
ATOM     10  O   UNL     1      15.712 -25.718 -15.001  1.00  0.00    -0.550 OA
ATOM     11  O   UNL     1      14.482 -27.562 -15.572  1.00  0.00    -0.550 OA
ENDBRANCH   7   9
ENDBRANCH   6   7
ENDBRANCH   5   6
ENDBRANCH   4   5
ENDBRANCH   3   4
ENDBRANCH   2   3
ENDBRANCH   1   2
BRANCH   1  12
ATOM     12  C   UNL     1      13.075 -18.754 -16.450  1.00  0.00     0.000 C 
BRANCH  12  13
ATOM     13  C   UNL     1      14.238 -18.276 -15.565  1.00  0.00    -0.000 C 
BRANCH  13  14
ATOM     14  C   UNL     1      14.012 -16.862 -15.001  1.00  0.00    -0.000 C 
BRANCH  14  15
ATOM     15  C   UNL     1      13.096 -16.861 -13.767  1.00  0.00    -0.000 C 
BRANCH  15  16
ATOM     16  C   UNL     1      13.816 -17.349 -12.496  1.00  0.00    -0.000 C 
BRANCH  16  17
ATOM     17  C   UNL     1      12.872 -18.123 -11.552  1.00  0.00    -0.000 C 
BRANCH  17  18
ATOM     18  C   UNL     1      11.388 -18.021 -11.947  1.00  0.00    -0.003 C 
ATOM     19  C   UNL     1      10.480 -18.914 -11.104  1.00  0.00     0.004 C 
ENDBRANCH  17  18
ENDBRANCH  16  17
ENDBRANCH  15  16
ENDBRANCH  14  15
ENDBRANCH  13  14
ENDBRANCH  12  13
ENDBRANCH   1  12
TORSDOF 14
ENDMDL
MODEL 4
REMARK VINA RESULT:    -4.971      1.653      4.065
REMARK INTER + INTRA:         -10.549
REMARK INTER:                  -9.293
REMARK INTRA:                  -1.256
REMARK UNBOUND:                -1.509
REMARK SMILES CCCCCCCCCCCCCC[C@@H](C)C(=O)[O-]
REMARK SMILES IDX 9 1 10 2 11 3 12 4 13 5 14 6 15 7 16 8 17 9 18 10 19 11 8 12
REMARK SMILES IDX 7 13 6 14 5 15 4 16 3 17 2 18 1 19
REMARK H PARENT
REMARK Flexibility Score: inf
ROOT
ATOM      1  C   UNL     1      12.919 -25.589 -14.014  1.00  0.00     0.000 C 
ENDROOT
BRANCH   1   2
ATOM      2  C   UNL     1      11.466 -25.097 -14.110  1.00  0.00     0.000 C 
BRANCH   2   3
ATOM      3  C   UNL     1      11.372 -23.580 -14.357  1.00  0.00     0.000 C 
BRANCH   3   4
ATOM      4  C   UNL     1      12.603 -22.821 -13.838  1.00  0.00     0.000 C 
BRANCH   4   5
ATOM      5  C   UNL     1      12.388 -21.297 -13.803  1.00  0.00     0.001 C 
BRANCH   5   6
ATOM      6  C   UNL     1      11.767 -20.739 -15.098  1.00  0.00     0.009 C 
BRANCH   6   7
ATOM      7  C   UNL     1      11.595 -19.201 -15.101  1.00  0.00     0.032 C 
ATOM      8  C   UNL     1      11.095 -18.712 -13.736  1.00  0.00     0.014 C 
BRANCH   7   9
ATOM      9  C   UNL     1      12.874 -18.488 -15.444  1.00  0.00     0.044 C 
ATOM     10  O   UNL     1      13.538 -18.815 -16.464  1.00  0.00    -0.550 OA
ATOM     11  O   UNL     1      13.352 -17.484 -14.611  1.00  0.00    -0.550 OA
ENDBRANCH   7   9
ENDBRANCH   6   7
ENDBRANCH   5   6
ENDBRANCH   4   5
ENDBRANCH   3   4
ENDBRANCH   2   3
ENDBRANCH   1   2
BRANCH   1  12
ATOM     12  C   UNL     1      13.082 -27.043 -14.490  1.00  0.00     0.000 C 
BRANCH  12  13
ATOM     13  C   UNL     1      14.534 -27.379 -14.872  1.00  0.00    -0.000 C 
BRANCH  13  14
ATOM     14  C   UNL     1      15.058 -28.640 -14.163  1.00  0.00    -0.000 C 
BRANCH  14  15
ATOM     15  C   UNL     1      16.520 -28.496 -13.712  1.00  0.00    -0.000 C 
BRANCH  15  16
ATOM     16  C   UNL     1      16.645 -27.987 -12.264  1.00  0.00    -0.000 C 
BRANCH  16  17
ATOM     17  C   UNL     1      16.886 -26.465 -12.200  1.00  0.00    -0.000 C 
BRANCH  17  18
ATOM     18  C   UNL     1      15.870 -25.718 -11.317  1.00  0.00    -0.003 C 
ATOM     19  C   UNL     1      15.508 -24.337 -11.856  1.00  0.00     0.004 C 
ENDBRANCH  17  18
ENDBRANCH  16  17
ENDBRANCH  15  16
ENDBRANCH  14  15
ENDBRANCH  13  14
ENDBRANCH  12  13
ENDBRANCH   1  12
TORSDOF 14
ENDMDL
MODEL 5
REMARK VINA RESULT:    -4.960      1.241      2.132
REMARK INTER + INTRA:         -10.528
REMARK INTER:                  -9.110
REMARK INTRA:                  -1.418
REMARK UNBOUND:                -1.509
REMARK SMILES CCCCCCCCCCCCCC[C@@H](C)C(=O)[O-]
REMARK SMILES IDX 9 1 10 2 11 3 12 4 13 5 14 6 15 7 16 8 17 9 18 10 19 11 8 12
REMARK SMILES IDX 7 13 6 14 5 15 4 16 3 17 2 18 1 19
REMARK H PARENT
REMARK Flexibility Score: inf
ROOT
ATOM      1  C   UNL     1      11.476 -19.392 -14.471  1.00  0.00     0.000 C 
ENDROOT
BRANCH   1   2
ATOM      2  C   UNL     1      10.996 -18.456 -13.350  1.00  0.00     0.000 C 
BRANCH   2   3
ATOM      3  C   UNL     1      11.181 -19.069 -11.950  1.00  0.00     0.000 C 
BRANCH   3   4
ATOM      4  C   UNL     1      11.913 -18.123 -10.985  1.00  0.00     0.000 C 
BRANCH   4   5
ATOM      5  C   UNL     1      13.444 -18.269 -11.059  1.00  0.00     0.001 C 
BRANCH   5   6
ATOM      6  C   UNL     1      14.153 -16.993 -11.553  1.00  0.00     0.009 C 
BRANCH   6   7
ATOM      7  C   UNL     1      14.838 -17.149 -12.931  1.00  0.00     0.032 C 
ATOM      8  C   UNL     1      15.120 -18.626 -13.231  1.00  0.00     0.014 C 
BRANCH   7   9
ATOM      9  C   UNL     1      14.009 -16.568 -14.044  1.00  0.00     0.044 C 
ATOM     10  O   UNL     1      13.056 -15.781 -13.793  1.00  0.00    -0.550 OA
ATOM     11  O   UNL     1      14.269 -16.926 -15.361  1.00  0.00    -0.550 OA
ENDBRANCH   7   9
ENDBRANCH   6   7
ENDBRANCH   5   6
ENDBRANCH   4   5
ENDBRANCH   3   4
ENDBRANCH   2   3
ENDBRANCH   1   2
BRANCH   1  12
ATOM     12  C   UNL     1      12.041 -20.718 -13.931  1.00  0.00     0.000 C 
BRANCH  12  13
ATOM     13  C   UNL     1      11.759 -21.903 -14.869  1.00  0.00    -0.000 C 
BRANCH  13  14
ATOM     14  C   UNL     1      11.474 -23.209 -14.107  1.00  0.00    -0.000 C 
BRANCH  14  15
ATOM     15  C   UNL     1      12.757 -23.983 -13.765  1.00  0.00    -0.000 C 
BRANCH  15  16
ATOM     16  C   UNL     1      12.646 -25.484 -14.086  1.00  0.00    -0.000 C 
BRANCH  16  17
ATOM     17  C   UNL     1      14.004 -26.207 -13.970  1.00  0.00    -0.000 C 
BRANCH  17  18
ATOM     18  C   UNL     1      14.137 -27.421 -14.907  1.00  0.00    -0.003 C 
ATOM     19  C   UNL     1      15.025 -28.524 -14.336  1.00  0.00     0.004 C 
ENDBRANCH  17  18
ENDBRANCH  16  17
ENDBRANCH  15  16
ENDBRANCH  14  15
ENDBRANCH  13  14
ENDBRANCH  12  13
ENDBRANCH   1  12
TORSDOF 14
ENDMDL
MODEL 6
REMARK VINA RESULT:    -4.956      2.088      3.832
REMARK INTER + INTRA:         -10.522
REMARK INTER:                  -9.631
REMARK INTRA:                  -0.891
REMARK UNBOUND:                -1.509
REMARK SMILES CCCCCCCCCCCCCC[C@@H](C)C(=O)[O-]
REMARK SMILES IDX 9 1 10 2 11 3 12 4 13 5 14 6 15 7 16 8 17 9 18 10 19 11 8 12
REMARK SMILES IDX 7 13 6 14 5 15 4 16 3 17 2 18 1 19
REMARK H PARENT
REMARK Flexibility Score: inf
ROOT
ATOM      1  C   UNL     1      12.688 -25.112 -14.121  1.00  0.00     0.000 C 
ENDROOT
BRANCH   1   2
ATOM      2  C   UNL     1      11.378 -24.341 -13.889  1.00  0.00     0.000 C 
BRANCH   2   3
ATOM      3  C   UNL     1      11.505 -22.845 -14.230  1.00  0.00     0.000 C 
BRANCH   3   4
ATOM      4  C   UNL     1      12.962 -22.356 -14.199  1.00  0.00     0.000 C 
BRANCH   4   5
ATOM      5  C   UNL     1      13.071 -20.822 -14.126  1.00  0.00     0.001 C 
BRANCH   5   6
ATOM      6  C   UNL     1      11.802 -20.097 -14.615  1.00  0.00     0.009 C 
BRANCH   6   7
ATOM      7  C   UNL     1      11.590 -18.703 -13.978  1.00  0.00     0.032 C 
ATOM      8  C   UNL     1      11.030 -18.838 -12.556  1.00  0.00     0.014 C 
BRANCH   7   9
ATOM      9  C   UNL     1      12.862 -17.901 -13.934  1.00  0.00     0.044 C 
ATOM     10  O   UNL     1      13.429 -17.655 -12.835  1.00  0.00    -0.550 OA
ATOM     11  O   UNL     1      13.402 -17.394 -15.109  1.00  0.00    -0.550 OA
ENDBRANCH   7   9
ENDBRANCH   6   7
ENDBRANCH   5   6
ENDBRANCH   4   5
ENDBRANCH   3   4
ENDBRANCH   2   3
ENDBRANCH   1   2
BRANCH   1  12
ATOM     12  C   UNL     1      12.449 -26.599 -14.439  1.00  0.00     0.000 C 
BRANCH  12  13
ATOM     13  C   UNL     1      13.709 -27.455 -14.232  1.00  0.00    -0.000 C 
BRANCH  13  14
ATOM     14  C   UNL     1      14.634 -27.458 -15.463  1.00  0.00    -0.000 C 
BRANCH  14  15
ATOM     15  C   UNL     1      15.971 -28.164 -15.191  1.00  0.00    -0.000 C 
BRANCH  15  16
ATOM     16  C   UNL     1      15.853 -29.260 -14.116  1.00  0.00    -0.000 C 
BRANCH  16  17
ATOM     17  C   UNL     1      16.163 -30.664 -14.679  1.00  0.00    -0.000 C 
BRANCH  17  18
ATOM     18  C   UNL     1      15.393 -31.793 -13.972  1.00  0.00    -0.003 C 
ATOM     19  C   UNL     1      14.566 -31.303 -12.786  1.00  0.00     0.004 C 
ENDBRANCH  17  18
ENDBRANCH  16  17
ENDBRANCH  15  16
ENDBRANCH  14  15
ENDBRANCH  13  14
ENDBRANCH  12  13
ENDBRANCH   1  12
TORSDOF 14
ENDMDL
MODEL 7
REMARK VINA RESULT:    -4.954      4.493      6.633
REMARK INTER + INTRA:         -10.517
REMARK INTER:                  -8.493
REMARK INTRA:                  -2.024
REMARK UNBOUND:                -1.509
REMARK SMILES CCCCCCCCCCCCCC[C@@H](C)C(=O)[O-]
REMARK SMILES IDX 9 1 10 2 11 3 12 4 13 5 14 6 15 7 16 8 17 9 18 10 19 11 8 12
REMARK SMILES IDX 7 13 6 14 5 15 4 16 3 17 2 18 1 19
REMARK H PARENT
REMARK Flexibility Score: inf
ROOT
ATOM      1  C   UNL     1      11.408 -19.894 -15.111  1.00  0.00     0.000 C 
ENDROOT
BRANCH   1   2
ATOM      2  C   UNL     1      11.016 -18.839 -14.064  1.00  0.00     0.000 C 
BRANCH   2   3
ATOM      3  C   UNL     1      11.366 -19.273 -12.629  1.00  0.00     0.000 C 
BRANCH   3   4
ATOM      4  C   UNL     1      10.597 -18.471 -11.567  1.00  0.00     0.000 C 
BRANCH   4   5
ATOM      5  C   UNL     1      10.580 -19.168 -10.194  1.00  0.00     0.001 C 
BRANCH   5   6
ATOM      6  C   UNL     1      11.548 -18.531  -9.177  1.00  0.00     0.009 C 
BRANCH   6   7
ATOM      7  C   UNL     1      10.915 -17.399  -8.332  1.00  0.00     0.032 C 
ATOM      8  C   UNL     1      10.221 -17.975  -7.092  1.00  0.00     0.014 C 
BRANCH   7   9
ATOM      9  C   UNL     1      11.932 -16.378  -7.900  1.00  0.00     0.044 C 
ATOM     10  O   UNL     1      13.014 -16.241  -8.533  1.00  0.00    -0.550 OA
ATOM     11  O   UNL     1      11.698 -15.602  -6.772  1.00  0.00    -0.550 OA
ENDBRANCH   7   9
ENDBRANCH   6   7
ENDBRANCH   5   6
ENDBRANCH   4   5
ENDBRANCH   3   4
ENDBRANCH   2   3
ENDBRANCH   1   2
BRANCH   1  12
ATOM     12  C   UNL     1      12.916 -19.889 -15.418  1.00  0.00     0.000 C 
BRANCH  12  13
ATOM     13  C   UNL     1      13.321 -18.744 -16.361  1.00  0.00    -0.000 C 
BRANCH  13  14
ATOM     14  C   UNL     1      14.454 -17.875 -15.787  1.00  0.00    -0.000 C 
BRANCH  14  15
ATOM     15  C   UNL     1      13.931 -16.756 -14.873  1.00  0.00    -0.000 C 
BRANCH  15  16
ATOM     16  C   UNL     1      14.781 -16.587 -13.600  1.00  0.00    -0.000 C 
BRANCH  16  17
ATOM     17  C   UNL     1      13.948 -16.771 -12.314  1.00  0.00    -0.000 C 
BRANCH  17  18
ATOM     18  C   UNL     1      14.505 -17.851 -11.370  1.00  0.00    -0.003 C 
ATOM     19  C   UNL     1      15.042 -19.074 -12.109  1.00  0.00     0.004 C 
ENDBRANCH  17  18
ENDBRANCH  16  17
ENDBRANCH  15  16
ENDBRANCH  14  15
ENDBRANCH  13  14
ENDBRANCH  12  13
ENDBRANCH   1  12
TORSDOF 14
ENDMDL
MODEL 8
REMARK VINA RESULT:    -4.944      1.290      2.002
REMARK INTER + INTRA:         -10.500
REMARK INTER:                  -9.514
REMARK INTRA:                  -0.985
REMARK UNBOUND:                -1.509
REMARK SMILES CCCCCCCCCCCCCC[C@@H](C)C(=O)[O-]
REMARK SMILES IDX 9 1 10 2 11 3 12 4 13 5 14 6 15 7 16 8 17 9 18 10 19 11 8 12
REMARK SMILES IDX 7 13 6 14 5 15 4 16 3 17 2 18 1 19
REMARK H PARENT
REMARK Flexibility Score: inf
ROOT
ATOM      1  C   UNL     1      11.671 -23.099 -14.129  1.00  0.00     0.000 C 
ENDROOT
BRANCH   1   2
ATOM      2  C   UNL     1      11.370 -21.967 -15.125  1.00  0.00     0.000 C 
BRANCH   2   3
ATOM      3  C   UNL     1      12.535 -20.969 -15.254  1.00  0.00     0.000 C 
BRANCH   3   4
ATOM      4  C   UNL     1      12.070 -19.576 -15.706  1.00  0.00     0.000 C 
BRANCH   4   5
ATOM      5  C   UNL     1      11.265 -18.838 -14.621  1.00  0.00     0.001 C 
BRANCH   5   6
ATOM      6  C   UNL     1      12.016 -18.719 -13.281  1.00  0.00     0.009 C 
BRANCH   6   7
ATOM      7  C   UNL     1      12.755 -17.373 -13.092  1.00  0.00     0.032 C 
ATOM      8  C   UNL     1      13.227 -17.215 -11.641  1.00  0.00     0.014 C 
BRANCH   7   9
ATOM      9  C   UNL     1      13.937 -17.241 -14.014  1.00  0.00     0.044 C 
ATOM     10  O   UNL     1      15.008 -17.863 -13.779  1.00  0.00    -0.550 OA
ATOM     11  O   UNL     1      13.865 -16.398 -15.116  1.00  0.00    -0.550 OA
ENDBRANCH   7   9
ENDBRANCH   6   7
ENDBRANCH   5   6
ENDBRANCH   4   5
ENDBRANCH   3   4
ENDBRANCH   2   3
ENDBRANCH   1   2
BRANCH   1  12
ATOM     12  C   UNL     1      13.166 -23.190 -13.773  1.00  0.00     0.000 C 
BRANCH  12  13
ATOM     13  C   UNL     1      13.689 -24.636 -13.797  1.00  0.00    -0.000 C 
BRANCH  13  14
ATOM     14  C   UNL     1      12.574 -25.667 -14.045  1.00  0.00    -0.000 C 
BRANCH  14  15
ATOM     15  C   UNL     1      13.126 -27.058 -14.391  1.00  0.00    -0.000 C 
BRANCH  15  16
ATOM     16  C   UNL     1      14.654 -27.057 -14.582  1.00  0.00    -0.000 C 
BRANCH  16  17
ATOM     17  C   UNL     1      15.205 -28.469 -14.872  1.00  0.00    -0.000 C 
BRANCH  17  18
ATOM     18  C   UNL     1      15.797 -29.164 -13.633  1.00  0.00    -0.003 C 
ATOM     19  C   UNL     1      15.020 -30.411 -13.216  1.00  0.00     0.004 C 
ENDBRANCH  17  18
ENDBRANCH  16  17
ENDBRANCH  15  16
ENDBRANCH  14  15
ENDBRANCH  13  14
ENDBRANCH  12  13
ENDBRANCH   1  12
TORSDOF 14
ENDMDL
MODEL 9
REMARK VINA RESULT:    -4.864      5.537      8.035
REMARK INTER + INTRA:         -10.353
REMARK INTER:                  -8.836
REMARK INTRA:                  -1.517
REMARK UNBOUND:                -1.509
REMARK SMILES CCCCCCCCCCCCCC[C@@H](C)C(=O)[O-]
REMARK SMILES IDX 9 1 10 2 11 3 12 4 13 5 14 6 15 7 16 8 17 9 18 10 19 11 8 12
REMARK SMILES IDX 7 13 6 14 5 15 4 16 3 17 2 18 1 19
REMARK H PARENT
REMARK Flexibility Score: inf
ROOT
ATOM      1  C   UNL     1      11.524 -19.393 -12.551  1.00  0.00     0.000 C 
ENDROOT
BRANCH   1   2
ATOM      2  C   UNL     1      10.606 -18.576 -11.628  1.00  0.00     0.000 C 
BRANCH   2   3
ATOM      3  C   UNL     1      10.638 -19.075 -10.172  1.00  0.00     0.000 C 
BRANCH   3   4
ATOM      4  C   UNL     1      11.079 -17.984  -9.185  1.00  0.00     0.000 C 
BRANCH   4   5
ATOM      5  C   UNL     1      11.141 -18.488  -7.731  1.00  0.00     0.001 C 
BRANCH   5   6
ATOM      6  C   UNL     1      11.210 -17.349  -6.694  1.00  0.00     0.009 C 
BRANCH   6   7
ATOM      7  C   UNL     1      10.107 -17.419  -5.611  1.00  0.00     0.032 C 
ATOM      8  C   UNL     1       8.716 -17.336  -6.250  1.00  0.00     0.014 C 
BRANCH   7   9
ATOM      9  C   UNL     1      10.200 -18.677  -4.789  1.00  0.00     0.044 C 
ATOM     10  O   UNL     1      11.256 -18.957  -4.160  1.00  0.00    -0.550 OA
ATOM     11  O   UNL     1       9.127 -19.558  -4.749  1.00  0.00    -0.550 OA
ENDBRANCH   7   9
ENDBRANCH   6   7
ENDBRANCH   5   6
ENDBRANCH   4   5
ENDBRANCH   3   4
ENDBRANCH   2   3
ENDBRANCH   1   2
BRANCH   1  12
ATOM     12  C   UNL     1      11.238 -19.140 -14.042  1.00  0.00     0.000 C 
BRANCH  12  13
ATOM     13  C   UNL     1      12.323 -19.728 -14.958  1.00  0.00    -0.000 C 
BRANCH  13  14
ATOM     14  C   UNL     1      12.946 -18.676 -15.893  1.00  0.00    -0.000 C 
BRANCH  14  15
ATOM     15  C   UNL     1      14.208 -18.034 -15.296  1.00  0.00    -0.000 C 
BRANCH  15  16
ATOM     16  C   UNL     1      14.011 -16.545 -14.958  1.00  0.00    -0.000 C 
BRANCH  16  17
ATOM     17  C   UNL     1      13.507 -16.337 -13.514  1.00  0.00    -0.000 C 
BRANCH  17  18
ATOM     18  C   UNL     1      14.379 -17.029 -12.452  1.00  0.00    -0.003 C 
ATOM     19  C   UNL     1      13.945 -16.716 -11.022  1.00  0.00     0.004 C 
ENDBRANCH  17  18
ENDBRANCH  16  17
ENDBRANCH  15  16
ENDBRANCH  14  15
ENDBRANCH  13  14
ENDBRANCH  12  13
ENDBRANCH   1  12
TORSDOF 14
ENDMDL
