MODEL 1
REMARK VINA RESULT:    -2.725      0.000      0.000
REMARK INTER + INTRA:          -5.608
REMARK INTER:                  -4.319
REMARK INTRA:                  -1.290
REMARK UNBOUND:                -1.290
REMARK SMILES CCCCCCCCCCCC(=O)[O-]
REMARK SMILES IDX 7 1 8 2 9 3 10 4 11 5 12 6 13 7 14 8 6 9 5 10 4 11 3 12 2 13
REMARK SMILES IDX 1 14
REMARK H PARENT
REMARK Flexibility Score: inf
ROOT
ATOM      1  C   UNL     1      20.353  30.792  48.835  1.00  0.00     0.000 C 
ENDROOT
BRANCH   1   2
ATOM      2  C   UNL     1      21.150  30.636  47.529  1.00  0.00     0.000 C 
BRANCH   2   3
ATOM      3  C   UNL     1      22.530  31.317  47.583  1.00  0.00     0.000 C 
BRANCH   3   4
ATOM      4  C   UNL     1      23.730  30.380  47.360  1.00  0.00     0.006 C 
BRANCH   4   5
ATOM      5  C   UNL     1      24.115  30.243  45.882  1.00  0.00     0.053 C 
BRANCH   5   6
ATOM      6  C   UNL     1      24.617  31.548  45.349  1.00  0.00     0.041 C 
ATOM      7  O   UNL     1      25.712  32.018  45.758  1.00  0.00    -0.550 OA
ATOM      8  O   UNL     1      23.855  32.268  44.439  1.00  0.00    -0.550 OA
ENDBRANCH   5   6
ENDBRANCH   4   5
ENDBRANCH   3   4
ENDBRANCH   2   3
ENDBRANCH   1   2
BRANCH   1   9
ATOM      9  C   UNL     1      21.020  31.770  49.818  1.00  0.00     0.000 C 
BRANCH   9  10
ATOM     10  C   UNL     1      21.543  31.067  51.083  1.00  0.00    -0.000 C 
BRANCH  10  11
ATOM     11  C   UNL     1      21.348  29.543  51.036  1.00  0.00    -0.000 C 
BRANCH  11  12
ATOM     12  C   UNL     1      22.638  28.792  50.661  1.00  0.00    -0.000 C 
BRANCH  12  13
ATOM     13  C   UNL     1      22.366  27.354  50.191  1.00  0.00    -0.003 C 
ATOM     14  C   UNL     1      22.224  27.243  48.673  1.00  0.00     0.004 C 
ENDBRANCH  12  13
ENDBRANCH  11  12
ENDBRANCH  10  11
ENDBRANCH   9  10
ENDBRANCH   1   9
TORSDOF 10
ENDMDL
MODEL 2
REMARK VINA RESULT:    -2.653      2.682      4.821
REMARK INTER + INTRA:          -5.494
REMARK INTER:                  -4.461
REMARK INTRA:                  -1.033
REMARK UNBOUND:                -1.290
REMARK SMILES CCCCCCCCCCCC(=O)[O-]
REMARK SMILES IDX 7 1 8 2 9 3 10 4 11 5 12 6 13 7 14 8 6 9 5 10 4 11 3 12 2 13
REMARK SMILES IDX 1 14
REMARK H PARENT
REMARK Flexibility Score: inf
ROOT
ATOM      1  C   UNL     1      21.055  28.549  50.475  1.00  0.00     0.000 C 
ENDROOT
BRANCH   1   2
ATOM      2  C   UNL     1      22.035  29.552  51.109  1.00  0.00     0.000 C 
BRANCH   2   3
ATOM      3  C   UNL     1      21.523  31.003  51.059  1.00  0.00     0.000 C 
BRANCH   3   4
ATOM      4  C   UNL     1      20.566  31.318  49.896  1.00  0.00     0.006 C 
BRANCH   4   5
ATOM      5  C   UNL     1      21.112  32.390  48.945  1.00  0.00     0.053 C 
BRANCH   5   6
ATOM      6  C   UNL     1      20.426  33.698  49.184  1.00  0.00     0.041 C 
ATOM      7  O   UNL     1      19.194  33.729  49.444  1.00  0.00    -0.550 OA
ATOM      8  O   UNL     1      21.135  34.887  49.071  1.00  0.00    -0.550 OA
ENDBRANCH   5   6
ENDBRANCH   4   5
ENDBRANCH   3   4
ENDBRANCH   2   3
ENDBRANCH   1   2
BRANCH   1   9
ATOM      9  C   UNL     1      21.767  27.513  49.588  1.00  0.00     0.000 C 
BRANCH   9  10
ATOM     10  C   UNL     1      23.250  27.854  49.359  1.00  0.00    -0.000 C 
BRANCH  10  11
ATOM     11  C   UNL     1      23.550  28.239  47.901  1.00  0.00    -0.000 C 
BRANCH  11  12
ATOM     12  C   UNL     1      23.303  29.732  47.620  1.00  0.00    -0.000 C 
BRANCH  12  13
ATOM     13  C   UNL     1      24.169  30.264  46.467  1.00  0.00    -0.003 C 
ATOM     14  C   UNL     1      24.201  31.791  46.404  1.00  0.00     0.004 C 
ENDBRANCH  12  13
ENDBRANCH  11  12
ENDBRANCH  10  11
ENDBRANCH   9  10
ENDBRANCH   1   9
TORSDOF 10
ENDMDL
MODEL 3
REMARK VINA RESULT:    -2.636      1.156      3.350
REMARK INTER + INTRA:          -5.466
REMARK INTER:                  -4.385
REMARK INTRA:                  -1.081
REMARK UNBOUND:                -1.290
REMARK SMILES CCCCCCCCCCCC(=O)[O-]
REMARK SMILES IDX 7 1 8 2 9 3 10 4 11 5 12 6 13 7 14 8 6 9 5 10 4 11 3 12 2 13
REMARK SMILES IDX 1 14
REMARK H PARENT
REMARK Flexibility Score: inf
ROOT
ATOM      1  C   UNL     1      22.856  27.965  49.652  1.00  0.00     0.000 C 
ENDROOT
BRANCH   1   2
ATOM      2  C   UNL     1      22.759  28.447  48.194  1.00  0.00     0.000 C 
BRANCH   2   3
ATOM      3  C   UNL     1      23.791  29.538  47.854  1.00  0.00     0.000 C 
BRANCH   3   4
ATOM      4  C   UNL     1      23.390  30.479  46.704  1.00  0.00     0.006 C 
BRANCH   4   5
ATOM      5  C   UNL     1      24.380  31.633  46.503  1.00  0.00     0.053 C 
BRANCH   5   6
ATOM      6  C   UNL     1      24.849  31.678  45.083  1.00  0.00     0.041 C 
ATOM      7  O   UNL     1      24.092  31.289  44.154  1.00  0.00    -0.550 OA
ATOM      8  O   UNL     1      26.137  32.104  44.788  1.00  0.00    -0.550 OA
ENDBRANCH   5   6
ENDBRANCH   4   5
ENDBRANCH   3   4
ENDBRANCH   2   3
ENDBRANCH   1   2
BRANCH   1   9
ATOM      9  C   UNL     1      22.645  29.105  50.663  1.00  0.00     0.000 C 
BRANCH   9  10
ATOM     10  C   UNL     1      21.224  29.695  50.597  1.00  0.00    -0.000 C 
BRANCH  10  11
ATOM     11  C   UNL     1      21.225  31.206  50.309  1.00  0.00    -0.000 C 
BRANCH  11  12
ATOM     12  C   UNL     1      20.644  31.545  48.925  1.00  0.00    -0.000 C 
BRANCH  12  13
ATOM     13  C   UNL     1      21.134  32.904  48.400  1.00  0.00    -0.003 C 
ATOM     14  C   UNL     1      20.718  34.071  49.294  1.00  0.00     0.004 C 
ENDBRANCH  12  13
ENDBRANCH  11  12
ENDBRANCH  10  11
ENDBRANCH   9  10
ENDBRANCH   1   9
TORSDOF 10
ENDMDL
MODEL 4
REMARK VINA RESULT:    -2.621      1.871      3.793
REMARK INTER + INTRA:          -5.444
REMARK INTER:                  -4.441
REMARK INTRA:                  -1.002
REMARK UNBOUND:                -1.290
REMARK SMILES CCCCCCCCCCCC(=O)[O-]
REMARK SMILES IDX 7 1 8 2 9 3 10 4 11 5 12 6 13 7 14 8 6 9 5 10 4 11 3 12 2 13
REMARK SMILES IDX 1 14
REMARK H PARENT
REMARK Flexibility Score: inf
ROOT
ATOM      1  C   UNL     1      23.477  29.086  46.378  1.00  0.00     0.000 C 
ENDROOT
BRANCH   1   2
ATOM      2  C   UNL     1      23.688  30.226  45.368  1.00  0.00     0.000 C 
BRANCH   2   3
ATOM      3  C   UNL     1      24.331  31.475  45.999  1.00  0.00     0.000 C 
BRANCH   3   4
ATOM      4  C   UNL     1      25.648  31.931  45.347  1.00  0.00     0.006 C 
BRANCH   4   5
ATOM      5  C   UNL     1      25.977  31.163  44.062  1.00  0.00     0.053 C 
BRANCH   5   6
ATOM      6  C   UNL     1      25.807  32.047  42.867  1.00  0.00     0.041 C 
ATOM      7  O   UNL     1      26.072  31.611  41.715  1.00  0.00    -0.550 OA
ATOM      8  O   UNL     1      25.403  33.365  43.028  1.00  0.00    -0.550 OA
ENDBRANCH   5   6
ENDBRANCH   4   5
ENDBRANCH   3   4
ENDBRANCH   2   3
ENDBRANCH   1   2
BRANCH   1   9
ATOM      9  C   UNL     1      23.907  29.476  47.803  1.00  0.00     0.000 C 
BRANCH   9  10
ATOM     10  C   UNL     1      22.816  29.181  48.848  1.00  0.00    -0.000 C 
BRANCH  10  11
ATOM     11  C   UNL     1      22.139  30.458  49.373  1.00  0.00    -0.000 C 
BRANCH  11  12
ATOM     12  C   UNL     1      21.117  31.037  48.379  1.00  0.00    -0.000 C 
BRANCH  12  13
ATOM     13  C   UNL     1      21.400  32.509  48.036  1.00  0.00    -0.003 C 
ATOM     14  C   UNL     1      20.798  33.481  49.051  1.00  0.00     0.004 C 
ENDBRANCH  12  13
ENDBRANCH  11  12
ENDBRANCH  10  11
ENDBRANCH   9  10
ENDBRANCH   1   9
TORSDOF 10
ENDMDL
MODEL 5
REMARK VINA RESULT:    -2.617      1.314      1.681
REMARK INTER + INTRA:          -5.437
REMARK INTER:                  -4.273
REMARK INTRA:                  -1.165
REMARK UNBOUND:                -1.290
REMARK SMILES CCCCCCCCCCCC(=O)[O-]
REMARK SMILES IDX 7 1 8 2 9 3 10 4 11 5 12 6 13 7 14 8 6 9 5 10 4 11 3 12 2 13
REMARK SMILES IDX 1 14
REMARK H PARENT
REMARK Flexibility Score: inf
ROOT
ATOM      1  C   UNL     1      21.635  31.816  47.611  1.00  0.00     0.000 C 
ENDROOT
BRANCH   1   2
ATOM      2  C   UNL     1      22.247  30.577  46.936  1.00  0.00     0.000 C 
BRANCH   2   3
ATOM      3  C   UNL     1      23.779  30.515  47.072  1.00  0.00     0.000 C 
BRANCH   3   4
ATOM      4  C   UNL     1      24.542  31.672  46.403  1.00  0.00     0.006 C 
BRANCH   4   5
ATOM      5  C   UNL     1      24.244  31.797  44.904  1.00  0.00     0.053 C 
BRANCH   5   6
ATOM      6  C   UNL     1      25.036  30.791  44.129  1.00  0.00     0.041 C 
ATOM      7  O   UNL     1      26.262  30.983  43.911  1.00  0.00    -0.550 OA
ATOM      8  O   UNL     1      24.412  29.667  43.606  1.00  0.00    -0.550 OA
ENDBRANCH   5   6
ENDBRANCH   4   5
ENDBRANCH   3   4
ENDBRANCH   2   3
ENDBRANCH   1   2
BRANCH   1   9
ATOM      9  C   UNL     1      20.647  31.448  48.731  1.00  0.00     0.000 C 
BRANCH   9  10
ATOM     10  C   UNL     1      21.224  31.709  50.134  1.00  0.00    -0.000 C 
BRANCH  10  11
ATOM     11  C   UNL     1      21.390  30.418  50.953  1.00  0.00    -0.000 C 
BRANCH  11  12
ATOM     12  C   UNL     1      22.601  29.582  50.503  1.00  0.00    -0.000 C 
BRANCH  12  13
ATOM     13  C   UNL     1      22.196  28.193  49.982  1.00  0.00    -0.003 C 
ATOM     14  C   UNL     1      20.700  27.918  50.128  1.00  0.00     0.004 C 
ENDBRANCH  12  13
ENDBRANCH  11  12
ENDBRANCH  10  11
ENDBRANCH   9  10
ENDBRANCH   1   9
TORSDOF 10
ENDMDL
MODEL 6
REMARK VINA RESULT:    -2.616     15.803     17.323
REMARK INTER + INTRA:          -5.436
REMARK INTER:                  -3.760
REMARK INTRA:                  -1.675
REMARK UNBOUND:                -1.290
REMARK SMILES CCCCCCCCCCCC(=O)[O-]
REMARK SMILES IDX 7 1 8 2 9 3 10 4 11 5 12 6 13 7 14 8 6 9 5 10 4 11 3 12 2 13
REMARK SMILES IDX 1 14
REMARK H PARENT
REMARK Flexibility Score: inf
ROOT
ATOM      1  C   UNL     1      17.016  30.553  34.102  1.00  0.00     0.000 C 
ENDROOT
BRANCH   1   2
ATOM      2  C   UNL     1      15.929  29.491  33.864  1.00  0.00     0.000 C 
BRANCH   2   3
ATOM      3  C   UNL     1      16.157  28.206  34.682  1.00  0.00     0.000 C 
BRANCH   3   4
ATOM      4  C   UNL     1      15.991  26.894  33.895  1.00  0.00     0.006 C 
BRANCH   4   5
ATOM      5  C   UNL     1      15.489  27.114  32.463  1.00  0.00     0.053 C 
BRANCH   5   6
ATOM      6  C   UNL     1      14.277  26.277  32.200  1.00  0.00     0.041 C 
ATOM      7  O   UNL     1      13.883  26.087  31.019  1.00  0.00    -0.550 OA
ATOM      8  O   UNL     1      13.554  25.745  33.260  1.00  0.00    -0.550 OA
ENDBRANCH   5   6
ENDBRANCH   4   5
ENDBRANCH   3   4
ENDBRANCH   2   3
ENDBRANCH   1   2
BRANCH   1   9
ATOM      9  C   UNL     1      17.983  30.682  32.912  1.00  0.00     0.000 C 
BRANCH   9  10
ATOM     10  C   UNL     1      17.334  30.264  31.580  1.00  0.00    -0.000 C 
BRANCH  10  11
ATOM     11  C   UNL     1      18.108  29.137  30.875  1.00  0.00    -0.000 C 
BRANCH  11  12
ATOM     12  C   UNL     1      19.393  28.743  31.623  1.00  0.00    -0.000 C 
BRANCH  12  13
ATOM     13  C   UNL     1      19.329  27.317  32.192  1.00  0.00    -0.003 C 
ATOM     14  C   UNL     1      19.641  27.258  33.686  1.00  0.00     0.004 C 
ENDBRANCH  12  13
ENDBRANCH  11  12
ENDBRANCH  10  11
ENDBRANCH   9  10
ENDBRANCH   1   9
TORSDOF 10
ENDMDL
MODEL 7
REMARK VINA RESULT:    -2.613     14.897     16.152
REMARK INTER + INTRA:          -5.430
REMARK INTER:                  -4.063
REMARK INTRA:                  -1.367
REMARK UNBOUND:                -1.290
REMARK SMILES CCCCCCCCCCCC(=O)[O-]
REMARK SMILES IDX 7 1 8 2 9 3 10 4 11 5 12 6 13 7 14 8 6 9 5 10 4 11 3 12 2 13
REMARK SMILES IDX 1 14
REMARK H PARENT
REMARK Flexibility Score: inf
ROOT
ATOM      1  C   UNL     1      18.282  29.872  34.077  1.00  0.00     0.000 C 
ENDROOT
BRANCH   1   2
ATOM      2  C   UNL     1      18.916  29.916  32.677  1.00  0.00     0.000 C 
BRANCH   2   3
ATOM      3  C   UNL     1      18.068  30.702  31.659  1.00  0.00     0.000 C 
BRANCH   3   4
ATOM      4  C   UNL     1      18.722  31.984  31.115  1.00  0.00     0.006 C 
BRANCH   4   5
ATOM      5  C   UNL     1      19.884  32.479  31.986  1.00  0.00     0.053 C 
BRANCH   5   6
ATOM      6  C   UNL     1      19.410  33.530  32.940  1.00  0.00     0.041 C 
ATOM      7  O   UNL     1      19.088  34.671  32.515  1.00  0.00    -0.550 OA
ATOM      8  O   UNL     1      19.371  33.266  34.303  1.00  0.00    -0.550 OA
ENDBRANCH   5   6
ENDBRANCH   4   5
ENDBRANCH   3   4
ENDBRANCH   2   3
ENDBRANCH   1   2
BRANCH   1   9
ATOM      9  C   UNL     1      16.895  30.537  34.116  1.00  0.00     0.000 C 
BRANCH   9  10
ATOM     10  C   UNL     1      15.750  29.510  34.170  1.00  0.00    -0.000 C 
BRANCH  10  11
ATOM     11  C   UNL     1      16.172  28.190  34.836  1.00  0.00    -0.000 C 
BRANCH  11  12
ATOM     12  C   UNL     1      16.018  26.978  33.900  1.00  0.00    -0.000 C 
BRANCH  12  13
ATOM     13  C   UNL     1      15.794  27.392  32.436  1.00  0.00    -0.003 C 
ATOM     14  C   UNL     1      16.937  26.964  31.517  1.00  0.00     0.004 C 
ENDBRANCH  12  13
ENDBRANCH  11  12
ENDBRANCH  10  11
ENDBRANCH   9  10
ENDBRANCH   1   9
TORSDOF 10
ENDMDL
MODEL 8
REMARK VINA RESULT:    -2.605      3.091      5.026
REMARK INTER + INTRA:          -5.417
REMARK INTER:                  -4.078
REMARK INTRA:                  -1.339
REMARK UNBOUND:                -1.290
REMARK SMILES CCCCCCCCCCCC(=O)[O-]
REMARK SMILES IDX 7 1 8 2 9 3 10 4 11 5 12 6 13 7 14 8 6 9 5 10 4 11 3 12 2 13
REMARK SMILES IDX 1 14
REMARK H PARENT
REMARK Flexibility Score: inf
ROOT
ATOM      1  C   UNL     1      21.135  29.681  51.104  1.00  0.00     0.000 C 
ENDROOT
BRANCH   1   2
ATOM      2  C   UNL     1      22.115  28.565  50.704  1.00  0.00     0.000 C 
BRANCH   2   3
ATOM      3  C   UNL     1      21.435  27.418  49.934  1.00  0.00     0.000 C 
BRANCH   3   4
ATOM      4  C   UNL     1      22.325  26.191  49.669  1.00  0.00     0.006 C 
BRANCH   4   5
ATOM      5  C   UNL     1      23.324  25.921  50.800  1.00  0.00     0.053 C 
BRANCH   5   6
ATOM      6  C   UNL     1      24.716  25.829  50.258  1.00  0.00     0.041 C 
ATOM      7  O   UNL     1      25.573  25.108  50.833  1.00  0.00    -0.550 OA
ATOM      8  O   UNL     1      25.080  26.577  49.146  1.00  0.00    -0.550 OA
ENDBRANCH   5   6
ENDBRANCH   4   5
ENDBRANCH   3   4
ENDBRANCH   2   3
ENDBRANCH   1   2
BRANCH   1   9
ATOM      9  C   UNL     1      21.679  31.084  50.786  1.00  0.00     0.000 C 
BRANCH   9  10
ATOM     10  C   UNL     1      21.061  31.679  49.508  1.00  0.00    -0.000 C 
BRANCH  10  11
ATOM     11  C   UNL     1      21.939  31.453  48.266  1.00  0.00    -0.000 C 
BRANCH  11  12
ATOM     12  C   UNL     1      21.432  30.296  47.386  1.00  0.00    -0.000 C 
BRANCH  12  13
ATOM     13  C   UNL     1      22.553  29.317  47.001  1.00  0.00    -0.003 C 
ATOM     14  C   UNL     1      23.889  29.654  47.662  1.00  0.00     0.004 C 
ENDBRANCH  12  13
ENDBRANCH  11  12
ENDBRANCH  10  11
ENDBRANCH   9  10
ENDBRANCH   1   9
TORSDOF 10
ENDMDL
