MODEL 1
REMARK VINA RESULT:    -5.108      0.000      0.000
REMARK INTER + INTRA:          -5.503
REMARK INTER:                  -5.406
REMARK INTRA:                  -0.096
REMARK UNBOUND:                -0.096
REMARK SMILES C=C(C)[C@@H]1CC=C(C)C(=O)C1
REMARK SMILES IDX 8 1 7 2 6 3 5 4 4 5 11 6 9 7 10 8 2 9 1 10 3 11
REMARK H PARENT
REMARK Flexibility Score: inf
ROOT
ATOM      1  C   UNL     1     -11.665   1.030  32.910  1.00  0.00     0.048 C 
ATOM      2  C   UNL     1     -12.224   1.333  31.547  1.00  0.00    -0.012 C 
ATOM      3  C   UNL     1     -11.998   2.528  30.974  1.00  0.00    -0.019 C 
ATOM      4  C   UNL     1     -12.467   2.849  29.579  1.00  0.00     0.036 C 
ATOM      5  C   UNL     1     -13.759   2.082  29.238  1.00  0.00     0.025 C 
ATOM      6  C   UNL     1     -13.559   0.571  29.453  1.00  0.00     0.089 C 
ATOM      7  C   UNL     1     -13.007   0.299  30.826  1.00  0.00     0.158 C 
ATOM      8  O   UNL     1     -13.179  -0.838  31.343  1.00  0.00    -0.295 OA
ENDROOT
BRANCH   5   9
ATOM      9  C   UNL     1     -14.230   2.385  27.822  1.00  0.00    -0.077 C 
ATOM     10  C   UNL     1     -13.385   2.253  26.788  1.00  0.00     0.008 C 
ATOM     11  C   UNL     1     -15.641   2.841  27.545  1.00  0.00     0.039 C 
ENDBRANCH   5   9
TORSDOF 1
ENDMDL
MODEL 2
REMARK VINA RESULT:    -4.968      1.393      2.045
REMARK INTER + INTRA:          -5.355
REMARK INTER:                  -5.268
REMARK INTRA:                  -0.087
REMARK UNBOUND:                -0.096
REMARK SMILES C=C(C)[C@@H]1CC=C(C)C(=O)C1
REMARK SMILES IDX 8 1 7 2 6 3 5 4 4 5 11 6 9 7 10 8 2 9 1 10 3 11
REMARK H PARENT
REMARK Flexibility Score: inf
ROOT
ATOM      1  C   UNL     1     -11.847   0.374  32.629  1.00  0.00     0.048 C 
ATOM      2  C   UNL     1     -12.439   0.928  31.362  1.00  0.00    -0.012 C 
ATOM      3  C   UNL     1     -13.196   0.147  30.571  1.00  0.00    -0.019 C 
ATOM      4  C   UNL     1     -13.876   0.678  29.336  1.00  0.00     0.036 C 
ATOM      5  C   UNL     1     -13.065   1.828  28.708  1.00  0.00     0.025 C 
ATOM      6  C   UNL     1     -12.802   2.930  29.748  1.00  0.00     0.089 C 
ATOM      7  C   UNL     1     -12.204   2.348  31.000  1.00  0.00     0.158 C 
ATOM      8  O   UNL     1     -11.534   3.093  31.765  1.00  0.00    -0.295 OA
ENDROOT
BRANCH   5   9
ATOM      9  C   UNL     1     -13.756   2.384  27.470  1.00  0.00    -0.077 C 
ATOM     10  C   UNL     1     -13.101   2.441  26.300  1.00  0.00     0.008 C 
ATOM     11  C   UNL     1     -15.180   2.883  27.523  1.00  0.00     0.039 C 
ENDBRANCH   5   9
TORSDOF 1
ENDMDL
MODEL 3
REMARK VINA RESULT:    -4.726      9.942     11.304
REMARK INTER + INTRA:          -5.099
REMARK INTER:                  -5.001
REMARK INTRA:                  -0.098
REMARK UNBOUND:                -0.096
REMARK SMILES C=C(C)[C@@H]1CC=C(C)C(=O)C1
REMARK SMILES IDX 8 1 7 2 6 3 5 4 4 5 11 6 9 7 10 8 2 9 1 10 3 11
REMARK H PARENT
REMARK Flexibility Score: inf
ROOT
ATOM      1  C   UNL     1      -1.018   0.001  26.541  1.00  0.00     0.048 C 
ATOM      2  C   UNL     1      -1.820  -0.032  27.812  1.00  0.00    -0.012 C 
ATOM      3  C   UNL     1      -3.110  -0.411  27.788  1.00  0.00    -0.019 C 
ATOM      4  C   UNL     1      -3.931  -0.538  29.045  1.00  0.00     0.036 C 
ATOM      5  C   UNL     1      -3.458   0.459  30.120  1.00  0.00     0.025 C 
ATOM      6  C   UNL     1      -1.952   0.286  30.387  1.00  0.00     0.089 C 
ATOM      7  C   UNL     1      -1.176   0.331  29.099  1.00  0.00     0.158 C 
ATOM      8  O   UNL     1       0.046   0.639  29.129  1.00  0.00    -0.295 OA
ENDROOT
BRANCH   5   9
ATOM      9  C   UNL     1      -4.270   0.323  31.401  1.00  0.00    -0.077 C 
ATOM     10  C   UNL     1      -4.966  -0.799  31.642  1.00  0.00     0.008 C 
ATOM     11  C   UNL     1      -4.317   1.434  32.422  1.00  0.00     0.039 C 
ENDBRANCH   5   9
TORSDOF 1
ENDMDL
MODEL 4
REMARK VINA RESULT:    -4.644      9.739     10.936
REMARK INTER + INTRA:          -5.012
REMARK INTER:                  -4.915
REMARK INTRA:                  -0.097
REMARK UNBOUND:                -0.096
REMARK SMILES C=C(C)[C@@H]1CC=C(C)C(=O)C1
REMARK SMILES IDX 8 1 7 2 6 3 5 4 4 5 11 6 9 7 10 8 2 9 1 10 3 11
REMARK H PARENT
REMARK Flexibility Score: inf
ROOT
ATOM      1  C   UNL     1      -5.631  -0.536  31.875  1.00  0.00     0.048 C 
ATOM      2  C   UNL     1      -4.493  -0.214  30.946  1.00  0.00    -0.012 C 
ATOM      3  C   UNL     1      -4.302  -0.943  29.833  1.00  0.00    -0.019 C 
ATOM      4  C   UNL     1      -3.227  -0.609  28.832  1.00  0.00     0.036 C 
ATOM      5  C   UNL     1      -2.016   0.050  29.519  1.00  0.00     0.025 C 
ATOM      6  C   UNL     1      -2.461   1.281  30.328  1.00  0.00     0.089 C 
ATOM      7  C   UNL     1      -3.594   0.927  31.252  1.00  0.00     0.158 C 
ATOM      8  O   UNL     1      -3.802   1.640  32.271  1.00  0.00    -0.295 OA
ENDROOT
BRANCH   5   9
ATOM      9  C   UNL     1      -0.932   0.409  28.511  1.00  0.00    -0.077 C 
ATOM     10  C   UNL     1       0.125   1.145  28.890  1.00  0.00     0.008 C 
ATOM     11  C   UNL     1      -1.014  -0.045  27.074  1.00  0.00     0.039 C 
ENDBRANCH   5   9
TORSDOF 1
ENDMDL
MODEL 5
REMARK VINA RESULT:    -4.621      2.143      4.726
REMARK INTER + INTRA:          -4.987
REMARK INTER:                  -4.889
REMARK INTRA:                  -0.098
REMARK UNBOUND:                -0.096
REMARK SMILES C=C(C)[C@@H]1CC=C(C)C(=O)C1
REMARK SMILES IDX 8 1 7 2 6 3 5 4 4 5 11 6 9 7 10 8 2 9 1 10 3 11
REMARK H PARENT
REMARK Flexibility Score: inf
ROOT
ATOM      1  C   UNL     1     -14.024   3.266  26.258  1.00  0.00     0.048 C 
ATOM      2  C   UNL     1     -13.563   2.582  27.516  1.00  0.00    -0.012 C 
ATOM      3  C   UNL     1     -14.234   1.519  27.993  1.00  0.00    -0.019 C 
ATOM      4  C   UNL     1     -13.765   0.752  29.201  1.00  0.00     0.036 C 
ATOM      5  C   UNL     1     -13.010   1.670  30.182  1.00  0.00     0.025 C 
ATOM      6  C   UNL     1     -11.855   2.389  29.463  1.00  0.00     0.089 C 
ATOM      7  C   UNL     1     -12.348   3.069  28.215  1.00  0.00     0.158 C 
ATOM      8  O   UNL     1     -11.691   4.035  27.742  1.00  0.00    -0.295 OA
ENDROOT
BRANCH   5   9
ATOM      9  C   UNL     1     -12.515   0.897  31.397  1.00  0.00    -0.077 C 
ATOM     10  C   UNL     1     -12.661  -0.436  31.455  1.00  0.00     0.008 C 
ATOM     11  C   UNL     1     -11.856   1.600  32.559  1.00  0.00     0.039 C 
ENDBRANCH   5   9
TORSDOF 1
ENDMDL
MODEL 6
REMARK VINA RESULT:    -4.572      9.660     10.994
REMARK INTER + INTRA:          -4.935
REMARK INTER:                  -4.846
REMARK INTRA:                  -0.090
REMARK UNBOUND:                -0.096
REMARK SMILES C=C(C)[C@@H]1CC=C(C)C(=O)C1
REMARK SMILES IDX 8 1 7 2 6 3 5 4 4 5 11 6 9 7 10 8 2 9 1 10 3 11
REMARK H PARENT
REMARK Flexibility Score: inf
ROOT
ATOM      1  C   UNL     1      -0.767  -0.263  26.653  1.00  0.00     0.048 C 
ATOM      2  C   UNL     1      -1.668  -0.052  27.839  1.00  0.00    -0.012 C 
ATOM      3  C   UNL     1      -1.144   0.078  29.071  1.00  0.00    -0.019 C 
ATOM      4  C   UNL     1      -1.998   0.371  30.277  1.00  0.00     0.036 C 
ATOM      5  C   UNL     1      -3.409  -0.226  30.116  1.00  0.00     0.025 C 
ATOM      6  C   UNL     1      -4.055   0.268  28.810  1.00  0.00     0.089 C 
ATOM      7  C   UNL     1      -3.136   0.037  27.642  1.00  0.00     0.158 C 
ATOM      8  O   UNL     1      -3.623  -0.036  26.482  1.00  0.00    -0.295 OA
ENDROOT
BRANCH   5   9
ATOM      9  C   UNL     1      -4.285   0.083  31.323  1.00  0.00    -0.077 C 
ATOM     10  C   UNL     1      -5.195  -0.810  31.742  1.00  0.00     0.008 C 
ATOM     11  C   UNL     1      -4.159   1.388  32.071  1.00  0.00     0.039 C 
ENDBRANCH   5   9
TORSDOF 1
ENDMDL
MODEL 7
REMARK VINA RESULT:    -4.511     12.979     14.594
REMARK INTER + INTRA:          -4.871
REMARK INTER:                  -4.773
REMARK INTRA:                  -0.098
REMARK UNBOUND:                -0.096
REMARK SMILES C=C(C)[C@@H]1CC=C(C)C(=O)C1
REMARK SMILES IDX 8 1 7 2 6 3 5 4 4 5 11 6 9 7 10 8 2 9 1 10 3 11
REMARK H PARENT
REMARK Flexibility Score: inf
ROOT
ATOM      1  C   UNL     1      -8.937  12.734  19.298  1.00  0.00     0.048 C 
ATOM      2  C   UNL     1      -9.937  11.698  18.863  1.00  0.00    -0.012 C 
ATOM      3  C   UNL     1     -10.908  12.020  17.990  1.00  0.00    -0.019 C 
ATOM      4  C   UNL     1     -11.882  10.999  17.463  1.00  0.00     0.036 C 
ATOM      5  C   UNL     1     -12.138   9.890  18.501  1.00  0.00     0.025 C 
ATOM      6  C   UNL     1     -10.809   9.253  18.946  1.00  0.00     0.089 C 
ATOM      7  C   UNL     1      -9.833  10.312  19.382  1.00  0.00     0.158 C 
ATOM      8  O   UNL     1      -8.895   9.998  20.163  1.00  0.00    -0.295 OA
ENDROOT
BRANCH   5   9
ATOM      9  C   UNL     1     -13.106   8.842  17.968  1.00  0.00    -0.077 C 
ATOM     10  C   UNL     1     -13.841   9.097  16.875  1.00  0.00     0.008 C 
ATOM     11  C   UNL     1     -13.266   7.503  18.648  1.00  0.00     0.039 C 
ENDBRANCH   5   9
TORSDOF 1
ENDMDL
MODEL 8
REMARK VINA RESULT:    -4.415      1.136      1.511
REMARK INTER + INTRA:          -4.769
REMARK INTER:                  -4.673
REMARK INTRA:                  -0.096
REMARK UNBOUND:                -0.096
REMARK SMILES C=C(C)[C@@H]1CC=C(C)C(=O)C1
REMARK SMILES IDX 8 1 7 2 6 3 5 4 4 5 11 6 9 7 10 8 2 9 1 10 3 11
REMARK H PARENT
REMARK Flexibility Score: inf
ROOT
ATOM      1  C   UNL     1     -11.839   2.009  31.665  1.00  0.00     0.048 C 
ATOM      2  C   UNL     1     -12.623   2.271  30.409  1.00  0.00    -0.012 C 
ATOM      3  C   UNL     1     -12.616   3.495  29.851  1.00  0.00    -0.019 C 
ATOM      4  C   UNL     1     -13.319   3.785  28.551  1.00  0.00     0.036 C 
ATOM      5  C   UNL     1     -14.554   2.882  28.374  1.00  0.00     0.025 C 
ATOM      6  C   UNL     1     -14.159   1.401  28.505  1.00  0.00     0.089 C 
ATOM      7  C   UNL     1     -13.384   1.168  29.773  1.00  0.00     0.158 C 
ATOM      8  O   UNL     1     -13.351   0.009  30.269  1.00  0.00    -0.295 OA
ENDROOT
BRANCH   5   9
ATOM      9  C   UNL     1     -15.259   3.156  27.052  1.00  0.00    -0.077 C 
ATOM     10  C   UNL     1     -14.555   3.212  25.911  1.00  0.00     0.008 C 
ATOM     11  C   UNL     1     -16.752   3.371  26.988  1.00  0.00     0.039 C 
ENDBRANCH   5   9
TORSDOF 1
ENDMDL
MODEL 9
REMARK VINA RESULT:    -4.336      8.209      9.734
REMARK INTER + INTRA:          -4.686
REMARK INTER:                  -4.599
REMARK INTRA:                  -0.087
REMARK UNBOUND:                -0.096
REMARK SMILES C=C(C)[C@@H]1CC=C(C)C(=O)C1
REMARK SMILES IDX 8 1 7 2 6 3 5 4 4 5 11 6 9 7 10 8 2 9 1 10 3 11
REMARK H PARENT
REMARK Flexibility Score: inf
ROOT
ATOM      1  C   UNL     1     -14.578  11.980  29.605  1.00  0.00     0.048 C 
ATOM      2  C   UNL     1     -13.423  11.332  30.318  1.00  0.00    -0.012 C 
ATOM      3  C   UNL     1     -12.354  12.064  30.678  1.00  0.00    -0.019 C 
ATOM      4  C   UNL     1     -11.211  11.478  31.463  1.00  0.00     0.036 C 
ATOM      5  C   UNL     1     -11.028   9.982  31.145  1.00  0.00     0.025 C 
ATOM      6  C   UNL     1     -12.344   9.219  31.374  1.00  0.00     0.089 C 
ATOM      7  C   UNL     1     -13.478   9.885  30.644  1.00  0.00     0.158 C 
ATOM      8  O   UNL     1     -14.500   9.209  30.349  1.00  0.00    -0.295 OA
ENDROOT
BRANCH   5   9
ATOM      9  C   UNL     1      -9.886   9.378  31.951  1.00  0.00    -0.077 C 
ATOM     10  C   UNL     1      -8.848   8.803  31.323  1.00  0.00     0.008 C 
ATOM     11  C   UNL     1      -9.889   9.404  33.460  1.00  0.00     0.039 C 
ENDBRANCH   5   9
TORSDOF 1
ENDMDL
