MODEL 1
REMARK VINA RESULT:    -4.906      0.000      0.000
REMARK INTER + INTRA:          -5.336
REMARK INTER:                  -5.336
REMARK INTRA:                   0.000
REMARK UNBOUND:                 0.000
REMARK SMILES Cc1cc(O)c2c(c1)C(=O)c1cc(O)cc(O)c1C2=O
REMARK SMILES IDX 1 1 2 2 8 3 7 4 6 5 4 6 3 7 19 8 20 9 18 10 11 11 9 12 10 13
REMARK SMILES IDX 12 14 13 15 15 16 16 17 5 18 17 20 14 22
REMARK H PARENT 5 19 17 21 14 23
REMARK Flexibility Score: inf
ROOT
ATOM      1  C   UNL     1     -43.866  28.309   1.295  1.00  0.00     0.044 C 
ATOM      2  C   UNL     1     -44.339  28.205  -0.126  1.00  0.00    -0.047 A 
ATOM      3  C   UNL     1     -43.625  28.831  -1.153  1.00  0.00     0.016 A 
ATOM      4  C   UNL     1     -44.083  28.776  -2.480  1.00  0.00     0.038 A 
ATOM      5  C   UNL     1     -45.290  28.106  -2.781  1.00  0.00     0.076 A 
ATOM      6  C   UNL     1     -45.985  27.433  -1.742  1.00  0.00     0.127 A 
ATOM      7  C   UNL     1     -45.521  27.519  -0.427  1.00  0.00     0.050 A 
ATOM      8  C   UNL     1     -45.815  28.195  -4.168  1.00  0.00     0.201 C 
ATOM      9  O   UNL     1     -47.058  28.149  -4.372  1.00  0.00    -0.288 OA
ATOM     10  C   UNL     1     -44.896  28.528  -5.286  1.00  0.00     0.076 A 
ATOM     11  C   UNL     1     -43.690  29.198  -4.981  1.00  0.00     0.041 A 
ATOM     12  C   UNL     1     -43.304  29.416  -3.567  1.00  0.00     0.194 C 
ATOM     13  O   UNL     1     -42.297  30.124  -3.289  1.00  0.00    -0.289 OA
ATOM     14  C   UNL     1     -42.860  29.652  -6.020  1.00  0.00     0.059 A 
ATOM     15  C   UNL     1     -43.207  29.433  -7.352  1.00  0.00     0.120 A 
ATOM     16  C   UNL     1     -44.379  28.734  -7.659  1.00  0.00     0.093 A 
ATOM     17  C   UNL     1     -45.211  28.255  -6.643  1.00  0.00     0.131 A 
ENDROOT
BRANCH   6  18
ATOM     18  O   UNL     1     -47.115  26.647  -1.976  1.00  0.00    -0.507 OA
ATOM     19  H   UNL     1     -48.058  27.010  -1.978  1.00  0.00     0.293 HD
ENDBRANCH   6  18
BRANCH  17  20
ATOM     20  O   UNL     1     -46.316  27.488  -7.022  1.00  0.00    -0.507 OA
ATOM     21  H   UNL     1     -47.138  27.873  -7.464  1.00  0.00     0.293 HD
ENDBRANCH  17  20
BRANCH  15  22
ATOM     22  O   UNL     1     -42.376  29.902  -8.366  1.00  0.00    -0.508 OA
ATOM     23  H   UNL     1     -41.706  29.297  -8.827  1.00  0.00     0.293 HD
ENDBRANCH  15  22
TORSDOF 3
ENDMDL
MODEL 2
REMARK VINA RESULT:    -4.399      1.310      3.333
REMARK INTER + INTRA:          -4.785
REMARK INTER:                  -4.785
REMARK INTRA:                   0.000
REMARK UNBOUND:                 0.000
REMARK SMILES Cc1cc(O)c2c(c1)C(=O)c1cc(O)cc(O)c1C2=O
REMARK SMILES IDX 1 1 2 2 8 3 7 4 6 5 4 6 3 7 19 8 20 9 18 10 11 11 9 12 10 13
REMARK SMILES IDX 12 14 13 15 15 16 16 17 5 18 17 20 14 22
REMARK H PARENT 5 19 17 21 14 23
REMARK Flexibility Score: inf
ROOT
ATOM      1  C   UNL     1     -46.175  27.897   1.964  1.00  0.00     0.044 C 
ATOM      2  C   UNL     1     -45.518  28.241   0.659  1.00  0.00    -0.047 A 
ATOM      3  C   UNL     1     -46.090  27.826  -0.548  1.00  0.00     0.016 A 
ATOM      4  C   UNL     1     -45.461  28.104  -1.773  1.00  0.00     0.038 A 
ATOM      5  C   UNL     1     -44.224  28.787  -1.788  1.00  0.00     0.076 A 
ATOM      6  C   UNL     1     -43.672  29.247  -0.565  1.00  0.00     0.127 A 
ATOM      7  C   UNL     1     -44.306  28.940   0.642  1.00  0.00     0.050 A 
ATOM      8  C   UNL     1     -43.519  28.933  -3.088  1.00  0.00     0.201 C 
ATOM      9  O   UNL     1     -42.260  28.984  -3.118  1.00  0.00    -0.288 OA
ATOM     10  C   UNL     1     -44.283  28.828  -4.358  1.00  0.00     0.076 A 
ATOM     11  C   UNL     1     -45.519  28.143  -4.338  1.00  0.00     0.041 A 
ATOM     12  C   UNL     1     -46.090  27.687  -3.049  1.00  0.00     0.194 C 
ATOM     13  O   UNL     1     -47.125  26.966  -3.037  1.00  0.00    -0.289 OA
ATOM     14  C   UNL     1     -46.205  27.902  -5.541  1.00  0.00     0.059 A 
ATOM     15  C   UNL     1     -45.684  28.347  -6.756  1.00  0.00     0.120 A 
ATOM     16  C   UNL     1     -44.481  29.059  -6.777  1.00  0.00     0.093 A 
ATOM     17  C   UNL     1     -43.790  29.330  -5.591  1.00  0.00     0.131 A 
ENDROOT
BRANCH   6  18
ATOM     18  O   UNL     1     -42.520  30.034  -0.504  1.00  0.00    -0.507 OA
ATOM     19  H   UNL     1     -42.488  30.946  -0.070  1.00  0.00     0.293 HD
ENDBRANCH   6  18
BRANCH  17  20
ATOM     20  O   UNL     1     -42.644  30.124  -5.680  1.00  0.00    -0.507 OA
ATOM     21  H   UNL     1     -41.909  29.971  -6.355  1.00  0.00     0.293 HD
ENDBRANCH  17  20
BRANCH  15  22
ATOM     22  O   UNL     1     -46.373  28.086  -7.937  1.00  0.00    -0.508 OA
ATOM     23  H   UNL     1     -45.888  27.942  -8.815  1.00  0.00     0.293 HD
ENDBRANCH  15  22
TORSDOF 3
ENDMDL
MODEL 3
REMARK VINA RESULT:    -4.113      1.567      6.435
REMARK INTER + INTRA:          -4.474
REMARK INTER:                  -4.474
REMARK INTRA:                   0.000
REMARK UNBOUND:                 0.000
REMARK SMILES Cc1cc(O)c2c(c1)C(=O)c1cc(O)cc(O)c1C2=O
REMARK SMILES IDX 1 1 2 2 8 3 7 4 6 5 4 6 3 7 19 8 20 9 18 10 11 11 9 12 10 13
REMARK SMILES IDX 12 14 13 15 15 16 16 17 5 18 17 20 14 22
REMARK H PARENT 5 19 17 21 14 23
REMARK Flexibility Score: inf
ROOT
ATOM      1  C   UNL     1     -45.685  28.067  -7.686  1.00  0.00     0.044 C 
ATOM      2  C   UNL     1     -45.080  28.268  -6.327  1.00  0.00    -0.047 A 
ATOM      3  C   UNL     1     -45.772  27.863  -5.182  1.00  0.00     0.016 A 
ATOM      4  C   UNL     1     -45.234  28.086  -3.902  1.00  0.00     0.038 A 
ATOM      5  C   UNL     1     -43.994  28.750  -3.768  1.00  0.00     0.076 A 
ATOM      6  C   UNL     1     -43.275  29.117  -4.934  1.00  0.00     0.127 A 
ATOM      7  C   UNL     1     -43.840  28.902  -6.194  1.00  0.00     0.050 A 
ATOM      8  C   UNL     1     -43.530  29.097  -2.399  1.00  0.00     0.201 C 
ATOM      9  O   UNL     1     -42.811  30.117  -2.221  1.00  0.00    -0.288 OA
ATOM     10  C   UNL     1     -44.066  28.358  -1.228  1.00  0.00     0.076 A 
ATOM     11  C   UNL     1     -45.307  27.696  -1.367  1.00  0.00     0.041 A 
ATOM     12  C   UNL     1     -45.960  27.625  -2.695  1.00  0.00     0.194 C 
ATOM     13  O   UNL     1     -47.124  27.149  -2.801  1.00  0.00    -0.289 OA
ATOM     14  C   UNL     1     -45.913  27.102  -0.246  1.00  0.00     0.059 A 
ATOM     15  C   UNL     1     -45.293  27.148   1.002  1.00  0.00     0.120 A 
ATOM     16  C   UNL     1     -44.047  27.766   1.137  1.00  0.00     0.093 A 
ATOM     17  C   UNL     1     -43.414  28.346   0.033  1.00  0.00     0.131 A 
ENDROOT
BRANCH   6  18
ATOM     18  O   UNL     1     -41.990  29.663  -4.889  1.00  0.00    -0.507 OA
ATOM     19  H   UNL     1     -41.788  30.633  -5.088  1.00  0.00     0.293 HD
ENDBRANCH   6  18
BRANCH  17  20
ATOM     20  O   UNL     1     -42.130  28.865   0.225  1.00  0.00    -0.507 OA
ATOM     21  H   UNL     1     -41.744  29.616  -0.328  1.00  0.00     0.293 HD
ENDBRANCH  17  20
BRANCH  15  22
ATOM     22  O   UNL     1     -45.918  26.564   2.101  1.00  0.00    -0.508 OA
ATOM     23  H   UNL     1     -46.073  25.564   2.155  1.00  0.00     0.293 HD
ENDBRANCH  15  22
TORSDOF 3
ENDMDL
MODEL 4
REMARK VINA RESULT:    -3.491      1.602      5.571
REMARK INTER + INTRA:          -3.797
REMARK INTER:                  -3.797
REMARK INTRA:                   0.000
REMARK UNBOUND:                 0.000
REMARK SMILES Cc1cc(O)c2c(c1)C(=O)c1cc(O)cc(O)c1C2=O
REMARK SMILES IDX 1 1 2 2 8 3 7 4 6 5 4 6 3 7 19 8 20 9 18 10 11 11 9 12 10 13
REMARK SMILES IDX 12 14 13 15 15 16 16 17 5 18 17 20 14 22
REMARK H PARENT 5 19 17 21 14 23
REMARK Flexibility Score: inf
ROOT
ATOM      1  C   UNL     1     -43.322  30.125  -7.930  1.00  0.00     0.044 C 
ATOM      2  C   UNL     1     -43.968  29.680  -6.650  1.00  0.00    -0.047 A 
ATOM      3  C   UNL     1     -43.311  29.862  -5.430  1.00  0.00     0.016 A 
ATOM      4  C   UNL     1     -43.887  29.410  -4.231  1.00  0.00     0.038 A 
ATOM      5  C   UNL     1     -45.131  28.740  -4.258  1.00  0.00     0.076 A 
ATOM      6  C   UNL     1     -45.815  28.599  -5.493  1.00  0.00     0.127 A 
ATOM      7  C   UNL     1     -45.212  29.039  -6.674  1.00  0.00     0.050 A 
ATOM      8  C   UNL     1     -45.636  28.148  -2.992  1.00  0.00     0.201 C 
ATOM      9  O   UNL     1     -46.361  27.117  -3.026  1.00  0.00    -0.288 OA
ATOM     10  C   UNL     1     -45.135  28.655  -1.688  1.00  0.00     0.076 A 
ATOM     11  C   UNL     1     -43.891  29.324  -1.666  1.00  0.00     0.041 A 
ATOM     12  C   UNL     1     -43.197  29.635  -2.938  1.00  0.00     0.194 C 
ATOM     13  O   UNL     1     -42.031  30.115  -2.919  1.00  0.00    -0.289 OA
ATOM     14  C   UNL     1     -43.319  29.696  -0.437  1.00  0.00     0.059 A 
ATOM     15  C   UNL     1     -43.976  29.425   0.762  1.00  0.00     0.120 A 
ATOM     16  C   UNL     1     -45.226  28.799   0.744  1.00  0.00     0.093 A 
ATOM     17  C   UNL     1     -45.826  28.438  -0.467  1.00  0.00     0.131 A 
ENDROOT
BRANCH   6  18
ATOM     18  O   UNL     1     -47.100  28.061  -5.587  1.00  0.00    -0.507 OA
ATOM     19  H   UNL     1     -47.798  28.151  -4.862  1.00  0.00     0.293 HD
ENDBRANCH   6  18
BRANCH  17  20
ATOM     20  O   UNL     1     -47.114  27.900  -0.413  1.00  0.00    -0.507 OA
ATOM     21  H   UNL     1     -47.503  27.308  -1.133  1.00  0.00     0.293 HD
ENDBRANCH  17  20
BRANCH  15  22
ATOM     22  O   UNL     1     -43.384  29.791   1.969  1.00  0.00    -0.508 OA
ATOM     23  H   UNL     1     -43.715  29.426   2.854  1.00  0.00     0.293 HD
ENDBRANCH  15  22
TORSDOF 3
ENDMDL
