MODEL 1
REMARK VINA RESULT:    -3.994      0.000      0.000
REMARK INTER + INTRA:          -5.205
REMARK INTER:                  -4.928
REMARK INTRA:                  -0.277
REMARK UNBOUND:                -0.277
REMARK SMILES C=CCc1ccc(OC)c(OC)c1
REMARK SMILES IDX 7 1 10 2 13 3 4 4 5 5 6 6 8 7 9 8 11 9 12 10 3 11 2 12 1 13
REMARK H PARENT
REMARK Flexibility Score: inf
ROOT
ATOM      1  C   UNL     1       7.456 -29.875  16.221  1.00  0.00     0.160 A 
ATOM      2  C   UNL     1       8.785 -29.498  15.969  1.00  0.00     0.160 A 
ATOM      3  C   UNL     1       9.270 -29.496  14.646  1.00  0.00     0.054 A 
ATOM      4  C   UNL     1       8.438 -29.871  13.581  1.00  0.00    -0.040 A 
ATOM      5  C   UNL     1       7.109 -30.234  13.839  1.00  0.00     0.008 A 
ATOM      6  C   UNL     1       6.622 -30.241  15.147  1.00  0.00     0.051 A 
ENDROOT
BRANCH   1   7
ATOM      7  O   UNL     1       7.001 -29.868  17.549  1.00  0.00    -0.493 OA
ATOM      8  C   UNL     1       5.875 -29.129  18.012  1.00  0.00     0.278 C 
ENDBRANCH   1   7
BRANCH   2   9
ATOM      9  O   UNL     1       9.590 -29.132  17.059  1.00  0.00    -0.493 OA
ATOM     10  C   UNL     1      10.373 -27.944  17.121  1.00  0.00     0.278 C 
ENDBRANCH   2   9
BRANCH   4  11
ATOM     11  C   UNL     1       8.950 -29.837  12.165  1.00  0.00     0.062 C 
BRANCH  11  12
ATOM     12  C   UNL     1      10.375 -30.308  12.102  1.00  0.00    -0.030 C 
ATOM     13  C   UNL     1      10.683 -31.602  11.974  1.00  0.00     0.004 C 
ENDBRANCH  11  12
ENDBRANCH   4  11
TORSDOF 4
ENDMDL
MODEL 2
REMARK VINA RESULT:    -3.969      1.669      2.703
REMARK INTER + INTRA:          -5.174
REMARK INTER:                  -4.905
REMARK INTRA:                  -0.269
REMARK UNBOUND:                -0.277
REMARK SMILES C=CCc1ccc(OC)c(OC)c1
REMARK SMILES IDX 7 1 10 2 13 3 4 4 5 5 6 6 8 7 9 8 11 9 12 10 3 11 2 12 1 13
REMARK H PARENT
REMARK Flexibility Score: inf
ROOT
ATOM      1  C   UNL     1       8.554 -29.505  16.517  1.00  0.00     0.160 A 
ATOM      2  C   UNL     1       9.031 -29.520  15.197  1.00  0.00     0.160 A 
ATOM      3  C   UNL     1       8.175 -29.919  14.151  1.00  0.00     0.054 A 
ATOM      4  C   UNL     1       6.854 -30.306  14.419  1.00  0.00    -0.040 A 
ATOM      5  C   UNL     1       6.382 -30.277  15.739  1.00  0.00     0.008 A 
ATOM      6  C   UNL     1       7.224 -29.885  16.780  1.00  0.00     0.051 A 
ENDROOT
BRANCH   1   7
ATOM      7  O   UNL     1       9.430 -29.105  17.538  1.00  0.00    -0.493 OA
ATOM      8  C   UNL     1       9.028 -28.782  18.866  1.00  0.00     0.278 C 
ENDBRANCH   1   7
BRANCH   2   9
ATOM      9  O   UNL     1      10.359 -29.130  14.965  1.00  0.00    -0.493 OA
ATOM     10  C   UNL     1      11.006 -29.181  13.697  1.00  0.00     0.278 C 
ENDBRANCH   2   9
BRANCH   4  11
ATOM     11  C   UNL     1       5.931 -30.701  13.296  1.00  0.00     0.062 C 
BRANCH  11  12
ATOM     12  C   UNL     1       6.644 -31.577  12.305  1.00  0.00    -0.030 C 
ATOM     13  C   UNL     1       6.673 -32.907  12.436  1.00  0.00     0.004 C 
ENDBRANCH  11  12
ENDBRANCH   4  11
TORSDOF 4
ENDMDL
MODEL 3
REMARK VINA RESULT:    -3.931      2.236      4.559
REMARK INTER + INTRA:          -5.128
REMARK INTER:                  -4.897
REMARK INTRA:                  -0.230
REMARK UNBOUND:                -0.277
REMARK SMILES C=CCc1ccc(OC)c(OC)c1
REMARK SMILES IDX 7 1 10 2 13 3 4 4 5 5 6 6 8 7 9 8 11 9 12 10 3 11 2 12 1 13
REMARK H PARENT
REMARK Flexibility Score: inf
ROOT
ATOM      1  C   UNL     1       7.116 -30.311  14.123  1.00  0.00     0.160 A 
ATOM      2  C   UNL     1       8.327 -29.759  14.572  1.00  0.00     0.160 A 
ATOM      3  C   UNL     1       8.536 -29.568  15.952  1.00  0.00     0.054 A 
ATOM      4  C   UNL     1       7.544 -29.919  16.879  1.00  0.00    -0.040 A 
ATOM      5  C   UNL     1       6.344 -30.480  16.424  1.00  0.00     0.008 A 
ATOM      6  C   UNL     1       6.127 -30.672  15.059  1.00  0.00     0.051 A 
ENDROOT
BRANCH   1   7
ATOM      7  O   UNL     1       6.935 -30.489  12.742  1.00  0.00    -0.493 OA
ATOM      8  C   UNL     1       5.899 -31.274  12.159  1.00  0.00     0.278 C 
ENDBRANCH   1   7
BRANCH   2   9
ATOM      9  O   UNL     1       9.296 -29.416  13.615  1.00  0.00    -0.493 OA
ATOM     10  C   UNL     1      10.682 -29.247  13.896  1.00  0.00     0.278 C 
ENDBRANCH   2   9
BRANCH   4  11
ATOM     11  C   UNL     1       7.784 -29.743  18.356  1.00  0.00     0.062 C 
BRANCH  11  12
ATOM     12  C   UNL     1       8.935 -28.808  18.600  1.00  0.00    -0.030 C 
ATOM     13  C   UNL     1       9.650 -28.854  19.728  1.00  0.00     0.004 C 
ENDBRANCH  11  12
ENDBRANCH   4  11
TORSDOF 4
ENDMDL
MODEL 4
REMARK VINA RESULT:    -3.874      2.429      4.825
REMARK INTER + INTRA:          -5.057
REMARK INTER:                  -4.847
REMARK INTRA:                  -0.210
REMARK UNBOUND:                -0.277
REMARK SMILES C=CCc1ccc(OC)c(OC)c1
REMARK SMILES IDX 7 1 10 2 13 3 4 4 5 5 6 6 8 7 9 8 11 9 12 10 3 11 2 12 1 13
REMARK H PARENT
REMARK Flexibility Score: inf
ROOT
ATOM      1  C   UNL     1       9.662 -31.354  14.164  1.00  0.00     0.160 A 
ATOM      2  C   UNL     1       9.636 -29.975  14.427  1.00  0.00     0.160 A 
ATOM      3  C   UNL     1       8.816 -29.478  15.460  1.00  0.00     0.054 A 
ATOM      4  C   UNL     1       8.023 -30.348  16.222  1.00  0.00    -0.040 A 
ATOM      5  C   UNL     1       8.064 -31.724  15.960  1.00  0.00     0.008 A 
ATOM      6  C   UNL     1       8.871 -32.225  14.938  1.00  0.00     0.051 A 
ENDROOT
BRANCH   1   7
ATOM      7  O   UNL     1      10.487 -31.820  13.128  1.00  0.00    -0.493 OA
ATOM      8  C   UNL     1      11.444 -32.867  13.268  1.00  0.00     0.278 C 
ENDBRANCH   1   7
BRANCH   2   9
ATOM      9  O   UNL     1      10.441 -29.133  13.643  1.00  0.00    -0.493 OA
ATOM     10  C   UNL     1      11.676 -28.567  14.072  1.00  0.00     0.278 C 
ENDBRANCH   2   9
BRANCH   4  11
ATOM     11  C   UNL     1       7.172 -29.817  17.346  1.00  0.00     0.062 C 
BRANCH  11  12
ATOM     12  C   UNL     1       7.938 -29.818  18.639  1.00  0.00    -0.030 C 
ATOM     13  C   UNL     1       8.942 -28.965  18.861  1.00  0.00     0.004 C 
ENDBRANCH  11  12
ENDBRANCH   4  11
TORSDOF 4
ENDMDL
MODEL 5
REMARK VINA RESULT:    -3.855      1.719      2.734
REMARK INTER + INTRA:          -5.034
REMARK INTER:                  -4.709
REMARK INTRA:                  -0.324
REMARK UNBOUND:                -0.277
REMARK SMILES C=CCc1ccc(OC)c(OC)c1
REMARK SMILES IDX 7 1 10 2 13 3 4 4 5 5 6 6 8 7 9 8 11 9 12 10 3 11 2 12 1 13
REMARK H PARENT
REMARK Flexibility Score: inf
ROOT
ATOM      1  C   UNL     1       8.513 -29.931  16.861  1.00  0.00     0.160 A 
ATOM      2  C   UNL     1       7.951 -31.118  16.366  1.00  0.00     0.160 A 
ATOM      3  C   UNL     1       8.194 -31.501  15.032  1.00  0.00     0.054 A 
ATOM      4  C   UNL     1       8.988 -30.704  14.194  1.00  0.00    -0.040 A 
ATOM      5  C   UNL     1       9.555 -29.527  14.699  1.00  0.00     0.008 A 
ATOM      6  C   UNL     1       9.318 -29.139  16.018  1.00  0.00     0.051 A 
ENDROOT
BRANCH   1   7
ATOM      7  O   UNL     1       8.252 -29.574  18.193  1.00  0.00    -0.493 OA
ATOM      8  C   UNL     1       9.099 -28.748  18.987  1.00  0.00     0.278 C 
ENDBRANCH   1   7
BRANCH   2   9
ATOM      9  O   UNL     1       7.159 -31.890  17.231  1.00  0.00    -0.493 OA
ATOM     10  C   UNL     1       7.374 -33.271  17.505  1.00  0.00     0.278 C 
ENDBRANCH   2   9
BRANCH   4  11
ATOM     11  C   UNL     1       9.272 -31.133  12.778  1.00  0.00     0.062 C 
BRANCH  11  12
ATOM     12  C   UNL     1      10.730 -30.966  12.455  1.00  0.00    -0.030 C 
ATOM     13  C   UNL     1      11.624 -31.922  12.724  1.00  0.00     0.004 C 
ENDBRANCH  11  12
ENDBRANCH   4  11
TORSDOF 4
ENDMDL
MODEL 6
REMARK VINA RESULT:    -3.835      1.256      3.134
REMARK INTER + INTRA:          -5.008
REMARK INTER:                  -4.669
REMARK INTRA:                  -0.339
REMARK UNBOUND:                -0.277
REMARK SMILES C=CCc1ccc(OC)c(OC)c1
REMARK SMILES IDX 7 1 10 2 13 3 4 4 5 5 6 6 8 7 9 8 11 9 12 10 3 11 2 12 1 13
REMARK H PARENT
REMARK Flexibility Score: inf
ROOT
ATOM      1  C   UNL     1       8.754 -29.500  16.109  1.00  0.00     0.160 A 
ATOM      2  C   UNL     1       7.422 -29.879  16.342  1.00  0.00     0.160 A 
ATOM      3  C   UNL     1       6.604 -30.251  15.257  1.00  0.00     0.054 A 
ATOM      4  C   UNL     1       7.107 -30.242  13.948  1.00  0.00    -0.040 A 
ATOM      5  C   UNL     1       8.441 -29.874  13.726  1.00  0.00     0.008 A 
ATOM      6  C   UNL     1       9.258 -29.501  14.794  1.00  0.00     0.051 A 
ENDROOT
BRANCH   1   7
ATOM      7  O   UNL     1       9.545 -29.132  17.209  1.00  0.00    -0.493 OA
ATOM      8  C   UNL     1      10.375 -27.975  17.256  1.00  0.00     0.278 C 
ENDBRANCH   1   7
BRANCH   2   9
ATOM      9  O   UNL     1       6.951 -29.874  17.664  1.00  0.00    -0.493 OA
ATOM     10  C   UNL     1       5.875 -29.067  18.134  1.00  0.00     0.278 C 
ENDBRANCH   2   9
BRANCH   4  11
ATOM     11  C   UNL     1       6.240 -30.671  12.794  1.00  0.00     0.062 C 
BRANCH  11  12
ATOM     12  C   UNL     1       6.728 -31.970  12.215  1.00  0.00    -0.030 C 
ATOM     13  C   UNL     1       6.589 -33.127  12.869  1.00  0.00     0.004 C 
ENDBRANCH  11  12
ENDBRANCH   4  11
TORSDOF 4
ENDMDL
MODEL 7
REMARK VINA RESULT:    -3.744      1.217      2.686
REMARK INTER + INTRA:          -4.896
REMARK INTER:                  -4.592
REMARK INTRA:                  -0.304
REMARK UNBOUND:                -0.277
REMARK SMILES C=CCc1ccc(OC)c(OC)c1
REMARK SMILES IDX 7 1 10 2 13 3 4 4 5 5 6 6 8 7 9 8 11 9 12 10 3 11 2 12 1 13
REMARK H PARENT
REMARK Flexibility Score: inf
ROOT
ATOM      1  C   UNL     1       7.786 -29.941  16.480  1.00  0.00     0.160 A 
ATOM      2  C   UNL     1       7.278 -30.414  15.260  1.00  0.00     0.160 A 
ATOM      3  C   UNL     1       8.015 -30.220  14.076  1.00  0.00     0.054 A 
ATOM      4  C   UNL     1       9.250 -29.555  14.105  1.00  0.00    -0.040 A 
ATOM      5  C   UNL     1       9.756 -29.097  15.329  1.00  0.00     0.008 A 
ATOM      6  C   UNL     1       9.031 -29.282  16.506  1.00  0.00     0.051 A 
ENDROOT
BRANCH   1   7
ATOM      7  O   UNL     1       7.028 -30.147  17.644  1.00  0.00    -0.493 OA
ATOM      8  C   UNL     1       6.195 -29.162  18.249  1.00  0.00     0.278 C 
ENDBRANCH   1   7
BRANCH   2   9
ATOM      9  O   UNL     1       6.037 -31.072  15.267  1.00  0.00    -0.493 OA
ATOM     10  C   UNL     1       5.875 -32.487  15.295  1.00  0.00     0.278 C 
ENDBRANCH   2   9
BRANCH   4  11
ATOM     11  C   UNL     1      10.051 -29.378  12.842  1.00  0.00     0.062 C 
BRANCH  11  12
ATOM     12  C   UNL     1      10.468 -30.711  12.285  1.00  0.00    -0.030 C 
ATOM     13  C   UNL     1      11.209 -31.568  12.994  1.00  0.00     0.004 C 
ENDBRANCH  11  12
ENDBRANCH   4  11
TORSDOF 4
ENDMDL
MODEL 8
REMARK VINA RESULT:    -3.741      1.715      3.580
REMARK INTER + INTRA:          -4.893
REMARK INTER:                  -4.572
REMARK INTRA:                  -0.321
REMARK UNBOUND:                -0.277
REMARK SMILES C=CCc1ccc(OC)c(OC)c1
REMARK SMILES IDX 7 1 10 2 13 3 4 4 5 5 6 6 8 7 9 8 11 9 12 10 3 11 2 12 1 13
REMARK H PARENT
REMARK Flexibility Score: inf
ROOT
ATOM      1  C   UNL     1       9.672 -29.258  14.771  1.00  0.00     0.160 A 
ATOM      2  C   UNL     1       8.646 -29.528  15.689  1.00  0.00     0.160 A 
ATOM      3  C   UNL     1       7.407 -30.015  15.227  1.00  0.00     0.054 A 
ATOM      4  C   UNL     1       7.190 -30.227  13.858  1.00  0.00    -0.040 A 
ATOM      5  C   UNL     1       8.224 -29.967  12.949  1.00  0.00     0.008 A 
ATOM      6  C   UNL     1       9.453 -29.483  13.398  1.00  0.00     0.051 A 
ENDROOT
BRANCH   1   7
ATOM      7  O   UNL     1      10.895 -28.773  15.260  1.00  0.00    -0.493 OA
ATOM      8  C   UNL     1      11.998 -28.392  14.442  1.00  0.00     0.278 C 
ENDBRANCH   1   7
BRANCH   2   9
ATOM      9  O   UNL     1       8.897 -29.301  17.052  1.00  0.00    -0.493 OA
ATOM     10  C   UNL     1       7.959 -29.546  18.097  1.00  0.00     0.278 C 
ENDBRANCH   2   9
BRANCH   4  11
ATOM     11  C   UNL     1       5.876 -30.778  13.371  1.00  0.00     0.062 C 
BRANCH  11  12
ATOM     12  C   UNL     1       6.064 -32.133  12.749  1.00  0.00    -0.030 C 
ATOM     13  C   UNL     1       6.397 -33.202  13.479  1.00  0.00     0.004 C 
ENDBRANCH  11  12
ENDBRANCH   4  11
TORSDOF 4
ENDMDL
MODEL 9
REMARK VINA RESULT:    -3.737      2.098      2.883
REMARK INTER + INTRA:          -4.888
REMARK INTER:                  -4.567
REMARK INTRA:                  -0.321
REMARK UNBOUND:                -0.277
REMARK SMILES C=CCc1ccc(OC)c(OC)c1
REMARK SMILES IDX 7 1 10 2 13 3 4 4 5 5 6 6 8 7 9 8 11 9 12 10 3 11 2 12 1 13
REMARK H PARENT
REMARK Flexibility Score: inf
ROOT
ATOM      1  C   UNL     1       7.344 -31.943  16.175  1.00  0.00     0.160 A 
ATOM      2  C   UNL     1       7.086 -30.566  16.082  1.00  0.00     0.160 A 
ATOM      3  C   UNL     1       7.761 -29.795  15.115  1.00  0.00     0.054 A 
ATOM      4  C   UNL     1       8.690 -30.389  14.250  1.00  0.00    -0.040 A 
ATOM      5  C   UNL     1       8.933 -31.766  14.341  1.00  0.00     0.008 A 
ATOM      6  C   UNL     1       8.271 -32.537  15.297  1.00  0.00     0.051 A 
ENDROOT
BRANCH   1   7
ATOM      7  O   UNL     1       6.658 -32.686  17.149  1.00  0.00    -0.493 OA
ATOM      8  C   UNL     1       6.471 -34.098  17.103  1.00  0.00     0.278 C 
ENDBRANCH   1   7
BRANCH   2   9
ATOM      9  O   UNL     1       6.152 -30.004  16.966  1.00  0.00    -0.493 OA
ATOM     10  C   UNL     1       6.491 -29.280  18.145  1.00  0.00     0.278 C 
ENDBRANCH   2   9
BRANCH   4  11
ATOM     11  C   UNL     1       9.385 -29.567  13.196  1.00  0.00     0.062 C 
BRANCH  11  12
ATOM     12  C   UNL     1      10.874 -29.585  13.403  1.00  0.00    -0.030 C 
ATOM     13  C   UNL     1      11.483 -28.705  14.203  1.00  0.00     0.004 C 
ENDBRANCH  11  12
ENDBRANCH   4  11
TORSDOF 4
ENDMDL
