MODEL 1
REMARK VINA RESULT:    -4.706      0.000      0.000
REMARK INTER + INTRA:          -6.010
REMARK INTER:                  -5.807
REMARK INTRA:                  -0.203
REMARK UNBOUND:                -0.203
REMARK SMILES CCCCC=CC(C)=O
REMARK SMILES IDX 4 1 3 2 2 3 1 4 5 5 6 6 7 7 9 8 8 9
REMARK H PARENT
REMARK Flexibility Score: inf
ROOT
ATOM      1  C   UNL     1      -4.375  45.773  28.208  1.00  0.00     0.027 C 
ENDROOT
BRANCH   1   2
ATOM      2  C   UNL     1      -3.895  44.318  28.257  1.00  0.00     0.004 C 
BRANCH   2   3
ATOM      3  C   UNL     1      -3.837  43.679  26.862  1.00  0.00    -0.003 C 
ATOM      4  C   UNL     1      -3.872  42.157  26.952  1.00  0.00     0.004 C 
ENDBRANCH   2   3
ENDBRANCH   1   2
BRANCH   1   5
ATOM      5  C   UNL     1      -5.328  46.004  27.069  1.00  0.00    -0.023 C 
ATOM      6  C   UNL     1      -6.126  47.076  27.028  1.00  0.00     0.042 C 
BRANCH   6   7
ATOM      7  C   UNL     1      -7.093  47.296  25.937  1.00  0.00     0.152 C 
ATOM      8  O   UNL     1      -8.271  47.674  26.184  1.00  0.00    -0.295 OA
ATOM      9  C   UNL     1      -6.674  47.067  24.520  1.00  0.00     0.093 C 
ENDBRANCH   6   7
ENDBRANCH   1   5
TORSDOF 4
ENDMDL
MODEL 2
REMARK VINA RESULT:    -4.559     12.792     15.245
REMARK INTER + INTRA:          -5.828
REMARK INTER:                  -5.587
REMARK INTRA:                  -0.240
REMARK UNBOUND:                -0.203
REMARK SMILES CCCCC=CC(C)=O
REMARK SMILES IDX 4 1 3 2 2 3 1 4 5 5 6 6 7 7 9 8 8 9
REMARK H PARENT
REMARK Flexibility Score: inf
ROOT
ATOM      1  C   UNL     1      -8.530  33.439  21.169  1.00  0.00     0.027 C 
ENDROOT
BRANCH   1   2
ATOM      2  C   UNL     1      -7.837  34.591  21.907  1.00  0.00     0.004 C 
BRANCH   2   3
ATOM      3  C   UNL     1      -7.582  34.263  23.386  1.00  0.00    -0.003 C 
ATOM      4  C   UNL     1      -8.235  35.294  24.299  1.00  0.00     0.004 C 
ENDBRANCH   2   3
ENDBRANCH   1   2
BRANCH   1   5
ATOM      5  C   UNL     1      -7.960  32.107  21.564  1.00  0.00    -0.023 C 
ATOM      6  C   UNL     1      -8.735  31.026  21.707  1.00  0.00     0.042 C 
BRANCH   6   7
ATOM      7  C   UNL     1      -8.196  29.721  22.131  1.00  0.00     0.152 C 
ATOM      8  O   UNL     1      -8.778  28.648  21.814  1.00  0.00    -0.295 OA
ATOM      9  C   UNL     1      -6.946  29.668  22.950  1.00  0.00     0.093 C 
ENDBRANCH   6   7
ENDBRANCH   1   5
TORSDOF 4
ENDMDL
MODEL 3
REMARK VINA RESULT:    -4.422     11.525     13.060
REMARK INTER + INTRA:          -5.659
REMARK INTER:                  -5.399
REMARK INTRA:                  -0.260
REMARK UNBOUND:                -0.203
REMARK SMILES CCCCC=CC(C)=O
REMARK SMILES IDX 4 1 3 2 2 3 1 4 5 5 6 6 7 7 9 8 8 9
REMARK H PARENT
REMARK Flexibility Score: inf
ROOT
ATOM      1  C   UNL     1      -7.166  35.000  23.873  1.00  0.00     0.027 C 
ENDROOT
BRANCH   1   2
ATOM      2  C   UNL     1      -8.296  35.620  24.704  1.00  0.00     0.004 C 
BRANCH   2   3
ATOM      3  C   UNL     1      -8.235  35.191  26.178  1.00  0.00    -0.003 C 
ATOM      4  C   UNL     1      -7.924  33.703  26.305  1.00  0.00     0.004 C 
ENDBRANCH   2   3
ENDBRANCH   1   2
BRANCH   1   5
ATOM      5  C   UNL     1      -7.663  34.508  22.543  1.00  0.00    -0.023 C 
ATOM      6  C   UNL     1      -8.121  33.262  22.382  1.00  0.00     0.042 C 
BRANCH   6   7
ATOM      7  C   UNL     1      -8.576  32.753  21.075  1.00  0.00     0.152 C 
ATOM      8  O   UNL     1      -9.760  32.347  20.917  1.00  0.00    -0.295 OA
ATOM      9  C   UNL     1      -7.623  32.716  19.924  1.00  0.00     0.093 C 
ENDBRANCH   6   7
ENDBRANCH   1   5
TORSDOF 4
ENDMDL
MODEL 4
REMARK VINA RESULT:    -4.360     11.044     13.248
REMARK INTER + INTRA:          -5.582
REMARK INTER:                  -5.297
REMARK INTRA:                  -0.285
REMARK UNBOUND:                -0.203
REMARK SMILES CCCCC=CC(C)=O
REMARK SMILES IDX 4 1 3 2 2 3 1 4 5 5 6 6 7 7 9 8 8 9
REMARK H PARENT
REMARK Flexibility Score: inf
ROOT
ATOM      1  C   UNL     1      -7.877  34.419  21.615  1.00  0.00     0.027 C 
ENDROOT
BRANCH   1   2
ATOM      2  C   UNL     1      -8.704  33.144  21.403  1.00  0.00     0.004 C 
BRANCH   2   3
ATOM      3  C   UNL     1      -7.851  31.979  20.880  1.00  0.00    -0.003 C 
ATOM      4  C   UNL     1      -7.723  30.878  21.927  1.00  0.00     0.004 C 
ENDBRANCH   2   3
ENDBRANCH   1   2
BRANCH   1   5
ATOM      5  C   UNL     1      -7.593  34.658  23.070  1.00  0.00    -0.023 C 
ATOM      6  C   UNL     1      -8.283  34.035  24.032  1.00  0.00     0.042 C 
BRANCH   6   7
ATOM      7  C   UNL     1      -8.042  34.288  25.465  1.00  0.00     0.152 C 
ATOM      8  O   UNL     1      -7.656  33.362  26.229  1.00  0.00    -0.295 OA
ATOM      9  C   UNL     1      -8.259  35.659  26.019  1.00  0.00     0.093 C 
ENDBRANCH   6   7
ENDBRANCH   1   5
TORSDOF 4
ENDMDL
MODEL 5
REMARK VINA RESULT:    -4.356     12.712     15.066
REMARK INTER + INTRA:          -5.578
REMARK INTER:                  -5.337
REMARK INTRA:                  -0.240
REMARK UNBOUND:                -0.203
REMARK SMILES CCCCC=CC(C)=O
REMARK SMILES IDX 4 1 3 2 2 3 1 4 5 5 6 6 7 7 9 8 8 9
REMARK H PARENT
REMARK Flexibility Score: inf
ROOT
ATOM      1  C   UNL     1      -7.655  30.598  21.931  1.00  0.00     0.027 C 
ENDROOT
BRANCH   1   2
ATOM      2  C   UNL     1      -7.006  29.625  22.923  1.00  0.00     0.004 C 
BRANCH   2   3
ATOM      3  C   UNL     1      -7.906  28.418  23.225  1.00  0.00    -0.003 C 
ATOM      4  C   UNL     1      -8.734  28.030  22.004  1.00  0.00     0.004 C 
ENDBRANCH   2   3
ENDBRANCH   1   2
BRANCH   1   5
ATOM      5  C   UNL     1      -7.892  31.945  22.553  1.00  0.00    -0.023 C 
ATOM      6  C   UNL     1      -7.435  32.246  23.774  1.00  0.00     0.042 C 
BRANCH   6   7
ATOM      7  C   UNL     1      -7.692  33.549  24.413  1.00  0.00     0.152 C 
ATOM      8  O   UNL     1      -8.130  33.614  25.594  1.00  0.00    -0.295 OA
ATOM      9  C   UNL     1      -7.432  34.810  23.652  1.00  0.00     0.093 C 
ENDBRANCH   6   7
ENDBRANCH   1   5
TORSDOF 4
ENDMDL
MODEL 6
REMARK VINA RESULT:    -4.334     13.764     16.043
REMARK INTER + INTRA:          -5.551
REMARK INTER:                  -5.323
REMARK INTRA:                  -0.228
REMARK UNBOUND:                -0.203
REMARK SMILES CCCCC=CC(C)=O
REMARK SMILES IDX 4 1 3 2 2 3 1 4 5 5 6 6 7 7 9 8 8 9
REMARK H PARENT
REMARK Flexibility Score: inf
ROOT
ATOM      1  C   UNL     1      -7.377  29.311  22.731  1.00  0.00     0.027 C 
ENDROOT
BRANCH   1   2
ATOM      2  C   UNL     1      -8.259  28.066  22.580  1.00  0.00     0.004 C 
BRANCH   2   3
ATOM      3  C   UNL     1      -9.203  27.875  23.777  1.00  0.00    -0.003 C 
ATOM      4  C   UNL     1      -8.609  28.476  25.047  1.00  0.00     0.004 C 
ENDBRANCH   2   3
ENDBRANCH   1   2
BRANCH   1   5
ATOM      5  C   UNL     1      -7.920  30.473  21.948  1.00  0.00    -0.023 C 
ATOM      6  C   UNL     1      -7.929  31.714  22.446  1.00  0.00     0.042 C 
BRANCH   6   7
ATOM      7  C   UNL     1      -8.493  32.857  21.705  1.00  0.00     0.152 C 
ATOM      8  O   UNL     1      -9.473  32.701  20.926  1.00  0.00    -0.295 OA
ATOM      9  C   UNL     1      -7.896  34.217  21.878  1.00  0.00     0.093 C 
ENDBRANCH   6   7
ENDBRANCH   1   5
TORSDOF 4
ENDMDL
MODEL 7
REMARK VINA RESULT:    -4.308     11.384     13.778
REMARK INTER + INTRA:          -5.519
REMARK INTER:                  -5.251
REMARK INTRA:                  -0.268
REMARK UNBOUND:                -0.203
REMARK SMILES CCCCC=CC(C)=O
REMARK SMILES IDX 4 1 3 2 2 3 1 4 5 5 6 6 7 7 9 8 8 9
REMARK H PARENT
REMARK Flexibility Score: inf
ROOT
ATOM      1  C   UNL     1      -7.452  31.101  23.261  1.00  0.00     0.027 C 
ENDROOT
BRANCH   1   2
ATOM      2  C   UNL     1      -7.832  30.982  21.780  1.00  0.00     0.004 C 
BRANCH   2   3
ATOM      3  C   UNL     1      -8.379  32.300  21.213  1.00  0.00    -0.003 C 
ATOM      4  C   UNL     1      -7.545  32.777  20.028  1.00  0.00     0.004 C 
ENDBRANCH   2   3
ENDBRANCH   1   2
BRANCH   1   5
ATOM      5  C   UNL     1      -7.504  32.527  23.732  1.00  0.00    -0.023 C 
ATOM      6  C   UNL     1      -7.898  32.843  24.970  1.00  0.00     0.042 C 
BRANCH   6   7
ATOM      7  C   UNL     1      -7.992  34.239  25.435  1.00  0.00     0.152 C 
ATOM      8  O   UNL     1      -7.839  34.526  26.654  1.00  0.00    -0.295 OA
ATOM      9  C   UNL     1      -8.272  35.329  24.450  1.00  0.00     0.093 C 
ENDBRANCH   6   7
ENDBRANCH   1   5
TORSDOF 4
ENDMDL
MODEL 8
REMARK VINA RESULT:    -4.176     12.502     14.226
REMARK INTER + INTRA:          -5.355
REMARK INTER:                  -5.100
REMARK INTRA:                  -0.255
REMARK UNBOUND:                -0.203
REMARK SMILES CCCCC=CC(C)=O
REMARK SMILES IDX 4 1 3 2 2 3 1 4 5 5 6 6 7 7 9 8 8 9
REMARK H PARENT
REMARK Flexibility Score: inf
ROOT
ATOM      1  C   UNL     1      -7.701  34.615  23.289  1.00  0.00     0.027 C 
ENDROOT
BRANCH   1   2
ATOM      2  C   UNL     1      -7.785  34.651  21.758  1.00  0.00     0.004 C 
BRANCH   2   3
ATOM      3  C   UNL     1      -8.326  33.336  21.176  1.00  0.00    -0.003 C 
ATOM      4  C   UNL     1      -7.487  32.873  19.990  1.00  0.00     0.004 C 
ENDBRANCH   2   3
ENDBRANCH   1   2
BRANCH   1   5
ATOM      5  C   UNL     1      -7.450  33.224  23.797  1.00  0.00    -0.023 C 
ATOM      6  C   UNL     1      -8.099  32.737  24.861  1.00  0.00     0.042 C 
BRANCH   6   7
ATOM      7  C   UNL     1      -7.837  31.389  25.395  1.00  0.00     0.152 C 
ATOM      8  O   UNL     1      -7.626  31.211  26.625  1.00  0.00    -0.295 OA
ATOM      9  C   UNL     1      -7.819  30.217  24.466  1.00  0.00     0.093 C 
ENDBRANCH   6   7
ENDBRANCH   1   5
TORSDOF 4
ENDMDL
MODEL 9
REMARK VINA RESULT:    -4.119     11.571     14.126
REMARK INTER + INTRA:          -5.285
REMARK INTER:                  -5.048
REMARK INTRA:                  -0.237
REMARK UNBOUND:                -0.203
REMARK SMILES CCCCC=CC(C)=O
REMARK SMILES IDX 4 1 3 2 2 3 1 4 5 5 6 6 7 7 9 8 8 9
REMARK H PARENT
REMARK Flexibility Score: inf
ROOT
ATOM      1  C   UNL     1      -7.976  34.167  23.041  1.00  0.00     0.027 C 
ENDROOT
BRANCH   1   2
ATOM      2  C   UNL     1      -6.810  34.709  23.877  1.00  0.00     0.004 C 
BRANCH   2   3
ATOM      3  C   UNL     1      -7.285  35.344  25.192  1.00  0.00    -0.003 C 
ATOM      4  C   UNL     1      -8.633  36.035  25.014  1.00  0.00     0.004 C 
ENDBRANCH   2   3
ENDBRANCH   1   2
BRANCH   1   5
ATOM      5  C   UNL     1      -7.977  32.665  23.002  1.00  0.00    -0.023 C 
ATOM      6  C   UNL     1      -7.510  31.936  24.022  1.00  0.00     0.042 C 
BRANCH   6   7
ATOM      7  C   UNL     1      -7.469  30.463  23.983  1.00  0.00     0.152 C 
ATOM      8  O   UNL     1      -7.790  29.780  24.995  1.00  0.00    -0.295 OA
ATOM      9  C   UNL     1      -7.041  29.768  22.730  1.00  0.00     0.093 C 
ENDBRANCH   6   7
ENDBRANCH   1   5
TORSDOF 4
ENDMDL
