MODEL 1
REMARK VINA RESULT:    -4.960      0.000      0.000
REMARK INTER + INTRA:          -5.737
REMARK INTER:                  -5.684
REMARK INTRA:                  -0.053
REMARK UNBOUND:                -0.053
REMARK SMILES O=C([O-])c1cc(O)c(O)c(O)c1
REMARK SMILES IDX 4 1 5 2 12 3 6 4 10 5 8 6 2 7 1 8 3 9 7 10 11 12 9 14
REMARK H PARENT 7 11 11 13 9 15
REMARK Flexibility Score: inf
ROOT
ATOM      1  C   UNL     1       2.362  23.726  44.464  1.00  0.00     0.005 A 
ATOM      2  C   UNL     1       1.674  22.509  44.334  1.00  0.00     0.060 A 
ATOM      3  C   UNL     1       3.218  24.137  43.430  1.00  0.00     0.060 A 
ATOM      4  C   UNL     1       1.830  21.710  43.196  1.00  0.00     0.162 A 
ATOM      5  C   UNL     1       3.384  23.347  42.286  1.00  0.00     0.162 A 
ATOM      6  C   UNL     1       2.695  22.132  42.159  1.00  0.00     0.200 A 
ENDROOT
BRANCH   1   7
ATOM      7  C   UNL     1       2.186  24.559  45.674  1.00  0.00     0.072 C 
ATOM      8  O   UNL     1       2.738  25.689  45.761  1.00  0.00    -0.545 OA
ATOM      9  O   UNL     1       1.407  24.108  46.734  1.00  0.00    -0.545 OA
ENDBRANCH   1   7
BRANCH   4  10
ATOM     10  O   UNL     1       1.112  20.512  43.139  1.00  0.00    -0.504 OA
ATOM     11  H   UNL     1       0.527  20.241  42.363  1.00  0.00     0.293 HD
ENDBRANCH   4  10
BRANCH   5  12
ATOM     12  O   UNL     1       4.236  23.763  41.264  1.00  0.00    -0.504 OA
ATOM     13  H   UNL     1       5.000  24.406  41.439  1.00  0.00     0.293 HD
ENDBRANCH   5  12
BRANCH   6  14
ATOM     14  O   UNL     1       2.896  21.382  40.997  1.00  0.00    -0.502 OA
ATOM     15  H   UNL     1       2.370  20.554  40.759  1.00  0.00     0.293 HD
ENDBRANCH   6  14
TORSDOF 4
ENDMDL
MODEL 2
REMARK VINA RESULT:    -4.928      0.342      2.458
REMARK INTER + INTRA:          -5.701
REMARK INTER:                  -5.649
REMARK INTRA:                  -0.053
REMARK UNBOUND:                -0.053
REMARK SMILES O=C([O-])c1cc(O)c(O)c(O)c1
REMARK SMILES IDX 4 1 5 2 12 3 6 4 10 5 8 6 2 7 1 8 3 9 7 10 11 12 9 14
REMARK H PARENT 7 11 11 13 9 15
REMARK Flexibility Score: inf
ROOT
ATOM      1  C   UNL     1       2.276  23.797  44.773  1.00  0.00     0.005 A 
ATOM      2  C   UNL     1       3.189  24.212  43.792  1.00  0.00     0.060 A 
ATOM      3  C   UNL     1       1.585  22.588  44.594  1.00  0.00     0.060 A 
ATOM      4  C   UNL     1       3.418  23.439  42.647  1.00  0.00     0.162 A 
ATOM      5  C   UNL     1       1.805  21.805  43.454  1.00  0.00     0.162 A 
ATOM      6  C   UNL     1       2.718  22.221  42.474  1.00  0.00     0.200 A 
ENDROOT
BRANCH   1   7
ATOM      7  C   UNL     1       2.045  24.626  45.978  1.00  0.00     0.072 C 
ATOM      8  O   UNL     1       2.567  25.768  46.079  1.00  0.00    -0.545 OA
ATOM      9  O   UNL     1       1.247  24.155  47.015  1.00  0.00    -0.545 OA
ENDBRANCH   1   7
BRANCH   4  10
ATOM     10  O   UNL     1       4.342  23.916  41.714  1.00  0.00    -0.504 OA
ATOM     11  H   UNL     1       4.904  24.744  41.848  1.00  0.00     0.293 HD
ENDBRANCH   4  10
BRANCH   5  12
ATOM     12  O   UNL     1       1.115  20.606  43.284  1.00  0.00    -0.504 OA
ATOM     13  H   UNL     1       0.883  20.252  42.363  1.00  0.00     0.293 HD
ENDBRANCH   5  12
BRANCH   6  14
ATOM     14  O   UNL     1       2.899  21.403  41.357  1.00  0.00    -0.502 OA
ATOM     15  H   UNL     1       2.206  21.268  40.634  1.00  0.00     0.293 HD
ENDBRANCH   6  14
TORSDOF 4
ENDMDL
MODEL 3
REMARK VINA RESULT:    -4.512      5.771      8.611
REMARK INTER + INTRA:          -5.224
REMARK INTER:                  -5.172
REMARK INTRA:                  -0.052
REMARK UNBOUND:                -0.053
REMARK SMILES O=C([O-])c1cc(O)c(O)c(O)c1
REMARK SMILES IDX 4 1 5 2 12 3 6 4 10 5 8 6 2 7 1 8 3 9 7 10 11 12 9 14
REMARK H PARENT 7 11 11 13 9 15
REMARK Flexibility Score: inf
ROOT
ATOM      1  C   UNL     1       1.584  23.815  50.282  1.00  0.00     0.005 A 
ATOM      2  C   UNL     1       2.279  22.610  50.464  1.00  0.00     0.060 A 
ATOM      3  C   UNL     1       0.864  24.356  51.359  1.00  0.00     0.060 A 
ATOM      4  C   UNL     1       2.265  21.948  51.698  1.00  0.00     0.162 A 
ATOM      5  C   UNL     1       0.841  23.704  52.599  1.00  0.00     0.162 A 
ATOM      6  C   UNL     1       1.537  22.500  52.778  1.00  0.00     0.200 A 
ENDROOT
BRANCH   1   7
ATOM      7  C   UNL     1       1.609  24.503  48.971  1.00  0.00     0.072 C 
ATOM      8  O   UNL     1       1.919  23.874  47.924  1.00  0.00    -0.545 OA
ATOM      9  O   UNL     1       1.289  25.852  48.877  1.00  0.00    -0.545 OA
ENDBRANCH   1   7
BRANCH   4  10
ATOM     10  O   UNL     1       2.981  20.753  51.803  1.00  0.00    -0.504 OA
ATOM     11  H   UNL     1       2.884  19.978  51.163  1.00  0.00     0.293 HD
ENDBRANCH   4  10
BRANCH   5  12
ATOM     12  O   UNL     1       0.124  24.248  53.664  1.00  0.00    -0.504 OA
ATOM     13  H   UNL     1       0.204  23.876  54.603  1.00  0.00     0.293 HD
ENDBRANCH   5  12
BRANCH   6  14
ATOM     14  O   UNL     1       1.481  21.891  54.034  1.00  0.00    -0.502 OA
ATOM     15  H   UNL     1       1.920  21.009  54.257  1.00  0.00     0.293 HD
ENDBRANCH   6  14
TORSDOF 4
ENDMDL
MODEL 4
REMARK VINA RESULT:    -4.507      5.743      8.563
REMARK INTER + INTRA:          -5.218
REMARK INTER:                  -5.166
REMARK INTRA:                  -0.052
REMARK UNBOUND:                -0.053
REMARK SMILES O=C([O-])c1cc(O)c(O)c(O)c1
REMARK SMILES IDX 4 1 5 2 12 3 6 4 10 5 8 6 2 7 1 8 3 9 7 10 11 12 9 14
REMARK H PARENT 7 11 11 13 9 15
REMARK Flexibility Score: inf
ROOT
ATOM      1  C   UNL     1       1.605  23.778  50.241  1.00  0.00     0.005 A 
ATOM      2  C   UNL     1       0.882  24.319  51.316  1.00  0.00     0.060 A 
ATOM      3  C   UNL     1       2.317  22.584  50.432  1.00  0.00     0.060 A 
ATOM      4  C   UNL     1       0.862  23.684  52.564  1.00  0.00     0.162 A 
ATOM      5  C   UNL     1       2.306  21.939  51.675  1.00  0.00     0.162 A 
ATOM      6  C   UNL     1       1.583  22.481  52.747  1.00  0.00     0.200 A 
ENDROOT
BRANCH   1   7
ATOM      7  C   UNL     1       1.616  24.462  48.928  1.00  0.00     0.072 C 
ATOM      8  O   UNL     1       1.951  23.840  47.885  1.00  0.00    -0.545 OA
ATOM      9  O   UNL     1       1.254  25.801  48.828  1.00  0.00    -0.545 OA
ENDBRANCH   1   7
BRANCH   4  10
ATOM     10  O   UNL     1       0.120  24.282  53.585  1.00  0.00    -0.504 OA
ATOM     11  H   UNL     1       0.409  25.111  54.083  1.00  0.00     0.293 HD
ENDBRANCH   4  10
BRANCH   5  12
ATOM     12  O   UNL     1       3.016  20.753  51.855  1.00  0.00    -0.504 OA
ATOM     13  H   UNL     1       4.001  20.754  52.095  1.00  0.00     0.293 HD
ENDBRANCH   5  12
BRANCH   6  14
ATOM     14  O   UNL     1       1.605  21.797  53.965  1.00  0.00    -0.502 OA
ATOM     15  H   UNL     1       2.113  20.938  54.124  1.00  0.00     0.293 HD
ENDBRANCH   6  14
TORSDOF 4
ENDMDL
MODEL 5
REMARK VINA RESULT:    -4.441     14.134     15.126
REMARK INTER + INTRA:          -5.143
REMARK INTER:                  -5.090
REMARK INTRA:                  -0.053
REMARK UNBOUND:                -0.053
REMARK SMILES O=C([O-])c1cc(O)c(O)c(O)c1
REMARK SMILES IDX 4 1 5 2 12 3 6 4 10 5 8 6 2 7 1 8 3 9 7 10 11 12 9 14
REMARK H PARENT 7 11 11 13 9 15
REMARK Flexibility Score: inf
ROOT
ATOM      1  C   UNL     1       4.755  20.427  58.163  1.00  0.00     0.005 A 
ATOM      2  C   UNL     1       5.407  19.262  58.596  1.00  0.00     0.060 A 
ATOM      3  C   UNL     1       5.457  21.345  57.367  1.00  0.00     0.060 A 
ATOM      4  C   UNL     1       6.737  19.007  58.243  1.00  0.00     0.162 A 
ATOM      5  C   UNL     1       6.789  21.103  57.007  1.00  0.00     0.162 A 
ATOM      6  C   UNL     1       7.438  19.938  57.441  1.00  0.00     0.200 A 
ENDROOT
BRANCH   1   7
ATOM      7  C   UNL     1       3.347  20.682  58.544  1.00  0.00     0.072 C 
ATOM      8  O   UNL     1       2.784  19.979  59.425  1.00  0.00    -0.545 OA
ATOM      9  O   UNL     1       2.626  21.704  57.936  1.00  0.00    -0.545 OA
ENDBRANCH   1   7
BRANCH   4  10
ATOM     10  O   UNL     1       7.319  17.826  58.711  1.00  0.00    -0.504 OA
ATOM     11  H   UNL     1       8.245  17.771  59.109  1.00  0.00     0.293 HD
ENDBRANCH   4  10
BRANCH   5  12
ATOM     12  O   UNL     1       7.480  22.020  56.216  1.00  0.00    -0.504 OA
ATOM     13  H   UNL     1       7.456  21.973  55.204  1.00  0.00     0.293 HD
ENDBRANCH   5  12
BRANCH   6  14
ATOM     14  O   UNL     1       8.767  19.744  57.054  1.00  0.00    -0.502 OA
ATOM     15  H   UNL     1       9.457  19.266  57.616  1.00  0.00     0.293 HD
ENDBRANCH   6  14
TORSDOF 4
ENDMDL
MODEL 6
REMARK VINA RESULT:    -4.390      7.123      8.983
REMARK INTER + INTRA:          -5.084
REMARK INTER:                  -5.034
REMARK INTRA:                  -0.050
REMARK UNBOUND:                -0.053
REMARK SMILES O=C([O-])c1cc(O)c(O)c(O)c1
REMARK SMILES IDX 4 1 5 2 12 3 6 4 10 5 8 6 2 7 1 8 3 9 7 10 11 12 9 14
REMARK H PARENT 7 11 11 13 9 15
REMARK Flexibility Score: inf
ROOT
ATOM      1  C   UNL     1       4.159  23.186  51.715  1.00  0.00     0.005 A 
ATOM      2  C   UNL     1       3.343  23.623  50.659  1.00  0.00     0.060 A 
ATOM      3  C   UNL     1       3.562  22.572  52.827  1.00  0.00     0.060 A 
ATOM      4  C   UNL     1       1.954  23.453  50.703  1.00  0.00     0.162 A 
ATOM      5  C   UNL     1       2.174  22.395  52.884  1.00  0.00     0.162 A 
ATOM      6  C   UNL     1       1.361  22.833  51.827  1.00  0.00     0.200 A 
ENDROOT
BRANCH   1   7
ATOM      7  C   UNL     1       5.626  23.373  51.653  1.00  0.00     0.072 C 
ATOM      8  O   UNL     1       6.234  23.311  50.552  1.00  0.00    -0.545 OA
ATOM      9  O   UNL     1       6.353  23.623  52.812  1.00  0.00    -0.545 OA
ENDBRANCH   1   7
BRANCH   4  10
ATOM     10  O   UNL     1       1.209  23.913  49.614  1.00  0.00    -0.504 OA
ATOM     11  H   UNL     1       0.200  23.905  49.576  1.00  0.00     0.293 HD
ENDBRANCH   4  10
BRANCH   5  12
ATOM     12  O   UNL     1       1.589  21.785  53.992  1.00  0.00    -0.504 OA
ATOM     13  H   UNL     1       0.970  22.293  54.614  1.00  0.00     0.293 HD
ENDBRANCH   5  12
BRANCH   6  14
ATOM     14  O   UNL     1      -0.017  22.633  51.934  1.00  0.00    -0.502 OA
ATOM     15  H   UNL     1      -0.441  21.835  52.387  1.00  0.00     0.293 HD
ENDBRANCH   6  14
TORSDOF 4
ENDMDL
MODEL 7
REMARK VINA RESULT:    -4.369     14.258     15.495
REMARK INTER + INTRA:          -5.060
REMARK INTER:                  -5.015
REMARK INTRA:                  -0.045
REMARK UNBOUND:                -0.053
REMARK SMILES O=C([O-])c1cc(O)c(O)c(O)c1
REMARK SMILES IDX 4 1 5 2 12 3 6 4 10 5 8 6 2 7 1 8 3 9 7 10 11 12 9 14
REMARK H PARENT 7 11 11 13 9 15
REMARK Flexibility Score: inf
ROOT
ATOM      1  C   UNL     1       4.993  20.369  58.559  1.00  0.00     0.005 A 
ATOM      2  C   UNL     1       5.582  21.325  57.717  1.00  0.00     0.060 A 
ATOM      3  C   UNL     1       5.677  19.169  58.811  1.00  0.00     0.060 A 
ATOM      4  C   UNL     1       6.834  21.098  57.133  1.00  0.00     0.162 A 
ATOM      5  C   UNL     1       6.930  18.930  58.233  1.00  0.00     0.162 A 
ATOM      6  C   UNL     1       7.517  19.887  57.393  1.00  0.00     0.200 A 
ENDROOT
BRANCH   1   7
ATOM      7  C   UNL     1       3.668  20.623  59.169  1.00  0.00     0.072 C 
ATOM      8  O   UNL     1       3.579  21.082  60.339  1.00  0.00    -0.545 OA
ATOM      9  O   UNL     1       2.503  20.360  58.458  1.00  0.00    -0.545 OA
ENDBRANCH   1   7
BRANCH   4  10
ATOM     10  O   UNL     1       7.356  22.097  56.307  1.00  0.00    -0.504 OA
ATOM     11  H   UNL     1       8.107  22.717  56.575  1.00  0.00     0.293 HD
ENDBRANCH   4  10
BRANCH   5  12
ATOM     12  O   UNL     1       7.603  17.736  58.488  1.00  0.00    -0.504 OA
ATOM     13  H   UNL     1       7.132  16.840  58.442  1.00  0.00     0.293 HD
ENDBRANCH   5  12
BRANCH   6  14
ATOM     14  O   UNL     1       8.768  19.598  56.842  1.00  0.00    -0.502 OA
ATOM     15  H   UNL     1       8.928  18.888  56.141  1.00  0.00     0.293 HD
ENDBRANCH   6  14
TORSDOF 4
ENDMDL
MODEL 8
REMARK VINA RESULT:    -4.319      7.252      8.909
REMARK INTER + INTRA:          -5.003
REMARK INTER:                  -4.953
REMARK INTRA:                  -0.050
REMARK UNBOUND:                -0.053
REMARK SMILES O=C([O-])c1cc(O)c(O)c(O)c1
REMARK SMILES IDX 4 1 5 2 12 3 6 4 10 5 8 6 2 7 1 8 3 9 7 10 11 12 9 14
REMARK H PARENT 7 11 11 13 9 15
REMARK Flexibility Score: inf
ROOT
ATOM      1  C   UNL     1       4.151  23.204  51.877  1.00  0.00     0.005 A 
ATOM      2  C   UNL     1       3.539  22.571  52.970  1.00  0.00     0.060 A 
ATOM      3  C   UNL     1       3.353  23.636  50.806  1.00  0.00     0.060 A 
ATOM      4  C   UNL     1       2.155  22.369  53.004  1.00  0.00     0.162 A 
ATOM      5  C   UNL     1       1.967  23.439  50.826  1.00  0.00     0.162 A 
ATOM      6  C   UNL     1       1.358  22.807  51.920  1.00  0.00     0.200 A 
ENDROOT
BRANCH   1   7
ATOM      7  C   UNL     1       5.617  23.411  51.856  1.00  0.00     0.072 C 
ATOM      8  O   UNL     1       6.249  23.623  52.925  1.00  0.00    -0.545 OA
ATOM      9  O   UNL     1       6.317  23.372  50.656  1.00  0.00    -0.545 OA
ENDBRANCH   1   7
BRANCH   4  10
ATOM     10  O   UNL     1       1.618  21.732  54.126  1.00  0.00    -0.504 OA
ATOM     11  H   UNL     1       1.690  22.089  55.067  1.00  0.00     0.293 HD
ENDBRANCH   4  10
BRANCH   5  12
ATOM     12  O   UNL     1       1.181  23.870  49.758  1.00  0.00    -0.504 OA
ATOM     13  H   UNL     1       0.882  23.234  49.028  1.00  0.00     0.293 HD
ENDBRANCH   5  12
BRANCH   6  14
ATOM     14  O   UNL     1      -0.028  22.636  51.890  1.00  0.00    -0.502 OA
ATOM     15  H   UNL     1      -0.692  23.396  51.841  1.00  0.00     0.293 HD
ENDBRANCH   6  14
TORSDOF 4
ENDMDL
MODEL 9
REMARK VINA RESULT:    -4.236     12.844     14.904
REMARK INTER + INTRA:          -4.908
REMARK INTER:                  -4.856
REMARK INTRA:                  -0.053
REMARK UNBOUND:                -0.053
REMARK SMILES O=C([O-])c1cc(O)c(O)c(O)c1
REMARK SMILES IDX 4 1 5 2 12 3 6 4 10 5 8 6 2 7 1 8 3 9 7 10 11 12 9 14
REMARK H PARENT 7 11 11 13 9 15
REMARK Flexibility Score: inf
ROOT
ATOM      1  C   UNL     1       5.389  21.174  56.893  1.00  0.00     0.005 A 
ATOM      2  C   UNL     1       6.759  20.936  56.703  1.00  0.00     0.060 A 
ATOM      3  C   UNL     1       4.664  20.332  57.751  1.00  0.00     0.060 A 
ATOM      4  C   UNL     1       7.404  19.878  57.354  1.00  0.00     0.162 A 
ATOM      5  C   UNL     1       5.297  19.270  58.409  1.00  0.00     0.162 A 
ATOM      6  C   UNL     1       6.666  19.034  58.217  1.00  0.00     0.200 A 
ENDROOT
BRANCH   1   7
ATOM      7  C   UNL     1       4.721  22.297  56.196  1.00  0.00     0.072 C 
ATOM      8  O   UNL     1       3.553  22.644  56.514  1.00  0.00    -0.545 OA
ATOM      9  O   UNL     1       5.376  22.985  55.181  1.00  0.00    -0.545 OA
ENDBRANCH   1   7
BRANCH   4  10
ATOM     10  O   UNL     1       8.770  19.704  57.115  1.00  0.00    -0.504 OA
ATOM     11  H   UNL     1       9.354  20.384  56.652  1.00  0.00     0.293 HD
ENDBRANCH   4  10
BRANCH   5  12
ATOM     12  O   UNL     1       4.570  18.439  59.259  1.00  0.00    -0.504 OA
ATOM     13  H   UNL     1       3.931  17.739  58.900  1.00  0.00     0.293 HD
ENDBRANCH   5  12
BRANCH   6  14
ATOM     14  O   UNL     1       7.249  17.962  58.898  1.00  0.00    -0.502 OA
ATOM     15  H   UNL     1       6.848  17.036  58.945  1.00  0.00     0.293 HD
ENDBRANCH   6  14
TORSDOF 4
ENDMDL
