MODEL 1
REMARK VINA RESULT:    -5.393      0.000      0.000
REMARK INTER + INTRA:         -13.250
REMARK INTER:                 -11.699
REMARK INTRA:                  -1.551
REMARK UNBOUND:                -1.551
REMARK SMILES CCCCCCCCCCCCCCCCCCCCCC(=O)[O-]
REMARK SMILES IDX 12 1 11 2 10 3 9 4 8 5 7 6 6 7 5 8 4 9 3 10 2 11 1 12 13 13
REMARK SMILES IDX 14 14 15 15 16 16 17 17 18 18 19 19 20 20 21 21 22 22 23 23
REMARK SMILES IDX 24 24
REMARK H PARENT
REMARK Flexibility Score: inf
ROOT
ATOM      1  C   UNL     1     -10.620   6.927 -10.765  1.00  0.00     0.000 C 
ENDROOT
BRANCH   1   2
ATOM      2  C   UNL     1      -9.742   8.096 -11.245  1.00  0.00     0.000 C 
BRANCH   2   3
ATOM      3  C   UNL     1      -8.937   8.807 -10.138  1.00  0.00     0.000 C 
BRANCH   3   4
ATOM      4  C   UNL     1      -8.131   7.875  -9.217  1.00  0.00    -0.000 C 
BRANCH   4   5
ATOM      5  C   UNL     1      -6.615   7.977  -9.444  1.00  0.00    -0.000 C 
BRANCH   5   6
ATOM      6  C   UNL     1      -6.243   7.540 -10.869  1.00  0.00    -0.000 C 
BRANCH   6   7
ATOM      7  C   UNL     1      -4.747   7.203 -11.006  1.00  0.00    -0.000 C 
BRANCH   7   8
ATOM      8  C   UNL     1      -4.092   7.794 -12.275  1.00  0.00    -0.000 C 
BRANCH   8   9
ATOM      9  C   UNL     1      -2.573   8.009 -12.142  1.00  0.00    -0.000 C 
BRANCH   9  10
ATOM     10  C   UNL     1      -1.865   8.445 -13.439  1.00  0.00    -0.000 C 
BRANCH  10  11
ATOM     11  C   UNL     1      -2.588   9.552 -14.229  1.00  0.00    -0.003 C 
ATOM     12  C   UNL     1      -2.629   9.282 -15.732  1.00  0.00     0.004 C 
ENDBRANCH  10  11
ENDBRANCH   9  10
ENDBRANCH   8   9
ENDBRANCH   7   8
ENDBRANCH   6   7
ENDBRANCH   5   6
ENDBRANCH   4   5
ENDBRANCH   3   4
ENDBRANCH   2   3
ENDBRANCH   1   2
BRANCH   1  13
ATOM     13  C   UNL     1     -11.832   6.680 -11.676  1.00  0.00     0.000 C 
BRANCH  13  14
ATOM     14  C   UNL     1     -13.071   6.306 -10.848  1.00  0.00     0.000 C 
BRANCH  14  15
ATOM     15  C   UNL     1     -12.798   5.178  -9.839  1.00  0.00     0.000 C 
BRANCH  15  16
ATOM     16  C   UNL     1     -12.784   3.754 -10.433  1.00  0.00     0.000 C 
BRANCH  16  17
ATOM     17  C   UNL     1     -13.121   2.622  -9.445  1.00  0.00     0.000 C 
BRANCH  17  18
ATOM     18  C   UNL     1     -12.118   2.522  -8.285  1.00  0.00     0.000 C 
BRANCH  18  19
ATOM     19  C   UNL     1     -11.261   1.244  -8.341  1.00  0.00     0.000 C 
BRANCH  19  20
ATOM     20  C   UNL     1      -9.743   1.473  -8.481  1.00  0.00     0.006 C 
BRANCH  20  21
ATOM     21  C   UNL     1      -9.328   2.949  -8.594  1.00  0.00     0.053 C 
BRANCH  21  22
ATOM     22  C   UNL     1      -8.988   3.328 -10.003  1.00  0.00     0.041 C 
ATOM     23  O   UNL     1      -9.492   2.696 -10.968  1.00  0.00    -0.550 OA
ATOM     24  O   UNL     1      -8.133   4.394 -10.250  1.00  0.00    -0.550 OA
ENDBRANCH  21  22
ENDBRANCH  20  21
ENDBRANCH  19  20
ENDBRANCH  18  19
ENDBRANCH  17  18
ENDBRANCH  16  17
ENDBRANCH  15  16
ENDBRANCH  14  15
ENDBRANCH  13  14
ENDBRANCH   1  13
TORSDOF 20
ENDMDL
MODEL 2
REMARK VINA RESULT:    -5.211      1.590      3.199
REMARK INTER + INTRA:         -12.855
REMARK INTER:                  -9.889
REMARK INTRA:                  -2.966
REMARK UNBOUND:                -1.551
REMARK SMILES CCCCCCCCCCCCCCCCCCCCCC(=O)[O-]
REMARK SMILES IDX 12 1 11 2 10 3 9 4 8 5 7 6 6 7 5 8 4 9 3 10 2 11 1 12 13 13
REMARK SMILES IDX 14 14 15 15 16 16 17 17 18 18 19 19 20 20 21 21 22 22 23 23
REMARK SMILES IDX 24 24
REMARK H PARENT
REMARK Flexibility Score: inf
ROOT
ATOM      1  C   UNL     1     -12.972   5.591 -10.150  1.00  0.00     0.000 C 
ENDROOT
BRANCH   1   2
ATOM      2  C   UNL     1     -12.278   6.329 -11.309  1.00  0.00     0.000 C 
BRANCH   2   3
ATOM      3  C   UNL     1     -10.880   6.893 -10.980  1.00  0.00     0.000 C 
BRANCH   3   4
ATOM      4  C   UNL     1     -10.179   7.615 -12.144  1.00  0.00    -0.000 C 
BRANCH   4   5
ATOM      5  C   UNL     1      -9.011   8.499 -11.681  1.00  0.00    -0.000 C 
BRANCH   5   6
ATOM      6  C   UNL     1      -8.943   8.558 -10.147  1.00  0.00    -0.000 C 
BRANCH   6   7
ATOM      7  C   UNL     1      -7.592   8.061  -9.602  1.00  0.00    -0.000 C 
BRANCH   7   8
ATOM      8  C   UNL     1      -6.371   8.617 -10.369  1.00  0.00    -0.000 C 
BRANCH   8   9
ATOM      9  C   UNL     1      -5.267   7.571 -10.612  1.00  0.00    -0.000 C 
BRANCH   9  10
ATOM     10  C   UNL     1      -4.653   7.595 -12.025  1.00  0.00    -0.000 C 
BRANCH  10  11
ATOM     11  C   UNL     1      -3.143   7.896 -12.069  1.00  0.00    -0.003 C 
ATOM     12  C   UNL     1      -2.686   8.456 -13.415  1.00  0.00     0.004 C 
ENDBRANCH  10  11
ENDBRANCH   9  10
ENDBRANCH   8   9
ENDBRANCH   7   8
ENDBRANCH   6   7
ENDBRANCH   5   6
ENDBRANCH   4   5
ENDBRANCH   3   4
ENDBRANCH   2   3
ENDBRANCH   1   2
BRANCH   1  13
ATOM     13  C   UNL     1     -11.993   5.152  -9.051  1.00  0.00     0.000 C 
BRANCH  13  14
ATOM     14  C   UNL     1     -12.086   3.638  -8.807  1.00  0.00     0.000 C 
BRANCH  14  15
ATOM     15  C   UNL     1     -13.124   2.950  -9.711  1.00  0.00     0.000 C 
BRANCH  15  16
ATOM     16  C   UNL     1     -12.555   1.878 -10.664  1.00  0.00     0.000 C 
BRANCH  16  17
ATOM     17  C   UNL     1     -12.414   2.311 -12.135  1.00  0.00     0.000 C 
BRANCH  17  18
ATOM     18  C   UNL     1     -11.143   3.134 -12.398  1.00  0.00     0.000 C 
BRANCH  18  19
ATOM     19  C   UNL     1      -9.933   2.647 -11.580  1.00  0.00     0.000 C 
BRANCH  19  20
ATOM     20  C   UNL     1      -9.078   3.759 -10.940  1.00  0.00     0.006 C 
BRANCH  20  21
ATOM     21  C   UNL     1      -8.055   4.404 -11.888  1.00  0.00     0.053 C 
BRANCH  21  22
ATOM     22  C   UNL     1      -6.767   3.641 -11.926  1.00  0.00     0.041 C 
ATOM     23  O   UNL     1      -5.697   4.186 -11.544  1.00  0.00    -0.550 OA
ATOM     24  O   UNL     1      -6.750   2.323 -12.362  1.00  0.00    -0.550 OA
ENDBRANCH  21  22
ENDBRANCH  20  21
ENDBRANCH  19  20
ENDBRANCH  18  19
ENDBRANCH  17  18
ENDBRANCH  16  17
ENDBRANCH  15  16
ENDBRANCH  14  15
ENDBRANCH  13  14
ENDBRANCH   1  13
TORSDOF 20
ENDMDL
MODEL 3
REMARK VINA RESULT:    -5.197      2.235      3.316
REMARK INTER + INTRA:         -12.825
REMARK INTER:                 -10.456
REMARK INTRA:                  -2.369
REMARK UNBOUND:                -1.551
REMARK SMILES CCCCCCCCCCCCCCCCCCCCCC(=O)[O-]
REMARK SMILES IDX 12 1 11 2 10 3 9 4 8 5 7 6 6 7 5 8 4 9 3 10 2 11 1 12 13 13
REMARK SMILES IDX 14 14 15 15 16 16 17 17 18 18 19 19 20 20 21 21 22 22 23 23
REMARK SMILES IDX 24 24
REMARK H PARENT
REMARK Flexibility Score: inf
ROOT
ATOM      1  C   UNL     1     -12.021   6.745 -11.466  1.00  0.00     0.000 C 
ENDROOT
BRANCH   1   2
ATOM      2  C   UNL     1     -10.635   6.933 -10.823  1.00  0.00     0.000 C 
BRANCH   2   3
ATOM      3  C   UNL     1      -9.783   8.069 -11.425  1.00  0.00     0.000 C 
BRANCH   3   4
ATOM      4  C   UNL     1      -8.776   8.712 -10.455  1.00  0.00    -0.000 C 
BRANCH   4   5
ATOM      5  C   UNL     1      -8.447   7.813  -9.253  1.00  0.00    -0.000 C 
BRANCH   5   6
ATOM      6  C   UNL     1      -6.943   7.844  -8.940  1.00  0.00    -0.000 C 
BRANCH   6   7
ATOM      7  C   UNL     1      -6.110   8.378 -10.119  1.00  0.00    -0.000 C 
BRANCH   7   8
ATOM      8  C   UNL     1      -5.133   7.336 -10.710  1.00  0.00    -0.000 C 
BRANCH   8   9
ATOM      9  C   UNL     1      -4.349   7.849 -11.933  1.00  0.00    -0.000 C 
BRANCH   9  10
ATOM     10  C   UNL     1      -2.881   7.388 -12.000  1.00  0.00    -0.000 C 
BRANCH  10  11
ATOM     11  C   UNL     1      -1.877   8.485 -12.403  1.00  0.00    -0.003 C 
ATOM     12  C   UNL     1      -2.348   9.314 -13.597  1.00  0.00     0.004 C 
ENDBRANCH  10  11
ENDBRANCH   9  10
ENDBRANCH   8   9
ENDBRANCH   7   8
ENDBRANCH   6   7
ENDBRANCH   5   6
ENDBRANCH   4   5
ENDBRANCH   3   4
ENDBRANCH   2   3
ENDBRANCH   1   2
BRANCH   1  13
ATOM     13  C   UNL     1     -13.006   6.001 -10.552  1.00  0.00     0.000 C 
BRANCH  13  14
ATOM     14  C   UNL     1     -12.255   5.161  -9.507  1.00  0.00     0.000 C 
BRANCH  14  15
ATOM     15  C   UNL     1     -12.841   3.748  -9.342  1.00  0.00     0.000 C 
BRANCH  15  16
ATOM     16  C   UNL     1     -12.915   2.913 -10.637  1.00  0.00     0.000 C 
BRANCH  16  17
ATOM     17  C   UNL     1     -11.557   2.574 -11.282  1.00  0.00     0.000 C 
BRANCH  17  18
ATOM     18  C   UNL     1     -11.359   3.247 -12.649  1.00  0.00     0.000 C 
BRANCH  18  19
ATOM     19  C   UNL     1      -9.907   3.165 -13.154  1.00  0.00     0.000 C 
BRANCH  19  20
ATOM     20  C   UNL     1      -9.069   4.445 -12.966  1.00  0.00     0.006 C 
BRANCH  20  21
ATOM     21  C   UNL     1      -9.294   5.520 -14.042  1.00  0.00     0.053 C 
BRANCH  21  22
ATOM     22  C   UNL     1      -8.013   6.177 -14.454  1.00  0.00     0.041 C 
ATOM     23  O   UNL     1      -7.168   6.518 -13.584  1.00  0.00    -0.550 OA
ATOM     24  O   UNL     1      -7.742   6.394 -15.799  1.00  0.00    -0.550 OA
ENDBRANCH  21  22
ENDBRANCH  20  21
ENDBRANCH  19  20
ENDBRANCH  18  19
ENDBRANCH  17  18
ENDBRANCH  16  17
ENDBRANCH  15  16
ENDBRANCH  14  15
ENDBRANCH  13  14
ENDBRANCH   1  13
TORSDOF 20
ENDMDL
MODEL 4
REMARK VINA RESULT:    -5.152      2.550      6.610
REMARK INTER + INTRA:         -12.728
REMARK INTER:                  -8.804
REMARK INTRA:                  -3.924
REMARK UNBOUND:                -1.551
REMARK SMILES CCCCCCCCCCCCCCCCCCCCCC(=O)[O-]
REMARK SMILES IDX 12 1 11 2 10 3 9 4 8 5 7 6 6 7 5 8 4 9 3 10 2 11 1 12 13 13
REMARK SMILES IDX 14 14 15 15 16 16 17 17 18 18 19 19 20 20 21 21 22 22 23 23
REMARK SMILES IDX 24 24
REMARK H PARENT
REMARK Flexibility Score: inf
ROOT
ATOM      1  C   UNL     1     -11.566   4.440 -12.844  1.00  0.00     0.000 C 
ENDROOT
BRANCH   1   2
ATOM      2  C   UNL     1     -11.451   2.981 -12.368  1.00  0.00     0.000 C 
BRANCH   2   3
ATOM      3  C   UNL     1     -12.730   2.397 -11.735  1.00  0.00     0.000 C 
BRANCH   3   4
ATOM      4  C   UNL     1     -12.572   1.903 -10.285  1.00  0.00    -0.000 C 
BRANCH   4   5
ATOM      5  C   UNL     1     -12.940   2.974  -9.247  1.00  0.00    -0.000 C 
BRANCH   5   6
ATOM      6  C   UNL     1     -11.775   3.219  -8.275  1.00  0.00    -0.000 C 
BRANCH   6   7
ATOM      7  C   UNL     1     -10.956   4.468  -8.646  1.00  0.00    -0.000 C 
BRANCH   7   8
ATOM      8  C   UNL     1      -9.563   4.517  -7.979  1.00  0.00    -0.000 C 
BRANCH   8   9
ATOM      9  C   UNL     1      -8.409   4.733  -8.977  1.00  0.00    -0.000 C 
BRANCH   9  10
ATOM     10  C   UNL     1      -8.750   4.403 -10.442  1.00  0.00    -0.000 C 
BRANCH  10  11
ATOM     11  C   UNL     1      -7.679   4.823 -11.466  1.00  0.00    -0.003 C 
ATOM     12  C   UNL     1      -6.753   3.675 -11.864  1.00  0.00     0.004 C 
ENDBRANCH  10  11
ENDBRANCH   9  10
ENDBRANCH   8   9
ENDBRANCH   7   8
ENDBRANCH   6   7
ENDBRANCH   5   6
ENDBRANCH   4   5
ENDBRANCH   3   4
ENDBRANCH   2   3
ENDBRANCH   1   2
BRANCH   1  13
ATOM     13  C   UNL     1     -12.528   5.273 -11.982  1.00  0.00     0.000 C 
BRANCH  13  14
ATOM     14  C   UNL     1     -11.855   6.571 -11.509  1.00  0.00     0.000 C 
BRANCH  14  15
ATOM     15  C   UNL     1     -10.714   7.025 -12.436  1.00  0.00     0.000 C 
BRANCH  15  16
ATOM     16  C   UNL     1      -9.627   7.889 -11.764  1.00  0.00     0.000 C 
BRANCH  16  17
ATOM     17  C   UNL     1      -9.777   8.071 -10.241  1.00  0.00     0.000 C 
BRANCH  17  18
ATOM     18  C   UNL     1      -8.430   8.261  -9.526  1.00  0.00     0.000 C 
BRANCH  18  19
ATOM     19  C   UNL     1      -7.243   8.378 -10.500  1.00  0.00     0.000 C 
BRANCH  19  20
ATOM     20  C   UNL     1      -5.867   8.009  -9.912  1.00  0.00     0.006 C 
BRANCH  20  21
ATOM     21  C   UNL     1      -4.870   7.433 -10.930  1.00  0.00     0.053 C 
BRANCH  21  22
ATOM     22  C   UNL     1      -4.065   6.310 -10.352  1.00  0.00     0.041 C 
ATOM     23  O   UNL     1      -4.620   5.441  -9.628  1.00  0.00    -0.550 OA
ATOM     24  O   UNL     1      -2.709   6.208 -10.632  1.00  0.00    -0.550 OA
ENDBRANCH  21  22
ENDBRANCH  20  21
ENDBRANCH  19  20
ENDBRANCH  18  19
ENDBRANCH  17  18
ENDBRANCH  16  17
ENDBRANCH  15  16
ENDBRANCH  14  15
ENDBRANCH  13  14
ENDBRANCH   1  13
TORSDOF 20
ENDMDL
MODEL 5
REMARK VINA RESULT:    -5.119      1.722      3.477
REMARK INTER + INTRA:         -12.656
REMARK INTER:                  -9.996
REMARK INTRA:                  -2.659
REMARK UNBOUND:                -1.551
REMARK SMILES CCCCCCCCCCCCCCCCCCCCCC(=O)[O-]
REMARK SMILES IDX 12 1 11 2 10 3 9 4 8 5 7 6 6 7 5 8 4 9 3 10 2 11 1 12 13 13
REMARK SMILES IDX 14 14 15 15 16 16 17 17 18 18 19 19 20 20 21 21 22 22 23 23
REMARK SMILES IDX 24 24
REMARK H PARENT
REMARK Flexibility Score: inf
ROOT
ATOM      1  C   UNL     1      -8.691   4.733 -10.049  1.00  0.00     0.000 C 
ENDROOT
BRANCH   1   2
ATOM      2  C   UNL     1      -8.966   5.637  -8.834  1.00  0.00     0.000 C 
BRANCH   2   3
ATOM      3  C   UNL     1      -8.611   7.125  -9.033  1.00  0.00     0.000 C 
BRANCH   3   4
ATOM      4  C   UNL     1      -7.269   7.563  -8.419  1.00  0.00    -0.000 C 
BRANCH   4   5
ATOM      5  C   UNL     1      -6.317   8.189  -9.449  1.00  0.00    -0.000 C 
BRANCH   5   6
ATOM      6  C   UNL     1      -6.769   7.864 -10.881  1.00  0.00    -0.000 C 
BRANCH   6   7
ATOM      7  C   UNL     1      -5.654   7.200 -11.710  1.00  0.00    -0.000 C 
BRANCH   7   8
ATOM      8  C   UNL     1      -4.255   7.813 -11.471  1.00  0.00    -0.000 C 
BRANCH   8   9
ATOM      9  C   UNL     1      -3.097   6.863 -11.829  1.00  0.00    -0.000 C 
BRANCH   9  10
ATOM     10  C   UNL     1      -2.276   7.281 -13.064  1.00  0.00    -0.000 C 
BRANCH  10  11
ATOM     11  C   UNL     1      -1.843   8.759 -13.083  1.00  0.00    -0.003 C 
ATOM     12  C   UNL     1      -2.414   9.532 -14.271  1.00  0.00     0.004 C 
ENDBRANCH  10  11
ENDBRANCH   9  10
ENDBRANCH   8   9
ENDBRANCH   7   8
ENDBRANCH   6   7
ENDBRANCH   5   6
ENDBRANCH   4   5
ENDBRANCH   3   4
ENDBRANCH   2   3
ENDBRANCH   1   2
BRANCH   1  13
ATOM     13  C   UNL     1      -8.720   3.238  -9.696  1.00  0.00     0.000 C 
BRANCH  13  14
ATOM     14  C   UNL     1     -10.132   2.661  -9.875  1.00  0.00     0.000 C 
BRANCH  14  15
ATOM     15  C   UNL     1     -10.781   3.070 -11.209  1.00  0.00     0.000 C 
BRANCH  15  16
ATOM     16  C   UNL     1     -12.317   3.207 -11.177  1.00  0.00     0.000 C 
BRANCH  16  17
ATOM     17  C   UNL     1     -12.913   3.643  -9.826  1.00  0.00     0.000 C 
BRANCH  17  18
ATOM     18  C   UNL     1     -12.599   5.107  -9.477  1.00  0.00     0.000 C 
BRANCH  18  19
ATOM     19  C   UNL     1     -12.865   6.073 -10.646  1.00  0.00     0.000 C 
BRANCH  19  20
ATOM     20  C   UNL     1     -11.632   6.847 -11.155  1.00  0.00     0.006 C 
BRANCH  20  21
ATOM     21  C   UNL     1     -11.414   6.774 -12.674  1.00  0.00     0.053 C 
BRANCH  21  22
ATOM     22  C   UNL     1     -10.036   7.211 -13.065  1.00  0.00     0.041 C 
ATOM     23  O   UNL     1      -9.797   8.428 -13.285  1.00  0.00    -0.550 OA
ATOM     24  O   UNL     1      -9.011   6.280 -13.162  1.00  0.00    -0.550 OA
ENDBRANCH  21  22
ENDBRANCH  20  21
ENDBRANCH  19  20
ENDBRANCH  18  19
ENDBRANCH  17  18
ENDBRANCH  16  17
ENDBRANCH  15  16
ENDBRANCH  14  15
ENDBRANCH  13  14
ENDBRANCH   1  13
TORSDOF 20
ENDMDL
MODEL 6
REMARK VINA RESULT:    -5.083      5.279      8.856
REMARK INTER + INTRA:         -12.577
REMARK INTER:                 -10.170
REMARK INTRA:                  -2.407
REMARK UNBOUND:                -1.551
REMARK SMILES CCCCCCCCCCCCCCCCCCCCCC(=O)[O-]
REMARK SMILES IDX 12 1 11 2 10 3 9 4 8 5 7 6 6 7 5 8 4 9 3 10 2 11 1 12 13 13
REMARK SMILES IDX 14 14 15 15 16 16 17 17 18 18 19 19 20 20 21 21 22 22 23 23
REMARK SMILES IDX 24 24
REMARK H PARENT
REMARK Flexibility Score: inf
ROOT
ATOM      1  C   UNL     1      -8.689   3.029 -11.366  1.00  0.00     0.000 C 
ENDROOT
BRANCH   1   2
ATOM      2  C   UNL     1      -8.867   2.380 -12.750  1.00  0.00     0.000 C 
BRANCH   2   3
ATOM      3  C   UNL     1     -10.316   2.349 -13.276  1.00  0.00     0.000 C 
BRANCH   3   4
ATOM      4  C   UNL     1     -11.355   3.029 -12.367  1.00  0.00    -0.000 C 
BRANCH   4   5
ATOM      5  C   UNL     1     -12.522   2.102 -11.996  1.00  0.00    -0.000 C 
BRANCH   5   6
ATOM      6  C   UNL     1     -13.016   2.384 -10.569  1.00  0.00    -0.000 C 
BRANCH   6   7
ATOM      7  C   UNL     1     -11.978   1.993  -9.502  1.00  0.00    -0.000 C 
BRANCH   7   8
ATOM      8  C   UNL     1     -11.573   3.160  -8.574  1.00  0.00    -0.000 C 
BRANCH   8   9
ATOM      9  C   UNL     1     -12.100   4.530  -9.040  1.00  0.00    -0.000 C 
BRANCH   9  10
ATOM     10  C   UNL     1     -11.046   5.436  -9.704  1.00  0.00    -0.000 C 
BRANCH  10  11
ATOM     11  C   UNL     1     -11.598   6.387 -10.782  1.00  0.00    -0.003 C 
ATOM     12  C   UNL     1     -13.125   6.392 -10.848  1.00  0.00     0.004 C 
ENDBRANCH  10  11
ENDBRANCH   9  10
ENDBRANCH   8   9
ENDBRANCH   7   8
ENDBRANCH   6   7
ENDBRANCH   5   6
ENDBRANCH   4   5
ENDBRANCH   3   4
ENDBRANCH   2   3
ENDBRANCH   1   2
BRANCH   1  13
ATOM     13  C   UNL     1      -8.370   2.006 -10.265  1.00  0.00     0.000 C 
BRANCH  13  14
ATOM     14  C   UNL     1      -7.118   1.191 -10.622  1.00  0.00     0.000 C 
BRANCH  14  15
ATOM     15  C   UNL     1      -6.765   0.139  -9.555  1.00  0.00     0.000 C 
BRANCH  15  16
ATOM     16  C   UNL     1      -5.274  -0.250  -9.487  1.00  0.00     0.000 C 
BRANCH  16  17
ATOM     17  C   UNL     1      -4.510  -0.180 -10.822  1.00  0.00     0.000 C 
BRANCH  17  18
ATOM     18  C   UNL     1      -3.336  -1.169 -10.894  1.00  0.00     0.000 C 
BRANCH  18  19
ATOM     19  C   UNL     1      -3.764  -2.576 -11.352  1.00  0.00     0.000 C 
BRANCH  19  20
ATOM     20  C   UNL     1      -3.283  -2.987 -12.758  1.00  0.00     0.006 C 
BRANCH  20  21
ATOM     21  C   UNL     1      -2.024  -2.251 -13.243  1.00  0.00     0.053 C 
BRANCH  21  22
ATOM     22  C   UNL     1      -2.257  -1.538 -14.540  1.00  0.00     0.041 C 
ATOM     23  O   UNL     1      -2.991  -0.516 -14.577  1.00  0.00    -0.550 OA
ATOM     24  O   UNL     1      -1.645  -1.989 -15.702  1.00  0.00    -0.550 OA
ENDBRANCH  21  22
ENDBRANCH  20  21
ENDBRANCH  19  20
ENDBRANCH  18  19
ENDBRANCH  17  18
ENDBRANCH  16  17
ENDBRANCH  15  16
ENDBRANCH  14  15
ENDBRANCH  13  14
ENDBRANCH   1  13
TORSDOF 20
ENDMDL
MODEL 7
REMARK VINA RESULT:    -5.072      1.491      2.091
REMARK INTER + INTRA:         -12.553
REMARK INTER:                 -10.138
REMARK INTRA:                  -2.415
REMARK UNBOUND:                -1.551
REMARK SMILES CCCCCCCCCCCCCCCCCCCCCC(=O)[O-]
REMARK SMILES IDX 12 1 11 2 10 3 9 4 8 5 7 6 6 7 5 8 4 9 3 10 2 11 1 12 13 13
REMARK SMILES IDX 14 14 15 15 16 16 17 17 18 18 19 19 20 20 21 21 22 22 23 23
REMARK SMILES IDX 24 24
REMARK H PARENT
REMARK Flexibility Score: inf
ROOT
ATOM      1  C   UNL     1      -9.320   7.569 -11.896  1.00  0.00     0.000 C 
ENDROOT
BRANCH   1   2
ATOM      2  C   UNL     1      -9.052   8.547 -10.739  1.00  0.00     0.000 C 
BRANCH   2   3
ATOM      3  C   UNL     1      -7.899   8.146  -9.796  1.00  0.00     0.000 C 
BRANCH   3   4
ATOM      4  C   UNL     1      -6.504   8.632 -10.228  1.00  0.00    -0.000 C 
BRANCH   4   5
ATOM      5  C   UNL     1      -5.502   7.482 -10.411  1.00  0.00    -0.000 C 
BRANCH   5   6
ATOM      6  C   UNL     1      -4.636   7.702 -11.661  1.00  0.00    -0.000 C 
BRANCH   6   7
ATOM      7  C   UNL     1      -3.418   6.762 -11.702  1.00  0.00    -0.000 C 
BRANCH   7   8
ATOM      8  C   UNL     1      -2.361   7.163 -12.756  1.00  0.00    -0.000 C 
BRANCH   8   9
ATOM      9  C   UNL     1      -1.966   8.651 -12.699  1.00  0.00    -0.000 C 
BRANCH   9  10
ATOM     10  C   UNL     1      -2.238   9.442 -13.992  1.00  0.00    -0.000 C 
BRANCH  10  11
ATOM     11  C   UNL     1      -2.663   8.584 -15.198  1.00  0.00    -0.003 C 
ATOM     12  C   UNL     1      -2.646   9.357 -16.516  1.00  0.00     0.004 C 
ENDBRANCH  10  11
ENDBRANCH   9  10
ENDBRANCH   8   9
ENDBRANCH   7   8
ENDBRANCH   6   7
ENDBRANCH   5   6
ENDBRANCH   4   5
ENDBRANCH   3   4
ENDBRANCH   2   3
ENDBRANCH   1   2
BRANCH   1  13
ATOM     13  C   UNL     1     -10.800   7.174 -12.011  1.00  0.00     0.000 C 
BRANCH  13  14
ATOM     14  C   UNL     1     -11.373   6.792 -10.638  1.00  0.00     0.000 C 
BRANCH  14  15
ATOM     15  C   UNL     1     -12.720   6.056 -10.735  1.00  0.00     0.000 C 
BRANCH  15  16
ATOM     16  C   UNL     1     -12.845   4.795  -9.855  1.00  0.00     0.000 C 
BRANCH  16  17
ATOM     17  C   UNL     1     -11.556   4.369  -9.127  1.00  0.00     0.000 C 
BRANCH  17  18
ATOM     18  C   UNL     1     -10.892   3.135  -9.758  1.00  0.00     0.000 C 
BRANCH  18  19
ATOM     19  C   UNL     1      -9.586   3.471 -10.501  1.00  0.00     0.000 C 
BRANCH  19  20
ATOM     20  C   UNL     1      -8.703   4.544  -9.832  1.00  0.00     0.006 C 
BRANCH  20  21
ATOM     21  C   UNL     1      -7.211   4.183  -9.750  1.00  0.00     0.053 C 
BRANCH  21  22
ATOM     22  C   UNL     1      -6.643   3.841 -11.093  1.00  0.00     0.041 C 
ATOM     23  O   UNL     1      -6.681   4.682 -12.029  1.00  0.00    -0.550 OA
ATOM     24  O   UNL     1      -6.050   2.603 -11.304  1.00  0.00    -0.550 OA
ENDBRANCH  21  22
ENDBRANCH  20  21
ENDBRANCH  19  20
ENDBRANCH  18  19
ENDBRANCH  17  18
ENDBRANCH  16  17
ENDBRANCH  15  16
ENDBRANCH  14  15
ENDBRANCH  13  14
ENDBRANCH   1  13
TORSDOF 20
ENDMDL
MODEL 8
REMARK VINA RESULT:    -5.041      2.340      2.979
REMARK INTER + INTRA:         -12.486
REMARK INTER:                  -8.355
REMARK INTRA:                  -4.131
REMARK UNBOUND:                -1.551
REMARK SMILES CCCCCCCCCCCCCCCCCCCCCC(=O)[O-]
REMARK SMILES IDX 12 1 11 2 10 3 9 4 8 5 7 6 6 7 5 8 4 9 3 10 2 11 1 12 13 13
REMARK SMILES IDX 14 14 15 15 16 16 17 17 18 18 19 19 20 20 21 21 22 22 23 23
REMARK SMILES IDX 24 24
REMARK H PARENT
REMARK Flexibility Score: inf
ROOT
ATOM      1  C   UNL     1     -10.653   7.082 -10.988  1.00  0.00     0.000 C 
ENDROOT
BRANCH   1   2
ATOM      2  C   UNL     1      -9.726   8.266 -11.313  1.00  0.00     0.000 C 
BRANCH   2   3
ATOM      3  C   UNL     1      -8.878   8.778 -10.131  1.00  0.00     0.000 C 
BRANCH   3   4
ATOM      4  C   UNL     1      -8.628   7.748  -9.014  1.00  0.00    -0.000 C 
BRANCH   4   5
ATOM      5  C   UNL     1      -7.135   7.474  -8.779  1.00  0.00    -0.000 C 
BRANCH   5   6
ATOM      6  C   UNL     1      -6.266   8.337  -9.706  1.00  0.00    -0.000 C 
BRANCH   6   7
ATOM      7  C   UNL     1      -5.246   7.501 -10.499  1.00  0.00    -0.000 C 
BRANCH   7   8
ATOM      8  C   UNL     1      -5.676   6.030 -10.705  1.00  0.00    -0.000 C 
BRANCH   8   9
ATOM      9  C   UNL     1      -5.993   5.680 -12.171  1.00  0.00    -0.000 C 
BRANCH   9  10
ATOM     10  C   UNL     1      -7.055   6.577 -12.835  1.00  0.00    -0.000 C 
BRANCH  10  11
ATOM     11  C   UNL     1      -8.143   5.818 -13.619  1.00  0.00    -0.003 C 
ATOM     12  C   UNL     1      -8.817   6.679 -14.686  1.00  0.00     0.004 C 
ENDBRANCH  10  11
ENDBRANCH   9  10
ENDBRANCH   8   9
ENDBRANCH   7   8
ENDBRANCH   6   7
ENDBRANCH   5   6
ENDBRANCH   4   5
ENDBRANCH   3   4
ENDBRANCH   2   3
ENDBRANCH   1   2
BRANCH   1  13
ATOM     13  C   UNL     1     -11.607   6.737 -12.142  1.00  0.00     0.000 C 
BRANCH  13  14
ATOM     14  C   UNL     1     -12.836   5.973 -11.626  1.00  0.00     0.000 C 
BRANCH  14  15
ATOM     15  C   UNL     1     -12.751   5.648 -10.125  1.00  0.00     0.000 C 
BRANCH  15  16
ATOM     16  C   UNL     1     -12.975   4.165  -9.761  1.00  0.00     0.000 C 
BRANCH  16  17
ATOM     17  C   UNL     1     -11.979   3.577  -8.745  1.00  0.00     0.000 C 
BRANCH  17  18
ATOM     18  C   UNL     1     -10.783   4.503  -8.473  1.00  0.00     0.000 C 
BRANCH  18  19
ATOM     19  C   UNL     1      -9.429   3.846  -8.799  1.00  0.00     0.000 C 
BRANCH  19  20
ATOM     20  C   UNL     1      -8.837   4.202 -10.178  1.00  0.00     0.006 C 
BRANCH  20  21
ATOM     21  C   UNL     1      -8.414   2.990 -11.023  1.00  0.00     0.053 C 
BRANCH  21  22
ATOM     22  C   UNL     1      -9.394   2.700 -12.118  1.00  0.00     0.041 C 
ATOM     23  O   UNL     1     -10.583   3.105 -12.026  1.00  0.00    -0.550 OA
ATOM     24  O   UNL     1      -8.989   2.003 -13.249  1.00  0.00    -0.550 OA
ENDBRANCH  21  22
ENDBRANCH  20  21
ENDBRANCH  19  20
ENDBRANCH  18  19
ENDBRANCH  17  18
ENDBRANCH  16  17
ENDBRANCH  15  16
ENDBRANCH  14  15
ENDBRANCH  13  14
ENDBRANCH   1  13
TORSDOF 20
ENDMDL
MODEL 9
REMARK VINA RESULT:    -5.018     13.592     18.097
REMARK INTER + INTRA:         -12.436
REMARK INTER:                  -8.830
REMARK INTRA:                  -3.606
REMARK UNBOUND:                -1.551
REMARK SMILES CCCCCCCCCCCCCCCCCCCCCC(=O)[O-]
REMARK SMILES IDX 12 1 11 2 10 3 9 4 8 5 7 6 6 7 5 8 4 9 3 10 2 11 1 12 13 13
REMARK SMILES IDX 14 14 15 15 16 16 17 17 18 18 19 19 20 20 21 21 22 22 23 23
REMARK SMILES IDX 24 24
REMARK H PARENT
REMARK Flexibility Score: inf
ROOT
ATOM      1  C   UNL     1       6.825   5.523 -22.386  1.00  0.00     0.000 C 
ENDROOT
BRANCH   1   2
ATOM      2  C   UNL     1       7.124   6.108 -23.778  1.00  0.00     0.000 C 
BRANCH   2   3
ATOM      3  C   UNL     1       6.616   7.546 -24.006  1.00  0.00     0.000 C 
BRANCH   3   4
ATOM      4  C   UNL     1       6.014   7.813 -25.397  1.00  0.00    -0.000 C 
BRANCH   4   5
ATOM      5  C   UNL     1       6.463   6.786 -26.447  1.00  0.00    -0.000 C 
BRANCH   5   6
ATOM      6  C   UNL     1       5.287   6.370 -27.345  1.00  0.00    -0.000 C 
BRANCH   6   7
ATOM      7  C   UNL     1       5.169   4.842 -27.485  1.00  0.00    -0.000 C 
BRANCH   7   8
ATOM      8  C   UNL     1       6.246   4.062 -26.697  1.00  0.00    -0.000 C 
BRANCH   8   9
ATOM      9  C   UNL     1       5.691   3.313 -25.470  1.00  0.00    -0.000 C 
BRANCH   9  10
ATOM     10  C   UNL     1       4.168   3.433 -25.275  1.00  0.00    -0.000 C 
BRANCH  10  11
ATOM     11  C   UNL     1       3.736   4.195 -24.008  1.00  0.00    -0.003 C 
ATOM     12  C   UNL     1       3.271   5.621 -24.300  1.00  0.00     0.004 C 
ENDBRANCH  10  11
ENDBRANCH   9  10
ENDBRANCH   8   9
ENDBRANCH   7   8
ENDBRANCH   6   7
ENDBRANCH   5   6
ENDBRANCH   4   5
ENDBRANCH   3   4
ENDBRANCH   2   3
ENDBRANCH   1   2
BRANCH   1  13
ATOM     13  C   UNL     1       5.744   6.310 -21.630  1.00  0.00     0.000 C 
BRANCH  13  14
ATOM     14  C   UNL     1       5.424   5.644 -20.283  1.00  0.00     0.000 C 
BRANCH  14  15
ATOM     15  C   UNL     1       4.932   4.194 -20.434  1.00  0.00     0.000 C 
BRANCH  15  16
ATOM     16  C   UNL     1       4.083   3.664 -19.260  1.00  0.00     0.000 C 
BRANCH  16  17
ATOM     17  C   UNL     1       2.589   4.038 -19.304  1.00  0.00     0.000 C 
BRANCH  17  18
ATOM     18  C   UNL     1       2.242   5.227 -18.394  1.00  0.00     0.000 C 
BRANCH  18  19
ATOM     19  C   UNL     1       1.612   6.405 -19.159  1.00  0.00     0.000 C 
BRANCH  19  20
ATOM     20  C   UNL     1       1.818   6.385 -20.687  1.00  0.00     0.006 C 
BRANCH  20  21
ATOM     21  C   UNL     1       0.756   7.157 -21.485  1.00  0.00     0.053 C 
BRANCH  21  22
ATOM     22  C   UNL     1      -0.632   6.860 -21.005  1.00  0.00     0.041 C 
ATOM     23  O   UNL     1      -1.335   7.774 -20.497  1.00  0.00    -0.550 OA
ATOM     24  O   UNL     1      -1.157   5.582 -21.138  1.00  0.00    -0.550 OA
ENDBRANCH  21  22
ENDBRANCH  20  21
ENDBRANCH  19  20
ENDBRANCH  18  19
ENDBRANCH  17  18
ENDBRANCH  16  17
ENDBRANCH  15  16
ENDBRANCH  14  15
ENDBRANCH  13  14
ENDBRANCH   1  13
TORSDOF 20
ENDMDL
