MODEL 1
REMARK VINA RESULT:    -0.414      0.000      0.000
REMARK INTER + INTRA:          -0.578
REMARK INTER:                  -0.474
REMARK INTRA:                  -0.104
REMARK UNBOUND:                -0.104
REMARK SMILES COc1cc(C(=O)[O-])ccc1O
REMARK SMILES IDX 5 1 9 2 4 3 10 4 3 5 11 6 6 7 7 8 8 9 2 10 1 11 12 12
REMARK H PARENT 12 13
REMARK Flexibility Score: inf
ROOT
ATOM      1  C   UNL     1      32.253  42.413  42.985  1.00  0.00     0.001 A 
ATOM      2  C   UNL     1      32.911  43.098  44.019  1.00  0.00     0.014 A 
ATOM      3  C   UNL     1      33.017  41.718  42.030  1.00  0.00     0.060 A 
ATOM      4  C   UNL     1      34.305  43.088  44.097  1.00  0.00     0.051 A 
ATOM      5  C   UNL     1      34.425  41.704  42.104  1.00  0.00     0.161 A 
ATOM      6  C   UNL     1      35.063  42.397  43.149  1.00  0.00     0.157 A 
ENDROOT
BRANCH   1   7
ATOM      7  C   UNL     1      30.774  42.428  42.907  1.00  0.00     0.072 C 
ATOM      8  O   UNL     1      30.097  43.120  43.712  1.00  0.00    -0.545 OA
ATOM      9  O   UNL     1      30.113  41.676  41.943  1.00  0.00    -0.545 OA
ENDBRANCH   1   7
BRANCH   5  10
ATOM     10  O   UNL     1      35.212  41.019  41.166  1.00  0.00    -0.493 OA
ATOM     11  C   UNL     1      35.475  39.620  41.197  1.00  0.00     0.278 C 
ENDBRANCH   5  10
BRANCH   6  12
ATOM     12  O   UNL     1      36.455  42.409  43.260  1.00  0.00    -0.504 OA
ATOM     13  H   UNL     1      36.952  41.788  43.885  1.00  0.00     0.293 HD
ENDBRANCH   6  12
TORSDOF 3
ENDMDL
MODEL 2
REMARK VINA RESULT:    -0.358     17.095     18.483
REMARK INTER + INTRA:          -0.514
REMARK INTER:                  -0.431
REMARK INTRA:                  -0.082
REMARK UNBOUND:                -0.104
REMARK SMILES COc1cc(C(=O)[O-])ccc1O
REMARK SMILES IDX 5 1 9 2 4 3 10 4 3 5 11 6 6 7 7 8 8 9 2 10 1 11 12 12
REMARK H PARENT 12 13
REMARK Flexibility Score: inf
ROOT
ATOM      1  C   UNL     1      28.634  23.995  43.018  1.00  0.00     0.001 A 
ATOM      2  C   UNL     1      29.162  23.274  44.101  1.00  0.00     0.014 A 
ATOM      3  C   UNL     1      29.486  24.357  41.958  1.00  0.00     0.060 A 
ATOM      4  C   UNL     1      30.512  22.920  44.123  1.00  0.00     0.051 A 
ATOM      5  C   UNL     1      30.850  24.002  41.975  1.00  0.00     0.161 A 
ATOM      6  C   UNL     1      31.357  23.279  43.070  1.00  0.00     0.157 A 
ENDROOT
BRANCH   1   7
ATOM      7  C   UNL     1      27.202  24.369  42.999  1.00  0.00     0.072 C 
ATOM      8  O   UNL     1      26.818  25.459  43.498  1.00  0.00    -0.545 OA
ATOM      9  O   UNL     1      26.260  23.519  42.430  1.00  0.00    -0.545 OA
ENDBRANCH   1   7
BRANCH   5  10
ATOM     10  O   UNL     1      31.722  24.349  40.931  1.00  0.00    -0.493 OA
ATOM     11  C   UNL     1      31.862  25.661  40.396  1.00  0.00     0.278 C 
ENDBRANCH   5  10
BRANCH   6  12
ATOM     12  O   UNL     1      32.701  22.907  43.128  1.00  0.00    -0.504 OA
ATOM     13  H   UNL     1      33.168  22.703  44.003  1.00  0.00     0.293 HD
ENDBRANCH   6  12
TORSDOF 3
ENDMDL
MODEL 3
REMARK VINA RESULT:    -0.310     16.894     18.633
REMARK INTER + INTRA:          -0.460
REMARK INTER:                  -0.356
REMARK INTRA:                  -0.104
REMARK UNBOUND:                -0.104
REMARK SMILES COc1cc(C(=O)[O-])ccc1O
REMARK SMILES IDX 5 1 9 2 4 3 10 4 3 5 11 6 6 7 7 8 8 9 2 10 1 11 12 12
REMARK H PARENT 12 13
REMARK Flexibility Score: inf
ROOT
ATOM      1  C   UNL     1      30.202  24.554  43.137  1.00  0.00     0.001 A 
ATOM      2  C   UNL     1      29.991  23.418  43.935  1.00  0.00     0.014 A 
ATOM      3  C   UNL     1      29.105  25.137  42.475  1.00  0.00     0.060 A 
ATOM      4  C   UNL     1      28.712  22.877  44.070  1.00  0.00     0.051 A 
ATOM      5  C   UNL     1      27.811  24.595  42.608  1.00  0.00     0.161 A 
ATOM      6  C   UNL     1      27.623  23.457  43.414  1.00  0.00     0.157 A 
ENDROOT
BRANCH   1   7
ATOM      7  C   UNL     1      31.561  25.123  42.996  1.00  0.00     0.072 C 
ATOM      8  O   UNL     1      32.513  24.688  43.696  1.00  0.00    -0.545 OA
ATOM      9  O   UNL     1      31.805  26.148  42.089  1.00  0.00    -0.545 OA
ENDBRANCH   1   7
BRANCH   5  10
ATOM     10  O   UNL     1      26.700  25.157  41.960  1.00  0.00    -0.493 OA
ATOM     11  C   UNL     1      25.994  26.307  42.414  1.00  0.00     0.278 C 
ENDBRANCH   5  10
BRANCH   6  12
ATOM     12  O   UNL     1      26.359  22.888  43.573  1.00  0.00    -0.504 OA
ATOM     13  H   UNL     1      26.103  22.364  44.400  1.00  0.00     0.293 HD
ENDBRANCH   6  12
TORSDOF 3
ENDMDL
MODEL 4
REMARK VINA RESULT:    -0.300     16.485     18.524
REMARK INTER + INTRA:          -0.448
REMARK INTER:                  -0.369
REMARK INTRA:                  -0.080
REMARK UNBOUND:                -0.104
REMARK SMILES COc1cc(C(=O)[O-])ccc1O
REMARK SMILES IDX 5 1 9 2 4 3 10 4 3 5 11 6 6 7 7 8 8 9 2 10 1 11 12 12
REMARK H PARENT 12 13
REMARK Flexibility Score: inf
ROOT
ATOM      1  C   UNL     1      37.492  42.082  24.670  1.00  0.00     0.001 A 
ATOM      2  C   UNL     1      36.791  43.057  23.942  1.00  0.00     0.014 A 
ATOM      3  C   UNL     1      36.771  41.173  25.467  1.00  0.00     0.060 A 
ATOM      4  C   UNL     1      35.399  43.122  24.009  1.00  0.00     0.051 A 
ATOM      5  C   UNL     1      35.365  41.235  25.539  1.00  0.00     0.161 A 
ATOM      6  C   UNL     1      34.683  42.220  24.801  1.00  0.00     0.157 A 
ENDROOT
BRANCH   1   7
ATOM      7  C   UNL     1      38.969  42.017  24.595  1.00  0.00     0.072 C 
ATOM      8  O   UNL     1      39.584  40.981  24.964  1.00  0.00    -0.545 OA
ATOM      9  O   UNL     1      39.699  43.099  24.117  1.00  0.00    -0.545 OA
ENDBRANCH   1   7
BRANCH   5  10
ATOM     10  O   UNL     1      34.620  40.342  26.325  1.00  0.00    -0.493 OA
ATOM     11  C   UNL     1      35.174  39.255  27.058  1.00  0.00     0.278 C 
ENDBRANCH   5  10
BRANCH   6  12
ATOM     12  O   UNL     1      33.291  42.317  24.843  1.00  0.00    -0.504 OA
ATOM     13  H   UNL     1      32.802  42.725  25.629  1.00  0.00     0.293 HD
ENDBRANCH   6  12
TORSDOF 3
ENDMDL
MODEL 5
REMARK VINA RESULT:    -0.288     18.304     18.759
REMARK INTER + INTRA:          -0.434
REMARK INTER:                  -0.338
REMARK INTRA:                  -0.096
REMARK UNBOUND:                -0.104
REMARK SMILES COc1cc(C(=O)[O-])ccc1O
REMARK SMILES IDX 5 1 9 2 4 3 10 4 3 5 11 6 6 7 7 8 8 9 2 10 1 11 12 12
REMARK H PARENT 12 13
REMARK Flexibility Score: inf
ROOT
ATOM      1  C   UNL     1      28.207  24.061  42.875  1.00  0.00     0.001 A 
ATOM      2  C   UNL     1      28.225  24.408  41.515  1.00  0.00     0.014 A 
ATOM      3  C   UNL     1      29.380  23.559  43.469  1.00  0.00     0.060 A 
ATOM      4  C   UNL     1      29.392  24.257  40.763  1.00  0.00     0.051 A 
ATOM      5  C   UNL     1      30.560  23.404  42.714  1.00  0.00     0.161 A 
ATOM      6  C   UNL     1      30.556  23.759  41.353  1.00  0.00     0.157 A 
ENDROOT
BRANCH   1   7
ATOM      7  C   UNL     1      26.967  24.223  43.667  1.00  0.00     0.072 C 
ATOM      8  O   UNL     1      26.605  25.362  44.065  1.00  0.00    -0.545 OA
ATOM      9  O   UNL     1      26.185  23.118  43.984  1.00  0.00    -0.545 OA
ENDBRANCH   1   7
BRANCH   5  10
ATOM     10  O   UNL     1      31.744  22.906  43.280  1.00  0.00    -0.493 OA
ATOM     11  C   UNL     1      32.649  23.673  44.069  1.00  0.00     0.278 C 
ENDBRANCH   5  10
BRANCH   6  12
ATOM     12  O   UNL     1      31.703  23.622  40.569  1.00  0.00    -0.504 OA
ATOM     13  H   UNL     1      32.604  23.976  40.864  1.00  0.00     0.293 HD
ENDBRANCH   6  12
TORSDOF 3
ENDMDL
MODEL 6
REMARK VINA RESULT:    -0.286      1.678      3.017
REMARK INTER + INTRA:          -0.432
REMARK INTER:                  -0.328
REMARK INTRA:                  -0.104
REMARK UNBOUND:                -0.104
REMARK SMILES COc1cc(C(=O)[O-])ccc1O
REMARK SMILES IDX 5 1 9 2 4 3 10 4 3 5 11 6 6 7 7 8 8 9 2 10 1 11 12 12
REMARK H PARENT 12 13
REMARK Flexibility Score: inf
ROOT
ATOM      1  C   UNL     1      30.837  41.741  42.602  1.00  0.00     0.001 A 
ATOM      2  C   UNL     1      30.919  40.951  41.445  1.00  0.00     0.014 A 
ATOM      3  C   UNL     1      31.932  41.774  43.486  1.00  0.00     0.060 A 
ATOM      4  C   UNL     1      32.070  40.209  41.176  1.00  0.00     0.051 A 
ATOM      5  C   UNL     1      33.096  41.026  43.220  1.00  0.00     0.161 A 
ATOM      6  C   UNL     1      33.156  40.241  42.053  1.00  0.00     0.157 A 
ENDROOT
BRANCH   1   7
ATOM      7  C   UNL     1      29.614  42.526  42.883  1.00  0.00     0.072 C 
ATOM      8  O   UNL     1      28.724  42.663  42.002  1.00  0.00    -0.545 OA
ATOM      9  O   UNL     1      29.431  43.125  44.124  1.00  0.00    -0.545 OA
ENDBRANCH   1   7
BRANCH   5  10
ATOM     10  O   UNL     1      34.203  41.039  44.084  1.00  0.00    -0.493 OA
ATOM     11  C   UNL     1      35.189  42.065  44.119  1.00  0.00     0.278 C 
ENDBRANCH   5  10
BRANCH   6  12
ATOM     12  O   UNL     1      34.290  39.486  41.751  1.00  0.00    -0.504 OA
ATOM     13  H   UNL     1      34.971  39.785  41.064  1.00  0.00     0.293 HD
ENDBRANCH   6  12
TORSDOF 3
ENDMDL
MODEL 7
REMARK VINA RESULT:    -0.280      2.447      4.666
REMARK INTER + INTRA:          -0.425
REMARK INTER:                  -0.322
REMARK INTRA:                  -0.103
REMARK UNBOUND:                -0.104
REMARK SMILES COc1cc(C(=O)[O-])ccc1O
REMARK SMILES IDX 5 1 9 2 4 3 10 4 3 5 11 6 6 7 7 8 8 9 2 10 1 11 12 12
REMARK H PARENT 12 13
REMARK Flexibility Score: inf
ROOT
ATOM      1  C   UNL     1      30.731  40.737  40.739  1.00  0.00     0.001 A 
ATOM      2  C   UNL     1      29.407  40.776  41.204  1.00  0.00     0.014 A 
ATOM      3  C   UNL     1      31.708  41.512  41.391  1.00  0.00     0.060 A 
ATOM      4  C   UNL     1      29.066  41.572  42.299  1.00  0.00     0.051 A 
ATOM      5  C   UNL     1      31.369  42.318  42.497  1.00  0.00     0.161 A 
ATOM      6  C   UNL     1      30.036  42.341  42.946  1.00  0.00     0.157 A 
ENDROOT
BRANCH   1   7
ATOM      7  C   UNL     1      31.087  39.892  39.577  1.00  0.00     0.072 C 
ATOM      8  O   UNL     1      32.262  39.889  39.123  1.00  0.00    -0.545 OA
ATOM      9  O   UNL     1      30.129  39.088  38.971  1.00  0.00    -0.545 OA
ENDBRANCH   1   7
BRANCH   5  10
ATOM     10  O   UNL     1      32.323  43.101  43.166  1.00  0.00    -0.493 OA
ATOM     11  C   UNL     1      33.296  42.591  44.072  1.00  0.00     0.278 C 
ENDBRANCH   5  10
BRANCH   6  12
ATOM     12  O   UNL     1      29.657  43.125  44.037  1.00  0.00    -0.504 OA
ATOM     13  H   UNL     1      29.922  44.098  44.121  1.00  0.00     0.293 HD
ENDBRANCH   6  12
TORSDOF 3
ENDMDL
MODEL 8
REMARK VINA RESULT:    -0.278      4.673      6.811
REMARK INTER + INTRA:          -0.422
REMARK INTER:                  -0.319
REMARK INTRA:                  -0.103
REMARK UNBOUND:                -0.104
REMARK SMILES COc1cc(C(=O)[O-])ccc1O
REMARK SMILES IDX 5 1 9 2 4 3 10 4 3 5 11 6 6 7 7 8 8 9 2 10 1 11 12 12
REMARK H PARENT 12 13
REMARK Flexibility Score: inf
ROOT
ATOM      1  C   UNL     1      28.272  39.209  42.709  1.00  0.00     0.001 A 
ATOM      2  C   UNL     1      29.582  39.712  42.661  1.00  0.00     0.014 A 
ATOM      3  C   UNL     1      27.241  40.034  43.197  1.00  0.00     0.060 A 
ATOM      4  C   UNL     1      29.856  41.011  43.091  1.00  0.00     0.051 A 
ATOM      5  C   UNL     1      27.513  41.346  43.634  1.00  0.00     0.161 A 
ATOM      6  C   UNL     1      28.833  41.829  43.575  1.00  0.00     0.157 A 
ENDROOT
BRANCH   1   7
ATOM      7  C   UNL     1      27.986  37.831  42.252  1.00  0.00     0.072 C 
ATOM      8  O   UNL     1      28.926  37.027  42.013  1.00  0.00    -0.545 OA
ATOM      9  O   UNL     1      26.675  37.403  42.081  1.00  0.00    -0.545 OA
ENDBRANCH   1   7
BRANCH   5  10
ATOM     10  O   UNL     1      26.504  42.190  44.125  1.00  0.00    -0.493 OA
ATOM     11  C   UNL     1      25.630  42.965  43.311  1.00  0.00     0.278 C 
ENDBRANCH   5  10
BRANCH   6  12
ATOM     12  O   UNL     1      29.146  43.122  43.996  1.00  0.00    -0.504 OA
ATOM     13  H   UNL     1      29.475  43.321  44.933  1.00  0.00     0.293 HD
ENDBRANCH   6  12
TORSDOF 3
ENDMDL
MODEL 9
REMARK VINA RESULT:    -0.270      1.977      3.010
REMARK INTER + INTRA:          -0.413
REMARK INTER:                  -0.319
REMARK INTRA:                  -0.094
REMARK UNBOUND:                -0.104
REMARK SMILES COc1cc(C(=O)[O-])ccc1O
REMARK SMILES IDX 5 1 9 2 4 3 10 4 3 5 11 6 6 7 7 8 8 9 2 10 1 11 12 12
REMARK H PARENT 12 13
REMARK Flexibility Score: inf
ROOT
ATOM      1  C   UNL     1      33.609  42.378  42.211  1.00  0.00     0.001 A 
ATOM      2  C   UNL     1      33.405  42.779  40.881  1.00  0.00     0.014 A 
ATOM      3  C   UNL     1      34.924  42.196  42.677  1.00  0.00     0.060 A 
ATOM      4  C   UNL     1      34.493  42.994  40.034  1.00  0.00     0.051 A 
ATOM      5  C   UNL     1      36.027  42.411  41.825  1.00  0.00     0.161 A 
ATOM      6  C   UNL     1      35.799  42.813  40.496  1.00  0.00     0.157 A 
ENDROOT
BRANCH   1   7
ATOM      7  C   UNL     1      32.451  42.151  43.106  1.00  0.00     0.072 C 
ATOM      8  O   UNL     1      31.800  41.075  43.050  1.00  0.00    -0.545 OA
ATOM      9  O   UNL     1      32.067  43.125  44.021  1.00  0.00    -0.545 OA
ENDBRANCH   1   7
BRANCH   5  10
ATOM     10  O   UNL     1      37.349  42.237  42.263  1.00  0.00    -0.493 OA
ATOM     11  C   UNL     1      38.033  43.122  43.145  1.00  0.00     0.278 C 
ENDBRANCH   5  10
BRANCH   6  12
ATOM     12  O   UNL     1      36.862  43.037  39.620  1.00  0.00    -0.504 OA
ATOM     13  H   UNL     1      37.653  43.618  39.868  1.00  0.00     0.293 HD
ENDBRANCH   6  12
TORSDOF 3
ENDMDL
