MODEL 1
REMARK VINA RESULT:    -6.916      0.000      0.000
REMARK INTER + INTRA:          -9.378
REMARK INTER:                  -8.735
REMARK INTRA:                  -0.643
REMARK UNBOUND:                -0.643
REMARK SMILES O=C(C=Cc1ccc(O)cc1)c1ccc(O)cc1O
REMARK SMILES IDX 4 1 3 2 5 3 6 4 7 5 8 6 11 7 10 8 9 9 2 11 1 12 12 13 18 14
REMARK SMILES IDX 13 15 17 16 14 17 15 18 19 19 16 21
REMARK H PARENT 9 10 19 20 16 22
REMARK Flexibility Score: inf
ROOT
ATOM      1  C   UNL     1      61.302 -13.600  -2.722  1.00  0.00     0.012 C 
ATOM      2  C   UNL     1      60.777 -14.462  -1.839  1.00  0.00     0.053 C 
ENDROOT
BRANCH   1   3
ATOM      3  C   UNL     1      60.580 -13.107  -3.920  1.00  0.00    -0.025 A 
ATOM      4  C   UNL     1      59.358 -12.438  -3.742  1.00  0.00     0.012 A 
ATOM      5  C   UNL     1      58.647 -11.948  -4.842  1.00  0.00     0.047 A 
ATOM      6  C   UNL     1      59.156 -12.108  -6.136  1.00  0.00     0.115 A 
ATOM      7  C   UNL     1      61.092 -13.251  -5.227  1.00  0.00     0.012 A 
ATOM      8  C   UNL     1      60.379 -12.758  -6.324  1.00  0.00     0.047 A 
BRANCH   6   9
ATOM      9  O   UNL     1      58.458 -11.624  -7.240  1.00  0.00    -0.508 OA
ATOM     10  H   UNL     1      57.447 -11.683  -7.295  1.00  0.00     0.293 HD
ENDBRANCH   6   9
ENDBRANCH   1   3
BRANCH   2  11
ATOM     11  C   UNL     1      61.521 -14.921  -0.646  1.00  0.00     0.189 C 
ATOM     12  O   UNL     1      62.125 -14.087   0.083  1.00  0.00    -0.289 OA
BRANCH  11  13
ATOM     13  C   UNL     1      61.592 -16.362  -0.318  1.00  0.00     0.064 A 
ATOM     14  C   UNL     1      61.401 -16.838   1.003  1.00  0.00     0.130 A 
ATOM     15  C   UNL     1      61.897 -17.281  -1.337  1.00  0.00     0.020 A 
ATOM     16  C   UNL     1      61.552 -18.203   1.276  1.00  0.00     0.093 A 
ATOM     17  C   UNL     1      62.029 -18.642  -1.054  1.00  0.00     0.047 A 
ATOM     18  C   UNL     1      61.863 -19.107   0.252  1.00  0.00     0.119 A 
BRANCH  14  19
ATOM     19  O   UNL     1      61.036 -15.996   2.055  1.00  0.00    -0.507 OA
ATOM     20  H   UNL     1      60.477 -16.301   2.840  1.00  0.00     0.293 HD
ENDBRANCH  14  19
BRANCH  18  21
ATOM     21  O   UNL     1      62.006 -20.465   0.522  1.00  0.00    -0.508 OA
ATOM     22  H   UNL     1      62.224 -21.131  -0.210  1.00  0.00     0.293 HD
ENDBRANCH  18  21
ENDBRANCH  11  13
ENDBRANCH   2  11
TORSDOF 6
ENDMDL
MODEL 2
REMARK VINA RESULT:    -6.906      5.677      9.968
REMARK INTER + INTRA:          -9.366
REMARK INTER:                  -8.851
REMARK INTRA:                  -0.515
REMARK UNBOUND:                -0.643
REMARK SMILES O=C(C=Cc1ccc(O)cc1)c1ccc(O)cc1O
REMARK SMILES IDX 4 1 3 2 5 3 6 4 7 5 8 6 11 7 10 8 9 9 2 11 1 12 12 13 18 14
REMARK SMILES IDX 13 15 17 16 14 17 15 18 19 19 16 21
REMARK H PARENT 9 10 19 20 16 22
REMARK Flexibility Score: inf
ROOT
ATOM      1  C   UNL     1      57.456 -21.045   3.230  1.00  0.00     0.012 C 
ATOM      2  C   UNL     1      58.594 -21.124   3.935  1.00  0.00     0.053 C 
ENDROOT
BRANCH   1   3
ATOM      3  C   UNL     1      56.106 -21.046   3.844  1.00  0.00    -0.025 A 
ATOM      4  C   UNL     1      55.577 -22.264   4.303  1.00  0.00     0.012 A 
ATOM      5  C   UNL     1      54.313 -22.313   4.898  1.00  0.00     0.047 A 
ATOM      6  C   UNL     1      53.564 -21.140   5.054  1.00  0.00     0.115 A 
ATOM      7  C   UNL     1      55.350 -19.868   4.020  1.00  0.00     0.012 A 
ATOM      8  C   UNL     1      54.087 -19.920   4.616  1.00  0.00     0.047 A 
BRANCH   6   9
ATOM      9  O   UNL     1      52.303 -21.175   5.645  1.00  0.00    -0.508 OA
ATOM     10  H   UNL     1      52.187 -21.353   6.636  1.00  0.00     0.293 HD
ENDBRANCH   6   9
ENDBRANCH   1   3
BRANCH   2  11
ATOM     11  C   UNL     1      59.925 -21.104   3.289  1.00  0.00     0.189 C 
ATOM     12  O   UNL     1      60.697 -22.095   3.397  1.00  0.00    -0.289 OA
BRANCH  11  13
ATOM     13  C   UNL     1      60.373 -19.910   2.538  1.00  0.00     0.064 A 
ATOM     14  C   UNL     1      61.437 -19.970   1.604  1.00  0.00     0.130 A 
ATOM     15  C   UNL     1      59.753 -18.673   2.787  1.00  0.00     0.020 A 
ATOM     16  C   UNL     1      61.874 -18.798   0.974  1.00  0.00     0.093 A 
ATOM     17  C   UNL     1      60.188 -17.515   2.140  1.00  0.00     0.047 A 
ATOM     18  C   UNL     1      61.251 -17.571   1.238  1.00  0.00     0.119 A 
BRANCH  14  19
ATOM     19  O   UNL     1      62.061 -21.170   1.258  1.00  0.00    -0.507 OA
ATOM     20  H   UNL     1      61.996 -22.010   1.819  1.00  0.00     0.293 HD
ENDBRANCH  14  19
BRANCH  18  21
ATOM     21  O   UNL     1      61.680 -16.407   0.606  1.00  0.00    -0.508 OA
ATOM     22  H   UNL     1      62.171 -16.434  -0.280  1.00  0.00     0.293 HD
ENDBRANCH  18  21
ENDBRANCH  11  13
ENDBRANCH   2  11
TORSDOF 6
ENDMDL
MODEL 3
REMARK VINA RESULT:    -6.777      2.735      4.011
REMARK INTER + INTRA:          -9.203
REMARK INTER:                  -8.619
REMARK INTRA:                  -0.584
REMARK UNBOUND:                -0.643
REMARK SMILES O=C(C=Cc1ccc(O)cc1)c1ccc(O)cc1O
REMARK SMILES IDX 4 1 3 2 5 3 6 4 7 5 8 6 11 7 10 8 9 9 2 11 1 12 12 13 18 14
REMARK SMILES IDX 13 15 17 16 14 17 15 18 19 19 16 21
REMARK H PARENT 9 10 19 20 16 22
REMARK Flexibility Score: inf
ROOT
ATOM      1  C   UNL     1      60.799 -15.709   0.633  1.00  0.00     0.012 C 
ATOM      2  C   UNL     1      60.521 -17.011   0.475  1.00  0.00     0.053 C 
ENDROOT
BRANCH   1   3
ATOM      3  C   UNL     1      61.155 -14.801  -0.485  1.00  0.00    -0.025 A 
ATOM      4  C   UNL     1      60.791 -15.168  -1.791  1.00  0.00     0.012 A 
ATOM      5  C   UNL     1      61.097 -14.339  -2.875  1.00  0.00     0.047 A 
ATOM      6  C   UNL     1      61.760 -13.124  -2.666  1.00  0.00     0.115 A 
ATOM      7  C   UNL     1      61.809 -13.568  -0.283  1.00  0.00     0.012 A 
ATOM      8  C   UNL     1      62.112 -12.741  -1.369  1.00  0.00     0.047 A 
BRANCH   6   9
ATOM      9  O   UNL     1      62.070 -12.290  -3.737  1.00  0.00    -0.508 OA
ATOM     10  H   UNL     1      62.517 -11.391  -3.597  1.00  0.00     0.293 HD
ENDBRANCH   6   9
ENDBRANCH   1   3
BRANCH   2  11
ATOM     11  C   UNL     1      60.156 -17.883   1.612  1.00  0.00     0.189 C 
ATOM     12  O   UNL     1      59.470 -17.426   2.567  1.00  0.00    -0.289 OA
BRANCH  11  13
ATOM     13  C   UNL     1      60.618 -19.288   1.655  1.00  0.00     0.064 A 
ATOM     14  C   UNL     1      60.727 -20.003   2.874  1.00  0.00     0.130 A 
ATOM     15  C   UNL     1      60.998 -19.920   0.458  1.00  0.00     0.020 A 
ATOM     16  C   UNL     1      61.240 -21.306   2.870  1.00  0.00     0.093 A 
ATOM     17  C   UNL     1      61.493 -21.226   0.467  1.00  0.00     0.047 A 
ATOM     18  C   UNL     1      61.621 -21.920   1.671  1.00  0.00     0.119 A 
BRANCH  14  19
ATOM     19  O   UNL     1      60.313 -19.465   4.094  1.00  0.00    -0.507 OA
ATOM     20  H   UNL     1      60.947 -19.272   4.858  1.00  0.00     0.293 HD
ENDBRANCH  14  19
BRANCH  18  21
ATOM     21  O   UNL     1      62.125 -23.218   1.666  1.00  0.00    -0.508 OA
ATOM     22  H   UNL     1      63.012 -23.444   2.101  1.00  0.00     0.293 HD
ENDBRANCH  18  21
ENDBRANCH  11  13
ENDBRANCH   2  11
TORSDOF 6
ENDMDL
MODEL 4
REMARK VINA RESULT:    -6.704      5.547      8.283
REMARK INTER + INTRA:          -9.111
REMARK INTER:                  -8.494
REMARK INTRA:                  -0.617
REMARK UNBOUND:                -0.643
REMARK SMILES O=C(C=Cc1ccc(O)cc1)c1ccc(O)cc1O
REMARK SMILES IDX 4 1 3 2 5 3 6 4 7 5 8 6 11 7 10 8 9 9 2 11 1 12 12 13 18 14
REMARK SMILES IDX 13 15 17 16 14 17 15 18 19 19 16 21
REMARK H PARENT 9 10 19 20 16 22
REMARK Flexibility Score: inf
ROOT
ATOM      1  C   UNL     1      59.977 -19.304   2.779  1.00  0.00     0.012 C 
ATOM      2  C   UNL     1      58.729 -19.762   2.957  1.00  0.00     0.053 C 
ENDROOT
BRANCH   1   3
ATOM      3  C   UNL     1      60.298 -18.056   2.044  1.00  0.00    -0.025 A 
ATOM      4  C   UNL     1      59.509 -16.917   2.275  1.00  0.00     0.012 A 
ATOM      5  C   UNL     1      59.780 -15.716   1.612  1.00  0.00     0.047 A 
ATOM      6  C   UNL     1      60.854 -15.634   0.717  1.00  0.00     0.115 A 
ATOM      7  C   UNL     1      61.387 -17.959   1.152  1.00  0.00     0.012 A 
ATOM      8  C   UNL     1      61.655 -16.756   0.492  1.00  0.00     0.047 A 
BRANCH   6   9
ATOM      9  O   UNL     1      61.134 -14.443   0.051  1.00  0.00    -0.508 OA
ATOM     10  H   UNL     1      61.775 -14.414  -0.735  1.00  0.00     0.293 HD
ENDBRANCH   6   9
ENDBRANCH   1   3
BRANCH   2  11
ATOM     11  C   UNL     1      58.446 -21.004   3.709  1.00  0.00     0.189 C 
ATOM     12  O   UNL     1      59.388 -21.773   4.041  1.00  0.00    -0.289 OA
BRANCH  11  13
ATOM     13  C   UNL     1      57.053 -21.370   4.049  1.00  0.00     0.064 A 
ATOM     14  C   UNL     1      56.683 -21.772   5.357  1.00  0.00     0.130 A 
ATOM     15  C   UNL     1      56.075 -21.356   3.038  1.00  0.00     0.020 A 
ATOM     16  C   UNL     1      55.368 -22.181   5.611  1.00  0.00     0.093 A 
ATOM     17  C   UNL     1      54.764 -21.750   3.309  1.00  0.00     0.047 A 
ATOM     18  C   UNL     1      54.407 -22.168   4.592  1.00  0.00     0.119 A 
BRANCH  14  19
ATOM     19  O   UNL     1      57.581 -21.754   6.426  1.00  0.00    -0.507 OA
ATOM     20  H   UNL     1      58.584 -21.714   6.306  1.00  0.00     0.293 HD
ENDBRANCH  14  19
BRANCH  18  21
ATOM     21  O   UNL     1      53.097 -22.567   4.846  1.00  0.00    -0.508 OA
ATOM     22  H   UNL     1      52.871 -23.185   5.617  1.00  0.00     0.293 HD
ENDBRANCH  18  21
ENDBRANCH  11  13
ENDBRANCH   2  11
TORSDOF 6
ENDMDL
MODEL 5
REMARK VINA RESULT:    -6.679      2.713      8.330
REMARK INTER + INTRA:          -9.079
REMARK INTER:                  -8.447
REMARK INTRA:                  -0.632
REMARK UNBOUND:                -0.643
REMARK SMILES O=C(C=Cc1ccc(O)cc1)c1ccc(O)cc1O
REMARK SMILES IDX 4 1 3 2 5 3 6 4 7 5 8 6 11 7 10 8 9 9 2 11 1 12 12 13 18 14
REMARK SMILES IDX 13 15 17 16 14 17 15 18 19 19 16 21
REMARK H PARENT 9 10 19 20 16 22
REMARK Flexibility Score: inf
ROOT
ATOM      1  C   UNL     1      59.846 -18.085   2.053  1.00  0.00     0.012 C 
ATOM      2  C   UNL     1      60.592 -17.366   1.201  1.00  0.00     0.053 C 
ENDROOT
BRANCH   1   3
ATOM      3  C   UNL     1      60.144 -19.490   2.422  1.00  0.00    -0.025 A 
ATOM      4  C   UNL     1      60.672 -20.347   1.441  1.00  0.00     0.012 A 
ATOM      5  C   UNL     1      60.977 -21.677   1.746  1.00  0.00     0.047 A 
ATOM      6  C   UNL     1      60.771 -22.166   3.041  1.00  0.00     0.115 A 
ATOM      7  C   UNL     1      59.954 -19.988   3.728  1.00  0.00     0.012 A 
ATOM      8  C   UNL     1      60.262 -21.319   4.030  1.00  0.00     0.047 A 
BRANCH   6   9
ATOM      9  O   UNL     1      61.071 -23.489   3.358  1.00  0.00    -0.508 OA
ATOM     10  H   UNL     1      61.757 -23.721   4.066  1.00  0.00     0.293 HD
ENDBRANCH   6   9
ENDBRANCH   1   3
BRANCH   2  11
ATOM     11  C   UNL     1      60.273 -15.960   0.868  1.00  0.00     0.189 C 
ATOM     12  O   UNL     1      59.606 -15.254   1.671  1.00  0.00    -0.289 OA
BRANCH  11  13
ATOM     13  C   UNL     1      60.705 -15.382  -0.424  1.00  0.00     0.064 A 
ATOM     14  C   UNL     1      60.982 -14.000  -0.570  1.00  0.00     0.130 A 
ATOM     15  C   UNL     1      60.805 -16.220  -1.549  1.00  0.00     0.020 A 
ATOM     16  C   UNL     1      61.316 -13.489  -1.831  1.00  0.00     0.093 A 
ATOM     17  C   UNL     1      61.155 -15.700  -2.797  1.00  0.00     0.047 A 
ATOM     18  C   UNL     1      61.405 -14.335  -2.943  1.00  0.00     0.119 A 
BRANCH  14  19
ATOM     19  O   UNL     1      60.964 -13.117   0.511  1.00  0.00    -0.507 OA
ATOM     20  H   UNL     1      60.118 -12.860   1.002  1.00  0.00     0.293 HD
ENDBRANCH  14  19
BRANCH  18  21
ATOM     21  O   UNL     1      61.743 -13.828  -4.195  1.00  0.00    -0.508 OA
ATOM     22  H   UNL     1      62.030 -12.864  -4.317  1.00  0.00     0.293 HD
ENDBRANCH  18  21
ENDBRANCH  11  13
ENDBRANCH   2  11
TORSDOF 6
ENDMDL
MODEL 6
REMARK VINA RESULT:    -6.555      5.735      9.624
REMARK INTER + INTRA:          -8.922
REMARK INTER:                  -8.359
REMARK INTRA:                  -0.564
REMARK UNBOUND:                -0.643
REMARK SMILES O=C(C=Cc1ccc(O)cc1)c1ccc(O)cc1O
REMARK SMILES IDX 4 1 3 2 5 3 6 4 7 5 8 6 11 7 10 8 9 9 2 11 1 12 12 13 18 14
REMARK SMILES IDX 13 15 17 16 14 17 15 18 19 19 16 21
REMARK H PARENT 9 10 19 20 16 22
REMARK Flexibility Score: inf
ROOT
ATOM      1  C   UNL     1      58.094 -20.469   3.509  1.00  0.00     0.012 C 
ATOM      2  C   UNL     1      59.208 -21.055   3.973  1.00  0.00     0.053 C 
ENDROOT
BRANCH   1   3
ATOM      3  C   UNL     1      56.725 -20.966   3.791  1.00  0.00    -0.025 A 
ATOM      4  C   UNL     1      56.576 -22.234   4.375  1.00  0.00     0.012 A 
ATOM      5  C   UNL     1      55.305 -22.740   4.667  1.00  0.00     0.047 A 
ATOM      6  C   UNL     1      54.164 -21.976   4.391  1.00  0.00     0.115 A 
ATOM      7  C   UNL     1      55.571 -20.198   3.530  1.00  0.00     0.012 A 
ATOM      8  C   UNL     1      54.301 -20.705   3.825  1.00  0.00     0.047 A 
BRANCH   6   9
ATOM      9  O   UNL     1      52.893 -22.468   4.677  1.00  0.00    -0.508 OA
ATOM     10  H   UNL     1      52.634 -23.424   4.463  1.00  0.00     0.293 HD
ENDBRANCH   6   9
ENDBRANCH   1   3
BRANCH   2  11
ATOM     11  C   UNL     1      60.557 -20.523   3.684  1.00  0.00     0.189 C 
ATOM     12  O   UNL     1      61.408 -20.417   4.609  1.00  0.00    -0.289 OA
BRANCH  11  13
ATOM     13  C   UNL     1      60.909 -20.080   2.317  1.00  0.00     0.064 A 
ATOM     14  C   UNL     1      60.697 -18.747   1.885  1.00  0.00     0.130 A 
ATOM     15  C   UNL     1      61.432 -21.017   1.408  1.00  0.00     0.020 A 
ATOM     16  C   UNL     1      60.977 -18.396   0.558  1.00  0.00     0.093 A 
ATOM     17  C   UNL     1      61.722 -20.649   0.093  1.00  0.00     0.047 A 
ATOM     18  C   UNL     1      61.491 -19.341  -0.338  1.00  0.00     0.119 A 
BRANCH  14  19
ATOM     19  O   UNL     1      60.239 -17.747   2.744  1.00  0.00    -0.507 OA
ATOM     20  H   UNL     1      60.796 -17.366   3.497  1.00  0.00     0.293 HD
ENDBRANCH  14  19
BRANCH  18  21
ATOM     21  O   UNL     1      61.777 -18.990  -1.655  1.00  0.00    -0.508 OA
ATOM     22  H   UNL     1      62.119 -19.672  -2.323  1.00  0.00     0.293 HD
ENDBRANCH  18  21
ENDBRANCH  11  13
ENDBRANCH   2  11
TORSDOF 6
ENDMDL
MODEL 7
REMARK VINA RESULT:    -6.502      1.702      7.864
REMARK INTER + INTRA:          -8.855
REMARK INTER:                  -8.211
REMARK INTRA:                  -0.644
REMARK UNBOUND:                -0.643
REMARK SMILES O=C(C=Cc1ccc(O)cc1)c1ccc(O)cc1O
REMARK SMILES IDX 4 1 3 2 5 3 6 4 7 5 8 6 11 7 10 8 9 9 2 11 1 12 12 13 18 14
REMARK SMILES IDX 13 15 17 16 14 17 15 18 19 19 16 21
REMARK H PARENT 9 10 19 20 16 22
REMARK Flexibility Score: inf
ROOT
ATOM      1  C   UNL     1      61.333 -14.214  -2.325  1.00  0.00     0.012 C 
ATOM      2  C   UNL     1      61.173 -14.423  -3.640  1.00  0.00     0.053 C 
ENDROOT
BRANCH   1   3
ATOM      3  C   UNL     1      61.466 -15.305  -1.328  1.00  0.00    -0.025 A 
ATOM      4  C   UNL     1      61.973 -16.545  -1.751  1.00  0.00     0.012 A 
ATOM      5  C   UNL     1      62.125 -17.599  -0.845  1.00  0.00     0.047 A 
ATOM      6  C   UNL     1      61.782 -17.424   0.501  1.00  0.00     0.115 A 
ATOM      7  C   UNL     1      61.138 -15.133   0.033  1.00  0.00     0.012 A 
ATOM      8  C   UNL     1      61.292 -16.189   0.936  1.00  0.00     0.047 A 
BRANCH   6   9
ATOM      9  O   UNL     1      61.929 -18.466   1.413  1.00  0.00    -0.508 OA
ATOM     10  H   UNL     1      62.728 -18.518   2.034  1.00  0.00     0.293 HD
ENDBRANCH   6   9
ENDBRANCH   1   3
BRANCH   2  11
ATOM     11  C   UNL     1      61.060 -13.309  -4.607  1.00  0.00     0.189 C 
ATOM     12  O   UNL     1      62.064 -12.593  -4.869  1.00  0.00    -0.289 OA
BRANCH  11  13
ATOM     13  C   UNL     1      59.762 -13.006  -5.248  1.00  0.00     0.064 A 
ATOM     14  C   UNL     1      59.679 -12.289  -6.468  1.00  0.00     0.130 A 
ATOM     15  C   UNL     1      58.574 -13.406  -4.610  1.00  0.00     0.020 A 
ATOM     16  C   UNL     1      58.424 -11.963  -6.997  1.00  0.00     0.093 A 
ATOM     17  C   UNL     1      57.329 -13.087  -5.157  1.00  0.00     0.047 A 
ATOM     18  C   UNL     1      57.249 -12.361  -6.347  1.00  0.00     0.119 A 
BRANCH  14  19
ATOM     19  O   UNL     1      60.812 -11.912  -7.191  1.00  0.00    -0.507 OA
ATOM     20  H   UNL     1      60.778 -11.299  -7.994  1.00  0.00     0.293 HD
ENDBRANCH  14  19
BRANCH  18  21
ATOM     21  O   UNL     1      56.001 -12.043  -6.876  1.00  0.00    -0.508 OA
ATOM     22  H   UNL     1      55.287 -11.593  -6.314  1.00  0.00     0.293 HD
ENDBRANCH  18  21
ENDBRANCH  11  13
ENDBRANCH   2  11
TORSDOF 6
ENDMDL
MODEL 8
REMARK VINA RESULT:    -6.446      5.110      9.509
REMARK INTER + INTRA:          -8.785
REMARK INTER:                  -8.403
REMARK INTRA:                  -0.383
REMARK UNBOUND:                -0.643
REMARK SMILES O=C(C=Cc1ccc(O)cc1)c1ccc(O)cc1O
REMARK SMILES IDX 4 1 3 2 5 3 6 4 7 5 8 6 11 7 10 8 9 9 2 11 1 12 12 13 18 14
REMARK SMILES IDX 13 15 17 16 14 17 15 18 19 19 16 21
REMARK H PARENT 9 10 19 20 16 22
REMARK Flexibility Score: inf
ROOT
ATOM      1  C   UNL     1      58.639 -20.957   3.769  1.00  0.00     0.012 C 
ATOM      2  C   UNL     1      59.015 -19.843   3.124  1.00  0.00     0.053 C 
ENDROOT
BRANCH   1   3
ATOM      3  C   UNL     1      57.224 -21.319   4.028  1.00  0.00    -0.025 A 
ATOM      4  C   UNL     1      56.904 -21.965   5.234  1.00  0.00     0.012 A 
ATOM      5  C   UNL     1      55.583 -22.317   5.525  1.00  0.00     0.047 A 
ATOM      6  C   UNL     1      54.559 -22.015   4.620  1.00  0.00     0.115 A 
ATOM      7  C   UNL     1      56.183 -21.005   3.129  1.00  0.00     0.012 A 
ATOM      8  C   UNL     1      54.863 -21.357   3.424  1.00  0.00     0.047 A 
BRANCH   6   9
ATOM      9  O   UNL     1      53.239 -22.359   4.898  1.00  0.00    -0.508 OA
ATOM     10  H   UNL     1      53.011 -23.138   5.506  1.00  0.00     0.293 HD
ENDBRANCH   6   9
ENDBRANCH   1   3
BRANCH   2  11
ATOM     11  C   UNL     1      60.437 -19.521   2.871  1.00  0.00     0.189 C 
ATOM     12  O   UNL     1      61.336 -19.988   3.621  1.00  0.00    -0.289 OA
BRANCH  11  13
ATOM     13  C   UNL     1      60.813 -18.624   1.756  1.00  0.00     0.064 A 
ATOM     14  C   UNL     1      60.532 -17.235   1.787  1.00  0.00     0.130 A 
ATOM     15  C   UNL     1      61.431 -19.170   0.617  1.00  0.00     0.020 A 
ATOM     16  C   UNL     1      60.841 -16.441   0.675  1.00  0.00     0.093 A 
ATOM     17  C   UNL     1      61.748 -18.363  -0.477  1.00  0.00     0.047 A 
ATOM     18  C   UNL     1      61.450 -16.999  -0.455  1.00  0.00     0.119 A 
BRANCH  14  19
ATOM     19  O   UNL     1      59.977 -16.609   2.905  1.00  0.00    -0.507 OA
ATOM     20  H   UNL     1      59.147 -16.033   2.862  1.00  0.00     0.293 HD
ENDBRANCH  14  19
BRANCH  18  21
ATOM     21  O   UNL     1      61.764 -16.209  -1.557  1.00  0.00    -0.508 OA
ATOM     22  H   UNL     1      61.233 -16.266  -2.419  1.00  0.00     0.293 HD
ENDBRANCH  18  21
ENDBRANCH  11  13
ENDBRANCH   2  11
TORSDOF 6
ENDMDL
