MODEL 1
REMARK VINA RESULT:    -5.826      0.000      0.000
REMARK INTER + INTRA:         -17.945
REMARK INTER:                 -13.320
REMARK INTRA:                  -4.625
REMARK UNBOUND:                -4.625
REMARK SMILES CCCCCCCCCCCCCCCCCCCCCCCC(=O)[O-]
REMARK SMILES IDX 13 1 14 2 15 3 16 4 17 5 18 6 19 7 20 8 21 9 22 10 23 11
REMARK SMILES IDX 24 12 25 13 26 14 12 15 11 16 10 17 9 18 8 19 7 20 6 21 5 22
REMARK SMILES IDX 4 23 3 24 2 25 1 26
REMARK H PARENT
REMARK Flexibility Score: inf
ROOT
ATOM      1  C   UNL     1      14.022  -3.754  16.622  1.00  0.00     0.000 C 
ENDROOT
BRANCH   1   2
ATOM      2  C   UNL     1      14.773  -4.568  15.552  1.00  0.00     0.000 C 
BRANCH   2   3
ATOM      3  C   UNL     1      14.930  -6.064  15.872  1.00  0.00     0.000 C 
BRANCH   3   4
ATOM      4  C   UNL     1      15.951  -6.761  14.959  1.00  0.00     0.000 C 
BRANCH   4   5
ATOM      5  C   UNL     1      16.364  -5.848  13.794  1.00  0.00     0.000 C 
BRANCH   5   6
ATOM      6  C   UNL     1      16.694  -6.647  12.515  1.00  0.00     0.000 C 
BRANCH   6   7
ATOM      7  C   UNL     1      17.217  -5.781  11.355  1.00  0.00     0.000 C 
BRANCH   7   8
ATOM      8  C   UNL     1      16.187  -5.612  10.227  1.00  0.00     0.000 C 
BRANCH   8   9
ATOM      9  C   UNL     1      15.052  -4.637  10.588  1.00  0.00     0.000 C 
BRANCH   9  10
ATOM     10  C   UNL     1      13.666  -5.286  10.798  1.00  0.00     0.006 C 
BRANCH  10  11
ATOM     11  C   UNL     1      13.145  -5.243  12.243  1.00  0.00     0.053 C 
BRANCH  11  12
ATOM     12  C   UNL     1      12.097  -4.190  12.433  1.00  0.00     0.041 C 
ATOM     13  O   UNL     1      11.984  -3.598  13.540  1.00  0.00    -0.550 OA
ATOM     14  O   UNL     1      11.271  -3.834  11.374  1.00  0.00    -0.550 OA
ENDBRANCH  11  12
ENDBRANCH  10  11
ENDBRANCH   9  10
ENDBRANCH   8   9
ENDBRANCH   7   8
ENDBRANCH   6   7
ENDBRANCH   5   6
ENDBRANCH   4   5
ENDBRANCH   3   4
ENDBRANCH   2   3
ENDBRANCH   1   2
BRANCH   1  15
ATOM     15  C   UNL     1      14.950  -2.959  17.565  1.00  0.00     0.000 C 
BRANCH  15  16
ATOM     16  C   UNL     1      16.290  -2.595  16.899  1.00  0.00     0.000 C 
BRANCH  16  17
ATOM     17  C   UNL     1      17.500  -2.953  17.775  1.00  0.00     0.000 C 
BRANCH  17  18
ATOM     18  C   UNL     1      18.771  -3.209  16.945  1.00  0.00    -0.000 C 
BRANCH  18  19
ATOM     19  C   UNL     1      18.530  -4.187  15.784  1.00  0.00    -0.000 C 
BRANCH  19  20
ATOM     20  C   UNL     1      19.607  -4.071  14.690  1.00  0.00    -0.000 C 
BRANCH  20  21
ATOM     21  C   UNL     1      19.078  -3.417  13.404  1.00  0.00    -0.000 C 
BRANCH  21  22
ATOM     22  C   UNL     1      18.976  -1.887  13.515  1.00  0.00    -0.000 C 
BRANCH  22  23
ATOM     23  C   UNL     1      17.525  -1.449  13.752  1.00  0.00    -0.000 C 
BRANCH  23  24
ATOM     24  C   UNL     1      16.510  -2.272  12.939  1.00  0.00    -0.000 C 
BRANCH  24  25
ATOM     25  C   UNL     1      15.040  -1.903  13.230  1.00  0.00    -0.003 C 
ATOM     26  C   UNL     1      14.382  -1.165  12.062  1.00  0.00     0.004 C 
ENDBRANCH  24  25
ENDBRANCH  23  24
ENDBRANCH  22  23
ENDBRANCH  21  22
ENDBRANCH  20  21
ENDBRANCH  19  20
ENDBRANCH  18  19
ENDBRANCH  17  18
ENDBRANCH  16  17
ENDBRANCH  15  16
ENDBRANCH   1  15
TORSDOF 22
ENDMDL
MODEL 2
REMARK VINA RESULT:    -5.826      1.696      4.553
REMARK INTER + INTRA:         -17.943
REMARK INTER:                 -13.849
REMARK INTRA:                  -4.094
REMARK UNBOUND:                -4.625
REMARK SMILES CCCCCCCCCCCCCCCCCCCCCCCC(=O)[O-]
REMARK SMILES IDX 13 1 14 2 15 3 16 4 17 5 18 6 19 7 20 8 21 9 22 10 23 11
REMARK SMILES IDX 24 12 25 13 26 14 12 15 11 16 10 17 9 18 8 19 7 20 6 21 5 22
REMARK SMILES IDX 4 23 3 24 2 25 1 26
REMARK H PARENT
REMARK Flexibility Score: inf
ROOT
ATOM      1  C   UNL     1      18.013  -4.296  13.078  1.00  0.00     0.000 C 
ENDROOT
BRANCH   1   2
ATOM      2  C   UNL     1      18.318  -5.405  12.054  1.00  0.00     0.000 C 
BRANCH   2   3
ATOM      3  C   UNL     1      17.088  -5.958  11.316  1.00  0.00     0.000 C 
BRANCH   3   4
ATOM      4  C   UNL     1      16.106  -4.856  10.889  1.00  0.00     0.000 C 
BRANCH   4   5
ATOM      5  C   UNL     1      15.110  -5.377   9.843  1.00  0.00     0.000 C 
BRANCH   5   6
ATOM      6  C   UNL     1      13.676  -5.482  10.404  1.00  0.00     0.000 C 
BRANCH   6   7
ATOM      7  C   UNL     1      13.608  -5.545  11.940  1.00  0.00     0.000 C 
BRANCH   7   8
ATOM      8  C   UNL     1      12.517  -4.634  12.525  1.00  0.00     0.000 C 
BRANCH   8   9
ATOM      9  C   UNL     1      12.654  -3.166  12.081  1.00  0.00     0.000 C 
BRANCH   9  10
ATOM     10  C   UNL     1      13.323  -2.226  13.107  1.00  0.00     0.006 C 
BRANCH  10  11
ATOM     11  C   UNL     1      14.860  -2.255  13.104  1.00  0.00     0.053 C 
BRANCH  11  12
ATOM     12  C   UNL     1      15.445  -1.009  12.512  1.00  0.00     0.041 C 
ATOM     13  O   UNL     1      16.612  -0.647  12.821  1.00  0.00    -0.550 OA
ATOM     14  O   UNL     1      14.716  -0.271  11.587  1.00  0.00    -0.550 OA
ENDBRANCH  11  12
ENDBRANCH  10  11
ENDBRANCH   9  10
ENDBRANCH   8   9
ENDBRANCH   7   8
ENDBRANCH   6   7
ENDBRANCH   5   6
ENDBRANCH   4   5
ENDBRANCH   3   4
ENDBRANCH   2   3
ENDBRANCH   1   2
BRANCH   1  15
ATOM     15  C   UNL     1      19.122  -3.228  13.188  1.00  0.00     0.000 C 
BRANCH  15  16
ATOM     16  C   UNL     1      19.039  -2.430  14.502  1.00  0.00     0.000 C 
BRANCH  16  17
ATOM     17  C   UNL     1      19.608  -3.207  15.700  1.00  0.00     0.000 C 
BRANCH  17  18
ATOM     18  C   UNL     1      18.507  -3.868  16.548  1.00  0.00    -0.000 C 
BRANCH  18  19
ATOM     19  C   UNL     1      18.222  -3.098  17.848  1.00  0.00    -0.000 C 
BRANCH  19  20
ATOM     20  C   UNL     1      16.728  -2.768  18.017  1.00  0.00    -0.000 C 
BRANCH  20  21
ATOM     21  C   UNL     1      15.932  -2.935  16.712  1.00  0.00    -0.000 C 
BRANCH  21  22
ATOM     22  C   UNL     1      14.465  -3.322  16.957  1.00  0.00    -0.000 C 
BRANCH  22  23
ATOM     23  C   UNL     1      14.036  -4.466  16.028  1.00  0.00    -0.000 C 
BRANCH  23  24
ATOM     24  C   UNL     1      15.229  -5.186  15.375  1.00  0.00    -0.000 C 
BRANCH  24  25
ATOM     25  C   UNL     1      15.205  -6.718  15.562  1.00  0.00    -0.003 C 
ATOM     26  C   UNL     1      15.785  -7.462  14.358  1.00  0.00     0.004 C 
ENDBRANCH  24  25
ENDBRANCH  23  24
ENDBRANCH  22  23
ENDBRANCH  21  22
ENDBRANCH  20  21
ENDBRANCH  19  20
ENDBRANCH  18  19
ENDBRANCH  17  18
ENDBRANCH  16  17
ENDBRANCH  15  16
ENDBRANCH   1  15
TORSDOF 22
ENDMDL
MODEL 3
REMARK VINA RESULT:    -5.779      1.172      4.501
REMARK INTER + INTRA:         -17.837
REMARK INTER:                 -13.701
REMARK INTRA:                  -4.135
REMARK UNBOUND:                -4.625
REMARK SMILES CCCCCCCCCCCCCCCCCCCCCCCC(=O)[O-]
REMARK SMILES IDX 13 1 14 2 15 3 16 4 17 5 18 6 19 7 20 8 21 9 22 10 23 11
REMARK SMILES IDX 24 12 25 13 26 14 12 15 11 16 10 17 9 18 8 19 7 20 6 21 5 22
REMARK SMILES IDX 4 23 3 24 2 25 1 26
REMARK H PARENT
REMARK Flexibility Score: inf
ROOT
ATOM      1  C   UNL     1      14.075  -3.464  16.699  1.00  0.00     0.000 C 
ENDROOT
BRANCH   1   2
ATOM      2  C   UNL     1      15.168  -2.779  17.540  1.00  0.00     0.000 C 
BRANCH   2   3
ATOM      3  C   UNL     1      16.527  -2.632  16.836  1.00  0.00     0.000 C 
BRANCH   3   4
ATOM      4  C   UNL     1      17.708  -3.010  17.743  1.00  0.00     0.000 C 
BRANCH   4   5
ATOM      5  C   UNL     1      18.980  -3.260  16.919  1.00  0.00     0.000 C 
BRANCH   5   6
ATOM      6  C   UNL     1      18.716  -4.163  15.695  1.00  0.00     0.000 C 
BRANCH   6   7
ATOM      7  C   UNL     1      19.376  -3.666  14.397  1.00  0.00     0.000 C 
BRANCH   7   8
ATOM      8  C   UNL     1      18.360  -3.108  13.388  1.00  0.00     0.000 C 
BRANCH   8   9
ATOM      9  C   UNL     1      18.345  -1.569  13.336  1.00  0.00     0.000 C 
BRANCH   9  10
ATOM     10  C   UNL     1      16.999  -0.936  12.920  1.00  0.00     0.006 C 
BRANCH  10  11
ATOM     11  C   UNL     1      15.789  -1.881  13.000  1.00  0.00     0.053 C 
BRANCH  11  12
ATOM     12  C   UNL     1      14.512  -1.193  12.625  1.00  0.00     0.041 C 
ATOM     13  O   UNL     1      14.502  -0.330  11.707  1.00  0.00    -0.550 OA
ATOM     14  O   UNL     1      13.326  -1.538  13.261  1.00  0.00    -0.550 OA
ENDBRANCH  11  12
ENDBRANCH  10  11
ENDBRANCH   9  10
ENDBRANCH   8   9
ENDBRANCH   7   8
ENDBRANCH   6   7
ENDBRANCH   5   6
ENDBRANCH   4   5
ENDBRANCH   3   4
ENDBRANCH   2   3
ENDBRANCH   1   2
BRANCH   1  15
ATOM     15  C   UNL     1      14.623  -4.275  15.506  1.00  0.00     0.000 C 
BRANCH  15  16
ATOM     16  C   UNL     1      14.778  -5.771  15.837  1.00  0.00     0.000 C 
BRANCH  16  17
ATOM     17  C   UNL     1      15.872  -6.450  14.998  1.00  0.00     0.000 C 
BRANCH  17  18
ATOM     18  C   UNL     1      16.082  -5.762  13.637  1.00  0.00    -0.000 C 
BRANCH  18  19
ATOM     19  C   UNL     1      16.808  -6.664  12.626  1.00  0.00    -0.000 C 
BRANCH  19  20
ATOM     20  C   UNL     1      17.114  -5.933  11.306  1.00  0.00    -0.000 C 
BRANCH  20  21
ATOM     21  C   UNL     1      15.972  -5.005  10.863  1.00  0.00    -0.000 C 
BRANCH  21  22
ATOM     22  C   UNL     1      15.173  -5.569   9.677  1.00  0.00    -0.000 C 
BRANCH  22  23
ATOM     23  C   UNL     1      13.664  -5.444   9.924  1.00  0.00    -0.000 C 
BRANCH  23  24
ATOM     24  C   UNL     1      13.312  -4.351  10.947  1.00  0.00    -0.000 C 
BRANCH  24  25
ATOM     25  C   UNL     1      12.862  -4.905  12.316  1.00  0.00    -0.003 C 
ATOM     26  C   UNL     1      11.469  -4.414  12.714  1.00  0.00     0.004 C 
ENDBRANCH  24  25
ENDBRANCH  23  24
ENDBRANCH  22  23
ENDBRANCH  21  22
ENDBRANCH  20  21
ENDBRANCH  19  20
ENDBRANCH  18  19
ENDBRANCH  17  18
ENDBRANCH  16  17
ENDBRANCH  15  16
ENDBRANCH   1  15
TORSDOF 22
ENDMDL
MODEL 4
REMARK VINA RESULT:    -5.642      1.669      4.778
REMARK INTER + INTRA:         -17.523
REMARK INTER:                 -13.313
REMARK INTRA:                  -4.209
REMARK UNBOUND:                -4.625
REMARK SMILES CCCCCCCCCCCCCCCCCCCCCCCC(=O)[O-]
REMARK SMILES IDX 13 1 14 2 15 3 16 4 17 5 18 6 19 7 20 8 21 9 22 10 23 11
REMARK SMILES IDX 24 12 25 13 26 14 12 15 11 16 10 17 9 18 8 19 7 20 6 21 5 22
REMARK SMILES IDX 4 23 3 24 2 25 1 26
REMARK H PARENT
REMARK Flexibility Score: inf
ROOT
ATOM      1  C   UNL     1      18.259  -3.600  13.408  1.00  0.00     0.000 C 
ENDROOT
BRANCH   1   2
ATOM      2  C   UNL     1      18.448  -2.076  13.309  1.00  0.00     0.000 C 
BRANCH   2   3
ATOM      3  C   UNL     1      17.165  -1.251  13.505  1.00  0.00     0.000 C 
BRANCH   3   4
ATOM      4  C   UNL     1      15.931  -1.917  12.878  1.00  0.00     0.000 C 
BRANCH   4   5
ATOM      5  C   UNL     1      14.990  -0.869  12.264  1.00  0.00     0.000 C 
BRANCH   5   6
ATOM      6  C   UNL     1      13.532  -1.369  12.185  1.00  0.00     0.000 C 
BRANCH   6   7
ATOM      7  C   UNL     1      13.010  -1.985  13.496  1.00  0.00     0.000 C 
BRANCH   7   8
ATOM      8  C   UNL     1      12.363  -3.363  13.290  1.00  0.00     0.000 C 
BRANCH   8   9
ATOM      9  C   UNL     1      12.427  -3.847  11.829  1.00  0.00     0.000 C 
BRANCH   9  10
ATOM     10  C   UNL     1      13.386  -5.028  11.567  1.00  0.00     0.006 C 
BRANCH  10  11
ATOM     11  C   UNL     1      14.629  -4.679  10.732  1.00  0.00     0.053 C 
BRANCH  11  12
ATOM     12  C   UNL     1      14.751  -5.544   9.515  1.00  0.00     0.041 C 
ATOM     13  O   UNL     1      15.887  -5.901   9.101  1.00  0.00    -0.550 OA
ATOM     14  O   UNL     1      13.608  -5.991   8.863  1.00  0.00    -0.550 OA
ENDBRANCH  11  12
ENDBRANCH  10  11
ENDBRANCH   9  10
ENDBRANCH   8   9
ENDBRANCH   7   8
ENDBRANCH   6   7
ENDBRANCH   5   6
ENDBRANCH   4   5
ENDBRANCH   3   4
ENDBRANCH   2   3
ENDBRANCH   1   2
BRANCH   1  15
ATOM     15  C   UNL     1      18.908  -4.229  14.660  1.00  0.00     0.000 C 
BRANCH  15  16
ATOM     16  C   UNL     1      19.807  -3.234  15.416  1.00  0.00     0.000 C 
BRANCH  16  17
ATOM     17  C   UNL     1      19.296  -2.938  16.835  1.00  0.00     0.000 C 
BRANCH  17  18
ATOM     18  C   UNL     1      17.914  -3.561  17.104  1.00  0.00    -0.000 C 
BRANCH  18  19
ATOM     19  C   UNL     1      17.134  -2.816  18.200  1.00  0.00    -0.000 C 
BRANCH  19  20
ATOM     20  C   UNL     1      15.648  -2.636  17.841  1.00  0.00    -0.000 C 
BRANCH  20  21
ATOM     21  C   UNL     1      15.324  -3.092  16.409  1.00  0.00    -0.000 C 
BRANCH  21  22
ATOM     22  C   UNL     1      14.306  -4.243  16.368  1.00  0.00    -0.000 C 
BRANCH  22  23
ATOM     23  C   UNL     1      14.936  -5.512  15.781  1.00  0.00    -0.000 C 
BRANCH  23  24
ATOM     24  C   UNL     1      15.397  -5.334  14.324  1.00  0.00    -0.000 C 
BRANCH  24  25
ATOM     25  C   UNL     1      16.036  -6.601  13.717  1.00  0.00    -0.003 C 
ATOM     26  C   UNL     1      15.705  -7.861  14.519  1.00  0.00     0.004 C 
ENDBRANCH  24  25
ENDBRANCH  23  24
ENDBRANCH  22  23
ENDBRANCH  21  22
ENDBRANCH  20  21
ENDBRANCH  19  20
ENDBRANCH  18  19
ENDBRANCH  17  18
ENDBRANCH  16  17
ENDBRANCH  15  16
ENDBRANCH   1  15
TORSDOF 22
ENDMDL
MODEL 5
REMARK VINA RESULT:    -5.640      1.956      5.645
REMARK INTER + INTRA:         -17.518
REMARK INTER:                 -13.877
REMARK INTRA:                  -3.641
REMARK UNBOUND:                -4.625
REMARK SMILES CCCCCCCCCCCCCCCCCCCCCCCC(=O)[O-]
REMARK SMILES IDX 13 1 14 2 15 3 16 4 17 5 18 6 19 7 20 8 21 9 22 10 23 11
REMARK SMILES IDX 24 12 25 13 26 14 12 15 11 16 10 17 9 18 8 19 7 20 6 21 5 22
REMARK SMILES IDX 4 23 3 24 2 25 1 26
REMARK H PARENT
REMARK Flexibility Score: inf
ROOT
ATOM      1  C   UNL     1      13.744  -2.904  14.405  1.00  0.00     0.000 C 
ENDROOT
BRANCH   1   2
ATOM      2  C   UNL     1      13.162  -3.384  15.747  1.00  0.00     0.000 C 
BRANCH   2   3
ATOM      3  C   UNL     1      14.148  -3.356  16.926  1.00  0.00     0.000 C 
BRANCH   3   4
ATOM      4  C   UNL     1      15.616  -3.381  16.473  1.00  0.00     0.000 C 
BRANCH   4   5
ATOM      5  C   UNL     1      16.531  -2.744  17.530  1.00  0.00     0.000 C 
BRANCH   5   6
ATOM      6  C   UNL     1      17.939  -3.377  17.540  1.00  0.00     0.000 C 
BRANCH   6   7
ATOM      7  C   UNL     1      18.258  -4.213  16.287  1.00  0.00     0.000 C 
BRANCH   7   8
ATOM      8  C   UNL     1      19.440  -3.651  15.482  1.00  0.00     0.000 C 
BRANCH   8   9
ATOM      9  C   UNL     1      19.326  -3.927  13.972  1.00  0.00     0.000 C 
BRANCH   9  10
ATOM     10  C   UNL     1      18.778  -2.757  13.126  1.00  0.00     0.006 C 
BRANCH  10  11
ATOM     11  C   UNL     1      17.319  -2.374  13.423  1.00  0.00     0.053 C 
BRANCH  11  12
ATOM     12  C   UNL     1      17.013  -0.965  13.015  1.00  0.00     0.041 C 
ATOM     13  O   UNL     1      17.853  -0.047  13.221  1.00  0.00    -0.550 OA
ATOM     14  O   UNL     1      15.818  -0.673  12.370  1.00  0.00    -0.550 OA
ENDBRANCH  11  12
ENDBRANCH  10  11
ENDBRANCH   9  10
ENDBRANCH   8   9
ENDBRANCH   7   8
ENDBRANCH   6   7
ENDBRANCH   5   6
ENDBRANCH   4   5
ENDBRANCH   3   4
ENDBRANCH   2   3
ENDBRANCH   1   2
BRANCH   1  15
ATOM     15  C   UNL     1      12.803  -1.968  13.617  1.00  0.00     0.000 C 
BRANCH  15  16
ATOM     16  C   UNL     1      12.728  -2.334  12.123  1.00  0.00     0.000 C 
BRANCH  16  17
ATOM     17  C   UNL     1      12.014  -3.673  11.879  1.00  0.00     0.000 C 
BRANCH  17  18
ATOM     18  C   UNL     1      12.646  -4.475  10.728  1.00  0.00    -0.000 C 
BRANCH  18  19
ATOM     19  C   UNL     1      14.178  -4.550  10.832  1.00  0.00    -0.000 C 
BRANCH  19  20
ATOM     20  C   UNL     1      14.781  -5.564   9.843  1.00  0.00    -0.000 C 
BRANCH  20  21
ATOM     21  C   UNL     1      16.306  -5.697   9.986  1.00  0.00    -0.000 C 
BRANCH  21  22
ATOM     22  C   UNL     1      16.814  -5.251  11.367  1.00  0.00    -0.000 C 
BRANCH  22  23
ATOM     23  C   UNL     1      16.713  -6.395  12.384  1.00  0.00    -0.000 C 
BRANCH  23  24
ATOM     24  C   UNL     1      16.012  -5.977  13.689  1.00  0.00    -0.000 C 
BRANCH  24  25
ATOM     25  C   UNL     1      15.980  -7.089  14.758  1.00  0.00    -0.003 C 
ATOM     26  C   UNL     1      14.896  -6.854  15.811  1.00  0.00     0.004 C 
ENDBRANCH  24  25
ENDBRANCH  23  24
ENDBRANCH  22  23
ENDBRANCH  21  22
ENDBRANCH  20  21
ENDBRANCH  19  20
ENDBRANCH  18  19
ENDBRANCH  17  18
ENDBRANCH  16  17
ENDBRANCH  15  16
ENDBRANCH   1  15
TORSDOF 22
ENDMDL
MODEL 6
REMARK VINA RESULT:    -5.638      1.676      4.308
REMARK INTER + INTRA:         -17.513
REMARK INTER:                 -13.371
REMARK INTRA:                  -4.142
REMARK UNBOUND:                -4.625
REMARK SMILES CCCCCCCCCCCCCCCCCCCCCCCC(=O)[O-]
REMARK SMILES IDX 13 1 14 2 15 3 16 4 17 5 18 6 19 7 20 8 21 9 22 10 23 11
REMARK SMILES IDX 24 12 25 13 26 14 12 15 11 16 10 17 9 18 8 19 7 20 6 21 5 22
REMARK SMILES IDX 4 23 3 24 2 25 1 26
REMARK H PARENT
REMARK Flexibility Score: inf
ROOT
ATOM      1  C   UNL     1      15.902  -6.990  13.911  1.00  0.00     0.000 C 
ENDROOT
BRANCH   1   2
ATOM      2  C   UNL     1      16.321  -6.342  12.579  1.00  0.00     0.000 C 
BRANCH   2   3
ATOM      3  C   UNL     1      15.973  -4.850  12.449  1.00  0.00     0.000 C 
BRANCH   3   4
ATOM      4  C   UNL     1      15.262  -4.520  11.128  1.00  0.00     0.000 C 
BRANCH   4   5
ATOM      5  C   UNL     1      14.182  -5.564  10.806  1.00  0.00     0.000 C 
BRANCH   5   6
ATOM      6  C   UNL     1      12.881  -4.917  10.286  1.00  0.00     0.000 C 
BRANCH   6   7
ATOM      7  C   UNL     1      12.378  -3.744  11.147  1.00  0.00     0.000 C 
BRANCH   7   8
ATOM      8  C   UNL     1      11.870  -4.194  12.526  1.00  0.00     0.000 C 
BRANCH   8   9
ATOM      9  C   UNL     1      12.232  -3.210  13.653  1.00  0.00     0.000 C 
BRANCH   9  10
ATOM     10  C   UNL     1      12.851  -1.874  13.189  1.00  0.00     0.006 C 
BRANCH  10  11
ATOM     11  C   UNL     1      14.367  -1.752  13.411  1.00  0.00     0.053 C 
BRANCH  11  12
ATOM     12  C   UNL     1      15.035  -0.969  12.322  1.00  0.00     0.041 C 
ATOM     13  O   UNL     1      16.281  -1.055  12.151  1.00  0.00    -0.550 OA
ATOM     14  O   UNL     1      14.274  -0.177  11.471  1.00  0.00    -0.550 OA
ENDBRANCH  11  12
ENDBRANCH  10  11
ENDBRANCH   9  10
ENDBRANCH   8   9
ENDBRANCH   7   8
ENDBRANCH   6   7
ENDBRANCH   5   6
ENDBRANCH   4   5
ENDBRANCH   3   4
ENDBRANCH   2   3
ENDBRANCH   1   2
BRANCH   1  15
ATOM     15  C   UNL     1      16.185  -6.112  15.148  1.00  0.00     0.000 C 
BRANCH  15  16
ATOM     16  C   UNL     1      14.990  -6.062  16.117  1.00  0.00     0.000 C 
BRANCH  16  17
ATOM     17  C   UNL     1      14.348  -4.667  16.190  1.00  0.00     0.000 C 
BRANCH  17  18
ATOM     18  C   UNL     1      15.394  -3.539  16.215  1.00  0.00    -0.000 C 
BRANCH  18  19
ATOM     19  C   UNL     1      15.389  -2.758  17.539  1.00  0.00    -0.000 C 
BRANCH  19  20
ATOM     20  C   UNL     1      16.791  -2.662  18.167  1.00  0.00    -0.000 C 
BRANCH  20  21
ATOM     21  C   UNL     1      17.775  -3.686  17.580  1.00  0.00    -0.000 C 
BRANCH  21  22
ATOM     22  C   UNL     1      18.898  -3.028  16.761  1.00  0.00    -0.000 C 
BRANCH  22  23
ATOM     23  C   UNL     1      19.069  -3.726  15.405  1.00  0.00    -0.000 C 
BRANCH  23  24
ATOM     24  C   UNL     1      18.470  -2.923  14.238  1.00  0.00    -0.000 C 
BRANCH  24  25
ATOM     25  C   UNL     1      19.237  -3.096  12.910  1.00  0.00    -0.003 C 
ATOM     26  C   UNL     1      19.625  -4.553  12.647  1.00  0.00     0.004 C 
ENDBRANCH  24  25
ENDBRANCH  23  24
ENDBRANCH  22  23
ENDBRANCH  21  22
ENDBRANCH  20  21
ENDBRANCH  19  20
ENDBRANCH  18  19
ENDBRANCH  17  18
ENDBRANCH  16  17
ENDBRANCH  15  16
ENDBRANCH   1  15
TORSDOF 22
ENDMDL
MODEL 7
REMARK VINA RESULT:    -5.635      2.450      6.118
REMARK INTER + INTRA:         -17.507
REMARK INTER:                 -13.171
REMARK INTRA:                  -4.336
REMARK UNBOUND:                -4.625
REMARK SMILES CCCCCCCCCCCCCCCCCCCCCCCC(=O)[O-]
REMARK SMILES IDX 13 1 14 2 15 3 16 4 17 5 18 6 19 7 20 8 21 9 22 10 23 11
REMARK SMILES IDX 24 12 25 13 26 14 12 15 11 16 10 17 9 18 8 19 7 20 6 21 5 22
REMARK SMILES IDX 4 23 3 24 2 25 1 26
REMARK H PARENT
REMARK Flexibility Score: inf
ROOT
ATOM      1  C   UNL     1      12.248  -4.178  12.827  1.00  0.00     0.000 C 
ENDROOT
BRANCH   1   2
ATOM      2  C   UNL     1      12.263  -2.938  13.740  1.00  0.00     0.000 C 
BRANCH   2   3
ATOM      3  C   UNL     1      13.157  -1.787  13.252  1.00  0.00     0.000 C 
BRANCH   3   4
ATOM      4  C   UNL     1      14.577  -2.250  12.891  1.00  0.00     0.000 C 
BRANCH   4   5
ATOM      5  C   UNL     1      15.384  -1.112  12.250  1.00  0.00     0.000 C 
BRANCH   5   6
ATOM      6  C   UNL     1      16.794  -0.978  12.863  1.00  0.00     0.000 C 
BRANCH   6   7
ATOM      7  C   UNL     1      17.338  -2.283  13.470  1.00  0.00     0.000 C 
BRANCH   7   8
ATOM      8  C   UNL     1      18.814  -2.533  13.119  1.00  0.00     0.000 C 
BRANCH   8   9
ATOM      9  C   UNL     1      19.228  -4.008  13.271  1.00  0.00     0.000 C 
BRANCH   9  10
ATOM     10  C   UNL     1      19.729  -4.412  14.675  1.00  0.00     0.006 C 
BRANCH  10  11
ATOM     11  C   UNL     1      18.649  -4.419  15.769  1.00  0.00     0.053 C 
BRANCH  11  12
ATOM     12  C   UNL     1      18.815  -3.283  16.731  1.00  0.00     0.041 C 
ATOM     13  O   UNL     1      19.834  -2.543  16.671  1.00  0.00    -0.550 OA
ATOM     14  O   UNL     1      17.823  -3.017  17.668  1.00  0.00    -0.550 OA
ENDBRANCH  11  12
ENDBRANCH  10  11
ENDBRANCH   9  10
ENDBRANCH   8   9
ENDBRANCH   7   8
ENDBRANCH   6   7
ENDBRANCH   5   6
ENDBRANCH   4   5
ENDBRANCH   3   4
ENDBRANCH   2   3
ENDBRANCH   1   2
BRANCH   1  15
ATOM     15  C   UNL     1      11.686  -3.905  11.415  1.00  0.00     0.000 C 
BRANCH  15  16
ATOM     16  C   UNL     1      12.590  -4.471  10.305  1.00  0.00     0.000 C 
BRANCH  16  17
ATOM     17  C   UNL     1      13.767  -5.287  10.863  1.00  0.00     0.000 C 
BRANCH  17  18
ATOM     18  C   UNL     1      15.080  -5.017  10.107  1.00  0.00    -0.000 C 
BRANCH  18  19
ATOM     19  C   UNL     1      16.313  -5.552  10.854  1.00  0.00    -0.000 C 
BRANCH  19  20
ATOM     20  C   UNL     1      16.112  -5.563  12.380  1.00  0.00    -0.000 C 
BRANCH  20  21
ATOM     21  C   UNL     1      16.734  -6.798  13.051  1.00  0.00    -0.000 C 
BRANCH  21  22
ATOM     22  C   UNL     1      15.826  -7.406  14.133  1.00  0.00    -0.000 C 
BRANCH  22  23
ATOM     23  C   UNL     1      14.634  -6.487  14.430  1.00  0.00    -0.000 C 
BRANCH  23  24
ATOM     24  C   UNL     1      14.715  -5.829  15.818  1.00  0.00    -0.000 C 
BRANCH  24  25
ATOM     25  C   UNL     1      15.118  -4.340  15.775  1.00  0.00    -0.003 C 
ATOM     26  C   UNL     1      14.313  -3.490  16.760  1.00  0.00     0.004 C 
ENDBRANCH  24  25
ENDBRANCH  23  24
ENDBRANCH  22  23
ENDBRANCH  21  22
ENDBRANCH  20  21
ENDBRANCH  19  20
ENDBRANCH  18  19
ENDBRANCH  17  18
ENDBRANCH  16  17
ENDBRANCH  15  16
ENDBRANCH   1  15
TORSDOF 22
ENDMDL
MODEL 8
REMARK VINA RESULT:    -5.572      2.077      5.671
REMARK INTER + INTRA:         -17.363
REMARK INTER:                 -13.393
REMARK INTRA:                  -3.970
REMARK UNBOUND:                -4.625
REMARK SMILES CCCCCCCCCCCCCCCCCCCCCCCC(=O)[O-]
REMARK SMILES IDX 13 1 14 2 15 3 16 4 17 5 18 6 19 7 20 8 21 9 22 10 23 11
REMARK SMILES IDX 24 12 25 13 26 14 12 15 11 16 10 17 9 18 8 19 7 20 6 21 5 22
REMARK SMILES IDX 4 23 3 24 2 25 1 26
REMARK H PARENT
REMARK Flexibility Score: inf
ROOT
ATOM      1  C   UNL     1      15.212  -6.648  14.919  1.00  0.00     0.000 C 
ENDROOT
BRANCH   1   2
ATOM      2  C   UNL     1      14.820  -5.740  16.099  1.00  0.00     0.000 C 
BRANCH   2   3
ATOM      3  C   UNL     1      14.961  -4.232  15.828  1.00  0.00     0.000 C 
BRANCH   3   4
ATOM      4  C   UNL     1      14.463  -3.371  16.999  1.00  0.00     0.000 C 
BRANCH   4   5
ATOM      5  C   UNL     1      15.635  -2.685  17.718  1.00  0.00     0.000 C 
BRANCH   5   6
ATOM      6  C   UNL     1      16.860  -2.503  16.796  1.00  0.00     0.000 C 
BRANCH   6   7
ATOM      7  C   UNL     1      18.128  -3.220  17.293  1.00  0.00     0.000 C 
BRANCH   7   8
ATOM      8  C   UNL     1      19.284  -3.154  16.282  1.00  0.00     0.000 C 
BRANCH   8   9
ATOM      9  C   UNL     1      19.073  -4.073  15.065  1.00  0.00     0.000 C 
BRANCH   9  10
ATOM     10  C   UNL     1      18.981  -3.353  13.703  1.00  0.00     0.006 C 
BRANCH  10  11
ATOM     11  C   UNL     1      17.596  -2.775  13.370  1.00  0.00     0.053 C 
BRANCH  11  12
ATOM     12  C   UNL     1      17.632  -1.286  13.204  1.00  0.00     0.041 C 
ATOM     13  O   UNL     1      16.608  -0.667  12.807  1.00  0.00    -0.550 OA
ATOM     14  O   UNL     1      18.784  -0.579  13.528  1.00  0.00    -0.550 OA
ENDBRANCH  11  12
ENDBRANCH  10  11
ENDBRANCH   9  10
ENDBRANCH   8   9
ENDBRANCH   7   8
ENDBRANCH   6   7
ENDBRANCH   5   6
ENDBRANCH   4   5
ENDBRANCH   3   4
ENDBRANCH   2   3
ENDBRANCH   1   2
BRANCH   1  15
ATOM     15  C   UNL     1      16.160  -5.975  13.903  1.00  0.00     0.000 C 
BRANCH  15  16
ATOM     16  C   UNL     1      16.747  -6.980  12.895  1.00  0.00     0.000 C 
BRANCH  16  17
ATOM     17  C   UNL     1      17.299  -6.296  11.634  1.00  0.00     0.000 C 
BRANCH  17  18
ATOM     18  C   UNL     1      16.354  -5.208  11.094  1.00  0.00    -0.000 C 
BRANCH  18  19
ATOM     19  C   UNL     1      15.932  -5.462   9.638  1.00  0.00    -0.000 C 
BRANCH  19  20
ATOM     20  C   UNL     1      14.448  -5.852   9.519  1.00  0.00    -0.000 C 
BRANCH  20  21
ATOM     21  C   UNL     1      13.528  -4.952  10.359  1.00  0.00    -0.000 C 
BRANCH  21  22
ATOM     22  C   UNL     1      13.312  -5.489  11.783  1.00  0.00    -0.000 C 
BRANCH  22  23
ATOM     23  C   UNL     1      12.947  -4.354  12.749  1.00  0.00    -0.000 C 
BRANCH  23  24
ATOM     24  C   UNL     1      13.802  -3.092  12.540  1.00  0.00    -0.000 C 
BRANCH  24  25
ATOM     25  C   UNL     1      13.245  -1.842  13.253  1.00  0.00    -0.003 C 
ATOM     26  C   UNL     1      12.191  -2.192  14.305  1.00  0.00     0.004 C 
ENDBRANCH  24  25
ENDBRANCH  23  24
ENDBRANCH  22  23
ENDBRANCH  21  22
ENDBRANCH  20  21
ENDBRANCH  19  20
ENDBRANCH  18  19
ENDBRANCH  17  18
ENDBRANCH  16  17
ENDBRANCH  15  16
ENDBRANCH   1  15
TORSDOF 22
ENDMDL
MODEL 9
REMARK VINA RESULT:    -5.556      1.219      2.761
REMARK INTER + INTRA:         -17.327
REMARK INTER:                 -13.299
REMARK INTRA:                  -4.028
REMARK UNBOUND:                -4.625
REMARK SMILES CCCCCCCCCCCCCCCCCCCCCCCC(=O)[O-]
REMARK SMILES IDX 13 1 14 2 15 3 16 4 17 5 18 6 19 7 20 8 21 9 22 10 23 11
REMARK SMILES IDX 24 12 25 13 26 14 12 15 11 16 10 17 9 18 8 19 7 20 6 21 5 22
REMARK SMILES IDX 4 23 3 24 2 25 1 26
REMARK H PARENT
REMARK Flexibility Score: inf
ROOT
ATOM      1  C   UNL     1      14.889  -7.013  15.581  1.00  0.00     0.000 C 
ENDROOT
BRANCH   1   2
ATOM      2  C   UNL     1      14.724  -6.951  14.051  1.00  0.00     0.000 C 
BRANCH   2   3
ATOM      3  C   UNL     1      15.987  -7.309  13.250  1.00  0.00     0.000 C 
BRANCH   3   4
ATOM      4  C   UNL     1      16.887  -6.093  12.986  1.00  0.00     0.000 C 
BRANCH   4   5
ATOM      5  C   UNL     1      17.201  -5.952  11.489  1.00  0.00     0.000 C 
BRANCH   5   6
ATOM      6  C   UNL     1      16.211  -5.009  10.771  1.00  0.00     0.000 C 
BRANCH   6   7
ATOM      7  C   UNL     1      15.570  -5.619   9.511  1.00  0.00     0.000 C 
BRANCH   7   8
ATOM      8  C   UNL     1      14.035  -5.645   9.578  1.00  0.00     0.000 C 
BRANCH   8   9
ATOM      9  C   UNL     1      13.488  -5.330  10.983  1.00  0.00     0.000 C 
BRANCH   9  10
ATOM     10  C   UNL     1      12.781  -3.965  11.124  1.00  0.00     0.006 C 
BRANCH  10  11
ATOM     11  C   UNL     1      12.508  -3.526  12.572  1.00  0.00     0.053 C 
BRANCH  11  12
ATOM     12  C   UNL     1      12.629  -2.042  12.743  1.00  0.00     0.041 C 
ATOM     13  O   UNL     1      12.388  -1.510  13.859  1.00  0.00    -0.550 OA
ATOM     14  O   UNL     1      13.050  -1.253  11.679  1.00  0.00    -0.550 OA
ENDBRANCH  11  12
ENDBRANCH  10  11
ENDBRANCH   9  10
ENDBRANCH   8   9
ENDBRANCH   7   8
ENDBRANCH   6   7
ENDBRANCH   5   6
ENDBRANCH   4   5
ENDBRANCH   3   4
ENDBRANCH   2   3
ENDBRANCH   1   2
BRANCH   1  15
ATOM     15  C   UNL     1      14.937  -5.627  16.259  1.00  0.00     0.000 C 
BRANCH  15  16
ATOM     16  C   UNL     1      14.486  -4.497  15.315  1.00  0.00     0.000 C 
BRANCH  16  17
ATOM     17  C   UNL     1      14.252  -3.169  16.054  1.00  0.00     0.000 C 
BRANCH  17  18
ATOM     18  C   UNL     1      14.957  -3.125  17.421  1.00  0.00    -0.000 C 
BRANCH  18  19
ATOM     19  C   UNL     1      16.242  -2.282  17.395  1.00  0.00    -0.000 C 
BRANCH  19  20
ATOM     20  C   UNL     1      17.431  -3.006  18.053  1.00  0.00    -0.000 C 
BRANCH  20  21
ATOM     21  C   UNL     1      18.540  -3.360  17.050  1.00  0.00    -0.000 C 
BRANCH  21  22
ATOM     22  C   UNL     1      18.021  -3.473  15.607  1.00  0.00    -0.000 C 
BRANCH  22  23
ATOM     23  C   UNL     1      18.876  -2.633  14.649  1.00  0.00    -0.000 C 
BRANCH  23  24
ATOM     24  C   UNL     1      18.256  -2.506  13.246  1.00  0.00    -0.000 C 
BRANCH  24  25
ATOM     25  C   UNL     1      16.719  -2.369  13.260  1.00  0.00    -0.003 C 
ATOM     26  C   UNL     1      16.256  -0.957  12.895  1.00  0.00     0.004 C 
ENDBRANCH  24  25
ENDBRANCH  23  24
ENDBRANCH  22  23
ENDBRANCH  21  22
ENDBRANCH  20  21
ENDBRANCH  19  20
ENDBRANCH  18  19
ENDBRANCH  17  18
ENDBRANCH  16  17
ENDBRANCH  15  16
ENDBRANCH   1  15
TORSDOF 22
ENDMDL
