MODEL 1
REMARK VINA RESULT:    -2.491      0.000      0.000
REMARK INTER + INTRA:          -3.717
REMARK INTER:                  -3.364
REMARK INTRA:                  -0.353
REMARK UNBOUND:                -0.353
REMARK SMILES CCCCCCCC(=O)[O-]
REMARK SMILES IDX 5 1 6 2 7 3 8 4 9 5 10 6 4 7 3 8 2 9 1 10
REMARK H PARENT
REMARK Flexibility Score: inf
ROOT
ATOM      1  C   UNL     1      18.576  23.403  47.881  1.00  0.00     0.000 C 
ENDROOT
BRANCH   1   2
ATOM      2  C   UNL     1      18.178  24.628  47.046  1.00  0.00     0.006 C 
BRANCH   2   3
ATOM      3  C   UNL     1      17.522  24.204  45.729  1.00  0.00     0.053 C 
BRANCH   3   4
ATOM      4  C   UNL     1      18.283  24.753  44.563  1.00  0.00     0.041 C 
ATOM      5  O   UNL     1      19.487  25.097  44.698  1.00  0.00    -0.550 OA
ATOM      6  O   UNL     1      17.678  24.839  43.316  1.00  0.00    -0.550 OA
ENDBRANCH   3   4
ENDBRANCH   2   3
ENDBRANCH   1   2
BRANCH   1   7
ATOM      7  C   UNL     1      20.092  23.318  48.125  1.00  0.00     0.000 C 
BRANCH   7   8
ATOM      8  C   UNL     1      20.742  22.128  47.405  1.00  0.00    -0.000 C 
BRANCH   8   9
ATOM      9  C   UNL     1      21.187  22.518  45.991  1.00  0.00    -0.003 C 
ATOM     10  C   UNL     1      22.707  22.484  45.861  1.00  0.00     0.004 C 
ENDBRANCH   8   9
ENDBRANCH   7   8
ENDBRANCH   1   7
TORSDOF 6
ENDMDL
MODEL 2
REMARK VINA RESULT:    -2.382      1.740      4.129
REMARK INTER + INTRA:          -3.570
REMARK INTER:                  -3.273
REMARK INTRA:                  -0.297
REMARK UNBOUND:                -0.353
REMARK SMILES CCCCCCCC(=O)[O-]
REMARK SMILES IDX 5 1 6 2 7 3 8 4 9 5 10 6 4 7 3 8 2 9 1 10
REMARK H PARENT
REMARK Flexibility Score: inf
ROOT
ATOM      1  C   UNL     1      18.788  23.139  47.969  1.00  0.00     0.000 C 
ENDROOT
BRANCH   1   2
ATOM      2  C   UNL     1      20.311  23.015  48.125  1.00  0.00     0.006 C 
BRANCH   2   3
ATOM      3  C   UNL     1      20.875  21.962  47.167  1.00  0.00     0.053 C 
BRANCH   3   4
ATOM      4  C   UNL     1      21.613  22.617  46.043  1.00  0.00     0.041 C 
ATOM      5  O   UNL     1      20.989  23.298  45.187  1.00  0.00    -0.550 OA
ATOM      6  O   UNL     1      22.997  22.518  45.968  1.00  0.00    -0.550 OA
ENDBRANCH   3   4
ENDBRANCH   2   3
ENDBRANCH   1   2
BRANCH   1   7
ATOM      7  C   UNL     1      18.360  24.500  47.396  1.00  0.00     0.000 C 
BRANCH   7   8
ATOM      8  C   UNL     1      16.925  24.487  46.850  1.00  0.00    -0.000 C 
BRANCH   8   9
ATOM      9  C   UNL     1      16.876  25.051  45.425  1.00  0.00    -0.003 C 
ATOM     10  C   UNL     1      17.862  24.329  44.512  1.00  0.00     0.004 C 
ENDBRANCH   8   9
ENDBRANCH   7   8
ENDBRANCH   1   7
TORSDOF 6
ENDMDL
MODEL 3
REMARK VINA RESULT:    -2.340     17.588     19.418
REMARK INTER + INTRA:          -3.513
REMARK INTER:                  -3.285
REMARK INTRA:                  -0.228
REMARK UNBOUND:                -0.353
REMARK SMILES CCCCCCCC(=O)[O-]
REMARK SMILES IDX 5 1 6 2 7 3 8 4 9 5 10 6 4 7 3 8 2 9 1 10
REMARK H PARENT
REMARK Flexibility Score: inf
ROOT
ATOM      1  C   UNL     1      30.834  23.785  31.114  1.00  0.00     0.000 C 
ENDROOT
BRANCH   1   2
ATOM      2  C   UNL     1      31.470  24.568  29.956  1.00  0.00     0.006 C 
BRANCH   2   3
ATOM      3  C   UNL     1      31.507  23.722  28.679  1.00  0.00     0.053 C 
BRANCH   3   4
ATOM      4  C   UNL     1      30.120  23.375  28.240  1.00  0.00     0.041 C 
ATOM      5  O   UNL     1      29.844  22.199  27.884  1.00  0.00    -0.550 OA
ATOM      6  O   UNL     1      29.119  24.338  28.270  1.00  0.00    -0.550 OA
ENDBRANCH   3   4
ENDBRANCH   2   3
ENDBRANCH   1   2
BRANCH   1   7
ATOM      7  C   UNL     1      31.016  24.484  32.472  1.00  0.00     0.000 C 
BRANCH   7   8
ATOM      8  C   UNL     1      32.407  25.114  32.632  1.00  0.00    -0.000 C 
BRANCH   8   9
ATOM      9  C   UNL     1      32.901  24.989  34.077  1.00  0.00    -0.003 C 
ATOM     10  C   UNL     1      31.750  25.125  35.069  1.00  0.00     0.004 C 
ENDBRANCH   8   9
ENDBRANCH   7   8
ENDBRANCH   1   7
TORSDOF 6
ENDMDL
MODEL 4
REMARK VINA RESULT:    -2.228     18.071     19.726
REMARK INTER + INTRA:          -3.362
REMARK INTER:                  -2.984
REMARK INTRA:                  -0.378
REMARK UNBOUND:                -0.353
REMARK SMILES CCCCCCCC(=O)[O-]
REMARK SMILES IDX 5 1 6 2 7 3 8 4 9 5 10 6 4 7 3 8 2 9 1 10
REMARK H PARENT
REMARK Flexibility Score: inf
ROOT
ATOM      1  C   UNL     1      30.317  24.336  31.280  1.00  0.00     0.000 C 
ENDROOT
BRANCH   1   2
ATOM      2  C   UNL     1      31.017  25.105  32.409  1.00  0.00     0.006 C 
BRANCH   2   3
ATOM      3  C   UNL     1      32.534  25.125  32.199  1.00  0.00     0.053 C 
BRANCH   3   4
ATOM      4  C   UNL     1      33.247  24.912  33.497  1.00  0.00     0.041 C 
ATOM      5  O   UNL     1      34.501  24.815  33.523  1.00  0.00    -0.550 OA
ATOM      6  O   UNL     1      32.529  24.870  34.685  1.00  0.00    -0.550 OA
ENDBRANCH   3   4
ENDBRANCH   2   3
ENDBRANCH   1   2
BRANCH   1   7
ATOM      7  C   UNL     1      30.421  25.051  29.922  1.00  0.00     0.000 C 
BRANCH   7   8
ATOM      8  C   UNL     1      30.310  24.084  28.735  1.00  0.00    -0.000 C 
BRANCH   8   9
ATOM      9  C   UNL     1      31.576  23.230  28.602  1.00  0.00    -0.003 C 
ATOM     10  C   UNL     1      32.833  24.093  28.667  1.00  0.00     0.004 C 
ENDBRANCH   8   9
ENDBRANCH   7   8
ENDBRANCH   1   7
TORSDOF 6
ENDMDL
MODEL 5
REMARK VINA RESULT:    -2.221     18.185     19.311
REMARK INTER + INTRA:          -3.353
REMARK INTER:                  -3.095
REMARK INTRA:                  -0.258
REMARK UNBOUND:                -0.353
REMARK SMILES CCCCCCCC(=O)[O-]
REMARK SMILES IDX 5 1 6 2 7 3 8 4 9 5 10 6 4 7 3 8 2 9 1 10
REMARK H PARENT
REMARK Flexibility Score: inf
ROOT
ATOM      1  C   UNL     1      31.157  25.104  32.521  1.00  0.00     0.000 C 
ENDROOT
BRANCH   1   2
ATOM      2  C   UNL     1      30.470  24.056  31.634  1.00  0.00     0.006 C 
BRANCH   2   3
ATOM      3  C   UNL     1      30.156  24.633  30.250  1.00  0.00     0.053 C 
BRANCH   3   4
ATOM      4  C   UNL     1      30.930  23.910  29.193  1.00  0.00     0.041 C 
ATOM      5  O   UNL     1      32.138  23.612  29.385  1.00  0.00    -0.550 OA
ATOM      6  O   UNL     1      30.304  23.521  28.016  1.00  0.00    -0.550 OA
ENDBRANCH   3   4
ENDBRANCH   2   3
ENDBRANCH   1   2
BRANCH   1   7
ATOM      7  C   UNL     1      31.721  24.503  33.820  1.00  0.00     0.000 C 
BRANCH   7   8
ATOM      8  C   UNL     1      33.150  24.980  34.120  1.00  0.00    -0.000 C 
BRANCH   8   9
ATOM      9  C   UNL     1      33.962  25.125  32.829  1.00  0.00    -0.003 C 
ATOM     10  C   UNL     1      35.460  25.037  33.106  1.00  0.00     0.004 C 
ENDBRANCH   8   9
ENDBRANCH   7   8
ENDBRANCH   1   7
TORSDOF 6
ENDMDL
MODEL 6
REMARK VINA RESULT:    -2.089     19.156     21.105
REMARK INTER + INTRA:          -3.174
REMARK INTER:                  -2.785
REMARK INTRA:                  -0.389
REMARK UNBOUND:                -0.353
REMARK SMILES CCCCCCCC(=O)[O-]
REMARK SMILES IDX 5 1 6 2 7 3 8 4 9 5 10 6 4 7 3 8 2 9 1 10
REMARK H PARENT
REMARK Flexibility Score: inf
ROOT
ATOM      1  C   UNL     1      31.297  23.307  29.639  1.00  0.00     0.000 C 
ENDROOT
BRANCH   1   2
ATOM      2  C   UNL     1      32.613  23.282  28.849  1.00  0.00     0.006 C 
BRANCH   2   3
ATOM      3  C   UNL     1      33.474  24.504  29.183  1.00  0.00     0.053 C 
BRANCH   3   4
ATOM      4  C   UNL     1      34.922  24.128  29.233  1.00  0.00     0.041 C 
ATOM      5  O   UNL     1      35.403  23.346  28.373  1.00  0.00    -0.550 OA
ATOM      6  O   UNL     1      35.750  24.681  30.202  1.00  0.00    -0.550 OA
ENDBRANCH   3   4
ENDBRANCH   2   3
ENDBRANCH   1   2
BRANCH   1   7
ATOM      7  C   UNL     1      30.558  24.650  29.520  1.00  0.00     0.000 C 
BRANCH   7   8
ATOM      8  C   UNL     1      29.973  25.125  30.858  1.00  0.00    -0.000 C 
BRANCH   8   9
ATOM      9  C   UNL     1      30.499  24.273  32.019  1.00  0.00    -0.003 C 
ATOM     10  C   UNL     1      31.289  25.120  33.012  1.00  0.00     0.004 C 
ENDBRANCH   8   9
ENDBRANCH   7   8
ENDBRANCH   1   7
TORSDOF 6
ENDMDL
MODEL 7
REMARK VINA RESULT:    -2.032     18.807     20.154
REMARK INTER + INTRA:          -3.097
REMARK INTER:                  -2.940
REMARK INTRA:                  -0.157
REMARK UNBOUND:                -0.353
REMARK SMILES CCCCCCCC(=O)[O-]
REMARK SMILES IDX 5 1 6 2 7 3 8 4 9 5 10 6 4 7 3 8 2 9 1 10
REMARK H PARENT
REMARK Flexibility Score: inf
ROOT
ATOM      1  C   UNL     1      30.513  24.144  30.565  1.00  0.00     0.000 C 
ENDROOT
BRANCH   1   2
ATOM      2  C   UNL     1      30.369  24.882  29.226  1.00  0.00     0.006 C 
BRANCH   2   3
ATOM      3  C   UNL     1      30.655  23.943  28.050  1.00  0.00     0.053 C 
BRANCH   3   4
ATOM      4  C   UNL     1      31.812  23.048  28.363  1.00  0.00     0.041 C 
ATOM      5  O   UNL     1      31.682  21.798  28.294  1.00  0.00    -0.550 OA
ATOM      6  O   UNL     1      33.048  23.595  28.683  1.00  0.00    -0.550 OA
ENDBRANCH   3   4
ENDBRANCH   2   3
ENDBRANCH   1   2
BRANCH   1   7
ATOM      7  C   UNL     1      30.266  25.058  31.776  1.00  0.00     0.000 C 
BRANCH   7   8
ATOM      8  C   UNL     1      31.412  25.011  32.797  1.00  0.00    -0.000 C 
BRANCH   8   9
ATOM      9  C   UNL     1      32.772  25.125  32.099  1.00  0.00    -0.003 C 
ATOM     10  C   UNL     1      33.914  25.124  33.111  1.00  0.00     0.004 C 
ENDBRANCH   8   9
ENDBRANCH   7   8
ENDBRANCH   1   7
TORSDOF 6
ENDMDL
MODEL 8
REMARK VINA RESULT:    -2.014     18.978     20.920
REMARK INTER + INTRA:          -3.073
REMARK INTER:                  -2.886
REMARK INTRA:                  -0.187
REMARK UNBOUND:                -0.353
REMARK SMILES CCCCCCCC(=O)[O-]
REMARK SMILES IDX 5 1 6 2 7 3 8 4 9 5 10 6 4 7 3 8 2 9 1 10
REMARK H PARENT
REMARK Flexibility Score: inf
ROOT
ATOM      1  C   UNL     1      33.096  24.094  29.418  1.00  0.00     0.000 C 
ENDROOT
BRANCH   1   2
ATOM      2  C   UNL     1      31.948  25.005  29.874  1.00  0.00     0.006 C 
BRANCH   2   3
ATOM      3  C   UNL     1      30.838  24.191  30.548  1.00  0.00     0.053 C 
BRANCH   3   4
ATOM      4  C   UNL     1      30.685  24.598  31.979  1.00  0.00     0.041 C 
ATOM      5  O   UNL     1      31.698  24.895  32.665  1.00  0.00    -0.550 OA
ATOM      6  O   UNL     1      29.419  24.696  32.543  1.00  0.00    -0.550 OA
ENDBRANCH   3   4
ENDBRANCH   2   3
ENDBRANCH   1   2
BRANCH   1   7
ATOM      7  C   UNL     1      34.480  24.724  29.646  1.00  0.00     0.000 C 
BRANCH   7   8
ATOM      8  C   UNL     1      35.624  23.851  29.110  1.00  0.00    -0.000 C 
BRANCH   8   9
ATOM      9  C   UNL     1      36.987  24.466  29.447  1.00  0.00    -0.003 C 
ATOM     10  C   UNL     1      37.045  24.914  30.904  1.00  0.00     0.004 C 
ENDBRANCH   8   9
ENDBRANCH   7   8
ENDBRANCH   1   7
TORSDOF 6
ENDMDL
MODEL 9
REMARK VINA RESULT:    -1.596     19.932     21.752
REMARK INTER + INTRA:          -2.509
REMARK INTER:                  -2.269
REMARK INTRA:                  -0.240
REMARK UNBOUND:                -0.353
REMARK SMILES CCCCCCCC(=O)[O-]
REMARK SMILES IDX 5 1 6 2 7 3 8 4 9 5 10 6 4 7 3 8 2 9 1 10
REMARK H PARENT
REMARK Flexibility Score: inf
ROOT
ATOM      1  C   UNL     1      33.025  24.375  28.710  1.00  0.00     0.000 C 
ENDROOT
BRANCH   1   2
ATOM      2  C   UNL     1      32.118  24.691  29.908  1.00  0.00     0.006 C 
BRANCH   2   3
ATOM      3  C   UNL     1      30.914  23.745  29.947  1.00  0.00     0.053 C 
BRANCH   3   4
ATOM      4  C   UNL     1      30.044  23.953  28.748  1.00  0.00     0.041 C 
ATOM      5  O   UNL     1      29.942  23.051  27.875  1.00  0.00    -0.550 OA
ATOM      6  O   UNL     1      29.306  25.123  28.618  1.00  0.00    -0.550 OA
ENDBRANCH   3   4
ENDBRANCH   2   3
ENDBRANCH   1   2
BRANCH   1   7
ATOM      7  C   UNL     1      34.420  25.007  28.840  1.00  0.00     0.000 C 
BRANCH   7   8
ATOM      8  C   UNL     1      35.550  23.971  28.745  1.00  0.00    -0.000 C 
BRANCH   8   9
ATOM      9  C   UNL     1      36.834  24.499  29.396  1.00  0.00    -0.003 C 
ATOM     10  C   UNL     1      36.554  25.071  30.783  1.00  0.00     0.004 C 
ENDBRANCH   8   9
ENDBRANCH   7   8
ENDBRANCH   1   7
TORSDOF 6
ENDMDL
