MODEL 1
REMARK VINA RESULT:    -4.334      0.000      0.000
REMARK INTER + INTRA:          -5.803
REMARK INTER:                  -5.600
REMARK INTRA:                  -0.202
REMARK UNBOUND:                -0.202
REMARK SMILES C=CC(=O)CCCCC
REMARK SMILES IDX 6 1 7 2 8 3 9 4 5 5 3 6 4 7 2 8 1 9
REMARK H PARENT
REMARK Flexibility Score: inf
ROOT
ATOM      1  C   UNL     1      19.614   2.779  20.247  1.00  0.00     0.008 C 
ENDROOT
BRANCH   1   2
ATOM      2  C   UNL     1      19.375   1.688  21.302  1.00  0.00     0.000 C 
BRANCH   2   3
ATOM      3  C   UNL     1      19.464   0.270  20.715  1.00  0.00    -0.003 C 
ATOM      4  C   UNL     1      19.730  -0.795  21.777  1.00  0.00     0.004 C 
ENDBRANCH   2   3
ENDBRANCH   1   2
BRANCH   1   5
ATOM      5  C   UNL     1      19.064   2.352  18.883  1.00  0.00     0.080 C 
BRANCH   5   6
ATOM      6  C   UNL     1      18.490   3.531  18.154  1.00  0.00     0.155 C 
ATOM      7  O   UNL     1      17.392   3.407  17.546  1.00  0.00    -0.295 OA
BRANCH   6   8
ATOM      8  C   UNL     1      19.231   4.807  18.115  1.00  0.00     0.039 C 
ATOM      9  C   UNL     1      18.617   5.987  18.043  1.00  0.00     0.012 C 
ENDBRANCH   6   8
ENDBRANCH   5   6
ENDBRANCH   1   5
TORSDOF 5
ENDMDL
MODEL 2
REMARK VINA RESULT:    -4.300      1.662      1.962
REMARK INTER + INTRA:          -5.759
REMARK INTER:                  -5.559
REMARK INTRA:                  -0.200
REMARK UNBOUND:                -0.202
REMARK SMILES C=CC(=O)CCCCC
REMARK SMILES IDX 6 1 7 2 8 3 9 4 5 5 3 6 4 7 2 8 1 9
REMARK H PARENT
REMARK Flexibility Score: inf
ROOT
ATOM      1  C   UNL     1      19.425   1.419  20.606  1.00  0.00     0.008 C 
ENDROOT
BRANCH   1   2
ATOM      2  C   UNL     1      19.589   1.037  22.085  1.00  0.00     0.000 C 
BRANCH   2   3
ATOM      3  C   UNL     1      19.715  -0.480  22.292  1.00  0.00    -0.003 C 
ATOM      4  C   UNL     1      19.650  -1.263  20.982  1.00  0.00     0.004 C 
ENDBRANCH   2   3
ENDBRANCH   1   2
BRANCH   1   5
ATOM      5  C   UNL     1      19.728   2.905  20.388  1.00  0.00     0.080 C 
BRANCH   5   6
ATOM      6  C   UNL     1      19.533   3.276  18.946  1.00  0.00     0.155 C 
ATOM      7  O   UNL     1      20.314   4.110  18.412  1.00  0.00    -0.295 OA
BRANCH   6   8
ATOM      8  C   UNL     1      18.411   2.700  18.181  1.00  0.00     0.039 C 
ATOM      9  C   UNL     1      17.489   3.455  17.587  1.00  0.00     0.012 C 
ENDBRANCH   6   8
ENDBRANCH   5   6
ENDBRANCH   1   5
TORSDOF 5
ENDMDL
MODEL 3
REMARK VINA RESULT:    -4.235      2.529      5.533
REMARK INTER + INTRA:          -5.675
REMARK INTER:                  -5.528
REMARK INTRA:                  -0.147
REMARK UNBOUND:                -0.202
REMARK SMILES C=CC(=O)CCCCC
REMARK SMILES IDX 6 1 7 2 8 3 9 4 5 5 3 6 4 7 2 8 1 9
REMARK H PARENT
REMARK Flexibility Score: inf
ROOT
ATOM      1  C   UNL     1      19.399   2.203  20.944  1.00  0.00     0.008 C 
ENDROOT
BRANCH   1   2
ATOM      2  C   UNL     1      19.566   3.109  19.715  1.00  0.00     0.000 C 
BRANCH   2   3
ATOM      3  C   UNL     1      18.948   2.502  18.446  1.00  0.00    -0.003 C 
ATOM      4  C   UNL     1      17.805   3.344  17.883  1.00  0.00     0.004 C 
ENDBRANCH   2   3
ENDBRANCH   1   2
BRANCH   1   5
ATOM      5  C   UNL     1      19.437   0.725  20.544  1.00  0.00     0.080 C 
BRANCH   5   6
ATOM      6  C   UNL     1      19.682  -0.140  21.746  1.00  0.00     0.155 C 
ATOM      7  O   UNL     1      19.829   0.400  22.876  1.00  0.00    -0.295 OA
BRANCH   6   8
ATOM      8  C   UNL     1      19.793  -1.604  21.592  1.00  0.00     0.039 C 
ATOM      9  C   UNL     1      20.139  -2.404  22.600  1.00  0.00     0.012 C 
ENDBRANCH   6   8
ENDBRANCH   5   6
ENDBRANCH   1   5
TORSDOF 5
ENDMDL
MODEL 4
REMARK VINA RESULT:    -4.186      1.431      1.522
REMARK INTER + INTRA:          -5.611
REMARK INTER:                  -5.478
REMARK INTRA:                  -0.134
REMARK UNBOUND:                -0.202
REMARK SMILES C=CC(=O)CCCCC
REMARK SMILES IDX 6 1 7 2 8 3 9 4 5 5 3 6 4 7 2 8 1 9
REMARK H PARENT
REMARK Flexibility Score: inf
ROOT
ATOM      1  C   UNL     1      19.317   2.656  20.133  1.00  0.00     0.008 C 
ENDROOT
BRANCH   1   2
ATOM      2  C   UNL     1      19.401   1.126  20.243  1.00  0.00     0.000 C 
BRANCH   2   3
ATOM      3  C   UNL     1      19.383   0.637  21.700  1.00  0.00    -0.003 C 
ATOM      4  C   UNL     1      19.758  -0.838  21.834  1.00  0.00     0.004 C 
ENDBRANCH   2   3
ENDBRANCH   1   2
BRANCH   1   5
ATOM      5  C   UNL     1      18.914   3.082  18.719  1.00  0.00     0.080 C 
BRANCH   5   6
ATOM      6  C   UNL     1      19.669   4.311  18.304  1.00  0.00     0.155 C 
ATOM      7  O   UNL     1      20.926   4.261  18.210  1.00  0.00    -0.295 OA
BRANCH   6   8
ATOM      8  C   UNL     1      18.946   5.573  18.053  1.00  0.00     0.039 C 
ATOM      9  C   UNL     1      18.971   6.593  18.909  1.00  0.00     0.012 C 
ENDBRANCH   6   8
ENDBRANCH   5   6
ENDBRANCH   1   5
TORSDOF 5
ENDMDL
MODEL 5
REMARK VINA RESULT:    -4.156      2.474      5.342
REMARK INTER + INTRA:          -5.574
REMARK INTER:                  -5.344
REMARK INTRA:                  -0.229
REMARK UNBOUND:                -0.202
REMARK SMILES C=CC(=O)CCCCC
REMARK SMILES IDX 6 1 7 2 8 3 9 4 5 5 3 6 4 7 2 8 1 9
REMARK H PARENT
REMARK Flexibility Score: inf
ROOT
ATOM      1  C   UNL     1      19.504   1.969  20.816  1.00  0.00     0.008 C 
ENDROOT
BRANCH   1   2
ATOM      2  C   UNL     1      19.063   3.039  19.806  1.00  0.00     0.000 C 
BRANCH   2   3
ATOM      3  C   UNL     1      18.707   2.446  18.434  1.00  0.00    -0.003 C 
ATOM      4  C   UNL     1      18.313   3.511  17.413  1.00  0.00     0.004 C 
ENDBRANCH   2   3
ENDBRANCH   1   2
BRANCH   1   5
ATOM      5  C   UNL     1      19.435   0.570  20.195  1.00  0.00     0.080 C 
BRANCH   5   6
ATOM      6  C   UNL     1      19.674  -0.482  21.240  1.00  0.00     0.155 C 
ATOM      7  O   UNL     1      19.788  -1.687  20.887  1.00  0.00    -0.295 OA
BRANCH   6   8
ATOM      8  C   UNL     1      19.730  -0.107  22.666  1.00  0.00     0.039 C 
ATOM      9  C   UNL     1      20.092  -0.966  23.617  1.00  0.00     0.012 C 
ENDBRANCH   6   8
ENDBRANCH   5   6
ENDBRANCH   1   5
TORSDOF 5
ENDMDL
MODEL 6
REMARK VINA RESULT:    -4.125      1.418      5.083
REMARK INTER + INTRA:          -5.534
REMARK INTER:                  -5.352
REMARK INTRA:                  -0.182
REMARK UNBOUND:                -0.202
REMARK SMILES C=CC(=O)CCCCC
REMARK SMILES IDX 6 1 7 2 8 3 9 4 5 5 3 6 4 7 2 8 1 9
REMARK H PARENT
REMARK Flexibility Score: inf
ROOT
ATOM      1  C   UNL     1      19.343   4.966  18.770  1.00  0.00     0.008 C 
ENDROOT
BRANCH   1   2
ATOM      2  C   UNL     1      18.984   6.168  17.884  1.00  0.00     0.000 C 
BRANCH   2   3
ATOM      3  C   UNL     1      17.924   7.077  18.524  1.00  0.00    -0.003 C 
ATOM      4  C   UNL     1      18.535   8.228  19.321  1.00  0.00     0.004 C 
ENDBRANCH   2   3
ENDBRANCH   1   2
BRANCH   1   5
ATOM      5  C   UNL     1      19.290   3.661  17.971  1.00  0.00     0.080 C 
BRANCH   5   6
ATOM      6  C   UNL     1      19.186   2.482  18.894  1.00  0.00     0.155 C 
ATOM      7  O   UNL     1      19.028   1.329  18.408  1.00  0.00    -0.295 OA
BRANCH   6   8
ATOM      8  C   UNL     1      19.224   2.683  20.356  1.00  0.00     0.039 C 
ATOM      9  C   UNL     1      19.442   1.683  21.209  1.00  0.00     0.012 C 
ENDBRANCH   6   8
ENDBRANCH   5   6
ENDBRANCH   1   5
TORSDOF 5
ENDMDL
MODEL 7
REMARK VINA RESULT:    -4.053      1.365      5.156
REMARK INTER + INTRA:          -5.440
REMARK INTER:                  -5.308
REMARK INTRA:                  -0.131
REMARK UNBOUND:                -0.202
REMARK SMILES C=CC(=O)CCCCC
REMARK SMILES IDX 6 1 7 2 8 3 9 4 5 5 3 6 4 7 2 8 1 9
REMARK H PARENT
REMARK Flexibility Score: inf
ROOT
ATOM      1  C   UNL     1      18.735   3.923  18.870  1.00  0.00     0.008 C 
ENDROOT
BRANCH   1   2
ATOM      2  C   UNL     1      19.546   5.151  18.428  1.00  0.00     0.000 C 
BRANCH   2   3
ATOM      3  C   UNL     1      18.652   6.329  18.011  1.00  0.00    -0.003 C 
ATOM      4  C   UNL     1      18.544   7.402  19.093  1.00  0.00     0.004 C 
ENDBRANCH   2   3
ENDBRANCH   1   2
BRANCH   1   5
ATOM      5  C   UNL     1      19.379   3.249  20.085  1.00  0.00     0.080 C 
BRANCH   5   6
ATOM      6  C   UNL     1      19.375   1.757  19.923  1.00  0.00     0.155 C 
ATOM      7  O   UNL     1      19.329   1.261  18.764  1.00  0.00    -0.295 OA
BRANCH   6   8
ATOM      8  C   UNL     1      19.380   0.885  21.113  1.00  0.00     0.039 C 
ATOM      9  C   UNL     1      19.371  -0.444  21.025  1.00  0.00     0.012 C 
ENDBRANCH   6   8
ENDBRANCH   5   6
ENDBRANCH   1   5
TORSDOF 5
ENDMDL
MODEL 8
REMARK VINA RESULT:    -4.023      2.052      5.110
REMARK INTER + INTRA:          -5.401
REMARK INTER:                  -5.240
REMARK INTRA:                  -0.161
REMARK UNBOUND:                -0.202
REMARK SMILES C=CC(=O)CCCCC
REMARK SMILES IDX 6 1 7 2 8 3 9 4 5 5 3 6 4 7 2 8 1 9
REMARK H PARENT
REMARK Flexibility Score: inf
ROOT
ATOM      1  C   UNL     1      19.166   2.860  20.099  1.00  0.00     0.008 C 
ENDROOT
BRANCH   1   2
ATOM      2  C   UNL     1      19.824   3.488  18.861  1.00  0.00     0.000 C 
BRANCH   2   3
ATOM      3  C   UNL     1      18.825   4.273  17.996  1.00  0.00    -0.003 C 
ATOM      4  C   UNL     1      17.581   3.459  17.645  1.00  0.00     0.004 C 
ENDBRANCH   2   3
ENDBRANCH   1   2
BRANCH   1   5
ATOM      5  C   UNL     1      19.439   1.354  20.160  1.00  0.00     0.080 C 
BRANCH   5   6
ATOM      6  C   UNL     1      19.350   0.859  21.574  1.00  0.00     0.155 C 
ATOM      7  O   UNL     1      18.936   1.637  22.476  1.00  0.00    -0.295 OA
BRANCH   6   8
ATOM      8  C   UNL     1      19.787  -0.511  21.905  1.00  0.00     0.039 C 
ATOM      9  C   UNL     1      19.659  -1.527  21.054  1.00  0.00     0.012 C 
ENDBRANCH   6   8
ENDBRANCH   5   6
ENDBRANCH   1   5
TORSDOF 5
ENDMDL
MODEL 9
REMARK VINA RESULT:    -4.018      2.493      3.341
REMARK INTER + INTRA:          -5.395
REMARK INTER:                  -5.105
REMARK INTRA:                  -0.290
REMARK UNBOUND:                -0.202
REMARK SMILES C=CC(=O)CCCCC
REMARK SMILES IDX 6 1 7 2 8 3 9 4 5 5 3 6 4 7 2 8 1 9
REMARK H PARENT
REMARK Flexibility Score: inf
ROOT
ATOM      1  C   UNL     1      19.514   0.209  22.151  1.00  0.00     0.008 C 
ENDROOT
BRANCH   1   2
ATOM      2  C   UNL     1      19.700  -0.681  20.912  1.00  0.00     0.000 C 
BRANCH   2   3
ATOM      3  C   UNL     1      19.826  -2.170  21.269  1.00  0.00    -0.003 C 
ATOM      4  C   UNL     1      20.223  -2.398  22.727  1.00  0.00     0.004 C 
ENDBRANCH   2   3
ENDBRANCH   1   2
BRANCH   1   5
ATOM      5  C   UNL     1      18.648   1.428  21.824  1.00  0.00     0.080 C 
BRANCH   5   6
ATOM      6  C   UNL     1      19.507   2.600  21.447  1.00  0.00     0.155 C 
ATOM      7  O   UNL     1      20.225   3.147  22.327  1.00  0.00    -0.295 OA
BRANCH   6   8
ATOM      8  C   UNL     1      19.474   3.127  20.069  1.00  0.00     0.039 C 
ATOM      9  C   UNL     1      19.092   2.387  19.030  1.00  0.00     0.012 C 
ENDBRANCH   6   8
ENDBRANCH   5   6
ENDBRANCH   1   5
TORSDOF 5
ENDMDL
