MODEL 1
REMARK VINA RESULT:    -6.441      0.000      0.000
REMARK INTER + INTRA:          -6.734
REMARK INTER:                  -7.005
REMARK INTRA:                   0.271
REMARK UNBOUND:                 0.271
REMARK SMILES C[C@H]1[C@H](C)CC[C@@]2(C(=O)[O-])CC[C@@]3(C)C(=CC[C@H]4[C@]5(C)CC[C@@H](O)C(C)(C)[C@@H]5CC[C@@]43C)[C@H]12
REMARK SMILES IDX 7 1 6 2 11 3 33 4 5 5 12 6 15 7 2 8 3 9 13 10 16 11 1 12
REMARK SMILES IDX 4 13 14 14 31 15 17 16 18 17 30 18 32 19 19 20 29 21 28 22
REMARK SMILES IDX 21 23 20 24 25 25 22 26 23 27 26 28 27 29 8 30 9 31 10 32
REMARK SMILES IDX 24 33
REMARK H PARENT 24 34
REMARK Flexibility Score: inf
ROOT
ATOM      1  C   UNL     1       0.713  26.070  31.432  1.00  0.00     0.017 C 
ATOM      2  C   UNL     1       0.822  26.691  30.015  1.00  0.00     0.014 C 
ATOM      3  C   UNL     1       1.100  27.142  32.517  1.00  0.00     0.014 C 
ATOM      4  C   UNL     1      -0.766  25.610  31.622  1.00  0.00     0.030 C 
ATOM      5  C   UNL     1       0.433  25.682  28.925  1.00  0.00     0.004 C 
ATOM      6  C   UNL     1      -0.055  27.614  33.446  1.00  0.00     0.013 C 
ATOM      7  C   UNL     1      -0.978  25.275  33.099  1.00  0.00    -0.063 C 
ATOM      8  C   UNL     1      -1.259  24.593  30.541  1.00  0.00    -0.003 C 
ATOM      9  C   UNL     1      -1.008  25.165  29.107  1.00  0.00    -0.011 C 
ATOM     10  C   UNL     1      -0.964  26.470  34.058  1.00  0.00    -0.006 C 
ATOM     11  C   UNL     1      -1.142  24.005  33.540  1.00  0.00    -0.027 C 
ATOM     12  C   UNL     1      -2.769  24.300  30.717  1.00  0.00     0.008 C 
ATOM     13  C   UNL     1      -1.310  24.127  28.011  1.00  0.00     0.008 C 
ATOM     14  C   UNL     1      -2.446  26.989  34.054  1.00  0.00     0.017 C 
ATOM     15  C   UNL     1      -0.475  26.033  35.531  1.00  0.00    -0.020 C 
ATOM     16  C   UNL     1      -1.142  23.603  34.991  1.00  0.00     0.032 C 
ATOM     17  C   UNL     1      -1.327  24.780  35.981  1.00  0.00     0.006 C 
ATOM     18  C   UNL     1      -0.627  27.218  36.553  1.00  0.00     0.008 C 
ATOM     19  C   UNL     1       1.035  25.653  35.502  1.00  0.00     0.012 C 
ATOM     20  C   UNL     1      -1.294  24.356  37.535  1.00  0.00    -0.025 C 
ATOM     21  C   UNL     1      -1.471  26.893  37.789  1.00  0.00     0.005 C 
ATOM     22  C   UNL     1      -0.949  25.598  38.471  1.00  0.00     0.003 C 
ATOM     23  C   UNL     1      -2.720  23.803  37.878  1.00  0.00     0.010 C 
ATOM     24  C   UNL     1      -0.269  23.203  37.760  1.00  0.00     0.012 C 
ATOM     25  C   UNL     1      -1.365  25.465  40.018  1.00  0.00    -0.006 C 
ATOM     26  C   UNL     1      -2.964  23.555  39.363  1.00  0.00     0.033 C 
ATOM     27  C   UNL     1      -2.795  24.859  40.154  1.00  0.00     0.120 C 
ATOM     28  C   UNL     1      -0.320  24.613  40.810  1.00  0.00     0.014 C 
ATOM     29  C   UNL     1      -1.379  26.851  40.730  1.00  0.00     0.014 C 
ENDROOT
BRANCH   1  30
ATOM     30  C   UNL     1       1.716  24.917  31.539  1.00  0.00     0.048 C 
ATOM     31  O   UNL     1       2.873  25.132  31.987  1.00  0.00    -0.550 OA
ATOM     32  O   UNL     1       1.362  23.611  31.231  1.00  0.00    -0.550 OA
ENDBRANCH   1  30
BRANCH  27  33
ATOM     33  O   UNL     1      -3.163  24.679  41.503  1.00  0.00    -0.393 OA
ATOM     34  H   UNL     1      -2.751  25.407  42.038  1.00  0.00     0.210 HD
ENDBRANCH  27  33
TORSDOF 2
ENDMDL
MODEL 2
REMARK VINA RESULT:    -6.271      2.872      4.859
REMARK INTER + INTRA:          -6.550
REMARK INTER:                  -6.825
REMARK INTRA:                   0.275
REMARK UNBOUND:                 0.271
REMARK SMILES C[C@H]1[C@H](C)CC[C@@]2(C(=O)[O-])CC[C@@]3(C)C(=CC[C@H]4[C@]5(C)CC[C@@H](O)C(C)(C)[C@@H]5CC[C@@]43C)[C@H]12
REMARK SMILES IDX 7 1 6 2 11 3 33 4 5 5 12 6 15 7 2 8 3 9 13 10 16 11 1 12
REMARK SMILES IDX 4 13 14 14 31 15 17 16 18 17 30 18 32 19 19 20 29 21 28 22
REMARK SMILES IDX 21 23 20 24 25 25 22 26 23 27 26 28 27 29 8 30 9 31 10 32
REMARK SMILES IDX 24 33
REMARK H PARENT 24 34
REMARK Flexibility Score: inf
ROOT
ATOM      1  C   UNL     1       4.184  24.521  28.823  1.00  0.00     0.017 C 
ATOM      2  C   UNL     1       5.158  24.694  27.628  1.00  0.00     0.014 C 
ATOM      3  C   UNL     1       4.476  25.618  29.914  1.00  0.00     0.014 C 
ATOM      4  C   UNL     1       2.736  24.679  28.265  1.00  0.00     0.030 C 
ATOM      5  C   UNL     1       4.894  23.654  26.530  1.00  0.00     0.004 C 
ATOM      6  C   UNL     1       3.362  26.682  30.120  1.00  0.00     0.013 C 
ATOM      7  C   UNL     1       1.777  24.816  29.448  1.00  0.00    -0.063 C 
ATOM      8  C   UNL     1       2.382  23.671  27.122  1.00  0.00    -0.003 C 
ATOM      9  C   UNL     1       3.455  23.745  25.985  1.00  0.00    -0.011 C 
ATOM     10  C   UNL     1       1.883  26.125  30.238  1.00  0.00    -0.006 C 
ATOM     11  C   UNL     1       0.908  23.838  29.797  1.00  0.00    -0.027 C 
ATOM     12  C   UNL     1       0.987  23.988  26.530  1.00  0.00     0.008 C 
ATOM     13  C   UNL     1       3.249  22.647  24.927  1.00  0.00     0.008 C 
ATOM     14  C   UNL     1       0.939  27.118  29.473  1.00  0.00     0.017 C 
ATOM     15  C   UNL     1       1.436  25.919  31.774  1.00  0.00    -0.020 C 
ATOM     16  C   UNL     1       0.100  23.832  31.067  1.00  0.00     0.032 C 
ATOM     17  C   UNL     1       0.027  25.204  31.785  1.00  0.00     0.006 C 
ATOM     18  C   UNL     1       1.379  27.294  32.536  1.00  0.00     0.008 C 
ATOM     19  C   UNL     1       2.477  25.033  32.520  1.00  0.00     0.012 C 
ATOM     20  C   UNL     1      -0.810  25.191  33.161  1.00  0.00    -0.025 C 
ATOM     21  C   UNL     1       0.032  27.605  33.195  1.00  0.00     0.005 C 
ATOM     22  C   UNL     1      -0.413  26.419  34.095  1.00  0.00     0.003 C 
ATOM     23  C   UNL     1      -2.324  25.284  32.765  1.00  0.00     0.010 C 
ATOM     24  C   UNL     1      -0.597  23.843  33.914  1.00  0.00     0.012 C 
ATOM     25  C   UNL     1      -1.476  26.828  35.230  1.00  0.00    -0.006 C 
ATOM     26  C   UNL     1      -3.274  25.513  33.936  1.00  0.00     0.033 C 
ATOM     27  C   UNL     1      -2.925  26.823  34.655  1.00  0.00     0.120 C 
ATOM     28  C   UNL     1      -1.365  25.883  36.471  1.00  0.00     0.014 C 
ATOM     29  C   UNL     1      -1.201  28.258  35.785  1.00  0.00     0.014 C 
ENDROOT
BRANCH   1  30
ATOM     30  C   UNL     1       4.432  23.152  29.462  1.00  0.00     0.048 C 
ATOM     31  O   UNL     1       5.232  23.046  30.430  1.00  0.00    -0.550 OA
ATOM     32  O   UNL     1       3.736  22.021  29.059  1.00  0.00    -0.550 OA
ENDBRANCH   1  30
BRANCH  27  33
ATOM     33  O   UNL     1      -3.883  27.124  35.644  1.00  0.00    -0.393 OA
ATOM     34  H   UNL     1      -4.442  26.318  35.792  1.00  0.00     0.210 HD
ENDBRANCH  27  33
TORSDOF 2
ENDMDL
MODEL 3
REMARK VINA RESULT:    -6.030      2.184      7.929
REMARK INTER + INTRA:          -6.288
REMARK INTER:                  -6.563
REMARK INTRA:                   0.275
REMARK UNBOUND:                 0.271
REMARK SMILES C[C@H]1[C@H](C)CC[C@@]2(C(=O)[O-])CC[C@@]3(C)C(=CC[C@H]4[C@]5(C)CC[C@@H](O)C(C)(C)[C@@H]5CC[C@@]43C)[C@H]12
REMARK SMILES IDX 7 1 6 2 11 3 33 4 5 5 12 6 15 7 2 8 3 9 13 10 16 11 1 12
REMARK SMILES IDX 4 13 14 14 31 15 17 16 18 17 30 18 32 19 19 20 29 21 28 22
REMARK SMILES IDX 21 23 20 24 25 25 22 26 23 27 26 28 27 29 8 30 9 31 10 32
REMARK SMILES IDX 24 33
REMARK H PARENT 24 34
REMARK Flexibility Score: inf
ROOT
ATOM      1  C   UNL     1      -3.729  24.409  37.639  1.00  0.00     0.017 C 
ATOM      2  C   UNL     1      -4.799  24.571  38.751  1.00  0.00     0.014 C 
ATOM      3  C   UNL     1      -4.048  25.382  36.444  1.00  0.00     0.014 C 
ATOM      4  C   UNL     1      -2.347  24.757  38.273  1.00  0.00     0.030 C 
ATOM      5  C   UNL     1      -4.513  23.652  39.947  1.00  0.00     0.004 C 
ATOM      6  C   UNL     1      -3.031  26.537  36.220  1.00  0.00     0.013 C 
ATOM      7  C   UNL     1      -1.324  24.901  37.145  1.00  0.00    -0.063 C 
ATOM      8  C   UNL     1      -1.979  23.882  39.516  1.00  0.00    -0.003 C 
ATOM      9  C   UNL     1      -3.132  23.933  40.572  1.00  0.00    -0.011 C 
ATOM     10  C   UNL     1      -1.500  26.128  36.243  1.00  0.00    -0.006 C 
ATOM     11  C   UNL     1      -0.341  23.994  36.935  1.00  0.00    -0.027 C 
ATOM     12  C   UNL     1      -0.668  24.385  40.167  1.00  0.00     0.008 C 
ATOM     13  C   UNL     1      -2.896  22.946  41.729  1.00  0.00     0.008 C 
ATOM     14  C   UNL     1      -0.715  27.268  36.981  1.00  0.00     0.017 C 
ATOM     15  C   UNL     1      -0.927  25.851  34.761  1.00  0.00    -0.020 C 
ATOM     16  C   UNL     1       0.553  23.973  35.724  1.00  0.00     0.032 C 
ATOM     17  C   UNL     1       0.542  25.286  34.900  1.00  0.00     0.006 C 
ATOM     18  C   UNL     1      -0.949  27.162  33.892  1.00  0.00     0.008 C 
ATOM     19  C   UNL     1      -1.820  24.808  34.027  1.00  0.00     0.012 C 
ATOM     20  C   UNL     1       1.473  25.254  33.585  1.00  0.00    -0.025 C 
ATOM     21  C   UNL     1       0.404  27.558  33.296  1.00  0.00     0.005 C 
ATOM     22  C   UNL     1       1.026  26.359  32.528  1.00  0.00     0.003 C 
ATOM     23  C   UNL     1       2.938  25.533  34.067  1.00  0.00     0.010 C 
ATOM     24  C   UNL     1       1.446  23.837  32.936  1.00  0.00     0.012 C 
ATOM     25  C   UNL     1       2.122  26.786  31.433  1.00  0.00    -0.006 C 
ATOM     26  C   UNL     1       3.942  25.767  32.943  1.00  0.00     0.033 C 
ATOM     27  C   UNL     1       3.520  26.975  32.097  1.00  0.00     0.120 C 
ATOM     28  C   UNL     1       2.192  25.743  30.270  1.00  0.00     0.014 C 
ATOM     29  C   UNL     1       1.750  28.133  30.744  1.00  0.00     0.014 C 
ENDROOT
BRANCH   1  30
ATOM     30  C   UNL     1      -3.796  22.976  37.102  1.00  0.00     0.048 C 
ATOM     31  O   UNL     1      -4.510  22.714  36.098  1.00  0.00    -0.550 OA
ATOM     32  O   UNL     1      -3.023  21.958  37.642  1.00  0.00    -0.550 OA
ENDBRANCH   1  30
BRANCH  27  33
ATOM     33  O   UNL     1       4.513  27.296  31.149  1.00  0.00    -0.393 OA
ATOM     34  H   UNL     1       4.866  26.451  30.768  1.00  0.00     0.210 HD
ENDBRANCH  27  33
TORSDOF 2
ENDMDL
MODEL 4
REMARK VINA RESULT:    -5.987      1.914      8.232
REMARK INTER + INTRA:          -6.241
REMARK INTER:                  -6.514
REMARK INTRA:                   0.273
REMARK UNBOUND:                 0.271
REMARK SMILES C[C@H]1[C@H](C)CC[C@@]2(C(=O)[O-])CC[C@@]3(C)C(=CC[C@H]4[C@]5(C)CC[C@@H](O)C(C)(C)[C@@H]5CC[C@@]43C)[C@H]12
REMARK SMILES IDX 7 1 6 2 11 3 33 4 5 5 12 6 15 7 2 8 3 9 13 10 16 11 1 12
REMARK SMILES IDX 4 13 14 14 31 15 17 16 18 17 30 18 32 19 19 20 29 21 28 22
REMARK SMILES IDX 21 23 20 24 25 25 22 26 23 27 26 28 27 29 8 30 9 31 10 32
REMARK SMILES IDX 24 33
REMARK H PARENT 24 34
REMARK Flexibility Score: inf
ROOT
ATOM      1  C   UNL     1      -1.886  24.067  37.259  1.00  0.00     0.017 C 
ATOM      2  C   UNL     1      -2.869  23.934  38.452  1.00  0.00     0.014 C 
ATOM      3  C   UNL     1      -2.447  23.286  36.013  1.00  0.00     0.014 C 
ATOM      4  C   UNL     1      -1.757  25.588  36.936  1.00  0.00     0.030 C 
ATOM      5  C   UNL     1      -2.368  24.700  39.684  1.00  0.00     0.004 C 
ATOM      6  C   UNL     1      -2.871  24.160  34.799  1.00  0.00     0.013 C 
ATOM      7  C   UNL     1      -1.044  25.735  35.591  1.00  0.00    -0.063 C 
ATOM      8  C   UNL     1      -1.271  26.455  38.144  1.00  0.00    -0.003 C 
ATOM      9  C   UNL     1      -2.180  26.202  39.391  1.00  0.00    -0.011 C 
ATOM     10  C   UNL     1      -1.846  25.287  34.364  1.00  0.00    -0.006 C 
ATOM     11  C   UNL     1       0.222  26.203  35.486  1.00  0.00    -0.027 C 
ATOM     12  C   UNL     1      -1.307  27.960  37.783  1.00  0.00     0.008 C 
ATOM     13  C   UNL     1      -1.634  26.894  40.652  1.00  0.00     0.008 C 
ATOM     14  C   UNL     1      -2.678  26.555  33.960  1.00  0.00     0.017 C 
ATOM     15  C   UNL     1      -0.872  24.793  33.177  1.00  0.00    -0.020 C 
ATOM     16  C   UNL     1       1.040  26.168  34.223  1.00  0.00     0.032 C 
ATOM     17  C   UNL     1       0.217  25.912  32.935  1.00  0.00     0.006 C 
ATOM     18  C   UNL     1      -1.686  24.500  31.863  1.00  0.00     0.008 C 
ATOM     19  C   UNL     1      -0.171  23.461  33.580  1.00  0.00     0.012 C 
ATOM     20  C   UNL     1       1.094  25.841  31.586  1.00  0.00    -0.025 C 
ATOM     21  C   UNL     1      -1.207  25.270  30.629  1.00  0.00     0.005 C 
ATOM     22  C   UNL     1       0.321  25.067  30.428  1.00  0.00     0.003 C 
ATOM     23  C   UNL     1       1.369  27.322  31.152  1.00  0.00     0.010 C 
ATOM     24  C   UNL     1       2.470  25.164  31.869  1.00  0.00     0.012 C 
ATOM     25  C   UNL     1       0.821  25.343  28.925  1.00  0.00    -0.006 C 
ATOM     26  C   UNL     1       1.997  27.473  29.771  1.00  0.00     0.033 C 
ATOM     27  C   UNL     1       1.080  26.864  28.702  1.00  0.00     0.120 C 
ATOM     28  C   UNL     1       2.099  24.504  28.595  1.00  0.00     0.014 C 
ATOM     29  C   UNL     1      -0.239  24.894  27.876  1.00  0.00     0.014 C 
ENDROOT
BRANCH   1  30
ATOM     30  C   UNL     1      -0.552  23.424  37.650  1.00  0.00     0.048 C 
ATOM     31  O   UNL     1      -0.332  22.216  37.369  1.00  0.00    -0.550 OA
ATOM     32  O   UNL     1       0.467  24.158  38.239  1.00  0.00    -0.550 OA
ENDBRANCH   1  30
BRANCH  27  33
ATOM     33  O   UNL     1       1.574  27.128  27.407  1.00  0.00    -0.393 OA
ATOM     34  H   UNL     1       2.337  27.757  27.487  1.00  0.00     0.210 HD
ENDBRANCH  27  33
TORSDOF 2
ENDMDL
MODEL 5
REMARK VINA RESULT:    -5.897      1.739      3.473
REMARK INTER + INTRA:          -6.143
REMARK INTER:                  -6.416
REMARK INTRA:                   0.273
REMARK UNBOUND:                 0.271
REMARK SMILES C[C@H]1[C@H](C)CC[C@@]2(C(=O)[O-])CC[C@@]3(C)C(=CC[C@H]4[C@]5(C)CC[C@@H](O)C(C)(C)[C@@H]5CC[C@@]43C)[C@H]12
REMARK SMILES IDX 7 1 6 2 11 3 33 4 5 5 12 6 15 7 2 8 3 9 13 10 16 11 1 12
REMARK SMILES IDX 4 13 14 14 31 15 17 16 18 17 30 18 32 19 19 20 29 21 28 22
REMARK SMILES IDX 21 23 20 24 25 25 22 26 23 27 26 28 27 29 8 30 9 31 10 32
REMARK SMILES IDX 24 33
REMARK H PARENT 24 34
REMARK Flexibility Score: inf
ROOT
ATOM      1  C   UNL     1       0.741  24.128  30.402  1.00  0.00     0.017 C 
ATOM      2  C   UNL     1       1.630  23.742  29.190  1.00  0.00     0.014 C 
ATOM      3  C   UNL     1       0.647  22.918  31.403  1.00  0.00     0.014 C 
ATOM      4  C   UNL     1       1.410  25.357  31.092  1.00  0.00     0.030 C 
ATOM      5  C   UNL     1       1.765  24.904  28.196  1.00  0.00     0.004 C 
ATOM      6  C   UNL     1       1.329  23.126  32.785  1.00  0.00     0.013 C 
ATOM      7  C   UNL     1       0.736  25.571  32.448  1.00  0.00    -0.063 C 
ATOM      8  C   UNL     1       1.608  26.587  30.146  1.00  0.00    -0.003 C 
ATOM      9  C   UNL     1       2.378  26.156  28.854  1.00  0.00    -0.011 C 
ATOM     10  C   UNL     1       1.025  24.503  33.508  1.00  0.00    -0.006 C 
ATOM     11  C   UNL     1      -0.085  26.620  32.694  1.00  0.00    -0.027 C 
ATOM     12  C   UNL     1       2.402  27.704  30.866  1.00  0.00     0.008 C 
ATOM     13  C   UNL     1       2.438  27.289  27.815  1.00  0.00     0.008 C 
ATOM     14  C   UNL     1       2.353  24.984  34.192  1.00  0.00     0.017 C 
ATOM     15  C   UNL     1      -0.192  24.378  34.559  1.00  0.00    -0.020 C 
ATOM     16  C   UNL     1      -0.935  26.764  33.928  1.00  0.00     0.032 C 
ATOM     17  C   UNL     1      -0.532  25.825  35.094  1.00  0.00     0.006 C 
ATOM     18  C   UNL     1       0.179  23.410  35.741  1.00  0.00     0.008 C 
ATOM     19  C   UNL     1      -1.445  23.774  33.857  1.00  0.00     0.012 C 
ATOM     20  C   UNL     1      -1.461  25.955  36.404  1.00  0.00    -0.025 C 
ATOM     21  C   UNL     1       0.047  24.024  37.137  1.00  0.00     0.005 C 
ATOM     22  C   UNL     1      -1.363  24.653  37.318  1.00  0.00     0.003 C 
ATOM     23  C   UNL     1      -0.948  27.207  37.195  1.00  0.00     0.010 C 
ATOM     24  C   UNL     1      -2.941  26.223  35.995  1.00  0.00     0.012 C 
ATOM     25  C   UNL     1      -1.808  24.822  38.853  1.00  0.00    -0.006 C 
ATOM     26  C   UNL     1      -1.553  27.371  38.585  1.00  0.00     0.033 C 
ATOM     27  C   UNL     1      -1.236  26.144  39.450  1.00  0.00     0.120 C 
ATOM     28  C   UNL     1      -3.364  24.772  38.996  1.00  0.00     0.014 C 
ATOM     29  C   UNL     1      -1.284  23.649  39.735  1.00  0.00     0.014 C 
ENDROOT
BRANCH   1  30
ATOM     30  C   UNL     1      -0.674  24.423  29.895  1.00  0.00     0.048 C 
ATOM     31  O   UNL     1      -1.549  23.517  29.913  1.00  0.00    -0.550 OA
ATOM     32  O   UNL     1      -1.052  25.695  29.488  1.00  0.00    -0.550 OA
ENDBRANCH   1  30
BRANCH  27  33
ATOM     33  O   UNL     1      -1.658  26.344  40.780  1.00  0.00    -0.393 OA
ATOM     34  H   UNL     1      -2.150  25.535  41.077  1.00  0.00     0.210 HD
ENDBRANCH  27  33
TORSDOF 2
ENDMDL
MODEL 6
REMARK VINA RESULT:    -5.812      1.713      8.116
REMARK INTER + INTRA:          -6.051
REMARK INTER:                  -6.355
REMARK INTRA:                   0.304
REMARK UNBOUND:                 0.271
REMARK SMILES C[C@H]1[C@H](C)CC[C@@]2(C(=O)[O-])CC[C@@]3(C)C(=CC[C@H]4[C@]5(C)CC[C@@H](O)C(C)(C)[C@@H]5CC[C@@]43C)[C@H]12
REMARK SMILES IDX 7 1 6 2 11 3 33 4 5 5 12 6 15 7 2 8 3 9 13 10 16 11 1 12
REMARK SMILES IDX 4 13 14 14 31 15 17 16 18 17 30 18 32 19 19 20 29 21 28 22
REMARK SMILES IDX 21 23 20 24 25 25 22 26 23 27 26 28 27 29 8 30 9 31 10 32
REMARK SMILES IDX 24 33
REMARK H PARENT 24 34
REMARK Flexibility Score: inf
ROOT
ATOM      1  C   UNL     1      -1.471  24.124  39.957  1.00  0.00     0.017 C 
ATOM      2  C   UNL     1      -1.666  23.302  41.258  1.00  0.00     0.014 C 
ATOM      3  C   UNL     1       0.056  24.437  39.745  1.00  0.00     0.014 C 
ATOM      4  C   UNL     1      -2.020  23.261  38.779  1.00  0.00     0.030 C 
ATOM      5  C   UNL     1      -3.144  22.957  41.492  1.00  0.00     0.004 C 
ATOM      6  C   UNL     1       0.728  23.745  38.525  1.00  0.00     0.013 C 
ATOM      7  C   UNL     1      -1.573  23.903  37.465  1.00  0.00    -0.063 C 
ATOM      8  C   UNL     1      -3.518  22.843  38.941  1.00  0.00    -0.003 C 
ATOM      9  C   UNL     1      -3.737  22.145  40.324  1.00  0.00    -0.011 C 
ATOM     10  C   UNL     1      -0.073  23.815  37.160  1.00  0.00    -0.006 C 
ATOM     11  C   UNL     1      -2.436  24.532  36.633  1.00  0.00    -0.027 C 
ATOM     12  C   UNL     1      -3.939  21.875  37.809  1.00  0.00     0.008 C 
ATOM     13  C   UNL     1      -5.226  21.878  40.605  1.00  0.00     0.008 C 
ATOM     14  C   UNL     1       0.096  22.431  36.440  1.00  0.00     0.017 C 
ATOM     15  C   UNL     1       0.410  25.046  36.238  1.00  0.00    -0.020 C 
ATOM     16  C   UNL     1      -2.022  25.358  35.444  1.00  0.00     0.032 C 
ATOM     17  C   UNL     1      -0.556  25.137  34.991  1.00  0.00     0.006 C 
ATOM     18  C   UNL     1       1.904  24.861  35.785  1.00  0.00     0.008 C 
ATOM     19  C   UNL     1       0.345  26.377  37.046  1.00  0.00     0.012 C 
ATOM     20  C   UNL     1      -0.102  26.043  33.740  1.00  0.00    -0.025 C 
ATOM     21  C   UNL     1       2.123  24.900  34.270  1.00  0.00     0.005 C 
ATOM     22  C   UNL     1       1.484  26.182  33.667  1.00  0.00     0.003 C 
ATOM     23  C   UNL     1      -0.639  25.330  32.452  1.00  0.00     0.010 C 
ATOM     24  C   UNL     1      -0.768  27.450  33.819  1.00  0.00     0.012 C 
ATOM     25  C   UNL     1       2.100  26.608  32.244  1.00  0.00    -0.006 C 
ATOM     26  C   UNL     1      -0.121  25.913  31.141  1.00  0.00     0.033 C 
ATOM     27  C   UNL     1       1.410  25.823  31.088  1.00  0.00     0.120 C 
ATOM     28  C   UNL     1       1.982  28.151  32.020  1.00  0.00     0.014 C 
ATOM     29  C   UNL     1       3.626  26.304  32.166  1.00  0.00     0.014 C 
ENDROOT
BRANCH   1  30
ATOM     30  C   UNL     1      -2.203  25.461  40.109  1.00  0.00     0.048 C 
ATOM     31  O   UNL     1      -1.553  26.505  40.382  1.00  0.00    -0.550 OA
ATOM     32  O   UNL     1      -3.566  25.578  39.874  1.00  0.00    -0.550 OA
ENDBRANCH   1  30
BRANCH  27  33
ATOM     33  O   UNL     1       1.893  26.218  29.823  1.00  0.00    -0.393 OA
ATOM     34  H   UNL     1       1.239  26.848  29.423  1.00  0.00     0.210 HD
ENDBRANCH  27  33
TORSDOF 2
ENDMDL
MODEL 7
REMARK VINA RESULT:    -5.785      2.154      8.381
REMARK INTER + INTRA:          -6.021
REMARK INTER:                  -6.291
REMARK INTRA:                   0.270
REMARK UNBOUND:                 0.271
REMARK SMILES C[C@H]1[C@H](C)CC[C@@]2(C(=O)[O-])CC[C@@]3(C)C(=CC[C@H]4[C@]5(C)CC[C@@H](O)C(C)(C)[C@@H]5CC[C@@]43C)[C@H]12
REMARK SMILES IDX 7 1 6 2 11 3 33 4 5 5 12 6 15 7 2 8 3 9 13 10 16 11 1 12
REMARK SMILES IDX 4 13 14 14 31 15 17 16 18 17 30 18 32 19 19 20 29 21 28 22
REMARK SMILES IDX 21 23 20 24 25 25 22 26 23 27 26 28 27 29 8 30 9 31 10 32
REMARK SMILES IDX 24 33
REMARK H PARENT 24 34
REMARK Flexibility Score: inf
ROOT
ATOM      1  C   UNL     1      -3.534  24.614  38.249  1.00  0.00     0.017 C 
ATOM      2  C   UNL     1      -4.147  25.029  39.612  1.00  0.00     0.014 C 
ATOM      3  C   UNL     1      -4.675  24.156  37.266  1.00  0.00     0.014 C 
ATOM      4  C   UNL     1      -2.791  25.861  37.677  1.00  0.00     0.030 C 
ATOM      5  C   UNL     1      -3.068  25.504  40.595  1.00  0.00     0.004 C 
ATOM      6  C   UNL     1      -4.918  25.073  36.034  1.00  0.00     0.013 C 
ATOM      7  C   UNL     1      -2.438  25.583  36.216  1.00  0.00    -0.063 C 
ATOM      8  C   UNL     1      -1.683  26.429  38.624  1.00  0.00    -0.003 C 
ATOM      9  C   UNL     1      -2.277  26.706  40.045  1.00  0.00    -0.011 C 
ATOM     10  C   UNL     1      -3.624  25.534  35.246  1.00  0.00    -0.006 C 
ATOM     11  C   UNL     1      -1.167  25.366  35.803  1.00  0.00    -0.027 C 
ATOM     12  C   UNL     1      -1.097  27.742  38.050  1.00  0.00     0.008 C 
ATOM     13  C   UNL     1      -1.186  27.095  41.059  1.00  0.00     0.008 C 
ATOM     14  C   UNL     1      -3.836  27.029  34.817  1.00  0.00     0.017 C 
ATOM     15  C   UNL     1      -3.310  24.576  33.987  1.00  0.00    -0.020 C 
ATOM     16  C   UNL     1      -0.790  24.881  34.429  1.00  0.00     0.032 C 
ATOM     17  C   UNL     1      -1.919  25.007  33.375  1.00  0.00     0.006 C 
ATOM     18  C   UNL     1      -4.454  24.665  32.910  1.00  0.00     0.008 C 
ATOM     19  C   UNL     1      -3.239  23.091  34.449  1.00  0.00     0.012 C 
ATOM     20  C   UNL     1      -1.528  24.459  31.911  1.00  0.00    -0.025 C 
ATOM     21  C   UNL     1      -3.982  25.048  31.506  1.00  0.00     0.005 C 
ATOM     22  C   UNL     1      -2.825  24.115  31.053  1.00  0.00     0.003 C 
ATOM     23  C   UNL     1      -0.706  25.596  31.212  1.00  0.00     0.010 C 
ATOM     24  C   UNL     1      -0.605  23.208  32.030  1.00  0.00     0.012 C 
ATOM     25  C   UNL     1      -2.631  24.047  29.458  1.00  0.00    -0.006 C 
ATOM     26  C   UNL     1      -0.432  25.361  29.730  1.00  0.00     0.033 C 
ATOM     27  C   UNL     1      -1.753  25.234  28.959  1.00  0.00     0.120 C 
ATOM     28  C   UNL     1      -2.014  22.677  29.025  1.00  0.00     0.014 C 
ATOM     29  C   UNL     1      -3.994  24.130  28.710  1.00  0.00     0.014 C 
ENDROOT
BRANCH   1  30
ATOM     30  C   UNL     1      -2.606  23.417  38.474  1.00  0.00     0.048 C 
ATOM     31  O   UNL     1      -3.059  22.245  38.383  1.00  0.00    -0.550 OA
ATOM     32  O   UNL     1      -1.246  23.580  38.699  1.00  0.00    -0.550 OA
ENDBRANCH   1  30
BRANCH  27  33
ATOM     33  O   UNL     1      -1.520  25.168  27.570  1.00  0.00    -0.393 OA
ATOM     34  H   UNL     1      -1.894  24.313  27.232  1.00  0.00     0.210 HD
ENDBRANCH  27  33
TORSDOF 2
ENDMDL
MODEL 8
REMARK VINA RESULT:    -5.776      2.031      3.756
REMARK INTER + INTRA:          -6.012
REMARK INTER:                  -6.598
REMARK INTRA:                   0.587
REMARK UNBOUND:                 0.271
REMARK SMILES C[C@H]1[C@H](C)CC[C@@]2(C(=O)[O-])CC[C@@]3(C)C(=CC[C@H]4[C@]5(C)CC[C@@H](O)C(C)(C)[C@@H]5CC[C@@]43C)[C@H]12
REMARK SMILES IDX 7 1 6 2 11 3 33 4 5 5 12 6 15 7 2 8 3 9 13 10 16 11 1 12
REMARK SMILES IDX 4 13 14 14 31 15 17 16 18 17 30 18 32 19 19 20 29 21 28 22
REMARK SMILES IDX 21 23 20 24 25 25 22 26 23 27 26 28 27 29 8 30 9 31 10 32
REMARK SMILES IDX 24 33
REMARK H PARENT 24 34
REMARK Flexibility Score: inf
ROOT
ATOM      1  C   UNL     1      -0.013  26.380  32.847  1.00  0.00     0.017 C 
ATOM      2  C   UNL     1       0.331  26.367  31.334  1.00  0.00     0.014 C 
ATOM      3  C   UNL     1      -1.506  25.930  33.060  1.00  0.00     0.014 C 
ATOM      4  C   UNL     1       0.962  25.386  33.550  1.00  0.00     0.030 C 
ATOM      5  C   UNL     1       1.788  26.781  31.083  1.00  0.00     0.004 C 
ATOM      6  C   UNL     1      -1.707  24.569  33.785  1.00  0.00     0.013 C 
ATOM      7  C   UNL     1       0.460  25.147  34.975  1.00  0.00    -0.063 C 
ATOM      8  C   UNL     1       2.475  25.717  33.331  1.00  0.00    -0.003 C 
ATOM      9  C   UNL     1       2.783  25.850  31.803  1.00  0.00    -0.011 C 
ATOM     10  C   UNL     1      -0.841  24.345  35.093  1.00  0.00    -0.006 C 
ATOM     11  C   UNL     1       1.102  25.632  36.063  1.00  0.00    -0.027 C 
ATOM     12  C   UNL     1       3.369  24.608  33.938  1.00  0.00     0.008 C 
ATOM     13  C   UNL     1       4.215  26.352  31.546  1.00  0.00     0.008 C 
ATOM     14  C   UNL     1      -0.374  22.847  35.102  1.00  0.00     0.017 C 
ATOM     15  C   UNL     1      -1.652  24.739  36.430  1.00  0.00    -0.020 C 
ATOM     16  C   UNL     1       0.543  25.610  37.461  1.00  0.00     0.032 C 
ATOM     17  C   UNL     1      -0.657  24.649  37.654  1.00  0.00     0.006 C 
ATOM     18  C   UNL     1      -2.893  23.796  36.638  1.00  0.00     0.008 C 
ATOM     19  C   UNL     1      -2.204  26.191  36.312  1.00  0.00     0.012 C 
ATOM     20  C   UNL     1      -1.277  24.649  39.141  1.00  0.00    -0.025 C 
ATOM     21  C   UNL     1      -2.929  23.075  37.988  1.00  0.00     0.005 C 
ATOM     22  C   UNL     1      -2.772  24.096  39.148  1.00  0.00     0.003 C 
ATOM     23  C   UNL     1      -0.358  23.723  40.009  1.00  0.00     0.010 C 
ATOM     24  C   UNL     1      -1.223  26.082  39.752  1.00  0.00     0.012 C 
ATOM     25  C   UNL     1      -3.333  23.569  40.559  1.00  0.00    -0.006 C 
ATOM     26  C   UNL     1      -0.903  23.410  41.399  1.00  0.00     0.033 C 
ATOM     27  C   UNL     1      -2.261  22.704  41.290  1.00  0.00     0.120 C 
ATOM     28  C   UNL     1      -3.798  24.760  41.460  1.00  0.00     0.014 C 
ATOM     29  C   UNL     1      -4.600  22.682  40.378  1.00  0.00     0.014 C 
ENDROOT
BRANCH   1  30
ATOM     30  C   UNL     1       0.119  27.815  33.366  1.00  0.00     0.048 C 
ATOM     31  O   UNL     1      -0.590  28.200  34.334  1.00  0.00    -0.550 OA
ATOM     32  O   UNL     1       1.063  28.692  32.852  1.00  0.00    -0.550 OA
ENDBRANCH   1  30
BRANCH  27  33
ATOM     33  O   UNL     1      -2.707  22.274  42.556  1.00  0.00    -0.393 OA
ATOM     34  H   UNL     1      -3.548  22.756  42.771  1.00  0.00     0.210 HD
ENDBRANCH  27  33
TORSDOF 2
ENDMDL
MODEL 9
REMARK VINA RESULT:    -5.652      2.956      8.830
REMARK INTER + INTRA:          -5.876
REMARK INTER:                  -6.150
REMARK INTRA:                   0.273
REMARK UNBOUND:                 0.271
REMARK SMILES C[C@H]1[C@H](C)CC[C@@]2(C(=O)[O-])CC[C@@]3(C)C(=CC[C@H]4[C@]5(C)CC[C@@H](O)C(C)(C)[C@@H]5CC[C@@]43C)[C@H]12
REMARK SMILES IDX 7 1 6 2 11 3 33 4 5 5 12 6 15 7 2 8 3 9 13 10 16 11 1 12
REMARK SMILES IDX 4 13 14 14 31 15 17 16 18 17 30 18 32 19 19 20 29 21 28 22
REMARK SMILES IDX 21 23 20 24 25 25 22 26 23 27 26 28 27 29 8 30 9 31 10 32
REMARK SMILES IDX 24 33
REMARK H PARENT 24 34
REMARK Flexibility Score: inf
ROOT
ATOM      1  C   UNL     1      -0.428  26.584  34.520  1.00  0.00     0.017 C 
ATOM      2  C   UNL     1      -0.752  27.458  35.759  1.00  0.00     0.014 C 
ATOM      3  C   UNL     1      -0.250  27.499  33.252  1.00  0.00     0.014 C 
ATOM      4  C   UNL     1       0.896  25.817  34.828  1.00  0.00     0.030 C 
ATOM      5  C   UNL     1      -0.913  26.604  37.025  1.00  0.00     0.004 C 
ATOM      6  C   UNL     1       1.184  27.562  32.656  1.00  0.00     0.013 C 
ATOM      7  C   UNL     1       1.401  25.188  33.529  1.00  0.00    -0.063 C 
ATOM      8  C   UNL     1       0.832  24.933  36.117  1.00  0.00    -0.003 C 
ATOM      9  C   UNL     1       0.359  25.791  37.337  1.00  0.00    -0.011 C 
ATOM     10  C   UNL     1       1.923  26.172  32.476  1.00  0.00    -0.006 C 
ATOM     11  C   UNL     1       1.367  23.853  33.306  1.00  0.00    -0.027 C 
ATOM     12  C   UNL     1       2.221  24.324  36.429  1.00  0.00     0.008 C 
ATOM     13  C   UNL     1       0.108  24.927  38.586  1.00  0.00     0.008 C 
ATOM     14  C   UNL     1       3.431  26.383  32.856  1.00  0.00     0.017 C 
ATOM     15  C   UNL     1       1.746  25.582  30.986  1.00  0.00    -0.020 C 
ATOM     16  C   UNL     1       1.649  23.205  31.977  1.00  0.00     0.032 C 
ATOM     17  C   UNL     1       2.362  24.127  30.955  1.00  0.00     0.006 C 
ATOM     18  C   UNL     1       2.438  26.512  29.923  1.00  0.00     0.008 C 
ATOM     19  C   UNL     1       0.235  25.516  30.612  1.00  0.00     0.012 C 
ATOM     20  C   UNL     1       2.636  23.446  29.522  1.00  0.00    -0.025 C 
ATOM     21  C   UNL     1       3.472  25.813  29.037  1.00  0.00     0.005 C 
ATOM     22  C   UNL     1       2.854  24.544  28.387  1.00  0.00     0.003 C 
ATOM     23  C   UNL     1       3.928  22.573  29.680  1.00  0.00     0.010 C 
ATOM     24  C   UNL     1       1.461  22.494  29.140  1.00  0.00     0.012 C 
ATOM     25  C   UNL     1       3.615  24.057  27.058  1.00  0.00    -0.006 C 
ATOM     26  C   UNL     1       4.485  22.020  28.373  1.00  0.00     0.033 C 
ATOM     27  C   UNL     1       4.844  23.169  27.420  1.00  0.00     0.120 C 
ATOM     28  C   UNL     1       2.642  23.298  26.098  1.00  0.00     0.014 C 
ATOM     29  C   UNL     1       4.144  25.263  26.226  1.00  0.00     0.014 C 
ENDROOT
BRANCH   1  30
ATOM     30  C   UNL     1      -1.612  25.649  34.257  1.00  0.00     0.048 C 
ATOM     31  O   UNL     1      -2.537  26.010  33.480  1.00  0.00    -0.550 OA
ATOM     32  O   UNL     1      -1.663  24.368  34.788  1.00  0.00    -0.550 OA
ENDBRANCH   1  30
BRANCH  27  33
ATOM     33  O   UNL     1       5.498  22.682  26.270  1.00  0.00    -0.393 OA
ATOM     34  H   UNL     1       4.956  21.941  25.893  1.00  0.00     0.210 HD
ENDBRANCH  27  33
TORSDOF 2
ENDMDL
