MODEL 1
REMARK VINA RESULT:    -3.890      0.000      0.000
REMARK INTER + INTRA:          -4.964
REMARK INTER:                  -4.799
REMARK INTRA:                  -0.165
REMARK UNBOUND:                -0.165
REMARK SMILES CCCCCC(=O)[O-]
REMARK SMILES IDX 4 1 5 2 6 3 7 4 8 5 3 6 2 7 1 8
REMARK H PARENT
REMARK Flexibility Score: inf
ROOT
ATOM      1  C   UNL     1      -1.828  36.731  16.496  1.00  0.00     0.006 C 
ENDROOT
BRANCH   1   2
ATOM      2  C   UNL     1      -3.088  36.802  17.370  1.00  0.00     0.053 C 
BRANCH   2   3
ATOM      3  C   UNL     1      -2.947  37.876  18.402  1.00  0.00     0.041 C 
ATOM      4  O   UNL     1      -3.963  38.311  19.007  1.00  0.00    -0.550 OA
ATOM      5  O   UNL     1      -1.702  38.433  18.661  1.00  0.00    -0.550 OA
ENDBRANCH   2   3
ENDBRANCH   1   2
BRANCH   1   6
ATOM      6  C   UNL     1      -1.951  37.551  15.201  1.00  0.00     0.000 C 
BRANCH   6   7
ATOM      7  C   UNL     1      -3.361  37.580  14.584  1.00  0.00    -0.003 C 
ATOM      8  C   UNL     1      -3.813  38.986  14.193  1.00  0.00     0.004 C 
ENDBRANCH   6   7
ENDBRANCH   1   6
TORSDOF 4
ENDMDL
MODEL 2
REMARK VINA RESULT:    -3.829      1.896      2.321
REMARK INTER + INTRA:          -4.890
REMARK INTER:                  -4.714
REMARK INTRA:                  -0.176
REMARK UNBOUND:                -0.165
REMARK SMILES CCCCCC(=O)[O-]
REMARK SMILES IDX 4 1 5 2 6 3 7 4 8 5 3 6 2 7 1 8
REMARK H PARENT
REMARK Flexibility Score: inf
ROOT
ATOM      1  C   UNL     1      -2.005  37.900  18.409  1.00  0.00     0.006 C 
ENDROOT
BRANCH   1   2
ATOM      2  C   UNL     1      -3.498  37.836  18.760  1.00  0.00     0.053 C 
BRANCH   2   3
ATOM      3  C   UNL     1      -3.880  36.447  19.165  1.00  0.00     0.041 C 
ATOM      4  O   UNL     1      -3.793  36.092  20.370  1.00  0.00    -0.550 OA
ATOM      5  O   UNL     1      -4.283  35.529  18.204  1.00  0.00    -0.550 OA
ENDBRANCH   2   3
ENDBRANCH   1   2
BRANCH   1   6
ATOM      6  C   UNL     1      -1.726  37.597  16.926  1.00  0.00     0.000 C 
BRANCH   6   7
ATOM      7  C   UNL     1      -2.763  38.170  15.943  1.00  0.00    -0.003 C 
ATOM      8  C   UNL     1      -2.824  37.400  14.624  1.00  0.00     0.004 C 
ENDBRANCH   6   7
ENDBRANCH   1   6
TORSDOF 4
ENDMDL
MODEL 3
REMARK VINA RESULT:    -3.779      1.400      1.684
REMARK INTER + INTRA:          -4.827
REMARK INTER:                  -4.715
REMARK INTRA:                  -0.112
REMARK UNBOUND:                -0.165
REMARK SMILES CCCCCC(=O)[O-]
REMARK SMILES IDX 4 1 5 2 6 3 7 4 8 5 3 6 2 7 1 8
REMARK H PARENT
REMARK Flexibility Score: inf
ROOT
ATOM      1  C   UNL     1      -1.833  37.557  17.280  1.00  0.00     0.006 C 
ENDROOT
BRANCH   1   2
ATOM      2  C   UNL     1      -2.203  37.943  18.719  1.00  0.00     0.053 C 
BRANCH   2   3
ATOM      3  C   UNL     1      -3.573  37.444  19.057  1.00  0.00     0.041 C 
ATOM      4  O   UNL     1      -3.860  36.228  18.902  1.00  0.00    -0.550 OA
ATOM      5  O   UNL     1      -4.546  38.331  19.496  1.00  0.00    -0.550 OA
ENDBRANCH   2   3
ENDBRANCH   1   2
BRANCH   1   6
ATOM      6  C   UNL     1      -2.749  38.211  16.231  1.00  0.00     0.000 C 
BRANCH   6   7
ATOM      7  C   UNL     1      -2.901  37.420  14.920  1.00  0.00    -0.003 C 
ATOM      8  C   UNL     1      -3.812  38.112  13.907  1.00  0.00     0.004 C 
ENDBRANCH   6   7
ENDBRANCH   1   6
TORSDOF 4
ENDMDL
MODEL 4
REMARK VINA RESULT:    -3.669      1.833      2.682
REMARK INTER + INTRA:          -4.692
REMARK INTER:                  -4.633
REMARK INTRA:                  -0.059
REMARK UNBOUND:                -0.165
REMARK SMILES CCCCCC(=O)[O-]
REMARK SMILES IDX 4 1 5 2 6 3 7 4 8 5 3 6 2 7 1 8
REMARK H PARENT
REMARK Flexibility Score: inf
ROOT
ATOM      1  C   UNL     1      -3.151  37.422  18.483  1.00  0.00     0.006 C 
ENDROOT
BRANCH   1   2
ATOM      2  C   UNL     1      -3.962  36.414  19.310  1.00  0.00     0.053 C 
BRANCH   2   3
ATOM      3  C   UNL     1      -4.974  37.125  20.152  1.00  0.00     0.041 C 
ATOM      4  O   UNL     1      -5.072  38.379  20.101  1.00  0.00    -0.550 OA
ATOM      5  O   UNL     1      -5.775  36.407  21.030  1.00  0.00    -0.550 OA
ENDBRANCH   2   3
ENDBRANCH   1   2
BRANCH   1   6
ATOM      6  C   UNL     1      -2.769  36.885  17.093  1.00  0.00     0.000 C 
BRANCH   6   7
ATOM      7  C   UNL     1      -2.592  37.964  16.009  1.00  0.00    -0.003 C 
ATOM      8  C   UNL     1      -3.137  37.535  14.646  1.00  0.00     0.004 C 
ENDBRANCH   6   7
ENDBRANCH   1   6
TORSDOF 4
ENDMDL
MODEL 5
REMARK VINA RESULT:    -3.559      2.375      4.347
REMARK INTER + INTRA:          -4.556
REMARK INTER:                  -4.426
REMARK INTRA:                  -0.130
REMARK UNBOUND:                -0.165
REMARK SMILES CCCCCC(=O)[O-]
REMARK SMILES IDX 4 1 5 2 6 3 7 4 8 5 3 6 2 7 1 8
REMARK H PARENT
REMARK Flexibility Score: inf
ROOT
ATOM      1  C   UNL     1      -3.314  38.063  18.940  1.00  0.00     0.006 C 
ENDROOT
BRANCH   1   2
ATOM      2  C   UNL     1      -1.958  37.994  18.223  1.00  0.00     0.053 C 
BRANCH   2   3
ATOM      3  C   UNL     1      -2.142  37.587  16.795  1.00  0.00     0.041 C 
ATOM      4  O   UNL     1      -1.562  36.562  16.350  1.00  0.00    -0.550 OA
ATOM      5  O   UNL     1      -2.911  38.368  15.944  1.00  0.00    -0.550 OA
ENDBRANCH   2   3
ENDBRANCH   1   2
BRANCH   1   6
ATOM      6  C   UNL     1      -3.875  36.674  19.291  1.00  0.00     0.000 C 
BRANCH   6   7
ATOM      7  C   UNL     1      -5.090  36.687  20.236  1.00  0.00    -0.003 C 
ATOM      8  C   UNL     1      -5.036  37.818  21.262  1.00  0.00     0.004 C 
ENDBRANCH   6   7
ENDBRANCH   1   6
TORSDOF 4
ENDMDL
MODEL 6
REMARK VINA RESULT:    -3.484      2.902      3.916
REMARK INTER + INTRA:          -4.464
REMARK INTER:                  -4.369
REMARK INTRA:                  -0.095
REMARK UNBOUND:                -0.165
REMARK SMILES CCCCCC(=O)[O-]
REMARK SMILES IDX 4 1 5 2 6 3 7 4 8 5 3 6 2 7 1 8
REMARK H PARENT
REMARK Flexibility Score: inf
ROOT
ATOM      1  C   UNL     1      -3.461  37.695  19.433  1.00  0.00     0.006 C 
ENDROOT
BRANCH   1   2
ATOM      2  C   UNL     1      -4.271  36.528  20.013  1.00  0.00     0.053 C 
BRANCH   2   3
ATOM      3  C   UNL     1      -5.228  37.021  21.053  1.00  0.00     0.041 C 
ATOM      4  O   UNL     1      -6.121  36.257  21.504  1.00  0.00    -0.550 OA
ATOM      5  O   UNL     1      -5.165  38.339  21.486  1.00  0.00    -0.550 OA
ENDBRANCH   2   3
ENDBRANCH   1   2
BRANCH   1   6
ATOM      6  C   UNL     1      -2.989  37.438  17.992  1.00  0.00     0.000 C 
BRANCH   6   7
ATOM      7  C   UNL     1      -1.551  37.897  17.690  1.00  0.00    -0.003 C 
ATOM      8  C   UNL     1      -0.794  38.350  18.938  1.00  0.00     0.004 C 
ENDBRANCH   6   7
ENDBRANCH   1   6
TORSDOF 4
ENDMDL
MODEL 7
REMARK VINA RESULT:    -3.471      2.835      4.865
REMARK INTER + INTRA:          -4.448
REMARK INTER:                  -4.392
REMARK INTRA:                  -0.056
REMARK UNBOUND:                -0.165
REMARK SMILES CCCCCC(=O)[O-]
REMARK SMILES IDX 4 1 5 2 6 3 7 4 8 5 3 6 2 7 1 8
REMARK H PARENT
REMARK Flexibility Score: inf
ROOT
ATOM      1  C   UNL     1      -3.858  36.611  19.183  1.00  0.00     0.006 C 
ENDROOT
BRANCH   1   2
ATOM      2  C   UNL     1      -3.466  38.023  18.725  1.00  0.00     0.053 C 
BRANCH   2   3
ATOM      3  C   UNL     1      -2.034  38.052  18.291  1.00  0.00     0.041 C 
ATOM      4  O   UNL     1      -1.677  37.443  17.248  1.00  0.00    -0.550 OA
ATOM      5  O   UNL     1      -1.086  38.708  19.064  1.00  0.00    -0.550 OA
ENDBRANCH   2   3
ENDBRANCH   1   2
BRANCH   1   6
ATOM      6  C   UNL     1      -5.149  36.591  20.020  1.00  0.00     0.000 C 
BRANCH   6   7
ATOM      7  C   UNL     1      -4.995  37.106  21.462  1.00  0.00    -0.003 C 
ATOM      8  C   UNL     1      -5.904  36.382  22.455  1.00  0.00     0.004 C 
ENDBRANCH   6   7
ENDBRANCH   1   6
TORSDOF 4
ENDMDL
MODEL 8
REMARK VINA RESULT:    -3.429      2.509      3.497
REMARK INTER + INTRA:          -4.396
REMARK INTER:                  -4.351
REMARK INTRA:                  -0.045
REMARK UNBOUND:                -0.165
REMARK SMILES CCCCCC(=O)[O-]
REMARK SMILES IDX 4 1 5 2 6 3 7 4 8 5 3 6 2 7 1 8
REMARK H PARENT
REMARK Flexibility Score: inf
ROOT
ATOM      1  C   UNL     1      -3.909  37.061  19.117  1.00  0.00     0.006 C 
ENDROOT
BRANCH   1   2
ATOM      2  C   UNL     1      -4.588  38.224  19.854  1.00  0.00     0.053 C 
BRANCH   2   3
ATOM      3  C   UNL     1      -5.111  37.769  21.179  1.00  0.00     0.041 C 
ATOM      4  O   UNL     1      -4.881  38.445  22.217  1.00  0.00    -0.550 OA
ATOM      5  O   UNL     1      -5.809  36.573  21.277  1.00  0.00    -0.550 OA
ENDBRANCH   2   3
ENDBRANCH   1   2
BRANCH   1   6
ATOM      6  C   UNL     1      -2.789  37.525  18.170  1.00  0.00     0.000 C 
BRANCH   6   7
ATOM      7  C   UNL     1      -2.759  36.815  16.805  1.00  0.00    -0.003 C 
ATOM      8  C   UNL     1      -1.685  37.367  15.868  1.00  0.00     0.004 C 
ENDBRANCH   6   7
ENDBRANCH   1   6
TORSDOF 4
ENDMDL
MODEL 9
REMARK VINA RESULT:    -3.410      4.149      6.503
REMARK INTER + INTRA:          -4.373
REMARK INTER:                  -4.272
REMARK INTRA:                  -0.100
REMARK UNBOUND:                -0.165
REMARK SMILES CCCCCC(=O)[O-]
REMARK SMILES IDX 4 1 5 2 6 3 7 4 8 5 3 6 2 7 1 8
REMARK H PARENT
REMARK Flexibility Score: inf
ROOT
ATOM      1  C   UNL     1      -5.404  36.883  21.464  1.00  0.00     0.006 C 
ENDROOT
BRANCH   1   2
ATOM      2  C   UNL     1      -4.743  38.006  20.654  1.00  0.00     0.053 C 
BRANCH   2   3
ATOM      3  C   UNL     1      -4.044  37.444  19.457  1.00  0.00     0.041 C 
ATOM      4  O   UNL     1      -3.889  36.200  19.341  1.00  0.00    -0.550 OA
ATOM      5  O   UNL     1      -3.518  38.296  18.495  1.00  0.00    -0.550 OA
ENDBRANCH   2   3
ENDBRANCH   1   2
BRANCH   1   6
ATOM      6  C   UNL     1      -4.951  36.860  22.934  1.00  0.00     0.000 C 
BRANCH   6   7
ATOM      7  C   UNL     1      -4.982  38.226  23.643  1.00  0.00    -0.003 C 
ATOM      8  C   UNL     1      -4.634  38.136  25.129  1.00  0.00     0.004 C 
ENDBRANCH   6   7
ENDBRANCH   1   6
TORSDOF 4
ENDMDL
