MODEL 1
REMARK VINA RESULT:    -3.636      0.000      0.000
REMARK INTER + INTRA:          -5.828
REMARK INTER:                  -4.911
REMARK INTRA:                  -0.917
REMARK UNBOUND:                -0.917
REMARK SMILES CC[C@H](CC[C@H](C)[C@H]1CC[C@@H]2[C@@H]3CC(=O)C4=CC(=O)CC[C@@]4(C)[C@@H]3CC[C@@]21C)C(C)C
REMARK SMILES IDX 4 1 3 2 2 3 1 4 29 5 30 6 31 7 5 8 6 9 7 10 8 11 9 12 27 13
REMARK SMILES IDX 10 14 11 15 26 16 28 17 12 18 25 19 24 20 13 21 22 22 14 23
REMARK SMILES IDX 16 24 21 25 23 26 15 27 17 28 20 29 18 30 19 31
REMARK H PARENT
REMARK Flexibility Score: inf
ROOT
ATOM      1  C   UNL     1      81.637  -1.036  29.557  1.00  0.00     0.004 C 
ENDROOT
BRANCH   1   2
ATOM      2  C   UNL     1      81.986  -0.313  30.891  1.00  0.00    -0.009 C 
BRANCH   2   3
ATOM      3  C   UNL     1      81.847   1.224  30.691  1.00  0.00     0.000 C 
ATOM      4  C   UNL     1      82.676   1.749  29.514  1.00  0.00     0.004 C 
ENDBRANCH   2   3
BRANCH   2   5
ATOM      5  C   UNL     1      81.163  -0.787  32.145  1.00  0.00    -0.014 C 
ATOM      6  C   UNL     1      81.956  -1.668  33.124  1.00  0.00     0.007 C 
ATOM      7  C   UNL     1      80.478   0.374  32.885  1.00  0.00     0.007 C 
ENDBRANCH   2   5
ENDBRANCH   1   2
BRANCH   1   8
ATOM      8  C   UNL     1      81.846  -2.563  29.591  1.00  0.00     0.004 C 
BRANCH   8   9
ATOM      9  C   UNL     1      80.566  -3.360  29.198  1.00  0.00    -0.011 C 
ATOM     10  C   UNL     1      79.511  -3.149  30.306  1.00  0.00     0.008 C 
BRANCH   9  11
ATOM     11  C   UNL     1      80.920  -4.878  28.917  1.00  0.00    -0.002 C 
ATOM     12  C   UNL     1      80.031  -5.878  29.682  1.00  0.00     0.005 C 
ATOM     13  C   UNL     1      80.719  -5.347  27.427  1.00  0.00    -0.026 C 
ATOM     14  C   UNL     1      78.822  -6.148  28.792  1.00  0.00     0.005 C 
ATOM     15  C   UNL     1      79.198  -5.657  27.379  1.00  0.00    -0.001 C 
ATOM     16  C   UNL     1      81.598  -6.629  27.146  1.00  0.00     0.007 C 
ATOM     17  C   UNL     1      81.079  -4.286  26.351  1.00  0.00     0.012 C 
ATOM     18  C   UNL     1      78.751  -6.577  26.199  1.00  0.00     0.004 C 
ATOM     19  C   UNL     1      80.810  -7.935  26.977  1.00  0.00     0.005 C 
ATOM     20  C   UNL     1      79.725  -7.785  25.889  1.00  0.00     0.003 C 
ATOM     21  C   UNL     1      77.236  -6.915  26.293  1.00  0.00     0.085 C 
ATOM     22  C   UNL     1      79.008  -9.137  25.498  1.00  0.00    -0.000 C 
ATOM     23  C   UNL     1      76.805  -7.852  25.211  1.00  0.00     0.159 C 
ATOM     24  C   UNL     1      77.788  -8.785  24.637  1.00  0.00     0.005 C 
ATOM     25  C   UNL     1      79.970 -10.122  24.737  1.00  0.00     0.020 C 
ATOM     26  C   UNL     1      78.525  -9.901  26.761  1.00  0.00     0.017 C 
ATOM     27  O   UNL     1      75.610  -7.840  24.810  1.00  0.00    -0.295 OA
ATOM     28  C   UNL     1      77.685  -9.116  23.336  1.00  0.00     0.055 C 
ATOM     29  C   UNL     1      80.145  -9.794  23.256  1.00  0.00     0.081 C 
ATOM     30  C   UNL     1      78.803  -9.723  22.609  1.00  0.00     0.156 C 
ATOM     31  O   UNL     1      78.650 -10.106  21.419  1.00  0.00    -0.295 OA
ENDBRANCH   9  11
ENDBRANCH   8   9
ENDBRANCH   1   8
TORSDOF 6
ENDMDL
MODEL 2
REMARK VINA RESULT:    -1.446      3.010      9.208
REMARK INTER + INTRA:          -2.870
REMARK INTER:                  -3.391
REMARK INTRA:                   0.521
REMARK UNBOUND:                -0.917
REMARK SMILES CC[C@H](CC[C@H](C)[C@H]1CC[C@@H]2[C@@H]3CC(=O)C4=CC(=O)CC[C@@]4(C)[C@@H]3CC[C@@]21C)C(C)C
REMARK SMILES IDX 4 1 3 2 2 3 1 4 29 5 30 6 31 7 5 8 6 9 7 10 8 11 9 12 27 13
REMARK SMILES IDX 10 14 11 15 26 16 28 17 12 18 25 19 24 20 13 21 22 22 14 23
REMARK SMILES IDX 16 24 21 25 23 26 15 27 17 28 20 29 18 30 19 31
REMARK H PARENT
REMARK Flexibility Score: inf
ROOT
ATOM      1  C   UNL     1      78.607  -9.162  22.489  1.00  0.00     0.004 C 
ENDROOT
BRANCH   1   2
ATOM      2  C   UNL     1      78.829  -9.995  21.192  1.00  0.00    -0.009 C 
BRANCH   2   3
ATOM      3  C   UNL     1      77.868  -9.477  20.082  1.00  0.00     0.000 C 
ATOM      4  C   UNL     1      76.473 -10.103  20.163  1.00  0.00     0.004 C 
ENDBRANCH   2   3
BRANCH   2   5
ATOM      5  C   UNL     1      80.311 -10.037  20.669  1.00  0.00    -0.014 C 
ATOM      6  C   UNL     1      80.668  -8.907  19.689  1.00  0.00     0.007 C 
ATOM      7  C   UNL     1      81.344 -10.122  21.805  1.00  0.00     0.007 C 
ENDBRANCH   2   5
ENDBRANCH   1   2
BRANCH   1   8
ATOM      8  C   UNL     1      78.396 -10.011  23.759  1.00  0.00     0.004 C 
BRANCH   8   9
ATOM      9  C   UNL     1      76.972  -9.849  24.368  1.00  0.00    -0.011 C 
ATOM     10  C   UNL     1      76.167  -8.893  23.461  1.00  0.00     0.008 C 
BRANCH   9  11
ATOM     11  C   UNL     1      77.063  -9.388  25.880  1.00  0.00    -0.002 C 
ATOM     12  C   UNL     1      78.145 -10.125  26.693  1.00  0.00     0.005 C 
ATOM     13  C   UNL     1      77.473  -7.882  26.097  1.00  0.00    -0.026 C 
ATOM     14  C   UNL     1      79.432  -9.324  26.526  1.00  0.00     0.005 C 
ATOM     15  C   UNL     1      79.021  -7.939  25.985  1.00  0.00    -0.001 C 
ATOM     16  C   UNL     1      76.996  -7.397  27.522  1.00  0.00     0.007 C 
ATOM     17  C   UNL     1      76.902  -6.889  25.048  1.00  0.00     0.012 C 
ATOM     18  C   UNL     1      79.771  -6.718  26.605  1.00  0.00     0.004 C 
ATOM     19  C   UNL     1      78.119  -7.170  28.543  1.00  0.00     0.005 C 
ATOM     20  C   UNL     1      79.185  -6.204  27.982  1.00  0.00     0.003 C 
ATOM     21  C   UNL     1      81.312  -6.913  26.538  1.00  0.00     0.085 C 
ATOM     22  C   UNL     1      80.264  -5.745  29.038  1.00  0.00    -0.000 C 
ATOM     23  C   UNL     1      82.046  -5.786  27.191  1.00  0.00     0.159 C 
ATOM     24  C   UNL     1      81.391  -5.036  28.275  1.00  0.00     0.005 C 
ATOM     25  C   UNL     1      79.655  -4.807  30.144  1.00  0.00     0.020 C 
ATOM     26  C   UNL     1      80.863  -6.963  29.794  1.00  0.00     0.017 C 
ATOM     27  O   UNL     1      83.214  -5.496  26.815  1.00  0.00    -0.295 OA
ATOM     28  C   UNL     1      81.657  -3.723  28.408  1.00  0.00     0.055 C 
ATOM     29  C   UNL     1      79.485  -3.356  29.698  1.00  0.00     0.081 C 
ATOM     30  C   UNL     1      80.792  -2.842  29.197  1.00  0.00     0.156 C 
ATOM     31  O   UNL     1      81.114  -1.638  29.380  1.00  0.00    -0.295 OA
ENDBRANCH   9  11
ENDBRANCH   8   9
ENDBRANCH   1   8
TORSDOF 6
ENDMDL
MODEL 3
REMARK VINA RESULT:    -0.740      4.311      9.733
REMARK INTER + INTRA:          -1.917
REMARK INTER:                  -1.294
REMARK INTRA:                  -0.623
REMARK UNBOUND:                -0.917
REMARK SMILES CC[C@H](CC[C@H](C)[C@H]1CC[C@@H]2[C@@H]3CC(=O)C4=CC(=O)CC[C@@]4(C)[C@@H]3CC[C@@]21C)C(C)C
REMARK SMILES IDX 4 1 3 2 2 3 1 4 29 5 30 6 31 7 5 8 6 9 7 10 8 11 9 12 27 13
REMARK SMILES IDX 10 14 11 15 26 16 28 17 12 18 25 19 24 20 13 21 22 22 14 23
REMARK SMILES IDX 16 24 21 25 23 26 15 27 17 28 20 29 18 30 19 31
REMARK H PARENT
REMARK Flexibility Score: inf
ROOT
ATOM      1  C   UNL     1      78.852  -9.187  19.000  1.00  0.00     0.004 C 
ENDROOT
BRANCH   1   2
ATOM      2  C   UNL     1      79.870  -9.503  17.865  1.00  0.00    -0.009 C 
BRANCH   2   3
ATOM      3  C   UNL     1      79.335  -8.923  16.523  1.00  0.00     0.000 C 
ATOM      4  C   UNL     1      80.230  -7.818  15.953  1.00  0.00     0.004 C 
ENDBRANCH   2   3
BRANCH   2   5
ATOM      5  C   UNL     1      81.343  -9.019  18.132  1.00  0.00    -0.014 C 
ATOM      6  C   UNL     1      81.598  -8.539  19.571  1.00  0.00     0.007 C 
ATOM      7  C   UNL     1      82.399 -10.051  17.705  1.00  0.00     0.007 C 
ENDBRANCH   2   5
ENDBRANCH   1   2
BRANCH   1   8
ATOM      8  C   UNL     1      78.953 -10.125  20.220  1.00  0.00     0.004 C 
BRANCH   8   9
ATOM      9  C   UNL     1      77.844  -9.861  21.281  1.00  0.00    -0.011 C 
ATOM     10  C   UNL     1      76.493  -9.738  20.545  1.00  0.00     0.008 C 
BRANCH   9  11
ATOM     11  C   UNL     1      78.216  -8.606  22.173  1.00  0.00    -0.002 C 
ATOM     12  C   UNL     1      76.992  -7.843  22.717  1.00  0.00     0.005 C 
ATOM     13  C   UNL     1      79.000  -8.936  23.500  1.00  0.00    -0.026 C 
ATOM     14  C   UNL     1      76.632  -8.496  24.047  1.00  0.00     0.005 C 
ATOM     15  C   UNL     1      77.856  -9.333  24.472  1.00  0.00    -0.001 C 
ATOM     16  C   UNL     1      79.783  -7.656  23.990  1.00  0.00     0.007 C 
ATOM     17  C   UNL     1      80.025 -10.098  23.384  1.00  0.00     0.012 C 
ATOM     18  C   UNL     1      78.229  -9.268  25.987  1.00  0.00     0.004 C 
ATOM     19  C   UNL     1      79.223  -6.995  25.257  1.00  0.00     0.005 C 
ATOM     20  C   UNL     1      79.107  -8.020  26.406  1.00  0.00     0.003 C 
ATOM     21  C   UNL     1      76.997  -9.580  26.883  1.00  0.00     0.085 C 
ATOM     22  C   UNL     1      78.743  -7.387  27.806  1.00  0.00    -0.000 C 
ATOM     23  C   UNL     1      77.318  -9.454  28.337  1.00  0.00     0.159 C 
ATOM     24  C   UNL     1      78.388  -8.537  28.759  1.00  0.00     0.005 C 
ATOM     25  C   UNL     1      79.915  -6.514  28.387  1.00  0.00     0.020 C 
ATOM     26  C   UNL     1      77.519  -6.438  27.691  1.00  0.00     0.017 C 
ATOM     27  O   UNL     1      76.666 -10.125  29.184  1.00  0.00    -0.295 OA
ATOM     28  C   UNL     1      79.132  -8.858  29.834  1.00  0.00     0.055 C 
ATOM     29  C   UNL     1      81.022  -7.331  29.052  1.00  0.00     0.081 C 
ATOM     30  C   UNL     1      80.421  -8.212  30.094  1.00  0.00     0.156 C 
ATOM     31  O   UNL     1      81.053  -8.466  31.154  1.00  0.00    -0.295 OA
ENDBRANCH   9  11
ENDBRANCH   8   9
ENDBRANCH   1   8
TORSDOF 6
ENDMDL
